MODEL 1
REMARK VINA RESULT:      -6.2      0.000      0.000
REMARK  8 active torsions:
REMARK  status: ('A' for Active; 'I' for Inactive)
REMARK    1  A    between atoms: C_1  and  C_2 
REMARK    2  A    between atoms: C_10  and  C_14 
REMARK    3  A    between atoms: C_18  and  C_20 
REMARK    4  A    between atoms: C_20  and  N_52 
REMARK    5  A    between atoms: C_21  and  C_22 
REMARK    6  A    between atoms: C_21  and  N_52 
REMARK    7  A    between atoms: C_22  and  C_23 
REMARK    8  A    between atoms: C_22  and  C_24 
ROOT
ATOM      1  C   LIG d   1       3.261  -0.358  -4.194  0.00  0.00    -0.073 C 
ATOM      2  C   LIG d   1       4.217  -0.964  -4.834  0.00  0.00    -0.064 C 
ATOM      3  C   LIG d   1       4.328  -0.770  -6.331  0.00  0.00    -0.024 C 
ATOM      4  C   LIG d   1       5.738  -0.298  -6.700  0.00  0.00     0.018 C 
ATOM      5  H   LIG d   1       5.879   0.771  -6.541  0.00  0.00     0.035 H 
ATOM      6  C   LIG d   1       6.807  -1.172  -6.018  0.00  0.00     0.108 C 
ATOM      7  H   LIG d   1       7.782  -0.719  -6.198  0.00  0.00     0.074 H 
ATOM      8  C   LIG d   1       6.626  -1.329  -4.533  0.00  0.00    -0.006 C 
ATOM      9  C   LIG d   1       5.233  -1.859  -4.181  0.00  0.00    -0.007 C 
ATOM     10  C   LIG d   1       5.080  -1.928  -2.670  0.00  0.00    -0.043 C 
ATOM     11  C   LIG d   1       3.610  -1.847  -2.263  0.00  0.00    -0.049 C 
ATOM     12  C   LIG d   1       3.059  -0.489  -2.712  0.00  0.00    -0.032 C 
ATOM     13  O   LIG d   1       6.758  -2.419  -6.763  0.00  0.00    -0.461 OA
ATOM     14  C   LIG d   1       6.634  -2.090  -8.070  0.00  0.00     0.316 C 
ATOM     15  O   LIG d   1       7.000  -2.767  -9.001  0.00  0.00    -0.250 OA
ATOM     16  C   LIG d   1       5.961  -0.733  -8.181  0.00  0.00     0.102 C 
ATOM     17  H   LIG d   1       5.008  -0.820  -8.703  0.00  0.00     0.047 H 
ATOM     18  H   LIG d   1       3.602  -0.025  -6.654  0.00  0.00     0.031 H 
ATOM     19  H   LIG d   1       4.122  -1.716  -6.834  0.00  0.00     0.031 H 
ATOM     20  H   LIG d   1       6.768  -0.360  -4.053  0.00  0.00     0.031 H 
ATOM     21  H   LIG d   1       7.376  -2.025  -4.156  0.00  0.00     0.031 H 
ATOM     22  H   LIG d   1       5.499  -2.867  -2.310  0.00  0.00     0.027 H 
ATOM     23  H   LIG d   1       5.623  -1.098  -2.218  0.00  0.00     0.027 H 
ATOM     24  H   LIG d   1       3.050  -2.649  -2.746  0.00  0.00     0.027 H 
ATOM     25  H   LIG d   1       3.523  -1.940  -1.180  0.00  0.00     0.027 H 
ATOM     26  H   LIG d   1       1.995  -0.431  -2.481  0.00  0.00     0.031 H 
ATOM     27  H   LIG d   1       3.590   0.310  -2.195  0.00  0.00     0.031 H 
ENDROOT
BRANCH  16  28
ATOM     28  C   LIG d   1       6.876   0.261  -8.900  0.00  0.00    -0.020 C 
ATOM     29  H   LIG d   1       7.342   0.920  -8.168  0.00  0.00     0.082 H 
ATOM     30  H   LIG d   1       7.649  -0.284  -9.443  0.00  0.00     0.082 H 
BRANCH  28  31
ATOM     31  N   LIG d   1       6.075   1.059  -9.846  0.00  0.00     0.228 N 
ATOM     32  H   LIG d   1       5.367   0.458 -10.282  0.00  0.00     0.201 HD
ATOM     33  H   LIG d   1       6.691   1.445 -10.570  0.00  0.00     0.201 HD
BRANCH  31  34
ATOM     34  C   LIG d   1       5.403   2.167  -9.139  0.00  0.00    -0.031 C 
ATOM     35  H   LIG d   1       5.384   1.961  -8.069  0.00  0.00     0.082 H 
ATOM     36  H   LIG d   1       5.942   3.097  -9.319  0.00  0.00     0.082 H 
BRANCH  34  37
ATOM     37  C   LIG d   1       3.971   2.298  -9.659  0.00  0.00    -0.006 C 
ATOM     38  H   LIG d   1       3.811   3.309 -10.035  0.00  0.00     0.035 H 
BRANCH  37  39
ATOM     39  C   LIG d   1       3.745   1.293 -10.791  0.00  0.00    -0.058 C 
ATOM     40  H   LIG d   1       3.630   0.294 -10.372  0.00  0.00     0.023 H 
ATOM     41  H   LIG d   1       2.844   1.563 -11.342  0.00  0.00     0.023 H 
ATOM     42  H   LIG d   1       4.601   1.307 -11.465  0.00  0.00     0.023 H 
ENDBRANCH  37  39
BRANCH  37  43
ATOM     43  C   LIG d   1       2.986   2.016  -8.522  0.00  0.00    -0.058 C 
ATOM     44  H   LIG d   1       2.692   2.955  -8.055  0.00  0.00     0.023 H 
ATOM     45  H   LIG d   1       2.104   1.515  -8.922  0.00  0.00     0.023 H 
ATOM     46  H   LIG d   1       3.463   1.374  -7.781  0.00  0.00     0.023 H 
ENDBRANCH  37  43
ENDBRANCH  34  37
ENDBRANCH  31  34
ENDBRANCH  28  31
ENDBRANCH  16  28
BRANCH   1  47
ATOM     47  C   LIG d   1       2.315   0.517  -4.976  0.00  0.00    -0.043 C 
ATOM     48  H   LIG d   1       2.214   1.481  -4.476  0.00  0.00     0.027 H 
ATOM     49  H   LIG d   1       2.708   0.670  -5.981  0.00  0.00     0.027 H 
ATOM     50  H   LIG d   1       1.340   0.035  -5.037  0.00  0.00     0.027 H 
ENDBRANCH   1  47
BRANCH   9  51
ATOM     51  C   LIG d   1       5.084  -3.273  -4.746  0.00  0.00    -0.056 C 
ATOM     52  H   LIG d   1       5.100  -3.233  -5.835  0.00  0.00     0.024 H 
ATOM     53  H   LIG d   1       5.907  -3.894  -4.393  0.00  0.00     0.024 H 
ATOM     54  H   LIG d   1       4.137  -3.700  -4.412  0.00  0.00     0.024 H 
ENDBRANCH   9  51
TORSDOF 8
ENDMDL
MODEL 2
REMARK VINA RESULT:      -6.0      4.494      5.555
REMARK  8 active torsions:
REMARK  status: ('A' for Active; 'I' for Inactive)
REMARK    1  A    between atoms: C_1  and  C_2 
REMARK    2  A    between atoms: C_10  and  C_14 
REMARK    3  A    between atoms: C_18  and  C_20 
REMARK    4  A    between atoms: C_20  and  N_52 
REMARK    5  A    between atoms: C_21  and  C_22 
REMARK    6  A    between atoms: C_21  and  N_52 
REMARK    7  A    between atoms: C_22  and  C_23 
REMARK    8  A    between atoms: C_22  and  C_24 
ROOT
ATOM      1  C   LIG d   1       4.897  -0.249  -2.344  0.00  0.00    -0.073 C 
ATOM      2  C   LIG d   1       5.693  -0.098  -3.361  0.00  0.00    -0.064 C 
ATOM      3  C   LIG d   1       6.258   1.278  -3.645  0.00  0.00    -0.024 C 
ATOM      4  C   LIG d   1       7.786   1.214  -3.733  0.00  0.00     0.018 C 
ATOM      5  H   LIG d   1       8.264   1.208  -2.754  0.00  0.00     0.035 H 
ATOM      6  C   LIG d   1       8.236   0.060  -4.648  0.00  0.00     0.108 C 
ATOM      7  H   LIG d   1       9.320  -0.031  -4.573  0.00  0.00     0.074 H 
ATOM      8  C   LIG d   1       7.625  -1.274  -4.314  0.00  0.00    -0.006 C 
ATOM      9  C   LIG d   1       6.096  -1.210  -4.288  0.00  0.00    -0.007 C 
ATOM     10  C   LIG d   1       5.536  -2.561  -3.874  0.00  0.00    -0.043 C 
ATOM     11  C   LIG d   1       4.149  -2.413  -3.253  0.00  0.00    -0.049 C 
ATOM     12  C   LIG d   1       4.277  -1.568  -1.981  0.00  0.00    -0.032 C 
ATOM     13  O   LIG d   1       7.929   0.542  -5.985  0.00  0.00    -0.461 OA
ATOM     14  C   LIG d   1       8.285   1.848  -6.022  0.00  0.00     0.316 C 
ATOM     15  O   LIG d   1       8.606   2.458  -7.014  0.00  0.00    -0.250 OA
ATOM     16  C   LIG d   1       8.214   2.424  -4.619  0.00  0.00     0.102 C 
ATOM     17  H   LIG d   1       7.470   3.218  -4.567  0.00  0.00     0.047 H 
ATOM     18  H   LIG d   1       5.970   1.959  -2.844  0.00  0.00     0.031 H 
ATOM     19  H   LIG d   1       5.857   1.644  -4.590  0.00  0.00     0.031 H 
ATOM     20  H   LIG d   1       7.984  -1.593  -3.335  0.00  0.00     0.031 H 
ATOM     21  H   LIG d   1       7.938  -2.003  -5.061  0.00  0.00     0.031 H 
ATOM     22  H   LIG d   1       5.468  -3.204  -4.751  0.00  0.00     0.027 H 
ATOM     23  H   LIG d   1       6.207  -3.018  -3.147  0.00  0.00     0.027 H 
ATOM     24  H   LIG d   1       3.481  -1.917  -3.958  0.00  0.00     0.027 H 
ATOM     25  H   LIG d   1       3.751  -3.397  -3.002  0.00  0.00     0.027 H 
ATOM     26  H   LIG d   1       3.289  -1.402  -1.550  0.00  0.00     0.031 H 
ATOM     27  H   LIG d   1       4.909  -2.086  -1.259  0.00  0.00     0.031 H 
ENDROOT
BRANCH  16  28
ATOM     28  C   LIG d   1       9.587   2.946  -4.186  0.00  0.00    -0.020 C 
ATOM     29  H   LIG d   1       9.619   3.024  -3.100  0.00  0.00     0.082 H 
ATOM     30  H   LIG d   1      10.361   2.257  -4.525  0.00  0.00     0.082 H 
BRANCH  28  31
ATOM     31  N   LIG d   1       9.808   4.275  -4.785  0.00  0.00     0.228 N 
ATOM     32  H   LIG d   1       8.908   4.758  -4.881  0.00  0.00     0.201 HD
ATOM     33  H   LIG d   1      10.237   4.162  -5.711  0.00  0.00     0.201 HD
BRANCH  31  34
ATOM     34  C   LIG d   1      10.703   5.079  -3.931  0.00  0.00    -0.031 C 
ATOM     35  H   LIG d   1      11.673   4.588  -3.851  0.00  0.00     0.082 H 
ATOM     36  H   LIG d   1      10.834   6.070  -4.366  0.00  0.00     0.082 H 
BRANCH  34  37
ATOM     37  C   LIG d   1      10.082   5.213  -2.539  0.00  0.00    -0.006 C 
ATOM     38  H   LIG d   1       9.283   4.481  -2.426  0.00  0.00     0.035 H 
BRANCH  37  39
ATOM     39  C   LIG d   1      11.155   4.964  -1.477  0.00  0.00    -0.058 C 
ATOM     40  H   LIG d   1      10.718   4.423  -0.638  0.00  0.00     0.023 H 
ATOM     41  H   LIG d   1      11.964   4.375  -1.909  0.00  0.00     0.023 H 
ATOM     42  H   LIG d   1      11.548   5.919  -1.127  0.00  0.00     0.023 H 
ENDBRANCH  37  39
BRANCH  37  43
ATOM     43  C   LIG d   1       9.512   6.622  -2.368  0.00  0.00    -0.058 C 
ATOM     44  H   LIG d   1       9.267   6.789  -1.319  0.00  0.00     0.023 H 
ATOM     45  H   LIG d   1      10.251   7.355  -2.691  0.00  0.00     0.023 H 
ATOM     46  H   LIG d   1       8.610   6.725  -2.973  0.00  0.00     0.023 H 
ENDBRANCH  37  43
ENDBRANCH  34  37
ENDBRANCH  31  34
ENDBRANCH  28  31
ENDBRANCH  16  28
BRANCH   1  47
ATOM     47  C   LIG d   1       4.582   0.955  -1.492  0.00  0.00    -0.043 C 
ATOM     48  H   LIG d   1       4.614   1.854  -2.108  0.00  0.00     0.027 H 
ATOM     49  H   LIG d   1       3.587   0.844  -1.062  0.00  0.00     0.027 H 
ATOM     50  H   LIG d   1       5.318   1.036  -0.692  0.00  0.00     0.027 H 
ENDBRANCH   1  47
BRANCH   9  51
ATOM     51  C   LIG d   1       5.590  -0.890  -5.696  0.00  0.00    -0.056 C 
ATOM     52  H   LIG d   1       4.635  -1.389  -5.862  0.00  0.00     0.024 H 
ATOM     53  H   LIG d   1       5.460   0.187  -5.799  0.00  0.00     0.024 H 
ATOM     54  H   LIG d   1       6.316  -1.240  -6.432  0.00  0.00     0.024 H 
ENDBRANCH   9  51
TORSDOF 8
ENDMDL
MODEL 3
REMARK VINA RESULT:      -6.0      1.303      1.539
REMARK  8 active torsions:
REMARK  status: ('A' for Active; 'I' for Inactive)
REMARK    1  A    between atoms: C_1  and  C_2 
REMARK    2  A    between atoms: C_10  and  C_14 
REMARK    3  A    between atoms: C_18  and  C_20 
REMARK    4  A    between atoms: C_20  and  N_52 
REMARK    5  A    between atoms: C_21  and  C_22 
REMARK    6  A    between atoms: C_21  and  N_52 
REMARK    7  A    between atoms: C_22  and  C_23 
REMARK    8  A    between atoms: C_22  and  C_24 
ROOT
ATOM      1  C   LIG d   1       3.406   0.381  -4.048  0.00  0.00    -0.073 C 
ATOM      2  C   LIG d   1       4.431  -0.221  -4.573  0.00  0.00    -0.064 C 
ATOM      3  C   LIG d   1       4.262  -0.920  -5.906  0.00  0.00    -0.024 C 
ATOM      4  C   LIG d   1       5.310  -0.418  -6.903  0.00  0.00     0.018 C 
ATOM      5  H   LIG d   1       5.039   0.535  -7.356  0.00  0.00     0.035 H 
ATOM      6  C   LIG d   1       6.716  -0.425  -6.274  0.00  0.00     0.108 C 
ATOM      7  H   LIG d   1       7.402   0.063  -6.967  0.00  0.00     0.074 H 
ATOM      8  C   LIG d   1       6.806   0.276  -4.946  0.00  0.00    -0.006 C 
ATOM      9  C   LIG d   1       5.793  -0.275  -3.939  0.00  0.00    -0.007 C 
ATOM     10  C   LIG d   1       5.878   0.517  -2.645  0.00  0.00    -0.043 C 
ATOM     11  C   LIG d   1       4.561   0.449  -1.873  0.00  0.00    -0.049 C 
ATOM     12  C   LIG d   1       3.466   1.096  -2.728  0.00  0.00    -0.032 C 
ATOM     13  O   LIG d   1       7.065  -1.836  -6.232  0.00  0.00    -0.461 OA
ATOM     14  C   LIG d   1       6.654  -2.377  -7.402  0.00  0.00     0.316 C 
ATOM     15  O   LIG d   1       7.133  -3.352  -7.929  0.00  0.00    -0.250 OA
ATOM     16  C   LIG d   1       5.493  -1.564  -7.945  0.00  0.00     0.102 C 
ATOM     17  H   LIG d   1       4.591  -2.174  -8.005  0.00  0.00     0.047 H 
ATOM     18  H   LIG d   1       3.265  -0.715  -6.296  0.00  0.00     0.031 H 
ATOM     19  H   LIG d   1       4.381  -1.995  -5.768  0.00  0.00     0.031 H 
ATOM     20  H   LIG d   1       6.617   1.340  -5.093  0.00  0.00     0.031 H 
ATOM     21  H   LIG d   1       7.812   0.147  -4.545  0.00  0.00     0.031 H 
ATOM     22  H   LIG d   1       6.676   0.107  -2.026  0.00  0.00     0.027 H 
ATOM     23  H   LIG d   1       6.103   1.557  -2.876  0.00  0.00     0.027 H 
ATOM     24  H   LIG d   1       4.305  -0.592  -1.674  0.00  0.00     0.027 H 
ATOM     25  H   LIG d   1       4.659   0.989  -0.931  0.00  0.00     0.027 H 
ATOM     26  H   LIG d   1       2.506   1.009  -2.221  0.00  0.00     0.031 H 
ATOM     27  H   LIG d   1       3.702   2.148  -2.889  0.00  0.00     0.031 H 
ENDROOT
BRANCH  16  28
ATOM     28  C   LIG d   1       5.841  -0.988  -9.320  0.00  0.00    -0.020 C 
ATOM     29  H   LIG d   1       6.449  -0.093  -9.195  0.00  0.00     0.082 H 
ATOM     30  H   LIG d   1       6.398  -1.729  -9.894  0.00  0.00     0.082 H 
BRANCH  28  31
ATOM     31  N   LIG d   1       4.595  -0.645 -10.030  0.00  0.00     0.228 N 
ATOM     32  H   LIG d   1       3.813  -0.649  -9.364  0.00  0.00     0.201 HD
ATOM     33  H   LIG d   1       4.422  -1.339 -10.766  0.00  0.00     0.201 HD
BRANCH  31  34
ATOM     34  C   LIG d   1       4.705   0.694 -10.641  0.00  0.00    -0.031 C 
ATOM     35  H   LIG d   1       5.667   1.137 -10.382  0.00  0.00     0.082 H 
ATOM     36  H   LIG d   1       4.625   0.610 -11.725  0.00  0.00     0.082 H 
BRANCH  34  37
ATOM     37  C   LIG d   1       3.576   1.581 -10.114  0.00  0.00    -0.006 C 
ATOM     38  H   LIG d   1       3.041   2.025 -10.953  0.00  0.00     0.035 H 
BRANCH  37  39
ATOM     39  C   LIG d   1       2.609   0.735  -9.283  0.00  0.00    -0.058 C 
ATOM     40  H   LIG d   1       2.310  -0.143  -9.854  0.00  0.00     0.023 H 
ATOM     41  H   LIG d   1       3.101   0.421  -8.363  0.00  0.00     0.023 H 
ATOM     42  H   LIG d   1       1.727   1.327  -9.039  0.00  0.00     0.023 H 
ENDBRANCH  37  39
BRANCH  37  43
ATOM     43  C   LIG d   1       4.164   2.691  -9.240  0.00  0.00    -0.058 C 
ATOM     44  H   LIG d   1       5.252   2.662  -9.301  0.00  0.00     0.023 H 
ATOM     45  H   LIG d   1       3.805   3.658  -9.590  0.00  0.00     0.023 H 
ATOM     46  H   LIG d   1       3.853   2.540  -8.205  0.00  0.00     0.023 H 
ENDBRANCH  37  43
ENDBRANCH  34  37
ENDBRANCH  31  34
ENDBRANCH  28  31
ENDBRANCH  16  28
BRANCH   1  47
ATOM     47  C   LIG d   1       2.099   0.362  -4.799  0.00  0.00    -0.043 C 
ATOM     48  H   LIG d   1       1.652   1.356  -4.775  0.00  0.00     0.027 H 
ATOM     49  H   LIG d   1       2.279   0.069  -5.833  0.00  0.00     0.027 H 
ATOM     50  H   LIG d   1       1.422  -0.352  -4.331  0.00  0.00     0.027 H 
ENDBRANCH   1  47
BRANCH   9  51
ATOM     51  C   LIG d   1       6.141  -1.734  -3.636  0.00  0.00    -0.056 C 
ATOM     52  H   LIG d   1       5.448  -2.390  -4.162  0.00  0.00     0.024 H 
ATOM     53  H   LIG d   1       7.159  -1.942  -3.966  0.00  0.00     0.024 H 
ATOM     54  H   LIG d   1       6.065  -1.910  -2.562  0.00  0.00     0.024 H 
ENDBRANCH   9  51
TORSDOF 8
ENDMDL
MODEL 4
REMARK VINA RESULT:      -5.7      3.150      6.586
REMARK  8 active torsions:
REMARK  status: ('A' for Active; 'I' for Inactive)
REMARK    1  A    between atoms: C_1  and  C_2 
REMARK    2  A    between atoms: C_10  and  C_14 
REMARK    3  A    between atoms: C_18  and  C_20 
REMARK    4  A    between atoms: C_20  and  N_52 
REMARK    5  A    between atoms: C_21  and  C_22 
REMARK    6  A    between atoms: C_21  and  N_52 
REMARK    7  A    between atoms: C_22  and  C_23 
REMARK    8  A    between atoms: C_22  and  C_24 
ROOT
ATOM      1  C   LIG d   1       3.470  -3.218 -10.612  0.00  0.00    -0.073 C 
ATOM      2  C   LIG d   1       3.270  -2.162  -9.880  0.00  0.00    -0.064 C 
ATOM      3  C   LIG d   1       3.568  -2.238  -8.397  0.00  0.00    -0.024 C 
ATOM      4  C   LIG d   1       4.522  -1.110  -7.991  0.00  0.00     0.018 C 
ATOM      5  H   LIG d   1       5.562  -1.335  -8.222  0.00  0.00     0.035 H 
ATOM      6  C   LIG d   1       4.043   0.243  -8.549  0.00  0.00     0.108 C 
ATOM      7  H   LIG d   1       4.816   0.985  -8.352  0.00  0.00     0.074 H 
ATOM      8  C   LIG d   1       3.755   0.240 -10.026  0.00  0.00    -0.006 C 
ATOM      9  C   LIG d   1       2.754  -0.853 -10.410  0.00  0.00    -0.007 C 
ATOM     10  C   LIG d   1       2.558  -0.859 -11.917  0.00  0.00    -0.043 C 
ATOM     11  C   LIG d   1       2.099  -2.231 -12.405  0.00  0.00    -0.049 C 
ATOM     12  C   LIG d   1       3.200  -3.250 -12.089  0.00  0.00    -0.032 C 
ATOM     13  O   LIG d   1       2.898   0.572  -7.716  0.00  0.00    -0.461 OA
ATOM     14  C   LIG d   1       3.230   0.244  -6.446  0.00  0.00     0.316 C 
ATOM     15  O   LIG d   1       2.772   0.751  -5.449  0.00  0.00    -0.250 OA
ATOM     16  C   LIG d   1       4.269  -0.862  -6.472  0.00  0.00     0.102 C 
ATOM     17  H   LIG d   1       3.882  -1.763  -5.996  0.00  0.00     0.047 H 
ATOM     18  H   LIG d   1       4.027  -3.199  -8.169  0.00  0.00     0.031 H 
ATOM     19  H   LIG d   1       2.637  -2.142  -7.837  0.00  0.00     0.031 H 
ATOM     20  H   LIG d   1       4.686   0.074 -10.568  0.00  0.00     0.031 H 
ATOM     21  H   LIG d   1       3.347   1.210 -10.309  0.00  0.00     0.031 H 
ATOM     22  H   LIG d   1       1.807  -0.115 -12.183  0.00  0.00     0.027 H 
ATOM     23  H   LIG d   1       3.501  -0.604 -12.401  0.00  0.00     0.027 H 
ATOM     24  H   LIG d   1       1.178  -2.514 -11.894  0.00  0.00     0.027 H 
ATOM     25  H   LIG d   1       1.926  -2.200 -13.482  0.00  0.00     0.027 H 
ATOM     26  H   LIG d   1       2.870  -4.248 -12.379  0.00  0.00     0.031 H 
ATOM     27  H   LIG d   1       4.106  -2.991 -12.636  0.00  0.00     0.031 H 
ENDROOT
BRANCH  16  28
ATOM     28  C   LIG d   1       5.556  -0.403  -5.782  0.00  0.00    -0.020 C 
ATOM     29  H   LIG d   1       6.245  -1.245  -5.703  0.00  0.00     0.082 H 
ATOM     30  H   LIG d   1       6.019   0.392  -6.367  0.00  0.00     0.082 H 
BRANCH  28  31
ATOM     31  N   LIG d   1       5.230   0.097  -4.434  0.00  0.00     0.228 N 
ATOM     32  H   LIG d   1       4.216   0.240  -4.361  0.00  0.00     0.201 HD
ATOM     33  H   LIG d   1       5.714   0.989  -4.278  0.00  0.00     0.201 HD
BRANCH  31  34
ATOM     34  C   LIG d   1       5.659  -0.874  -3.409  0.00  0.00    -0.031 C 
ATOM     35  H   LIG d   1       5.692  -1.874  -3.842  0.00  0.00     0.082 H 
ATOM     36  H   LIG d   1       6.650  -0.606  -3.042  0.00  0.00     0.082 H 
BRANCH  34  37
ATOM     37  C   LIG d   1       4.663  -0.853  -2.249  0.00  0.00    -0.006 C 
ATOM     38  H   LIG d   1       5.080  -1.395  -1.401  0.00  0.00     0.035 H 
BRANCH  37  39
ATOM     39  C   LIG d   1       4.387   0.596  -1.841  0.00  0.00    -0.058 C 
ATOM     40  H   LIG d   1       5.049   1.262  -2.393  0.00  0.00     0.023 H 
ATOM     41  H   LIG d   1       3.350   0.845  -2.067  0.00  0.00     0.023 H 
ATOM     42  H   LIG d   1       4.564   0.713  -0.772  0.00  0.00     0.023 H 
ENDBRANCH  37  39
BRANCH  37  43
ATOM     43  C   LIG d   1       3.356  -1.517  -2.686  0.00  0.00    -0.058 C 
ATOM     44  H   LIG d   1       3.202  -2.429  -2.109  0.00  0.00     0.023 H 
ATOM     45  H   LIG d   1       2.525  -0.832  -2.515  0.00  0.00     0.023 H 
ATOM     46  H   LIG d   1       3.410  -1.763  -3.747  0.00  0.00     0.023 H 
ENDBRANCH  37  43
ENDBRANCH  34  37
ENDBRANCH  31  34
ENDBRANCH  28  31
ENDBRANCH  16  28
BRANCH   1  47
ATOM     47  C   LIG d   1       3.998  -4.464  -9.948  0.00  0.00    -0.043 C 
ATOM     48  H   LIG d   1       3.272  -4.822  -9.219  0.00  0.00     0.027 H 
ATOM     49  H   LIG d   1       4.166  -5.233 -10.702  0.00  0.00     0.027 H 
ATOM     50  H   LIG d   1       4.938  -4.237  -9.445  0.00  0.00     0.027 H 
ENDBRANCH   1  47
BRANCH   9  51
ATOM     51  C   LIG d   1       1.408  -0.547  -9.749  0.00  0.00    -0.056 C 
ATOM     52  H   LIG d   1       0.613  -0.631 -10.490  0.00  0.00     0.024 H 
ATOM     53  H   LIG d   1       1.230  -1.255  -8.941  0.00  0.00     0.024 H 
ATOM     54  H   LIG d   1       1.424   0.467  -9.347  0.00  0.00     0.024 H 
ENDBRANCH   9  51
TORSDOF 8
ENDMDL
MODEL 5
REMARK VINA RESULT:      -5.7      1.757      2.122
REMARK  8 active torsions:
REMARK  status: ('A' for Active; 'I' for Inactive)
REMARK    1  A    between atoms: C_1  and  C_2 
REMARK    2  A    between atoms: C_10  and  C_14 
REMARK    3  A    between atoms: C_18  and  C_20 
REMARK    4  A    between atoms: C_20  and  N_52 
REMARK    5  A    between atoms: C_21  and  C_22 
REMARK    6  A    between atoms: C_21  and  N_52 
REMARK    7  A    between atoms: C_22  and  C_23 
REMARK    8  A    between atoms: C_22  and  C_24 
ROOT
ATOM      1  C   LIG d   1       3.427   0.386  -3.949  0.00  0.00    -0.073 C 
ATOM      2  C   LIG d   1       4.462  -0.254  -4.405  0.00  0.00    -0.064 C 
ATOM      3  C   LIG d   1       4.291  -1.146  -5.617  0.00  0.00    -0.024 C 
ATOM      4  C   LIG d   1       5.301  -0.762  -6.702  0.00  0.00     0.018 C 
ATOM      5  H   LIG d   1       4.987   0.105  -7.283  0.00  0.00     0.035 H 
ATOM      6  C   LIG d   1       6.718  -0.632  -6.113  0.00  0.00     0.108 C 
ATOM      7  H   LIG d   1       7.373  -0.230  -6.887  0.00  0.00     0.074 H 
ATOM      8  C   LIG d   1       6.810   0.259  -4.905  0.00  0.00    -0.006 C 
ATOM      9  C   LIG d   1       5.837  -0.170  -3.804  0.00  0.00    -0.007 C 
ATOM     10  C   LIG d   1       5.919   0.805  -2.641  0.00  0.00    -0.043 C 
ATOM     11  C   LIG d   1       4.621   0.809  -1.836  0.00  0.00    -0.049 C 
ATOM     12  C   LIG d   1       3.488   1.289  -2.749  0.00  0.00    -0.032 C 
ATOM     13  O   LIG d   1       7.118  -2.009  -5.874  0.00  0.00    -0.461 OA
ATOM     14  C   LIG d   1       6.703  -2.729  -6.942  0.00  0.00     0.316 C 
ATOM     15  O   LIG d   1       7.205  -3.756  -7.333  0.00  0.00    -0.250 OA
ATOM     16  C   LIG d   1       5.503  -2.043  -7.570  0.00  0.00     0.102 C 
ATOM     17  H   LIG d   1       4.623  -2.684  -7.517  0.00  0.00     0.047 H 
ATOM     18  H   LIG d   1       3.280  -1.033  -6.008  0.00  0.00     0.031 H 
ATOM     19  H   LIG d   1       4.450  -2.184  -5.326  0.00  0.00     0.031 H 
ATOM     20  H   LIG d   1       6.580   1.283  -5.201  0.00  0.00     0.031 H 
ATOM     21  H   LIG d   1       7.827   0.223  -4.515  0.00  0.00     0.031 H 
ATOM     22  H   LIG d   1       6.743   0.517  -1.989  0.00  0.00     0.027 H 
ATOM     23  H   LIG d   1       6.103   1.807  -3.028  0.00  0.00     0.027 H 
ATOM     24  H   LIG d   1       4.406  -0.199  -1.481  0.00  0.00     0.027 H 
ATOM     25  H   LIG d   1       4.718   1.485  -0.985  0.00  0.00     0.027 H 
ATOM     26  H   LIG d   1       2.541   1.247  -2.211  0.00  0.00     0.031 H 
ATOM     27  H   LIG d   1       3.683   2.313  -3.068  0.00  0.00     0.031 H 
ENDROOT
BRANCH  16  28
ATOM     28  C   LIG d   1       5.803  -1.665  -9.022  0.00  0.00    -0.020 C 
ATOM     29  H   LIG d   1       6.052  -0.605  -9.077  0.00  0.00     0.082 H 
ATOM     30  H   LIG d   1       6.645  -2.255  -9.385  0.00  0.00     0.082 H 
BRANCH  28  31
ATOM     31  N   LIG d   1       4.613  -1.937  -9.849  0.00  0.00     0.228 N 
ATOM     32  H   LIG d   1       3.963  -2.531  -9.321  0.00  0.00     0.201 HD
ATOM     33  H   LIG d   1       4.900  -2.421 -10.707  0.00  0.00     0.201 HD
BRANCH  31  34
ATOM     34  C   LIG d   1       3.938  -0.675 -10.206  0.00  0.00    -0.031 C 
ATOM     35  H   LIG d   1       4.615   0.163 -10.040  0.00  0.00     0.082 H 
ATOM     36  H   LIG d   1       3.644  -0.700 -11.256  0.00  0.00     0.082 H 
BRANCH  34  37
ATOM     37  C   LIG d   1       2.694  -0.506  -9.333  0.00  0.00    -0.006 C 
ATOM     38  H   LIG d   1       2.705  -1.248  -8.536  0.00  0.00     0.035 H 
BRANCH  37  39
ATOM     39  C   LIG d   1       2.686   0.898  -8.723  0.00  0.00    -0.058 C 
ATOM     40  H   LIG d   1       3.645   1.091  -8.244  0.00  0.00     0.023 H 
ATOM     41  H   LIG d   1       2.516   1.634  -9.509  0.00  0.00     0.023 H 
ATOM     42  H   LIG d   1       1.890   0.967  -7.982  0.00  0.00     0.023 H 
ENDBRANCH  37  39
BRANCH  37  43
ATOM     43  C   LIG d   1       1.439  -0.696 -10.189  0.00  0.00    -0.058 C 
ATOM     44  H   LIG d   1       1.728  -1.029 -11.186  0.00  0.00     0.023 H 
ATOM     45  H   LIG d   1       0.794  -1.443  -9.727  0.00  0.00     0.023 H 
ATOM     46  H   LIG d   1       0.903   0.251 -10.263  0.00  0.00     0.023 H 
ENDBRANCH  37  43
ENDBRANCH  34  37
ENDBRANCH  31  34
ENDBRANCH  28  31
ENDBRANCH  16  28
BRANCH   1  47
ATOM     47  C   LIG d   1       2.106   0.215  -4.656  0.00  0.00    -0.043 C 
ATOM     48  H   LIG d   1       1.625   1.187  -4.767  0.00  0.00     0.027 H 
ATOM     49  H   LIG d   1       2.276  -0.221  -5.640  0.00  0.00     0.027 H 
ATOM     50  H   LIG d   1       1.464  -0.444  -4.072  0.00  0.00     0.027 H 
ENDBRANCH   1  47
BRANCH   9  51
ATOM     51  C   LIG d   1       6.242  -1.557  -3.299  0.00  0.00    -0.056 C 
ATOM     52  H   LIG d   1       7.052  -1.946  -3.916  0.00  0.00     0.024 H 
ATOM     53  H   LIG d   1       6.576  -1.484  -2.264  0.00  0.00     0.024 H 
ATOM     54  H   LIG d   1       5.386  -2.230  -3.358  0.00  0.00     0.024 H 
ENDBRANCH   9  51
TORSDOF 8
ENDMDL
MODEL 6
REMARK VINA RESULT:      -5.6      3.726      5.326
REMARK  8 active torsions:
REMARK  status: ('A' for Active; 'I' for Inactive)
REMARK    1  A    between atoms: C_1  and  C_2 
REMARK    2  A    between atoms: C_10  and  C_14 
REMARK    3  A    between atoms: C_18  and  C_20 
REMARK    4  A    between atoms: C_20  and  N_52 
REMARK    5  A    between atoms: C_21  and  C_22 
REMARK    6  A    between atoms: C_21  and  N_52 
REMARK    7  A    between atoms: C_22  and  C_23 
REMARK    8  A    between atoms: C_22  and  C_24 
ROOT
ATOM      1  C   LIG d   1       4.897  -0.285  -2.360  0.00  0.00    -0.073 C 
ATOM      2  C   LIG d   1       5.702  -0.123  -3.368  0.00  0.00    -0.064 C 
ATOM      3  C   LIG d   1       6.276   1.254  -3.629  0.00  0.00    -0.024 C 
ATOM      4  C   LIG d   1       7.804   1.184  -3.705  0.00  0.00     0.018 C 
ATOM      5  H   LIG d   1       8.274   1.163  -2.722  0.00  0.00     0.035 H 
ATOM      6  C   LIG d   1       8.257   0.042  -4.633  0.00  0.00     0.108 C 
ATOM      7  H   LIG d   1       9.340  -0.054  -4.550  0.00  0.00     0.074 H 
ATOM      8  C   LIG d   1       7.637  -1.294  -4.323  0.00  0.00    -0.006 C 
ATOM      9  C   LIG d   1       6.108  -1.224  -4.308  0.00  0.00    -0.007 C 
ATOM     10  C   LIG d   1       5.539  -2.578  -3.917  0.00  0.00    -0.043 C 
ATOM     11  C   LIG d   1       4.147  -2.433  -3.306  0.00  0.00    -0.049 C 
ATOM     12  C   LIG d   1       4.269  -1.606  -2.021  0.00  0.00    -0.032 C 
ATOM     13  O   LIG d   1       7.962   0.544  -5.965  0.00  0.00    -0.461 OA
ATOM     14  C   LIG d   1       8.324   1.848  -5.981  0.00  0.00     0.316 C 
ATOM     15  O   LIG d   1       8.655   2.471  -6.962  0.00  0.00    -0.250 OA
ATOM     16  C   LIG d   1       8.245   2.405  -4.571  0.00  0.00     0.102 C 
ATOM     17  H   LIG d   1       7.503   3.202  -4.514  0.00  0.00     0.047 H 
ATOM     18  H   LIG d   1       5.984   1.925  -2.821  0.00  0.00     0.031 H 
ATOM     19  H   LIG d   1       5.884   1.635  -4.572  0.00  0.00     0.031 H 
ATOM     20  H   LIG d   1       7.986  -1.628  -3.345  0.00  0.00     0.031 H 
ATOM     21  H   LIG d   1       7.953  -2.014  -5.077  0.00  0.00     0.031 H 
ATOM     22  H   LIG d   1       5.476  -3.209  -4.804  0.00  0.00     0.027 H 
ATOM     23  H   LIG d   1       6.202  -3.048  -3.191  0.00  0.00     0.027 H 
ATOM     24  H   LIG d   1       3.488  -1.924  -4.009  0.00  0.00     0.027 H 
ATOM     25  H   LIG d   1       3.744  -3.419  -3.072  0.00  0.00     0.027 H 
ATOM     26  H   LIG d   1       3.279  -1.442  -1.595  0.00  0.00     0.031 H 
ATOM     27  H   LIG d   1       4.893  -2.137  -1.302  0.00  0.00     0.031 H 
ENDROOT
BRANCH  16  28
ATOM     28  C   LIG d   1       9.615   2.915  -4.120  0.00  0.00    -0.020 C 
ATOM     29  H   LIG d   1       9.653   3.999  -4.231  0.00  0.00     0.082 H 
ATOM     30  H   LIG d   1       9.776   2.651  -3.075  0.00  0.00     0.082 H 
BRANCH  28  31
ATOM     31  N   LIG d   1      10.661   2.295  -4.955  0.00  0.00     0.228 N 
ATOM     32  H   LIG d   1      11.166   3.028  -5.466  0.00  0.00     0.201 HD
ATOM     33  H   LIG d   1      10.222   1.652  -5.624  0.00  0.00     0.201 HD
BRANCH  31  34
ATOM     34  C   LIG d   1      11.612   1.545  -4.112  0.00  0.00    -0.031 C 
ATOM     35  H   LIG d   1      12.331   2.234  -3.669  0.00  0.00     0.082 H 
ATOM     36  H   LIG d   1      11.070   1.027  -3.320  0.00  0.00     0.082 H 
BRANCH  34  37
ATOM     37  C   LIG d   1      12.351   0.523  -4.977  0.00  0.00    -0.006 C 
ATOM     38  H   LIG d   1      13.373   0.859  -5.144  0.00  0.00     0.035 H 
BRANCH  37  39
ATOM     39  C   LIG d   1      12.369  -0.830  -4.262  0.00  0.00    -0.058 C 
ATOM     40  H   LIG d   1      11.354  -1.221  -4.196  0.00  0.00     0.023 H 
ATOM     41  H   LIG d   1      12.992  -1.528  -4.823  0.00  0.00     0.023 H 
ATOM     42  H   LIG d   1      12.776  -0.705  -3.259  0.00  0.00     0.023 H 
ENDBRANCH  37  39
BRANCH  37  43
ATOM     43  C   LIG d   1      11.635   0.379  -6.322  0.00  0.00    -0.058 C 
ATOM     44  H   LIG d   1      11.478   1.366  -6.757  0.00  0.00     0.023 H 
ATOM     45  H   LIG d   1      12.245  -0.223  -6.996  0.00  0.00     0.023 H 
ATOM     46  H   LIG d   1      10.672  -0.109  -6.170  0.00  0.00     0.023 H 
ENDBRANCH  37  43
ENDBRANCH  34  37
ENDBRANCH  31  34
ENDBRANCH  28  31
ENDBRANCH  16  28
BRANCH   1  47
ATOM     47  C   LIG d   1       4.581   0.908  -1.494  0.00  0.00    -0.043 C 
ATOM     48  H   LIG d   1       4.228   0.566  -0.521  0.00  0.00     0.027 H 
ATOM     49  H   LIG d   1       5.480   1.510  -1.364  0.00  0.00     0.027 H 
ATOM     50  H   LIG d   1       3.807   1.509  -1.972  0.00  0.00     0.027 H 
ENDBRANCH   1  47
BRANCH   9  51
ATOM     51  C   LIG d   1       5.615  -0.881  -5.716  0.00  0.00    -0.056 C 
ATOM     52  H   LIG d   1       5.201  -1.775  -6.183  0.00  0.00     0.024 H 
ATOM     53  H   LIG d   1       4.845  -0.114  -5.654  0.00  0.00     0.024 H 
ATOM     54  H   LIG d   1       6.449  -0.512  -6.313  0.00  0.00     0.024 H 
ENDBRANCH   9  51
TORSDOF 8
ENDMDL
MODEL 7
REMARK VINA RESULT:      -5.6      2.943      5.475
REMARK  8 active torsions:
REMARK  status: ('A' for Active; 'I' for Inactive)
REMARK    1  A    between atoms: C_1  and  C_2 
REMARK    2  A    between atoms: C_10  and  C_14 
REMARK    3  A    between atoms: C_18  and  C_20 
REMARK    4  A    between atoms: C_20  and  N_52 
REMARK    5  A    between atoms: C_21  and  C_22 
REMARK    6  A    between atoms: C_21  and  N_52 
REMARK    7  A    between atoms: C_22  and  C_23 
REMARK    8  A    between atoms: C_22  and  C_24 
ROOT
ATOM      1  C   LIG d   1       7.781  -5.459  -5.154  0.00  0.00    -0.073 C 
ATOM      2  C   LIG d   1       7.766  -4.162  -5.063  0.00  0.00    -0.064 C 
ATOM      3  C   LIG d   1       6.852  -3.377  -5.980  0.00  0.00    -0.024 C 
ATOM      4  C   LIG d   1       5.954  -2.446  -5.161  0.00  0.00     0.018 C 
ATOM      5  H   LIG d   1       5.096  -2.960  -4.729  0.00  0.00     0.035 H 
ATOM      6  C   LIG d   1       6.779  -1.649  -4.133  0.00  0.00     0.108 C 
ATOM      7  H   LIG d   1       6.088  -1.106  -3.488  0.00  0.00     0.074 H 
ATOM      8  C   LIG d   1       7.673  -2.493  -3.265  0.00  0.00    -0.006 C 
ATOM      9  C   LIG d   1       8.608  -3.376  -4.096  0.00  0.00    -0.007 C 
ATOM     10  C   LIG d   1       9.432  -4.257  -3.173  0.00  0.00    -0.043 C 
ATOM     11  C   LIG d   1       9.895  -5.523  -3.891  0.00  0.00    -0.049 C 
ATOM     12  C   LIG d   1       8.656  -6.328  -4.297  0.00  0.00    -0.032 C 
ATOM     13  O   LIG d   1       7.483  -0.669  -4.944  0.00  0.00    -0.461 OA
ATOM     14  C   LIG d   1       6.600  -0.214  -5.863  0.00  0.00     0.316 C 
ATOM     15  O   LIG d   1       6.639   0.869  -6.395  0.00  0.00    -0.250 OA
ATOM     16  C   LIG d   1       5.554  -1.283  -6.121  0.00  0.00     0.102 C 
ATOM     17  H   LIG d   1       5.591  -1.615  -7.159  0.00  0.00     0.047 H 
ATOM     18  H   LIG d   1       6.232  -4.069  -6.549  0.00  0.00     0.031 H 
ATOM     19  H   LIG d   1       7.455  -2.784  -6.668  0.00  0.00     0.031 H 
ATOM     20  H   LIG d   1       7.054  -3.129  -2.632  0.00  0.00     0.031 H 
ATOM     21  H   LIG d   1       8.272  -1.838  -2.632  0.00  0.00     0.031 H 
ATOM     22  H   LIG d   1      10.305  -3.701  -2.831  0.00  0.00     0.027 H 
ATOM     23  H   LIG d   1       8.827  -4.536  -2.311  0.00  0.00     0.027 H 
ATOM     24  H   LIG d   1      10.466  -5.253  -4.780  0.00  0.00     0.027 H 
ATOM     25  H   LIG d   1      10.518  -6.119  -3.223  0.00  0.00     0.027 H 
ATOM     26  H   LIG d   1       8.961  -7.210  -4.861  0.00  0.00     0.031 H 
ATOM     27  H   LIG d   1       8.111  -6.635  -3.405  0.00  0.00     0.031 H 
ENDROOT
BRANCH  16  28
ATOM     28  C   LIG d   1       4.158  -0.759  -5.776  0.00  0.00    -0.020 C 
ATOM     29  H   LIG d   1       3.699  -0.336  -6.670  0.00  0.00     0.082 H 
ATOM     30  H   LIG d   1       3.543  -1.580  -5.405  0.00  0.00     0.082 H 
BRANCH  28  31
ATOM     31  N   LIG d   1       4.275   0.282  -4.739  0.00  0.00     0.228 N 
ATOM     32  H   LIG d   1       4.246   1.207  -5.183  0.00  0.00     0.201 HD
ATOM     33  H   LIG d   1       5.167   0.168  -4.244  0.00  0.00     0.201 HD
BRANCH  31  34
ATOM     34  C   LIG d   1       3.165   0.172  -3.774  0.00  0.00    -0.031 C 
ATOM     35  H   LIG d   1       2.502   1.031  -3.877  0.00  0.00     0.082 H 
ATOM     36  H   LIG d   1       2.604  -0.744  -3.964  0.00  0.00     0.082 H 
BRANCH  34  37
ATOM     37  C   LIG d   1       3.735   0.134  -2.355  0.00  0.00    -0.006 C 
ATOM     38  H   LIG d   1       2.984   0.492  -1.652  0.00  0.00     0.035 H 
BRANCH  37  39
ATOM     39  C   LIG d   1       4.124  -1.302  -2.000  0.00  0.00    -0.058 C 
ATOM     40  H   LIG d   1       3.232  -1.929  -1.990  0.00  0.00     0.023 H 
ATOM     41  H   LIG d   1       4.827  -1.682  -2.741  0.00  0.00     0.023 H 
ATOM     42  H   LIG d   1       4.590  -1.319  -1.015  0.00  0.00     0.023 H 
ENDBRANCH  37  39
BRANCH  37  43
ATOM     43  C   LIG d   1       4.973   1.031  -2.279  0.00  0.00    -0.058 C 
ATOM     44  H   LIG d   1       5.759   0.618  -2.910  0.00  0.00     0.023 H 
ATOM     45  H   LIG d   1       4.717   2.034  -2.623  0.00  0.00     0.023 H 
ATOM     46  H   LIG d   1       5.323   1.080  -1.247  0.00  0.00     0.023 H 
ENDBRANCH  37  43
ENDBRANCH  34  37
ENDBRANCH  31  34
ENDBRANCH  28  31
ENDBRANCH  16  28
BRANCH   1  47
ATOM     47  C   LIG d   1       6.878  -6.118  -6.166  0.00  0.00    -0.043 C 
ATOM     48  H   LIG d   1       5.974  -6.470  -5.670  0.00  0.00     0.027 H 
ATOM     49  H   LIG d   1       6.612  -5.397  -6.938  0.00  0.00     0.027 H 
ATOM     50  H   LIG d   1       7.397  -6.963  -6.620  0.00  0.00     0.027 H 
ENDBRANCH   1  47
BRANCH   9  51
ATOM     51  C   LIG d   1       9.563  -2.479  -4.886  0.00  0.00    -0.056 C 
ATOM     52  H   LIG d   1       9.489  -2.715  -5.948  0.00  0.00     0.024 H 
ATOM     53  H   LIG d   1       9.297  -1.434  -4.727  0.00  0.00     0.024 H 
ATOM     54  H   LIG d   1      10.586  -2.649  -4.547  0.00  0.00     0.024 H 
ENDBRANCH   9  51
TORSDOF 8
ENDMDL
MODEL 8
REMARK VINA RESULT:      -5.6      3.513      6.086
REMARK  8 active torsions:
REMARK  status: ('A' for Active; 'I' for Inactive)
REMARK    1  A    between atoms: C_1  and  C_2 
REMARK    2  A    between atoms: C_10  and  C_14 
REMARK    3  A    between atoms: C_18  and  C_20 
REMARK    4  A    between atoms: C_20  and  N_52 
REMARK    5  A    between atoms: C_21  and  C_22 
REMARK    6  A    between atoms: C_21  and  N_52 
REMARK    7  A    between atoms: C_22  and  C_23 
REMARK    8  A    between atoms: C_22  and  C_24 
ROOT
ATOM      1  C   LIG d   1       5.931   0.602  -3.205  0.00  0.00    -0.073 C 
ATOM      2  C   LIG d   1       5.405  -0.441  -3.775  0.00  0.00    -0.064 C 
ATOM      3  C   LIG d   1       6.245  -1.240  -4.749  0.00  0.00    -0.024 C 
ATOM      4  C   LIG d   1       6.267  -2.716  -4.341  0.00  0.00     0.018 C 
ATOM      5  H   LIG d   1       6.979  -2.922  -3.542  0.00  0.00     0.035 H 
ATOM      6  C   LIG d   1       4.844  -3.228  -4.048  0.00  0.00     0.108 C 
ATOM      7  H   LIG d   1       4.923  -4.234  -3.635  0.00  0.00     0.074 H 
ATOM      8  C   LIG d   1       4.065  -2.378  -3.082  0.00  0.00    -0.006 C 
ATOM      9  C   LIG d   1       4.000  -0.916  -3.532  0.00  0.00    -0.007 C 
ATOM     10  C   LIG d   1       3.267  -0.092  -2.485  0.00  0.00    -0.043 C 
ATOM     11  C   LIG d   1       3.685   1.375  -2.551  0.00  0.00    -0.049 C 
ATOM     12  C   LIG d   1       5.181   1.466  -2.231  0.00  0.00    -0.032 C 
ATOM     13  O   LIG d   1       4.243  -3.341  -5.367  0.00  0.00    -0.461 OA
ATOM     14  C   LIG d   1       5.185  -3.867  -6.184  0.00  0.00     0.316 C 
ATOM     15  O   LIG d   1       4.966  -4.511  -7.182  0.00  0.00    -0.250 OA
ATOM     16  C   LIG d   1       6.561  -3.517  -5.647  0.00  0.00     0.102 C 
ATOM     17  H   LIG d   1       7.105  -2.898  -6.361  0.00  0.00     0.047 H 
ATOM     18  H   LIG d   1       7.263  -0.851  -4.752  0.00  0.00     0.031 H 
ATOM     19  H   LIG d   1       5.822  -1.149  -5.750  0.00  0.00     0.031 H 
ATOM     20  H   LIG d   1       4.542  -2.426  -2.102  0.00  0.00     0.031 H 
ATOM     21  H   LIG d   1       3.051  -2.771  -3.003  0.00  0.00     0.031 H 
ATOM     22  H   LIG d   1       2.194  -0.166  -2.659  0.00  0.00     0.027 H 
ATOM     23  H   LIG d   1       3.497  -0.486  -1.496  0.00  0.00     0.027 H 
ATOM     24  H   LIG d   1       3.499   1.766  -3.552  0.00  0.00     0.027 H 
ATOM     25  H   LIG d   1       3.118   1.952  -1.820  0.00  0.00     0.027 H 
ATOM     26  H   LIG d   1       5.515   2.499  -2.327  0.00  0.00     0.031 H 
ATOM     27  H   LIG d   1       5.360   1.116  -1.215  0.00  0.00     0.031 H 
ENDROOT
BRANCH  16  28
ATOM     28  C   LIG d   1       7.351  -4.789  -5.330  0.00  0.00    -0.020 C 
ATOM     29  H   LIG d   1       6.677  -5.542  -4.923  0.00  0.00     0.082 H 
ATOM     30  H   LIG d   1       7.811  -5.168  -6.243  0.00  0.00     0.082 H 
BRANCH  28  31
ATOM     31  N   LIG d   1       8.398  -4.474  -4.341  0.00  0.00     0.228 N 
ATOM     32  H   LIG d   1       7.958  -4.118  -3.484  0.00  0.00     0.201 HD
ATOM     33  H   LIG d   1       9.025  -3.759  -4.727  0.00  0.00     0.201 HD
BRANCH  31  34
ATOM     34  C   LIG d   1       9.180  -5.683  -4.020  0.00  0.00    -0.031 C 
ATOM     35  H   LIG d   1       8.504  -6.521  -3.843  0.00  0.00     0.082 H 
ATOM     36  H   LIG d   1       9.843  -5.923  -4.851  0.00  0.00     0.082 H 
BRANCH  34  37
ATOM     37  C   LIG d   1      10.012  -5.424  -2.763  0.00  0.00    -0.006 C 
ATOM     38  H   LIG d   1      11.066  -5.365  -3.030  0.00  0.00     0.035 H 
BRANCH  37  39
ATOM     39  C   LIG d   1       9.572  -4.105  -2.124  0.00  0.00    -0.058 C 
ATOM     40  H   LIG d   1       9.670  -4.175  -1.041  0.00  0.00     0.023 H 
ATOM     41  H   LIG d   1      10.200  -3.295  -2.495  0.00  0.00     0.023 H 
ATOM     42  H   LIG d   1       8.532  -3.906  -2.382  0.00  0.00     0.023 H 
ENDBRANCH  37  39
BRANCH  37  43
ATOM     43  C   LIG d   1       9.802  -6.568  -1.767  0.00  0.00    -0.058 C 
ATOM     44  H   LIG d   1       9.237  -7.367  -2.246  0.00  0.00     0.023 H 
ATOM     45  H   LIG d   1      10.771  -6.949  -1.443  0.00  0.00     0.023 H 
ATOM     46  H   LIG d   1       9.250  -6.199  -0.902  0.00  0.00     0.023 H 
ENDBRANCH  37  43
ENDBRANCH  34  37
ENDBRANCH  31  34
ENDBRANCH  28  31
ENDBRANCH  16  28
BRANCH   1  47
ATOM     47  C   LIG d   1       7.357   0.960  -3.537  0.00  0.00    -0.043 C 
ATOM     48  H   LIG d   1       7.615   0.556  -4.516  0.00  0.00     0.027 H 
ATOM     49  H   LIG d   1       7.465   2.045  -3.552  0.00  0.00     0.027 H 
ATOM     50  H   LIG d   1       8.023   0.539  -2.783  0.00  0.00     0.027 H 
ENDBRANCH   1  47
BRANCH   9  51
ATOM     51  C   LIG d   1       3.215  -0.837  -4.843  0.00  0.00    -0.056 C 
ATOM     52  H   LIG d   1       2.212  -0.461  -4.645  0.00  0.00     0.024 H 
ATOM     53  H   LIG d   1       3.725  -0.164  -5.532  0.00  0.00     0.024 H 
ATOM     54  H   LIG d   1       3.150  -1.831  -5.288  0.00  0.00     0.024 H 
ENDBRANCH   9  51
TORSDOF 8
ENDMDL
MODEL 9
REMARK VINA RESULT:      -5.4      2.298      5.187
REMARK  8 active torsions:
REMARK  status: ('A' for Active; 'I' for Inactive)
REMARK    1  A    between atoms: C_1  and  C_2 
REMARK    2  A    between atoms: C_10  and  C_14 
REMARK    3  A    between atoms: C_18  and  C_20 
REMARK    4  A    between atoms: C_20  and  N_52 
REMARK    5  A    between atoms: C_21  and  C_22 
REMARK    6  A    between atoms: C_21  and  N_52 
REMARK    7  A    between atoms: C_22  and  C_23 
REMARK    8  A    between atoms: C_22  and  C_24 
ROOT
ATOM      1  C   LIG d   1       2.743   0.231  -8.994  0.00  0.00    -0.073 C 
ATOM      2  C   LIG d   1       3.779  -0.454  -8.610  0.00  0.00    -0.064 C 
ATOM      3  C   LIG d   1       4.902   0.266  -7.892  0.00  0.00    -0.024 C 
ATOM      4  C   LIG d   1       5.203  -0.423  -6.558  0.00  0.00     0.018 C 
ATOM      5  H   LIG d   1       4.504  -0.140  -5.771  0.00  0.00     0.035 H 
ATOM      6  C   LIG d   1       5.342  -1.945  -6.744  0.00  0.00     0.108 C 
ATOM      7  H   LIG d   1       5.420  -2.403  -5.757  0.00  0.00     0.074 H 
ATOM      8  C   LIG d   1       4.197  -2.590  -7.476  0.00  0.00    -0.006 C 
ATOM      9  C   LIG d   1       3.944  -1.931  -8.834  0.00  0.00    -0.007 C 
ATOM     10  C   LIG d   1       2.734  -2.570  -9.494  0.00  0.00    -0.043 C 
ATOM     11  C   LIG d   1       2.081  -1.612 -10.489  0.00  0.00    -0.049 C 
ATOM     12  C   LIG d   1       1.581  -0.385  -9.720  0.00  0.00    -0.032 C 
ATOM     13  O   LIG d   1       6.632  -2.094  -7.399  0.00  0.00    -0.461 OA
ATOM     14  C   LIG d   1       7.480  -1.229  -6.797  0.00  0.00     0.316 C 
ATOM     15  O   LIG d   1       8.679  -1.356  -6.729  0.00  0.00    -0.250 OA
ATOM     16  C   LIG d   1       6.685  -0.072  -6.220  0.00  0.00     0.102 C 
ATOM     17  H   LIG d   1       6.973   0.866  -6.694  0.00  0.00     0.047 H 
ATOM     18  H   LIG d   1       4.609   1.299  -7.708  0.00  0.00     0.031 H 
ATOM     19  H   LIG d   1       5.796   0.252  -8.516  0.00  0.00     0.031 H 
ATOM     20  H   LIG d   1       3.295  -2.506  -6.868  0.00  0.00     0.031 H 
ATOM     21  H   LIG d   1       4.424  -3.645  -7.629  0.00  0.00     0.031 H 
ATOM     22  H   LIG d   1       3.047  -3.472 -10.020  0.00  0.00     0.027 H 
ATOM     23  H   LIG d   1       2.008  -2.838  -8.727  0.00  0.00     0.027 H 
ATOM     24  H   LIG d   1       2.813  -1.304 -11.237  0.00  0.00     0.027 H 
ATOM     25  H   LIG d   1       1.242  -2.106 -10.979  0.00  0.00     0.027 H 
ATOM     26  H   LIG d   1       1.160   0.339 -10.418  0.00  0.00     0.031 H 
ATOM     27  H   LIG d   1       0.817  -0.688  -9.004  0.00  0.00     0.031 H 
ENDROOT
BRANCH  16  28
ATOM     28  C   LIG d   1       6.884   0.012  -4.705  0.00  0.00    -0.020 C 
ATOM     29  H   LIG d   1       7.275  -0.937  -4.338  0.00  0.00     0.082 H 
ATOM     30  H   LIG d   1       7.590   0.809  -4.474  0.00  0.00     0.082 H 
BRANCH  28  31
ATOM     31  N   LIG d   1       5.588   0.295  -4.062  0.00  0.00     0.228 N 
ATOM     32  H   LIG d   1       4.828   0.023  -4.696  0.00  0.00     0.201 HD
ATOM     33  H   LIG d   1       5.522   1.299  -3.859  0.00  0.00     0.201 HD
BRANCH  31  34
ATOM     34  C   LIG d   1       5.464  -0.463  -2.802  0.00  0.00    -0.031 C 
ATOM     35  H   LIG d   1       5.599  -1.527  -2.999  0.00  0.00     0.082 H 
ATOM     36  H   LIG d   1       6.224  -0.127  -2.095  0.00  0.00     0.082 H 
BRANCH  34  37
ATOM     37  C   LIG d   1       4.075  -0.226  -2.207  0.00  0.00    -0.006 C 
ATOM     38  H   LIG d   1       4.074  -0.519  -1.158  0.00  0.00     0.035 H 
BRANCH  37  39
ATOM     39  C   LIG d   1       3.718   1.257  -2.324  0.00  0.00    -0.058 C 
ATOM     40  H   LIG d   1       2.651   1.390  -2.144  0.00  0.00     0.023 H 
ATOM     41  H   LIG d   1       4.284   1.826  -1.586  0.00  0.00     0.023 H 
ATOM     42  H   LIG d   1       3.964   1.613  -3.324  0.00  0.00     0.023 H 
ENDBRANCH  37  39
BRANCH  37  43
ATOM     43  C   LIG d   1       3.044  -1.060  -2.971  0.00  0.00    -0.058 C 
ATOM     44  H   LIG d   1       3.454  -2.050  -3.171  0.00  0.00     0.023 H 
ATOM     45  H   LIG d   1       2.138  -1.156  -2.371  0.00  0.00     0.023 H 
ATOM     46  H   LIG d   1       2.804  -0.567  -3.914  0.00  0.00     0.023 H 
ENDBRANCH  37  43
ENDBRANCH  34  37
ENDBRANCH  31  34
ENDBRANCH  28  31
ENDBRANCH  16  28
BRANCH   1  47
ATOM     47  C   LIG d   1       2.707   1.709  -8.697  0.00  0.00    -0.043 C 
ATOM     48  H   LIG d   1       3.358   2.235  -9.395  0.00  0.00     0.027 H 
ATOM     49  H   LIG d   1       1.686   2.075  -8.806  0.00  0.00     0.027 H 
ATOM     50  H   LIG d   1       3.049   1.883  -7.677  0.00  0.00     0.027 H 
ENDBRANCH   1  47
BRANCH   9  51
ATOM     51  C   LIG d   1       5.162  -2.164  -9.731  0.00  0.00    -0.056 C 
ATOM     52  H   LIG d   1       5.964  -2.613  -9.145  0.00  0.00     0.024 H 
ATOM     53  H   LIG d   1       4.890  -2.832 -10.547  0.00  0.00     0.024 H 
ATOM     54  H   LIG d   1       5.500  -1.210 -10.139  0.00  0.00     0.024 H 
ENDBRANCH   9  51
TORSDOF 8
ENDMDL
MODEL 10
REMARK VINA RESULT:      -5.3      3.477      5.878
REMARK  8 active torsions:
REMARK  status: ('A' for Active; 'I' for Inactive)
REMARK    1  A    between atoms: C_1  and  C_2 
REMARK    2  A    between atoms: C_10  and  C_14 
REMARK    3  A    between atoms: C_18  and  C_20 
REMARK    4  A    between atoms: C_20  and  N_52 
REMARK    5  A    between atoms: C_21  and  C_22 
REMARK    6  A    between atoms: C_21  and  N_52 
REMARK    7  A    between atoms: C_22  and  C_23 
REMARK    8  A    between atoms: C_22  and  C_24 
ROOT
ATOM      1  C   LIG d   1       5.887   0.633  -3.208  0.00  0.00    -0.073 C 
ATOM      2  C   LIG d   1       5.389  -0.411  -3.801  0.00  0.00    -0.064 C 
ATOM      3  C   LIG d   1       6.236  -1.140  -4.824  0.00  0.00    -0.024 C 
ATOM      4  C   LIG d   1       6.329  -2.627  -4.469  0.00  0.00     0.018 C 
ATOM      5  H   LIG d   1       7.069  -2.831  -3.696  0.00  0.00     0.035 H 
ATOM      6  C   LIG d   1       4.936  -3.207  -4.160  0.00  0.00     0.108 C 
ATOM      7  H   LIG d   1       5.066  -4.223  -3.785  0.00  0.00     0.074 H 
ATOM      8  C   LIG d   1       4.148  -2.425  -3.146  0.00  0.00    -0.006 C 
ATOM      9  C   LIG d   1       4.011  -0.952  -3.541  0.00  0.00    -0.007 C 
ATOM     10  C   LIG d   1       3.273  -0.197  -2.448  0.00  0.00    -0.043 C 
ATOM     11  C   LIG d   1       3.629   1.289  -2.471  0.00  0.00    -0.049 C 
ATOM     12  C   LIG d   1       5.128   1.430  -2.185  0.00  0.00    -0.032 C 
ATOM     13  O   LIG d   1       4.305  -3.300  -5.467  0.00  0.00    -0.461 OA
ATOM     14  C   LIG d   1       5.247  -3.757  -6.325  0.00  0.00     0.316 C 
ATOM     15  O   LIG d   1       5.029  -4.374  -7.340  0.00  0.00    -0.250 OA
ATOM     16  C   LIG d   1       6.621  -3.369  -5.810  0.00  0.00     0.102 C 
ATOM     17  H   LIG d   1       7.121  -2.703  -6.514  0.00  0.00     0.047 H 
ATOM     18  H   LIG d   1       7.236  -0.709  -4.837  0.00  0.00     0.031 H 
ATOM     19  H   LIG d   1       5.784  -1.031  -5.810  0.00  0.00     0.031 H 
ATOM     20  H   LIG d   1       4.652  -2.487  -2.180  0.00  0.00     0.031 H 
ATOM     21  H   LIG d   1       3.153  -2.862  -3.056  0.00  0.00     0.031 H 
ATOM     22  H   LIG d   1       2.200  -0.309  -2.598  0.00  0.00     0.027 H 
ATOM     23  H   LIG d   1       3.545  -0.614  -1.479  0.00  0.00     0.027 H 
ATOM     24  H   LIG d   1       3.401   1.706  -3.452  0.00  0.00     0.027 H 
ATOM     25  H   LIG d   1       3.058   1.816  -1.706  0.00  0.00     0.027 H 
ATOM     26  H   LIG d   1       5.416   2.479  -2.252  0.00  0.00     0.031 H 
ATOM     27  H   LIG d   1       5.347   1.053  -1.186  0.00  0.00     0.031 H 
ENDROOT
BRANCH  16  28
ATOM     28  C   LIG d   1       7.470  -4.617  -5.558  0.00  0.00    -0.020 C 
ATOM     29  H   LIG d   1       8.189  -4.736  -6.369  0.00  0.00     0.082 H 
ATOM     30  H   LIG d   1       8.002  -4.510  -4.613  0.00  0.00     0.082 H 
BRANCH  28  31
ATOM     31  N   LIG d   1       6.589  -5.798  -5.501  0.00  0.00     0.228 N 
ATOM     32  H   LIG d   1       6.010  -5.830  -6.348  0.00  0.00     0.201 HD
ATOM     33  H   LIG d   1       5.983  -5.729  -4.675  0.00  0.00     0.201 HD
BRANCH  31  34
ATOM     34  C   LIG d   1       7.391  -7.033  -5.413  0.00  0.00    -0.031 C 
ATOM     35  H   LIG d   1       8.046  -7.107  -6.282  0.00  0.00     0.082 H 
ATOM     36  H   LIG d   1       7.994  -7.014  -4.505  0.00  0.00     0.082 H 
BRANCH  34  37
ATOM     37  C   LIG d   1       6.452  -8.240  -5.377  0.00  0.00    -0.006 C 
ATOM     38  H   LIG d   1       6.633  -8.867  -6.250  0.00  0.00     0.035 H 
BRANCH  37  39
ATOM     39  C   LIG d   1       6.712  -9.049  -4.105  0.00  0.00    -0.058 C 
ATOM     40  H   LIG d   1       6.225 -10.020  -4.185  0.00  0.00     0.023 H 
ATOM     41  H   LIG d   1       7.786  -9.190  -3.977  0.00  0.00     0.023 H 
ATOM     42  H   LIG d   1       6.311  -8.512  -3.245  0.00  0.00     0.023 H 
ENDBRANCH  37  39
BRANCH  37  43
ATOM     43  C   LIG d   1       5.000  -7.758  -5.387  0.00  0.00    -0.058 C 
ATOM     44  H   LIG d   1       4.597  -7.802  -4.376  0.00  0.00     0.023 H 
ATOM     45  H   LIG d   1       4.960  -6.731  -5.751  0.00  0.00     0.023 H 
ATOM     46  H   LIG d   1       4.409  -8.398  -6.043  0.00  0.00     0.023 H 
ENDBRANCH  37  43
ENDBRANCH  34  37
ENDBRANCH  31  34
ENDBRANCH  28  31
ENDBRANCH  16  28
BRANCH   1  47
ATOM     47  C   LIG d   1       7.289   1.061  -3.561  0.00  0.00    -0.043 C 
ATOM     48  H   LIG d   1       7.774   1.477  -2.678  0.00  0.00     0.027 H 
ATOM     49  H   LIG d   1       7.853   0.199  -3.914  0.00  0.00     0.027 H 
ATOM     50  H   LIG d   1       7.251   1.817  -4.346  0.00  0.00     0.027 H 
ENDBRANCH   1  47
BRANCH   9  51
ATOM     51  C   LIG d   1       3.191  -0.860  -4.830  0.00  0.00    -0.056 C 
ATOM     52  H   LIG d   1       2.550   0.021  -4.790  0.00  0.00     0.024 H 
ATOM     53  H   LIG d   1       3.863  -0.782  -5.683  0.00  0.00     0.024 H 
ATOM     54  H   LIG d   1       2.574  -1.754  -4.933  0.00  0.00     0.024 H 
ENDBRANCH   9  51
TORSDOF 8
ENDMDL
