MODEL 1
REMARK VINA RESULT:      -7.3      0.000      0.000
REMARK  4 active torsions:
REMARK  status: ('A' for Active; 'I' for Inactive)
REMARK    1  A    between atoms: C_1  and  C_2 
REMARK    2  A    between atoms: C_15  and  O_24 
REMARK    3  A    between atoms: C_17  and  O_23 
REMARK    4  A    between atoms: C_19  and  O_22 
ROOT
ATOM      1  C   LIG d   1       7.099  -6.995  -5.210  0.00  0.00    -0.033 C 
ATOM      2  H   LIG d   1       6.937  -6.942  -4.134  0.00  0.00     0.030 H 
ATOM      3  C   LIG d   1       8.239  -6.062  -5.604  0.00  0.00    -0.028 C 
ATOM      4  C   LIG d   1       7.895  -4.614  -5.337  0.00  0.00    -0.062 C 
ATOM      5  C   LIG d   1       6.637  -4.194  -5.302  0.00  0.00     0.008 C 
ATOM      6  C   LIG d   1       6.262  -2.755  -5.071  0.00  0.00     0.082 C 
ATOM      7  H   LIG d   1       6.026  -2.282  -6.026  0.00  0.00     0.046 H 
ATOM      8  C   LIG d   1       5.063  -2.664  -4.151  0.00  0.00     0.174 C 
ATOM      9  O   LIG d   1       4.360  -3.626  -3.928  0.00  0.00    -0.291 OA
ATOM     10  C   LIG d   1       4.792  -1.347  -3.537  0.00  0.00     0.027 A 
ATOM     11  C   LIG d   1       3.577  -1.130  -2.879  0.00  0.00    -0.051 A 
ATOM     12  C   LIG d   1       3.318   0.096  -2.302  0.00  0.00    -0.058 A 
ATOM     13  C   LIG d   1       4.259   1.108  -2.374  0.00  0.00    -0.020 A 
ATOM     14  C   LIG d   1       5.465   0.900  -3.026  0.00  0.00     0.123 A 
ATOM     15  C   LIG d   1       5.742  -0.328  -3.611  0.00  0.00     0.035 A 
ATOM     16  C   LIG d   1       7.060  -0.521  -4.313  0.00  0.00     0.114 C 
ATOM     17  H   LIG d   1       7.842   0.004  -3.765  0.00  0.00     0.067 H 
ATOM     18  C   LIG d   1       7.413  -2.003  -4.398  0.00  0.00     0.110 C 
ATOM     19  C   LIG d   1       8.668  -2.224  -5.244  0.00  0.00    -0.017 C 
ATOM     20  C   LIG d   1       9.069  -3.692  -5.100  0.00  0.00    -0.028 C 
ATOM     21  C   LIG d   1       5.523  -5.145  -5.478  0.00  0.00     0.160 C 
ATOM     22  O   LIG d   1       4.381  -4.806  -5.247  0.00  0.00    -0.292 OA
ATOM     23  C   LIG d   1       5.828  -6.547  -5.947  0.00  0.00     0.013 C 
ATOM     24  H   LIG d   1       9.128  -6.328  -5.033  0.00  0.00     0.031 H 
ATOM     25  H   LIG d   1       8.449  -6.188  -6.666  0.00  0.00     0.031 H 
ATOM     26  H   LIG d   1       2.843  -1.920  -2.825  0.00  0.00     0.062 H 
ATOM     27  H   LIG d   1       2.380   0.266  -1.794  0.00  0.00     0.062 H 
ATOM     28  H   LIG d   1       4.052   2.065  -1.920  0.00  0.00     0.065 H 
ATOM     29  H   LIG d   1       8.455  -1.992  -6.287  0.00  0.00     0.030 H 
ATOM     30  H   LIG d   1       9.474  -1.586  -4.881  0.00  0.00     0.030 H 
ATOM     31  H   LIG d   1       9.461  -3.865  -4.098  0.00  0.00     0.031 H 
ATOM     32  H   LIG d   1       9.849  -3.914  -5.829  0.00  0.00     0.031 H 
ATOM     33  H   LIG d   1       6.001  -6.549  -7.024  0.00  0.00     0.035 H 
ATOM     34  H   LIG d   1       5.000  -7.211  -5.700  0.00  0.00     0.035 H 
ENDROOT
BRANCH   1  35
ATOM     35  C   LIG d   1       7.447  -8.431  -5.608  0.00  0.00    -0.062 C 
ATOM     36  H   LIG d   1       8.356  -8.741  -5.092  0.00  0.00     0.023 H 
ATOM     37  H   LIG d   1       6.627  -9.094  -5.332  0.00  0.00     0.023 H 
ATOM     38  H   LIG d   1       7.607  -8.480  -6.685  0.00  0.00     0.023 H 
ENDBRANCH   1  35
BRANCH  18  39
ATOM     39  O   LIG d   1       7.615  -2.517  -3.080  0.00  0.00    -0.385 OA
ATOM     40  H   LIG d   1       8.107  -1.922  -2.497  0.00  0.00     0.210 HD
ENDBRANCH  18  39
BRANCH  16  41
ATOM     41  O   LIG d   1       6.974   0.010  -5.637  0.00  0.00    -0.384 OA
ATOM     42  H   LIG d   1       7.809  -0.008  -6.123  0.00  0.00     0.210 HD
ENDBRANCH  16  41
BRANCH  14  43
ATOM     43  O   LIG d   1       6.381   1.902  -3.090  0.00  0.00    -0.506 OA
ATOM     44  H   LIG d   1       7.140   1.708  -3.658  0.00  0.00     0.292 HD
ENDBRANCH  14  43
TORSDOF 4
ENDMDL
MODEL 2
REMARK VINA RESULT:      -7.2      2.918      6.239
REMARK  4 active torsions:
REMARK  status: ('A' for Active; 'I' for Inactive)
REMARK    1  A    between atoms: C_1  and  C_2 
REMARK    2  A    between atoms: C_15  and  O_24 
REMARK    3  A    between atoms: C_17  and  O_23 
REMARK    4  A    between atoms: C_19  and  O_22 
ROOT
ATOM      1  C   LIG d   1       9.356   3.927  -6.490  0.00  0.00    -0.033 C 
ATOM      2  H   LIG d   1       8.310   4.232  -6.473  0.00  0.00     0.030 H 
ATOM      3  C   LIG d   1       9.515   2.684  -7.357  0.00  0.00    -0.028 C 
ATOM      4  C   LIG d   1       8.778   1.498  -6.776  0.00  0.00    -0.062 C 
ATOM      5  C   LIG d   1       8.521   1.409  -5.478  0.00  0.00     0.008 C 
ATOM      6  C   LIG d   1       7.819   0.228  -4.863  0.00  0.00     0.082 C 
ATOM      7  H   LIG d   1       8.554  -0.437  -4.408  0.00  0.00     0.046 H 
ATOM      8  C   LIG d   1       6.833   0.690  -3.811  0.00  0.00     0.174 C 
ATOM      9  O   LIG d   1       6.877   1.810  -3.348  0.00  0.00    -0.291 OA
ATOM     10  C   LIG d   1       5.815  -0.289  -3.374  0.00  0.00     0.027 A 
ATOM     11  C   LIG d   1       5.037  -0.017  -2.246  0.00  0.00    -0.051 A 
ATOM     12  C   LIG d   1       4.083  -0.925  -1.834  0.00  0.00    -0.058 A 
ATOM     13  C   LIG d   1       3.898  -2.101  -2.538  0.00  0.00    -0.020 A 
ATOM     14  C   LIG d   1       4.667  -2.378  -3.658  0.00  0.00     0.123 A 
ATOM     15  C   LIG d   1       5.630  -1.475  -4.085  0.00  0.00     0.035 A 
ATOM     16  C   LIG d   1       6.450  -1.805  -5.305  0.00  0.00     0.114 C 
ATOM     17  H   LIG d   1       5.821  -2.311  -6.037  0.00  0.00     0.067 H 
ATOM     18  C   LIG d   1       7.026  -0.537  -5.927  0.00  0.00     0.110 C 
ATOM     19  C   LIG d   1       7.987  -0.870  -7.069  0.00  0.00    -0.017 C 
ATOM     20  C   LIG d   1       8.346   0.442  -7.768  0.00  0.00    -0.028 C 
ATOM     21  C   LIG d   1       8.908   2.495  -4.559  0.00  0.00     0.160 C 
ATOM     22  O   LIG d   1       8.500   2.512  -3.417  0.00  0.00    -0.292 OA
ATOM     23  C   LIG d   1       9.819   3.588  -5.065  0.00  0.00     0.013 C 
ATOM     24  H   LIG d   1       9.124   2.894  -8.353  0.00  0.00     0.031 H 
ATOM     25  H   LIG d   1      10.574   2.440  -7.438  0.00  0.00     0.031 H 
ATOM     26  H   LIG d   1       5.183   0.901  -1.695  0.00  0.00     0.062 H 
ATOM     27  H   LIG d   1       3.481  -0.717  -0.961  0.00  0.00     0.062 H 
ATOM     28  H   LIG d   1       3.149  -2.808  -2.212  0.00  0.00     0.065 H 
ATOM     29  H   LIG d   1       8.884  -1.343  -6.671  0.00  0.00     0.030 H 
ATOM     30  H   LIG d   1       7.499  -1.541  -7.777  0.00  0.00     0.030 H 
ATOM     31  H   LIG d   1       7.482   0.806  -8.323  0.00  0.00     0.031 H 
ATOM     32  H   LIG d   1       9.162   0.254  -8.466  0.00  0.00     0.031 H 
ATOM     33  H   LIG d   1      10.851   3.234  -5.082  0.00  0.00     0.035 H 
ATOM     34  H   LIG d   1       9.737   4.467  -4.427  0.00  0.00     0.035 H 
ENDROOT
BRANCH   1  35
ATOM     35  C   LIG d   1      10.214   5.062  -7.054  0.00  0.00    -0.062 C 
ATOM     36  H   LIG d   1       9.979   5.989  -6.531  0.00  0.00     0.023 H 
ATOM     37  H   LIG d   1      11.268   4.824  -6.918  0.00  0.00     0.023 H 
ATOM     38  H   LIG d   1      10.003   5.182  -8.117  0.00  0.00     0.023 H 
ENDBRANCH   1  35
BRANCH  18  39
ATOM     39  O   LIG d   1       5.958   0.281  -6.408  0.00  0.00    -0.385 OA
ATOM     40  H   LIG d   1       6.015   1.205  -6.131  0.00  0.00     0.210 HD
ENDBRANCH  18  39
BRANCH  16  41
ATOM     41  O   LIG d   1       7.527  -2.667  -4.931  0.00  0.00    -0.384 OA
ATOM     42  H   LIG d   1       7.960  -2.420  -4.103  0.00  0.00     0.210 HD
ENDBRANCH  16  41
BRANCH  14  43
ATOM     43  O   LIG d   1       4.475  -3.537  -4.341  0.00  0.00    -0.506 OA
ATOM     44  H   LIG d   1       3.548  -3.735  -4.531  0.00  0.00     0.292 HD
ENDBRANCH  14  43
TORSDOF 4
ENDMDL
MODEL 3
REMARK VINA RESULT:      -6.6      4.052      5.220
REMARK  4 active torsions:
REMARK  status: ('A' for Active; 'I' for Inactive)
REMARK    1  A    between atoms: C_1  and  C_2 
REMARK    2  A    between atoms: C_15  and  O_24 
REMARK    3  A    between atoms: C_17  and  O_23 
REMARK    4  A    between atoms: C_19  and  O_22 
ROOT
ATOM      1  C   LIG d   1       1.952  -1.498 -10.477  0.00  0.00    -0.033 C 
ATOM      2  H   LIG d   1       1.265  -1.881  -9.723  0.00  0.00     0.030 H 
ATOM      3  C   LIG d   1       3.260  -2.279 -10.424  0.00  0.00    -0.028 C 
ATOM      4  C   LIG d   1       3.979  -2.079  -9.108  0.00  0.00    -0.062 C 
ATOM      5  C   LIG d   1       3.792  -0.990  -8.373  0.00  0.00     0.008 C 
ATOM      6  C   LIG d   1       4.516  -0.745  -7.076  0.00  0.00     0.082 C 
ATOM      7  H   LIG d   1       5.349  -0.063  -7.247  0.00  0.00     0.046 H 
ATOM      8  C   LIG d   1       3.574  -0.148  -6.053  0.00  0.00     0.174 C 
ATOM      9  O   LIG d   1       2.510   0.336  -6.375  0.00  0.00    -0.291 OA
ATOM     10  C   LIG d   1       4.013  -0.183  -4.641  0.00  0.00     0.027 A 
ATOM     11  C   LIG d   1       3.316   0.559  -3.683  0.00  0.00    -0.051 A 
ATOM     12  C   LIG d   1       3.718   0.529  -2.364  0.00  0.00    -0.058 A 
ATOM     13  C   LIG d   1       4.810  -0.235  -1.991  0.00  0.00    -0.020 A 
ATOM     14  C   LIG d   1       5.507  -0.973  -2.936  0.00  0.00     0.123 A 
ATOM     15  C   LIG d   1       5.114  -0.954  -4.267  0.00  0.00     0.035 A 
ATOM     16  C   LIG d   1       5.893  -1.765  -5.270  0.00  0.00     0.114 C 
ATOM     17  H   LIG d   1       6.204  -2.703  -4.812  0.00  0.00     0.067 H 
ATOM     18  C   LIG d   1       5.042  -2.063  -6.499  0.00  0.00     0.110 C 
ATOM     19  C   LIG d   1       5.868  -2.747  -7.590  0.00  0.00    -0.017 C 
ATOM     20  C   LIG d   1       4.902  -3.199  -8.686  0.00  0.00    -0.028 C 
ATOM     21  C   LIG d   1       2.834   0.047  -8.798  0.00  0.00     0.160 C 
ATOM     22  O   LIG d   1       2.511   0.937  -8.039  0.00  0.00    -0.292 OA
ATOM     23  C   LIG d   1       2.258  -0.019 -10.193  0.00  0.00     0.013 C 
ATOM     24  H   LIG d   1       3.045  -3.339 -10.554  0.00  0.00     0.031 H 
ATOM     25  H   LIG d   1       3.906  -1.946 -11.236  0.00  0.00     0.031 H 
ATOM     26  H   LIG d   1       2.465   1.156  -3.976  0.00  0.00     0.062 H 
ATOM     27  H   LIG d   1       3.181   1.102  -1.623  0.00  0.00     0.062 H 
ATOM     28  H   LIG d   1       5.121  -0.256  -0.957  0.00  0.00     0.065 H 
ATOM     29  H   LIG d   1       6.597  -2.047  -7.995  0.00  0.00     0.030 H 
ATOM     30  H   LIG d   1       6.380  -3.615  -7.173  0.00  0.00     0.030 H 
ATOM     31  H   LIG d   1       4.304  -4.035  -8.322  0.00  0.00     0.031 H 
ATOM     32  H   LIG d   1       5.482  -3.527  -9.549  0.00  0.00     0.031 H 
ATOM     33  H   LIG d   1       2.985   0.357 -10.913  0.00  0.00     0.035 H 
ATOM     34  H   LIG d   1       1.342   0.568 -10.246  0.00  0.00     0.035 H 
ENDROOT
BRANCH   1  35
ATOM     35  C   LIG d   1       1.325  -1.637 -11.865  0.00  0.00    -0.062 C 
ATOM     36  H   LIG d   1       2.081  -1.441 -12.626  0.00  0.00     0.023 H 
ATOM     37  H   LIG d   1       0.937  -2.648 -11.989  0.00  0.00     0.023 H 
ATOM     38  H   LIG d   1       0.511  -0.920 -11.969  0.00  0.00     0.023 H 
ENDBRANCH   1  35
BRANCH  18  39
ATOM     39  O   LIG d   1       3.942  -2.894  -6.124  0.00  0.00    -0.385 OA
ATOM     40  H   LIG d   1       3.987  -3.217  -5.213  0.00  0.00     0.210 HD
ENDBRANCH  18  39
BRANCH  16  41
ATOM     41  O   LIG d   1       7.050  -1.031  -5.675  0.00  0.00    -0.384 OA
ATOM     42  H   LIG d   1       7.157  -0.962  -6.633  0.00  0.00     0.210 HD
ENDBRANCH  16  41
BRANCH  14  43
ATOM     43  O   LIG d   1       6.578  -1.719  -2.557  0.00  0.00    -0.506 OA
ATOM     44  H   LIG d   1       6.362  -2.437  -1.945  0.00  0.00     0.292 HD
ENDBRANCH  14  43
TORSDOF 4
ENDMDL
MODEL 4
REMARK VINA RESULT:      -6.3      9.518     12.256
REMARK  4 active torsions:
REMARK  status: ('A' for Active; 'I' for Inactive)
REMARK    1  A    between atoms: C_1  and  C_2 
REMARK    2  A    between atoms: C_15  and  O_24 
REMARK    3  A    between atoms: C_17  and  O_23 
REMARK    4  A    between atoms: C_19  and  O_22 
ROOT
ATOM      1  C   LIG d   1       9.811   8.904  -6.604  0.00  0.00    -0.033 C 
ATOM      2  H   LIG d   1       9.136   9.456  -5.949  0.00  0.00     0.030 H 
ATOM      3  C   LIG d   1       9.573   7.407  -6.443  0.00  0.00    -0.028 C 
ATOM      4  C   LIG d   1       9.914   6.932  -5.048  0.00  0.00    -0.062 C 
ATOM      5  C   LIG d   1      10.788   7.580  -4.289  0.00  0.00     0.008 C 
ATOM      6  C   LIG d   1      11.174   7.116  -2.910  0.00  0.00     0.082 C 
ATOM      7  H   LIG d   1      12.131   6.593  -2.956  0.00  0.00     0.046 H 
ATOM      8  C   LIG d   1      11.288   8.298  -1.970  0.00  0.00     0.174 C 
ATOM      9  O   LIG d   1      11.366   9.434  -2.384  0.00  0.00    -0.291 OA
ATOM     10  C   LIG d   1      11.299   7.999  -0.521  0.00  0.00     0.027 A 
ATOM     11  C   LIG d   1      11.644   9.004   0.387  0.00  0.00    -0.051 A 
ATOM     12  C   LIG d   1      11.654   8.733   1.740  0.00  0.00    -0.058 A 
ATOM     13  C   LIG d   1      11.324   7.469   2.195  0.00  0.00    -0.020 A 
ATOM     14  C   LIG d   1      10.983   6.467   1.300  0.00  0.00     0.123 A 
ATOM     15  C   LIG d   1      10.967   6.723  -0.064  0.00  0.00     0.035 A 
ATOM     16  C   LIG d   1      10.593   5.613  -1.011  0.00  0.00     0.114 C 
ATOM     17  H   LIG d   1       9.803   5.009  -0.566  0.00  0.00     0.067 H 
ATOM     18  C   LIG d   1      10.105   6.180  -2.340  0.00  0.00     0.110 C 
ATOM     19  C   LIG d   1       9.873   5.067  -3.363  0.00  0.00    -0.017 C 
ATOM     20  C   LIG d   1       9.188   5.692  -4.579  0.00  0.00    -0.028 C 
ATOM     21  C   LIG d   1      11.424   8.821  -4.768  0.00  0.00     0.160 C 
ATOM     22  O   LIG d   1      12.062   9.520  -4.009  0.00  0.00    -0.292 OA
ATOM     23  C   LIG d   1      11.266   9.208  -6.219  0.00  0.00     0.013 C 
ATOM     24  H   LIG d   1       8.524   7.191  -6.645  0.00  0.00     0.031 H 
ATOM     25  H   LIG d   1      10.190   6.870  -7.163  0.00  0.00     0.031 H 
ATOM     26  H   LIG d   1      11.903   9.990   0.031  0.00  0.00     0.062 H 
ATOM     27  H   LIG d   1      11.920   9.509   2.443  0.00  0.00     0.062 H 
ATOM     28  H   LIG d   1      11.333   7.262   3.255  0.00  0.00     0.065 H 
ATOM     29  H   LIG d   1      10.826   4.627  -3.653  0.00  0.00     0.030 H 
ATOM     30  H   LIG d   1       9.227   4.300  -2.933  0.00  0.00     0.030 H 
ATOM     31  H   LIG d   1       8.162   5.956  -4.323  0.00  0.00     0.031 H 
ATOM     32  H   LIG d   1       9.174   4.960  -5.387  0.00  0.00     0.031 H 
ATOM     33  H   LIG d   1      11.946   8.620  -6.837  0.00  0.00     0.035 H 
ATOM     34  H   LIG d   1      11.472  10.271  -6.346  0.00  0.00     0.035 H 
ENDROOT
BRANCH   1  35
ATOM     35  C   LIG d   1       9.566   9.312  -8.058  0.00  0.00    -0.062 C 
ATOM     36  H   LIG d   1       9.609   8.428  -8.695  0.00  0.00     0.023 H 
ATOM     37  H   LIG d   1       8.583   9.776  -8.145  0.00  0.00     0.023 H 
ATOM     38  H   LIG d   1      10.332  10.021  -8.370  0.00  0.00     0.023 H 
ENDBRANCH   1  35
BRANCH  18  39
ATOM     39  O   LIG d   1       8.894   6.909  -2.127  0.00  0.00    -0.385 OA
ATOM     40  H   LIG d   1       8.394   6.622  -1.351  0.00  0.00     0.210 HD
ENDBRANCH  18  39
BRANCH  16  41
ATOM     41  O   LIG d   1      11.737   4.792  -1.252  0.00  0.00    -0.384 OA
ATOM     42  H   LIG d   1      12.554   5.131  -0.863  0.00  0.00     0.210 HD
ENDBRANCH  16  41
BRANCH  14  43
ATOM     43  O   LIG d   1      10.661   5.229   1.760  0.00  0.00    -0.506 OA
ATOM     44  H   LIG d   1       9.889   4.837   1.329  0.00  0.00     0.292 HD
ENDBRANCH  14  43
TORSDOF 4
ENDMDL
MODEL 5
REMARK VINA RESULT:      -6.3      5.013      6.271
REMARK  4 active torsions:
REMARK  status: ('A' for Active; 'I' for Inactive)
REMARK    1  A    between atoms: C_1  and  C_2 
REMARK    2  A    between atoms: C_15  and  O_24 
REMARK    3  A    between atoms: C_17  and  O_23 
REMARK    4  A    between atoms: C_19  and  O_22 
ROOT
ATOM      1  C   LIG d   1       4.449  -0.694 -12.376  0.00  0.00    -0.033 C 
ATOM      2  H   LIG d   1       5.472  -0.708 -12.000  0.00  0.00     0.030 H 
ATOM      3  C   LIG d   1       3.697   0.489 -11.777  0.00  0.00    -0.028 C 
ATOM      4  C   LIG d   1       3.555   0.360 -10.277  0.00  0.00    -0.062 C 
ATOM      5  C   LIG d   1       3.577  -0.823  -9.677  0.00  0.00     0.008 C 
ATOM      6  C   LIG d   1       3.405  -0.989  -8.190  0.00  0.00     0.082 C 
ATOM      7  H   LIG d   1       2.379  -1.288  -7.973  0.00  0.00     0.046 H 
ATOM      8  C   LIG d   1       4.361  -2.039  -7.664  0.00  0.00     0.174 C 
ATOM      9  O   LIG d   1       4.920  -2.818  -8.405  0.00  0.00    -0.291 OA
ATOM     10  C   LIG d   1       4.581  -2.067  -6.202  0.00  0.00     0.027 A 
ATOM     11  C   LIG d   1       5.251  -3.151  -5.627  0.00  0.00    -0.051 A 
ATOM     12  C   LIG d   1       5.462  -3.184  -4.264  0.00  0.00    -0.058 A 
ATOM     13  C   LIG d   1       5.011  -2.145  -3.469  0.00  0.00    -0.020 A 
ATOM     14  C   LIG d   1       4.344  -1.068  -4.032  0.00  0.00     0.123 A 
ATOM     15  C   LIG d   1       4.125  -1.019  -5.402  0.00  0.00     0.035 A 
ATOM     16  C   LIG d   1       3.397   0.164  -5.983  0.00  0.00     0.114 C 
ATOM     17  H   LIG d   1       3.694   1.068  -5.452  0.00  0.00     0.067 H 
ATOM     18  C   LIG d   1       3.722   0.322  -7.465  0.00  0.00     0.110 C 
ATOM     19  C   LIG d   1       2.869   1.420  -8.103  0.00  0.00    -0.017 C 
ATOM     20  C   LIG d   1       3.404   1.657  -9.516  0.00  0.00    -0.028 C 
ATOM     21  C   LIG d   1       3.789  -2.057 -10.456  0.00  0.00     0.160 C 
ATOM     22  O   LIG d   1       4.011  -3.110  -9.896  0.00  0.00    -0.292 OA
ATOM     23  C   LIG d   1       3.729  -1.986 -11.963  0.00  0.00     0.013 C 
ATOM     24  H   LIG d   1       4.240   1.406 -12.005  0.00  0.00     0.031 H 
ATOM     25  H   LIG d   1       2.705   0.543 -12.225  0.00  0.00     0.031 H 
ATOM     26  H   LIG d   1       5.602  -3.963  -6.248  0.00  0.00     0.062 H 
ATOM     27  H   LIG d   1       5.979  -4.021  -3.818  0.00  0.00     0.062 H 
ATOM     28  H   LIG d   1       5.179  -2.175  -2.403  0.00  0.00     0.065 H 
ATOM     29  H   LIG d   1       1.828   1.104  -8.142  0.00  0.00     0.030 H 
ATOM     30  H   LIG d   1       2.955   2.338  -7.520  0.00  0.00     0.030 H 
ATOM     31  H   LIG d   1       4.373   2.152  -9.460  0.00  0.00     0.031 H 
ATOM     32  H   LIG d   1       2.706   2.303 -10.049  0.00  0.00     0.031 H 
ATOM     33  H   LIG d   1       2.690  -1.957 -12.293  0.00  0.00     0.035 H 
ATOM     34  H   LIG d   1       4.234  -2.850 -12.397  0.00  0.00     0.035 H 
ENDROOT
BRANCH   1  35
ATOM     35  C   LIG d   1       4.463  -0.576 -13.902  0.00  0.00    -0.062 C 
ATOM     36  H   LIG d   1       5.223  -1.242 -14.311  0.00  0.00     0.023 H 
ATOM     37  H   LIG d   1       3.485  -0.853 -14.297  0.00  0.00     0.023 H 
ATOM     38  H   LIG d   1       4.692   0.452 -14.184  0.00  0.00     0.023 H 
ENDBRANCH   1  35
BRANCH  18  39
ATOM     39  O   LIG d   1       5.109   0.629  -7.615  0.00  0.00    -0.385 OA
ATOM     40  H   LIG d   1       5.696   0.060  -7.098  0.00  0.00     0.210 HD
ENDBRANCH  18  39
BRANCH  16  41
ATOM     41  O   LIG d   1       1.989  -0.029  -5.837  0.00  0.00    -0.384 OA
ATOM     42  H   LIG d   1       1.557  -0.391  -6.622  0.00  0.00     0.210 HD
ENDBRANCH  16  41
BRANCH  14  43
ATOM     43  O   LIG d   1       3.906  -0.054  -3.240  0.00  0.00    -0.506 OA
ATOM     44  H   LIG d   1       4.498   0.711  -3.214  0.00  0.00     0.292 HD
ENDBRANCH  14  43
TORSDOF 4
ENDMDL
MODEL 6
REMARK VINA RESULT:      -6.3      7.813     10.687
REMARK  4 active torsions:
REMARK  status: ('A' for Active; 'I' for Inactive)
REMARK    1  A    between atoms: C_1  and  C_2 
REMARK    2  A    between atoms: C_15  and  O_24 
REMARK    3  A    between atoms: C_17  and  O_23 
REMARK    4  A    between atoms: C_19  and  O_22 
ROOT
ATOM      1  C   LIG d   1      10.196   4.048  -6.418  0.00  0.00    -0.033 C 
ATOM      2  H   LIG d   1      11.202   3.942  -6.013  0.00  0.00     0.030 H 
ATOM      3  C   LIG d   1       9.911   5.518  -6.705  0.00  0.00    -0.028 C 
ATOM      4  C   LIG d   1       9.907   6.346  -5.439  0.00  0.00    -0.062 C 
ATOM      5  C   LIG d   1       9.638   5.806  -4.258  0.00  0.00     0.008 C 
ATOM      6  C   LIG d   1       9.594   6.607  -2.984  0.00  0.00     0.082 C 
ATOM      7  H   LIG d   1       8.557   6.828  -2.728  0.00  0.00     0.046 H 
ATOM      8  C   LIG d   1      10.240   5.834  -1.854  0.00  0.00     0.174 C 
ATOM      9  O   LIG d   1      10.448   4.643  -1.936  0.00  0.00    -0.291 OA
ATOM     10  C   LIG d   1      10.605   6.602  -0.644  0.00  0.00     0.027 A 
ATOM     11  C   LIG d   1      10.976   5.921   0.519  0.00  0.00    -0.051 A 
ATOM     12  C   LIG d   1      11.320   6.630   1.651  0.00  0.00    -0.058 A 
ATOM     13  C   LIG d   1      11.298   8.013   1.634  0.00  0.00    -0.020 A 
ATOM     14  C   LIG d   1      10.930   8.696   0.484  0.00  0.00     0.123 A 
ATOM     15  C   LIG d   1      10.582   7.997  -0.663  0.00  0.00     0.035 A 
ATOM     16  C   LIG d   1      10.186   8.767  -1.895  0.00  0.00     0.114 C 
ATOM     17  H   LIG d   1      10.801   9.663  -1.975  0.00  0.00     0.067 H 
ATOM     18  C   LIG d   1      10.373   7.915  -3.147  0.00  0.00     0.110 C 
ATOM     19  C   LIG d   1       9.827   8.627  -4.386  0.00  0.00    -0.017 C 
ATOM     20  C   LIG d   1      10.244   7.810  -5.609  0.00  0.00    -0.028 C 
ATOM     21  C   LIG d   1       9.376   4.360  -4.135  0.00  0.00     0.160 C 
ATOM     22  O   LIG d   1       9.331   3.831  -3.043  0.00  0.00    -0.292 OA
ATOM     23  C   LIG d   1       9.170   3.547  -5.391  0.00  0.00     0.013 C 
ATOM     24  H   LIG d   1      10.676   5.902  -7.379  0.00  0.00     0.031 H 
ATOM     25  H   LIG d   1       8.938   5.603  -7.189  0.00  0.00     0.031 H 
ATOM     26  H   LIG d   1      10.991   4.841   0.532  0.00  0.00     0.062 H 
ATOM     27  H   LIG d   1      11.606   6.106   2.551  0.00  0.00     0.062 H 
ATOM     28  H   LIG d   1      11.569   8.565   2.522  0.00  0.00     0.065 H 
ATOM     29  H   LIG d   1       8.741   8.690  -4.327  0.00  0.00     0.030 H 
ATOM     30  H   LIG d   1      10.252   9.629  -4.452  0.00  0.00     0.030 H 
ATOM     31  H   LIG d   1      11.317   7.912  -5.766  0.00  0.00     0.031 H 
ATOM     32  H   LIG d   1       9.719   8.196  -6.483  0.00  0.00     0.031 H 
ATOM     33  H   LIG d   1       8.158   3.698  -5.769  0.00  0.00     0.035 H 
ATOM     34  H   LIG d   1       9.336   2.490  -5.182  0.00  0.00     0.035 H 
ENDROOT
BRANCH   1  35
ATOM     35  C   LIG d   1      10.071   3.237  -7.710  0.00  0.00    -0.062 C 
ATOM     36  H   LIG d   1       9.774   3.897  -8.525  0.00  0.00     0.023 H 
ATOM     37  H   LIG d   1      11.031   2.778  -7.944  0.00  0.00     0.023 H 
ATOM     38  H   LIG d   1       9.318   2.460  -7.579  0.00  0.00     0.023 H 
ENDBRANCH   1  35
BRANCH  18  39
ATOM     39  O   LIG d   1      11.762   7.627  -3.320  0.00  0.00    -0.385 OA
ATOM     40  H   LIG d   1      12.351   8.278  -2.914  0.00  0.00     0.210 HD
ENDBRANCH  18  39
BRANCH  16  41
ATOM     41  O   LIG d   1       8.811   9.145  -1.795  0.00  0.00    -0.384 OA
ATOM     42  H   LIG d   1       8.667   9.987  -1.343  0.00  0.00     0.210 HD
ENDBRANCH  16  41
BRANCH  14  43
ATOM     43  O   LIG d   1      10.913  10.055   0.480  0.00  0.00    -0.506 OA
ATOM     44  H   LIG d   1      11.749  10.460   0.210  0.00  0.00     0.292 HD
ENDBRANCH  14  43
TORSDOF 4
ENDMDL
MODEL 7
REMARK VINA RESULT:      -6.1      2.976      4.596
REMARK  4 active torsions:
REMARK  status: ('A' for Active; 'I' for Inactive)
REMARK    1  A    between atoms: C_1  and  C_2 
REMARK    2  A    between atoms: C_15  and  O_24 
REMARK    3  A    between atoms: C_17  and  O_23 
REMARK    4  A    between atoms: C_19  and  O_22 
ROOT
ATOM      1  C   LIG d   1       9.962  -0.817  -8.375  0.00  0.00    -0.033 C 
ATOM      2  H   LIG d   1       9.732   0.238  -8.228  0.00  0.00     0.030 H 
ATOM      3  C   LIG d   1       8.757  -1.526  -8.981  0.00  0.00    -0.028 C 
ATOM      4  C   LIG d   1       7.571  -1.517  -8.043  0.00  0.00    -0.062 C 
ATOM      5  C   LIG d   1       7.726  -1.414  -6.729  0.00  0.00     0.008 C 
ATOM      6  C   LIG d   1       6.570  -1.435  -5.765  0.00  0.00     0.082 C 
ATOM      7  H   LIG d   1       6.479  -2.429  -5.326  0.00  0.00     0.046 H 
ATOM      8  C   LIG d   1       6.781  -0.413  -4.668  0.00  0.00     0.174 C 
ATOM      9  O   LIG d   1       7.868   0.082  -4.463  0.00  0.00    -0.291 OA
ATOM     10  C   LIG d   1       5.598  -0.048  -3.859  0.00  0.00     0.027 A 
ATOM     11  C   LIG d   1       5.767   0.694  -2.687  0.00  0.00    -0.051 A 
ATOM     12  C   LIG d   1       4.668   1.040  -1.928  0.00  0.00    -0.058 A 
ATOM     13  C   LIG d   1       3.402   0.652  -2.328  0.00  0.00    -0.020 A 
ATOM     14  C   LIG d   1       3.227  -0.085  -3.489  0.00  0.00     0.123 A 
ATOM     15  C   LIG d   1       4.322  -0.441  -4.264  0.00  0.00     0.035 A 
ATOM     16  C   LIG d   1       4.099  -1.243  -5.519  0.00  0.00     0.114 C 
ATOM     17  H   LIG d   1       3.181  -0.911  -6.002  0.00  0.00     0.067 H 
ATOM     18  C   LIG d   1       5.267  -1.070  -6.484  0.00  0.00     0.110 C 
ATOM     19  C   LIG d   1       5.129  -2.001  -7.690  0.00  0.00    -0.017 C 
ATOM     20  C   LIG d   1       6.212  -1.614  -8.698  0.00  0.00    -0.028 C 
ATOM     21  C   LIG d   1       9.070  -1.259  -6.142  0.00  0.00     0.160 C 
ATOM     22  O   LIG d   1       9.201  -0.964  -4.972  0.00  0.00    -0.292 OA
ATOM     23  C   LIG d   1      10.279  -1.470  -7.021  0.00  0.00     0.013 C 
ATOM     24  H   LIG d   1       8.480  -1.025  -9.909  0.00  0.00     0.031 H 
ATOM     25  H   LIG d   1       9.026  -2.558  -9.203  0.00  0.00     0.031 H 
ATOM     26  H   LIG d   1       6.756   0.995  -2.375  0.00  0.00     0.062 H 
ATOM     27  H   LIG d   1       4.797   1.613  -1.022  0.00  0.00     0.062 H 
ATOM     28  H   LIG d   1       2.544   0.926  -1.732  0.00  0.00     0.065 H 
ATOM     29  H   LIG d   1       5.260  -3.035  -7.375  0.00  0.00     0.030 H 
ATOM     30  H   LIG d   1       4.145  -1.873  -8.143  0.00  0.00     0.030 H 
ATOM     31  H   LIG d   1       5.964  -0.653  -9.147  0.00  0.00     0.031 H 
ATOM     32  H   LIG d   1       6.248  -2.372  -9.481  0.00  0.00     0.031 H 
ATOM     33  H   LIG d   1      10.460  -2.537  -7.154  0.00  0.00     0.035 H 
ATOM     34  H   LIG d   1      11.152  -0.996  -6.574  0.00  0.00     0.035 H 
ENDROOT
BRANCH   1  35
ATOM     35  C   LIG d   1      11.166  -0.957  -9.309  0.00  0.00    -0.062 C 
ATOM     36  H   LIG d   1      12.061  -0.592  -8.805  0.00  0.00     0.023 H 
ATOM     37  H   LIG d   1      11.300  -2.006  -9.575  0.00  0.00     0.023 H 
ATOM     38  H   LIG d   1      10.994  -0.372 -10.212  0.00  0.00     0.023 H 
ENDBRANCH   1  35
BRANCH  18  39
ATOM     39  O   LIG d   1       5.324   0.290  -6.919  0.00  0.00    -0.385 OA
ATOM     40  H   LIG d   1       6.217   0.662  -6.928  0.00  0.00     0.210 HD
ENDBRANCH  18  39
BRANCH  16  41
ATOM     41  O   LIG d   1       3.980  -2.627  -5.180  0.00  0.00    -0.384 OA
ATOM     42  H   LIG d   1       4.816  -3.045  -4.933  0.00  0.00     0.210 HD
ENDBRANCH  16  41
BRANCH  14  43
ATOM     43  O   LIG d   1       1.977  -0.460  -3.871  0.00  0.00    -0.506 OA
ATOM     44  H   LIG d   1       1.952  -0.969  -4.694  0.00  0.00     0.292 HD
ENDBRANCH  14  43
TORSDOF 4
ENDMDL
MODEL 8
REMARK VINA RESULT:      -5.8      3.284      3.965
REMARK  4 active torsions:
REMARK  status: ('A' for Active; 'I' for Inactive)
REMARK    1  A    between atoms: C_1  and  C_2 
REMARK    2  A    between atoms: C_15  and  O_24 
REMARK    3  A    between atoms: C_17  and  O_23 
REMARK    4  A    between atoms: C_19  and  O_22 
ROOT
ATOM      1  C   LIG d   1       6.513  -4.030  -9.908  0.00  0.00    -0.033 C 
ATOM      2  H   LIG d   1       7.335  -3.828  -9.222  0.00  0.00     0.030 H 
ATOM      3  C   LIG d   1       5.867  -2.717 -10.335  0.00  0.00    -0.028 C 
ATOM      4  C   LIG d   1       5.226  -2.002  -9.167  0.00  0.00    -0.062 C 
ATOM      5  C   LIG d   1       4.812  -2.660  -8.092  0.00  0.00     0.008 C 
ATOM      6  C   LIG d   1       4.142  -1.984  -6.927  0.00  0.00     0.082 C 
ATOM      7  H   LIG d   1       3.062  -2.121  -6.998  0.00  0.00     0.046 H 
ATOM      8  C   LIG d   1       4.642  -2.566  -5.622  0.00  0.00     0.174 C 
ATOM      9  O   LIG d   1       5.237  -3.621  -5.583  0.00  0.00    -0.291 OA
ATOM     10  C   LIG d   1       4.369  -1.785  -4.395  0.00  0.00     0.027 A 
ATOM     11  C   LIG d   1       4.582  -2.371  -3.144  0.00  0.00    -0.051 A 
ATOM     12  C   LIG d   1       4.331  -1.648  -1.996  0.00  0.00    -0.058 A 
ATOM     13  C   LIG d   1       3.871  -0.347  -2.084  0.00  0.00    -0.020 A 
ATOM     14  C   LIG d   1       3.657   0.240  -3.322  0.00  0.00     0.123 A 
ATOM     15  C   LIG d   1       3.904  -0.473  -4.487  0.00  0.00     0.035 A 
ATOM     16  C   LIG d   1       3.660   0.192  -5.816  0.00  0.00     0.114 C 
ATOM     17  H   LIG d   1       3.948   1.241  -5.753  0.00  0.00     0.067 H 
ATOM     18  C   LIG d   1       4.469  -0.488  -6.915  0.00  0.00     0.110 C 
ATOM     19  C   LIG d   1       4.111   0.074  -8.292  0.00  0.00    -0.017 C 
ATOM     20  C   LIG d   1       5.107  -0.500  -9.299  0.00  0.00    -0.028 C 
ATOM     21  C   LIG d   1       5.007  -4.118  -7.984  0.00  0.00     0.160 C 
ATOM     22  O   LIG d   1       4.817  -4.689  -6.930  0.00  0.00    -0.292 OA
ATOM     23  C   LIG d   1       5.451  -4.887  -9.205  0.00  0.00     0.013 C 
ATOM     24  H   LIG d   1       6.630  -2.072 -10.772  0.00  0.00     0.031 H 
ATOM     25  H   LIG d   1       5.105  -2.923 -11.087  0.00  0.00     0.031 H 
ATOM     26  H   LIG d   1       4.940  -3.388  -3.076  0.00  0.00     0.062 H 
ATOM     27  H   LIG d   1       4.495  -2.099  -1.028  0.00  0.00     0.062 H 
ATOM     28  H   LIG d   1       3.678   0.216  -1.183  0.00  0.00     0.065 H 
ATOM     29  H   LIG d   1       3.095  -0.218  -8.558  0.00  0.00     0.030 H 
ATOM     30  H   LIG d   1       4.190   1.162  -8.278  0.00  0.00     0.030 H 
ATOM     31  H   LIG d   1       6.086  -0.050  -9.139  0.00  0.00     0.031 H 
ATOM     32  H   LIG d   1       4.766  -0.258 -10.306  0.00  0.00     0.031 H 
ATOM     33  H   LIG d   1       4.602  -5.050  -9.870  0.00  0.00     0.035 H 
ATOM     34  H   LIG d   1       5.880  -5.844  -8.907  0.00  0.00     0.035 H 
ENDROOT
BRANCH   1  35
ATOM     35  C   LIG d   1       7.041  -4.769 -11.140  0.00  0.00    -0.062 C 
ATOM     36  H   LIG d   1       7.754  -5.532 -10.827  0.00  0.00     0.023 H 
ATOM     37  H   LIG d   1       6.210  -5.240 -11.665  0.00  0.00     0.023 H 
ATOM     38  H   LIG d   1       7.536  -4.060 -11.804  0.00  0.00     0.023 H 
ENDBRANCH   1  35
BRANCH  18  39
ATOM     39  O   LIG d   1       5.863  -0.304  -6.659  0.00  0.00    -0.385 OA
ATOM     40  H   LIG d   1       6.285   0.348  -7.235  0.00  0.00     0.210 HD
ENDBRANCH  18  39
BRANCH  16  41
ATOM     41  O   LIG d   1       2.271   0.103  -6.141  0.00  0.00    -0.384 OA
ATOM     42  H   LIG d   1       2.097  -0.204  -7.041  0.00  0.00     0.210 HD
ENDBRANCH  16  41
BRANCH  14  43
ATOM     43  O   LIG d   1       3.204   1.520  -3.395  0.00  0.00    -0.506 OA
ATOM     44  H   LIG d   1       3.216   1.991  -2.551  0.00  0.00     0.292 HD
ENDBRANCH  14  43
TORSDOF 4
ENDMDL
MODEL 9
REMARK VINA RESULT:      -5.7      9.633     13.709
REMARK  4 active torsions:
REMARK  status: ('A' for Active; 'I' for Inactive)
REMARK    1  A    between atoms: C_1  and  C_2 
REMARK    2  A    between atoms: C_15  and  O_24 
REMARK    3  A    between atoms: C_17  and  O_23 
REMARK    4  A    between atoms: C_19  and  O_22 
ROOT
ATOM      1  C   LIG d   1      11.805  12.613  -1.094  0.00  0.00    -0.033 C 
ATOM      2  H   LIG d   1      12.309  12.316  -2.013  0.00  0.00     0.030 H 
ATOM      3  C   LIG d   1      12.301  11.754   0.064  0.00  0.00    -0.028 C 
ATOM      4  C   LIG d   1      11.937  10.298  -0.122  0.00  0.00    -0.062 C 
ATOM      5  C   LIG d   1      10.898   9.932  -0.861  0.00  0.00     0.008 C 
ATOM      6  C   LIG d   1      10.489   8.494  -1.041  0.00  0.00     0.082 C 
ATOM      7  H   LIG d   1       9.653   8.267  -0.377  0.00  0.00     0.046 H 
ATOM      8  C   LIG d   1      10.081   8.238  -2.476  0.00  0.00     0.174 C 
ATOM      9  O   LIG d   1       9.831   9.147  -3.237  0.00  0.00    -0.291 OA
ATOM     10  C   LIG d   1      10.004   6.825  -2.905  0.00  0.00     0.027 A 
ATOM     11  C   LIG d   1       9.405   6.508  -4.128  0.00  0.00    -0.051 A 
ATOM     12  C   LIG d   1       9.330   5.192  -4.536  0.00  0.00    -0.058 A 
ATOM     13  C   LIG d   1       9.848   4.190  -3.736  0.00  0.00    -0.020 A 
ATOM     14  C   LIG d   1      10.443   4.496  -2.521  0.00  0.00     0.123 A 
ATOM     15  C   LIG d   1      10.526   5.815  -2.097  0.00  0.00     0.035 A 
ATOM     16  C   LIG d   1      11.176   6.116  -0.772  0.00  0.00     0.114 C 
ATOM     17  H   LIG d   1      12.024   5.447  -0.625  0.00  0.00     0.067 H 
ATOM     18  C   LIG d   1      11.662   7.560  -0.725  0.00  0.00     0.110 C 
ATOM     19  C   LIG d   1      12.180   7.924   0.667  0.00  0.00    -0.017 C 
ATOM     20  C   LIG d   1      12.838   9.301   0.570  0.00  0.00    -0.028 C 
ATOM     21  C   LIG d   1      10.086  10.940  -1.568  0.00  0.00     0.160 C 
ATOM     22  O   LIG d   1       9.269  10.601  -2.399  0.00  0.00    -0.292 OA
ATOM     23  C   LIG d   1      10.292  12.400  -1.243  0.00  0.00     0.013 C 
ATOM     24  H   LIG d   1      13.385  11.844   0.133  0.00  0.00     0.031 H 
ATOM     25  H   LIG d   1      11.856  12.116   0.991  0.00  0.00     0.031 H 
ATOM     26  H   LIG d   1       8.999   7.292  -4.751  0.00  0.00     0.062 H 
ATOM     27  H   LIG d   1       8.868   4.946  -5.481  0.00  0.00     0.062 H 
ATOM     28  H   LIG d   1       9.789   3.161  -4.060  0.00  0.00     0.065 H 
ATOM     29  H   LIG d   1      11.352   7.951   1.374  0.00  0.00     0.030 H 
ATOM     30  H   LIG d   1      12.918   7.188   0.989  0.00  0.00     0.030 H 
ATOM     31  H   LIG d   1      13.772   9.219   0.015  0.00  0.00     0.031 H 
ATOM     32  H   LIG d   1      13.054   9.657   1.578  0.00  0.00     0.031 H 
ATOM     33  H   LIG d   1       9.786  12.647  -0.309  0.00  0.00     0.035 H 
ATOM     34  H   LIG d   1       9.905  13.019  -2.051  0.00  0.00     0.035 H 
ENDROOT
BRANCH   1  35
ATOM     35  C   LIG d   1      12.093  14.087  -0.802  0.00  0.00    -0.062 C 
ATOM     36  H   LIG d   1      11.238  14.529  -0.289  0.00  0.00     0.023 H 
ATOM     37  H   LIG d   1      12.977  14.167  -0.171  0.00  0.00     0.023 H 
ATOM     38  H   LIG d   1      12.266  14.615  -1.740  0.00  0.00     0.023 H 
ENDBRANCH   1  35
BRANCH  18  39
ATOM     39  O   LIG d   1      12.695   7.744  -1.696  0.00  0.00    -0.385 OA
ATOM     40  H   LIG d   1      13.403   7.088  -1.644  0.00  0.00     0.210 HD
ENDBRANCH  18  39
BRANCH  16  41
ATOM     41  O   LIG d   1      10.228   5.912   0.277  0.00  0.00    -0.384 OA
ATOM     42  H   LIG d   1      10.174   6.644   0.906  0.00  0.00     0.210 HD
ENDBRANCH  16  41
BRANCH  14  43
ATOM     43  O   LIG d   1      10.948   3.502  -1.745  0.00  0.00    -0.506 OA
ATOM     44  H   LIG d   1      10.402   2.704  -1.721  0.00  0.00     0.292 HD
ENDBRANCH  14  43
TORSDOF 4
ENDMDL
