MODEL 1
REMARK VINA RESULT:      -5.6      0.000      0.000
REMARK  18 active torsions:
REMARK  status: ('A' for Active; 'I' for Inactive)
REMARK    1  A    between atoms: C_1  and  C_2 
REMARK    2  A    between atoms: C_3  and  C_4 
REMARK    3  A    between atoms: C_5  and  C_6 
REMARK    4  A    between atoms: C_7  and  C_8 
REMARK    5  A    between atoms: C_8  and  C_10 
REMARK    6  A    between atoms: C_8  and  O_35 
REMARK    7  A    between atoms: C_10  and  C_12 
REMARK    8  A    between atoms: C_10  and  O_18 
REMARK    9  A    between atoms: C_13  and  C_14 
REMARK   10  A    between atoms: C_14  and  C_15 
REMARK   11  A    between atoms: C_15  and  C_16 
REMARK   12  A    between atoms: C_16  and  O_17 
REMARK   13  A    between atoms: O_18  and  C_19 
REMARK   14  A    between atoms: C_21  and  O_34 
REMARK   15  A    between atoms: C_23  and  O_33 
REMARK   16  A    between atoms: C_25  and  O_32 
REMARK   17  A    between atoms: C_27  and  C_30 
REMARK   18  A    between atoms: C_30  and  O_31 
ROOT
ATOM      1  C   LIG d   1       6.242   0.093  -3.852  0.00  0.00     0.117 C 
ATOM      2  H   LIG d   1       5.926  -0.947  -3.786  0.00  0.00     0.068 H 
ENDROOT
BRANCH   1   3
ATOM      3  C   LIG d   1       7.744   0.189  -3.579  0.00  0.00     0.146 C 
ATOM      4  H   LIG d   1       7.934  -0.001  -2.523  0.00  0.00     0.076 H 
BRANCH   3   5
ATOM      5  C   LIG d   1       8.221   1.537  -3.927  0.00  0.00    -0.054 C 
ATOM      6  C   LIG d   1       8.602   2.612  -4.205  0.00  0.00    -0.012 C 
BRANCH   6   7
ATOM      7  C   LIG d   1       9.048   3.874  -4.532  0.00  0.00    -0.010 C 
ATOM      8  C   LIG d   1       9.428   4.949  -4.811  0.00  0.00    -0.061 C 
BRANCH   8   9
ATOM      9  C   LIG d   1       9.891   6.261  -5.151  0.00  0.00    -0.015 C 
ATOM     10  C   LIG d   1      10.004   7.193  -4.205  0.00  0.00    -0.079 C 
ATOM     11  H   LIG d   1      10.354   8.182  -4.460  0.00  0.00     0.058 H 
ATOM     12  H   LIG d   1      10.149   6.495  -6.172  0.00  0.00     0.071 H 
BRANCH  10  13
ATOM     13  C   LIG d   1       9.645   6.867  -2.777  0.00  0.00    -0.046 C 
ATOM     14  H   LIG d   1       8.992   5.994  -2.758  0.00  0.00     0.027 H 
ATOM     15  H   LIG d   1      10.554   6.654  -2.215  0.00  0.00     0.027 H 
ATOM     16  H   LIG d   1       9.130   7.715  -2.328  0.00  0.00     0.027 H 
ENDBRANCH  10  13
ENDBRANCH   8   9
ENDBRANCH   6   7
ENDBRANCH   3   5
BRANCH   3  17
ATOM     17  O   LIG d   1       8.435  -0.780  -4.370  0.00  0.00    -0.376 OA
ATOM     18  H   LIG d   1       7.860  -1.295  -4.951  0.00  0.00     0.211 HD
ENDBRANCH   3  17
ENDBRANCH   1   3
BRANCH   1  19
ATOM     19  C   LIG d   1       5.493   0.912  -2.832  0.00  0.00    -0.056 C 
ATOM     20  C   LIG d   1       4.643   0.330  -2.023  0.00  0.00    -0.085 C 
ATOM     21  H   LIG d   1       3.986   0.929  -1.409  0.00  0.00     0.057 H 
ATOM     22  H   LIG d   1       5.656   1.978  -2.770  0.00  0.00     0.060 H 
BRANCH  20  23
ATOM     23  C   LIG d   1       4.582  -1.174  -1.947  0.00  0.00    -0.033 C 
ATOM     24  H   LIG d   1       5.428  -1.599  -2.489  0.00  0.00     0.031 H 
ATOM     25  H   LIG d   1       4.624  -1.487  -0.904  0.00  0.00     0.031 H 
BRANCH  23  26
ATOM     26  C   LIG d   1       3.276  -1.664  -2.574  0.00  0.00    -0.026 C 
ATOM     27  H   LIG d   1       3.470  -2.556  -3.169  0.00  0.00     0.029 H 
ATOM     28  H   LIG d   1       2.562  -1.901  -1.785  0.00  0.00     0.029 H 
BRANCH  26  29
ATOM     29  C   LIG d   1       2.698  -0.568  -3.471  0.00  0.00     0.044 C 
ATOM     30  H   LIG d   1       1.619  -0.514  -3.330  0.00  0.00     0.056 H 
ATOM     31  H   LIG d   1       3.146   0.391  -3.207  0.00  0.00     0.056 H 
BRANCH  29  32
ATOM     32  O   LIG d   1       2.987  -0.868  -4.838  0.00  0.00    -0.395 OA
ATOM     33  H   LIG d   1       2.273  -0.641  -5.450  0.00  0.00     0.209 HD
ENDBRANCH  29  32
ENDBRANCH  26  29
ENDBRANCH  23  26
ENDBRANCH  20  23
ENDBRANCH   1  19
BRANCH   1  34
ATOM     34  O   LIG d   1       5.963   0.594  -5.162  0.00  0.00    -0.338 OA
BRANCH  34  35
ATOM     35  C   LIG d   1       6.098  -0.381  -6.198  0.00  0.00     0.189 C 
ATOM     36  H   LIG d   1       7.153  -0.515  -6.436  0.00  0.00     0.094 H 
ATOM     37  O   LIG d   1       5.548  -1.624  -5.757  0.00  0.00    -0.341 OA
ATOM     38  C   LIG d   1       5.654  -2.682  -6.712  0.00  0.00     0.113 C 
ATOM     39  C   LIG d   1       4.888  -2.300  -7.981  0.00  0.00     0.112 C 
ATOM     40  H   LIG d   1       6.704  -2.845  -6.957  0.00  0.00     0.065 H 
ATOM     41  C   LIG d   1       5.447  -0.984  -8.530  0.00  0.00     0.114 C 
ATOM     42  H   LIG d   1       5.004  -3.085  -8.728  0.00  0.00     0.065 H 
ATOM     43  C   LIG d   1       5.349   0.093  -7.445  0.00  0.00     0.134 C 
ATOM     44  H   LIG d   1       6.490  -1.122  -8.814  0.00  0.00     0.065 H 
ATOM     45  H   LIG d   1       5.796   1.018  -7.809  0.00  0.00     0.067 H 
BRANCH  38  46
ATOM     46  C   LIG d   1       5.062  -3.963  -6.123  0.00  0.00     0.073 C 
ATOM     47  H   LIG d   1       4.745  -4.622  -6.932  0.00  0.00     0.058 H 
ATOM     48  H   LIG d   1       5.816  -4.466  -5.518  0.00  0.00     0.058 H 
BRANCH  46  49
ATOM     49  O   LIG d   1       3.936  -3.635  -5.306  0.00  0.00    -0.392 OA
ATOM     50  H   LIG d   1       4.169  -3.364  -4.407  0.00  0.00     0.209 HD
ENDBRANCH  46  49
ENDBRANCH  38  46
BRANCH  39  51
ATOM     51  O   LIG d   1       3.502  -2.136  -7.672  0.00  0.00    -0.387 OA
ATOM     52  H   LIG d   1       2.929  -2.812  -8.062  0.00  0.00     0.210 HD
ENDBRANCH  39  51
BRANCH  41  53
ATOM     53  O   LIG d   1       4.691  -0.581  -9.673  0.00  0.00    -0.386 OA
ATOM     54  H   LIG d   1       5.206  -0.102 -10.337  0.00  0.00     0.210 HD
ENDBRANCH  41  53
BRANCH  43  55
ATOM     55  O   LIG d   1       3.977   0.321  -7.121  0.00  0.00    -0.384 OA
ATOM     56  H   LIG d   1       3.741   1.256  -7.040  0.00  0.00     0.210 HD
ENDBRANCH  43  55
ENDBRANCH  34  35
ENDBRANCH   1  34
TORSDOF 18
ENDMDL
MODEL 2
REMARK VINA RESULT:      -5.6      3.716      6.168
REMARK  18 active torsions:
REMARK  status: ('A' for Active; 'I' for Inactive)
REMARK    1  A    between atoms: C_1  and  C_2 
REMARK    2  A    between atoms: C_3  and  C_4 
REMARK    3  A    between atoms: C_5  and  C_6 
REMARK    4  A    between atoms: C_7  and  C_8 
REMARK    5  A    between atoms: C_8  and  C_10 
REMARK    6  A    between atoms: C_8  and  O_35 
REMARK    7  A    between atoms: C_10  and  C_12 
REMARK    8  A    between atoms: C_10  and  O_18 
REMARK    9  A    between atoms: C_13  and  C_14 
REMARK   10  A    between atoms: C_14  and  C_15 
REMARK   11  A    between atoms: C_15  and  C_16 
REMARK   12  A    between atoms: C_16  and  O_17 
REMARK   13  A    between atoms: O_18  and  C_19 
REMARK   14  A    between atoms: C_21  and  O_34 
REMARK   15  A    between atoms: C_23  and  O_33 
REMARK   16  A    between atoms: C_25  and  O_32 
REMARK   17  A    between atoms: C_27  and  C_30 
REMARK   18  A    between atoms: C_30  and  O_31 
ROOT
ATOM      1  C   LIG d   1       5.764  -1.871  -3.481  0.00  0.00     0.117 C 
ATOM      2  H   LIG d   1       5.923  -0.838  -3.785  0.00  0.00     0.068 H 
ENDROOT
BRANCH   1   3
ATOM      3  C   LIG d   1       5.288  -2.689  -4.684  0.00  0.00     0.146 C 
ATOM      4  H   LIG d   1       6.135  -3.215  -5.123  0.00  0.00     0.076 H 
BRANCH   3   5
ATOM      5  C   LIG d   1       4.697  -1.789  -5.686  0.00  0.00    -0.054 C 
ATOM      6  C   LIG d   1       4.225  -1.071  -6.486  0.00  0.00    -0.012 C 
BRANCH   6   7
ATOM      7  C   LIG d   1       3.671  -0.228  -7.424  0.00  0.00    -0.010 C 
ATOM      8  C   LIG d   1       3.199   0.491  -8.223  0.00  0.00    -0.061 C 
BRANCH   8   9
ATOM      9  C   LIG d   1       2.623   1.368  -9.199  0.00  0.00    -0.015 C 
ATOM     10  C   LIG d   1       3.347   2.362  -9.710  0.00  0.00    -0.079 C 
ATOM     11  H   LIG d   1       2.914   3.023 -10.447  0.00  0.00     0.058 H 
ATOM     12  H   LIG d   1       1.602   1.223  -9.519  0.00  0.00     0.071 H 
BRANCH  10  13
ATOM     13  C   LIG d   1       4.773   2.564  -9.264  0.00  0.00    -0.046 C 
ATOM     14  H   LIG d   1       4.874   3.549  -8.806  0.00  0.00     0.027 H 
ATOM     15  H   LIG d   1       5.038   1.797  -8.537  0.00  0.00     0.027 H 
ATOM     16  H   LIG d   1       5.437   2.495 -10.125  0.00  0.00     0.027 H 
ENDBRANCH  10  13
ENDBRANCH   8   9
ENDBRANCH   6   7
ENDBRANCH   3   5
BRANCH   3  17
ATOM     17  O   LIG d   1       4.308  -3.637  -4.256  0.00  0.00    -0.376 OA
ATOM     18  H   LIG d   1       4.068  -4.285  -4.931  0.00  0.00     0.211 HD
ENDBRANCH   3  17
ENDBRANCH   1   3
BRANCH   1  19
ATOM     19  C   LIG d   1       4.720  -1.921  -2.396  0.00  0.00    -0.056 C 
ATOM     20  C   LIG d   1       4.403  -0.831  -1.742  0.00  0.00    -0.085 C 
ATOM     21  H   LIG d   1       3.784  -0.892  -0.859  0.00  0.00     0.057 H 
ATOM     22  H   LIG d   1       4.235  -2.856  -2.155  0.00  0.00     0.060 H 
BRANCH  20  23
ATOM     23  C   LIG d   1       4.900   0.508  -2.223  0.00  0.00    -0.033 C 
ATOM     24  H   LIG d   1       5.492   0.979  -1.437  0.00  0.00     0.031 H 
ATOM     25  H   LIG d   1       5.519   0.368  -3.110  0.00  0.00     0.031 H 
BRANCH  23  26
ATOM     26  C   LIG d   1       3.708   1.401  -2.569  0.00  0.00    -0.026 C 
ATOM     27  H   LIG d   1       3.025   1.440  -1.721  0.00  0.00     0.029 H 
ATOM     28  H   LIG d   1       4.062   2.407  -2.797  0.00  0.00     0.029 H 
BRANCH  26  29
ATOM     29  C   LIG d   1       2.979   0.829  -3.786  0.00  0.00     0.044 C 
ATOM     30  H   LIG d   1       3.602   0.072  -4.261  0.00  0.00     0.056 H 
ATOM     31  H   LIG d   1       2.039   0.377  -3.466  0.00  0.00     0.056 H 
BRANCH  29  32
ATOM     32  O   LIG d   1       2.710   1.879  -4.718  0.00  0.00    -0.395 OA
ATOM     33  H   LIG d   1       1.866   2.328  -4.572  0.00  0.00     0.209 HD
ENDBRANCH  29  32
ENDBRANCH  26  29
ENDBRANCH  23  26
ENDBRANCH  20  23
ENDBRANCH   1  19
BRANCH   1  34
ATOM     34  O   LIG d   1       6.990  -2.417  -2.989  0.00  0.00    -0.338 OA
BRANCH  34  35
ATOM     35  C   LIG d   1       7.919  -2.777  -4.013  0.00  0.00     0.189 C 
ATOM     36  H   LIG d   1       7.376  -3.143  -4.884  0.00  0.00     0.094 H 
ATOM     37  O   LIG d   1       8.691  -1.632  -4.379  0.00  0.00    -0.341 OA
ATOM     38  C   LIG d   1       9.640  -1.876  -5.420  0.00  0.00     0.113 C 
ATOM     39  C   LIG d   1      10.641  -2.938  -4.958  0.00  0.00     0.112 C 
ATOM     40  H   LIG d   1       9.119  -2.231  -6.310  0.00  0.00     0.065 H 
ATOM     41  C   LIG d   1       9.882  -4.212  -4.575  0.00  0.00     0.114 C 
ATOM     42  H   LIG d   1      11.338  -3.158  -5.766  0.00  0.00     0.065 H 
ATOM     43  C   LIG d   1       8.851  -3.875  -3.493  0.00  0.00     0.134 C 
ATOM     44  H   LIG d   1       9.373  -4.610  -5.453  0.00  0.00     0.065 H 
ATOM     45  H   LIG d   1       8.269  -4.764  -3.255  0.00  0.00     0.067 H 
BRANCH  38  46
ATOM     46  C   LIG d   1      10.384  -0.580  -5.747  0.00  0.00     0.073 C 
ATOM     47  H   LIG d   1      11.386  -0.817  -6.103  0.00  0.00     0.058 H 
ATOM     48  H   LIG d   1       9.841  -0.035  -6.520  0.00  0.00     0.058 H 
BRANCH  46  49
ATOM     49  O   LIG d   1      10.474   0.227  -4.570  0.00  0.00    -0.392 OA
ATOM     50  H   LIG d   1       9.830  -0.003  -3.887  0.00  0.00     0.209 HD
ENDBRANCH  46  49
ENDBRANCH  38  46
BRANCH  39  51
ATOM     51  O   LIG d   1      11.362  -2.453  -3.823  0.00  0.00    -0.387 OA
ATOM     52  H   LIG d   1      12.164  -1.960  -4.047  0.00  0.00     0.210 HD
ENDBRANCH  39  51
BRANCH  41  53
ATOM     53  O   LIG d   1      10.800  -5.185  -4.073  0.00  0.00    -0.386 OA
ATOM     54  H   LIG d   1      10.680  -6.069  -4.446  0.00  0.00     0.210 HD
ENDBRANCH  41  53
BRANCH  43  55
ATOM     55  O   LIG d   1       9.522  -3.415  -2.319  0.00  0.00    -0.384 OA
ATOM     56  H   LIG d   1      10.310  -3.927  -2.090  0.00  0.00     0.210 HD
ENDBRANCH  43  55
ENDBRANCH  34  35
ENDBRANCH   1  34
TORSDOF 18
ENDMDL
MODEL 3
REMARK VINA RESULT:      -5.5      5.022      9.860
REMARK  18 active torsions:
REMARK  status: ('A' for Active; 'I' for Inactive)
REMARK    1  A    between atoms: C_1  and  C_2 
REMARK    2  A    between atoms: C_3  and  C_4 
REMARK    3  A    between atoms: C_5  and  C_6 
REMARK    4  A    between atoms: C_7  and  C_8 
REMARK    5  A    between atoms: C_8  and  C_10 
REMARK    6  A    between atoms: C_8  and  O_35 
REMARK    7  A    between atoms: C_10  and  C_12 
REMARK    8  A    between atoms: C_10  and  O_18 
REMARK    9  A    between atoms: C_13  and  C_14 
REMARK   10  A    between atoms: C_14  and  C_15 
REMARK   11  A    between atoms: C_15  and  C_16 
REMARK   12  A    between atoms: C_16  and  O_17 
REMARK   13  A    between atoms: O_18  and  C_19 
REMARK   14  A    between atoms: C_21  and  O_34 
REMARK   15  A    between atoms: C_23  and  O_33 
REMARK   16  A    between atoms: C_25  and  O_32 
REMARK   17  A    between atoms: C_27  and  C_30 
REMARK   18  A    between atoms: C_30  and  O_31 
ROOT
ATOM      1  C   LIG d   1      10.524   4.191  -4.213  0.00  0.00     0.117 C 
ATOM      2  H   LIG d   1      11.488   4.674  -4.369  0.00  0.00     0.068 H 
ENDROOT
BRANCH   1   3
ATOM      3  C   LIG d   1      10.736   2.694  -3.974  0.00  0.00     0.146 C 
ATOM      4  H   LIG d   1      11.320   2.274  -4.793  0.00  0.00     0.076 H 
BRANCH   3   5
ATOM      5  C   LIG d   1       9.431   2.019  -3.905  0.00  0.00    -0.054 C 
ATOM      6  C   LIG d   1       8.389   1.481  -3.850  0.00  0.00    -0.012 C 
BRANCH   6   7
ATOM      7  C   LIG d   1       7.167   0.849  -3.787  0.00  0.00    -0.010 C 
ATOM      8  C   LIG d   1       6.125   0.310  -3.732  0.00  0.00    -0.061 C 
BRANCH   8   9
ATOM      9  C   LIG d   1       4.854  -0.347  -3.665  0.00  0.00    -0.015 C 
ATOM     10  C   LIG d   1       4.020  -0.083  -2.660  0.00  0.00    -0.079 C 
ATOM     11  H   LIG d   1       3.061  -0.576  -2.610  0.00  0.00     0.058 H 
ATOM     12  H   LIG d   1       4.571  -1.055  -4.429  0.00  0.00     0.071 H 
BRANCH  10  13
ATOM     13  C   LIG d   1       4.413   0.908  -1.593  0.00  0.00    -0.046 C 
ATOM     14  H   LIG d   1       3.613   1.637  -1.463  0.00  0.00     0.027 H 
ATOM     15  H   LIG d   1       4.581   0.381  -0.654  0.00  0.00     0.027 H 
ATOM     16  H   LIG d   1       5.327   1.420  -1.892  0.00  0.00     0.027 H 
ENDBRANCH  10  13
ENDBRANCH   8   9
ENDBRANCH   6   7
ENDBRANCH   3   5
BRANCH   3  17
ATOM     17  O   LIG d   1      11.437   2.504  -2.743  0.00  0.00    -0.376 OA
ATOM     18  H   LIG d   1      12.383   2.341  -2.850  0.00  0.00     0.211 HD
ENDBRANCH   3  17
ENDBRANCH   1   3
BRANCH   1  19
ATOM     19  C   LIG d   1       9.662   4.386  -5.433  0.00  0.00    -0.056 C 
ATOM     20  C   LIG d   1       9.917   5.366  -6.265  0.00  0.00    -0.085 C 
ATOM     21  H   LIG d   1       9.208   5.611  -7.044  0.00  0.00     0.057 H 
ATOM     22  H   LIG d   1       8.832   3.720  -5.621  0.00  0.00     0.060 H 
BRANCH  20  23
ATOM     23  C   LIG d   1      11.198   6.149  -6.137  0.00  0.00    -0.033 C 
ATOM     24  H   LIG d   1      11.706   5.865  -5.215  0.00  0.00     0.031 H 
ATOM     25  H   LIG d   1      11.842   5.933  -6.989  0.00  0.00     0.031 H 
BRANCH  23  26
ATOM     26  C   LIG d   1      10.880   7.645  -6.106  0.00  0.00    -0.026 C 
ATOM     27  H   LIG d   1      11.424   8.115  -5.288  0.00  0.00     0.029 H 
ATOM     28  H   LIG d   1      11.179   8.099  -7.051  0.00  0.00     0.029 H 
BRANCH  26  29
ATOM     29  C   LIG d   1       9.377   7.843  -5.899  0.00  0.00     0.044 C 
ATOM     30  H   LIG d   1       8.990   8.517  -6.663  0.00  0.00     0.056 H 
ATOM     31  H   LIG d   1       8.871   6.880  -5.975  0.00  0.00     0.056 H 
BRANCH  29  32
ATOM     32  O   LIG d   1       9.143   8.403  -4.606  0.00  0.00    -0.395 OA
ATOM     33  H   LIG d   1       8.354   8.961  -4.555  0.00  0.00     0.209 HD
ENDBRANCH  29  32
ENDBRANCH  26  29
ENDBRANCH  23  26
ENDBRANCH  20  23
ENDBRANCH   1  19
BRANCH   1  34
ATOM     34  O   LIG d   1       9.879   4.769  -3.076  0.00  0.00    -0.338 OA
BRANCH  34  35
ATOM     35  C   LIG d   1      10.543   5.922  -2.555  0.00  0.00     0.189 C 
ATOM     36  H   LIG d   1      11.025   6.463  -3.369  0.00  0.00     0.094 H 
ATOM     37  O   LIG d   1       9.589   6.773  -1.917  0.00  0.00    -0.341 OA
ATOM     38  C   LIG d   1      10.145   7.975  -1.380  0.00  0.00     0.113 C 
ATOM     39  C   LIG d   1      11.185   7.621  -0.313  0.00  0.00     0.112 C 
ATOM     40  H   LIG d   1      10.622   8.542  -2.179  0.00  0.00     0.065 H 
ATOM     41  C   LIG d   1      12.262   6.730  -0.937  0.00  0.00     0.114 C 
ATOM     42  H   LIG d   1      11.643   8.535   0.066  0.00  0.00     0.065 H 
ATOM     43  C   LIG d   1      11.598   5.486  -1.536  0.00  0.00     0.134 C 
ATOM     44  H   LIG d   1      12.781   7.280  -1.722  0.00  0.00     0.065 H 
ATOM     45  H   LIG d   1      12.351   4.873  -2.030  0.00  0.00     0.067 H 
BRANCH  38  46
ATOM     46  C   LIG d   1       9.033   8.815  -0.750  0.00  0.00     0.073 C 
ATOM     47  H   LIG d   1       9.234   8.946   0.313  0.00  0.00     0.058 H 
ATOM     48  H   LIG d   1       8.995   9.790  -1.237  0.00  0.00     0.058 H 
BRANCH  46  49
ATOM     49  O   LIG d   1       7.779   8.150  -0.920  0.00  0.00    -0.392 OA
ATOM     50  H   LIG d   1       7.836   7.330  -1.429  0.00  0.00     0.209 HD
ENDBRANCH  46  49
ENDBRANCH  38  46
BRANCH  39  51
ATOM     51  O   LIG d   1      10.551   6.923   0.760  0.00  0.00    -0.387 OA
ATOM     52  H   LIG d   1       9.649   6.632   0.562  0.00  0.00     0.210 HD
ENDBRANCH  39  51
BRANCH  41  53
ATOM     53  O   LIG d   1      13.199   6.334   0.067  0.00  0.00    -0.386 OA
ATOM     54  H   LIG d   1      13.659   5.506  -0.128  0.00  0.00     0.210 HD
ENDBRANCH  41  53
BRANCH  43  55
ATOM     55  O   LIG d   1      10.974   4.729  -0.496  0.00  0.00    -0.384 OA
ATOM     56  H   LIG d   1      11.566   4.105  -0.055  0.00  0.00     0.210 HD
ENDBRANCH  43  55
ENDBRANCH  34  35
ENDBRANCH   1  34
TORSDOF 18
ENDMDL
MODEL 4
REMARK VINA RESULT:      -5.4      3.528      6.877
REMARK  18 active torsions:
REMARK  status: ('A' for Active; 'I' for Inactive)
REMARK    1  A    between atoms: C_1  and  C_2 
REMARK    2  A    between atoms: C_3  and  C_4 
REMARK    3  A    between atoms: C_5  and  C_6 
REMARK    4  A    between atoms: C_7  and  C_8 
REMARK    5  A    between atoms: C_8  and  C_10 
REMARK    6  A    between atoms: C_8  and  O_35 
REMARK    7  A    between atoms: C_10  and  C_12 
REMARK    8  A    between atoms: C_10  and  O_18 
REMARK    9  A    between atoms: C_13  and  C_14 
REMARK   10  A    between atoms: C_14  and  C_15 
REMARK   11  A    between atoms: C_15  and  C_16 
REMARK   12  A    between atoms: C_16  and  O_17 
REMARK   13  A    between atoms: O_18  and  C_19 
REMARK   14  A    between atoms: C_21  and  O_34 
REMARK   15  A    between atoms: C_23  and  O_33 
REMARK   16  A    between atoms: C_25  and  O_32 
REMARK   17  A    between atoms: C_27  and  C_30 
REMARK   18  A    between atoms: C_30  and  O_31 
ROOT
ATOM      1  C   LIG d   1       5.907  -1.030  -4.446  0.00  0.00     0.117 C 
ATOM      2  H   LIG d   1       4.971  -1.520  -4.709  0.00  0.00     0.068 H 
ENDROOT
BRANCH   1   3
ATOM      3  C   LIG d   1       7.069  -2.002  -4.657  0.00  0.00     0.146 C 
ATOM      4  H   LIG d   1       7.699  -1.643  -5.472  0.00  0.00     0.076 H 
BRANCH   3   5
ATOM      5  C   LIG d   1       6.540  -3.332  -4.996  0.00  0.00    -0.054 C 
ATOM      6  C   LIG d   1       6.118  -4.394  -5.266  0.00  0.00    -0.012 C 
BRANCH   6   7
ATOM      7  C   LIG d   1       5.623  -5.640  -5.583  0.00  0.00    -0.010 C 
ATOM      8  C   LIG d   1       5.201  -6.702  -5.853  0.00  0.00    -0.061 C 
BRANCH   8   9
ATOM      9  C   LIG d   1       4.686  -7.997  -6.182  0.00  0.00    -0.015 C 
ATOM     10  C   LIG d   1       5.130  -9.074  -5.535  0.00  0.00    -0.079 C 
ATOM     11  H   LIG d   1       4.741 -10.051  -5.781  0.00  0.00     0.058 H 
ATOM     12  H   LIG d   1       3.938  -8.101  -6.953  0.00  0.00     0.071 H 
BRANCH  10  13
ATOM     13  C   LIG d   1       6.174  -8.930  -4.456  0.00  0.00    -0.046 C 
ATOM     14  H   LIG d   1       7.108  -8.584  -4.899  0.00  0.00     0.027 H 
ATOM     15  H   LIG d   1       5.833  -8.206  -3.716  0.00  0.00     0.027 H 
ATOM     16  H   LIG d   1       6.335  -9.894  -3.975  0.00  0.00     0.027 H 
ENDBRANCH  10  13
ENDBRANCH   8   9
ENDBRANCH   6   7
ENDBRANCH   3   5
BRANCH   3  17
ATOM     17  O   LIG d   1       7.842  -2.087  -3.458  0.00  0.00    -0.376 OA
ATOM     18  H   LIG d   1       7.789  -1.301  -2.899  0.00  0.00     0.211 HD
ENDBRANCH   3  17
ENDBRANCH   1   3
BRANCH   1  19
ATOM     19  C   LIG d   1       5.862  -0.607  -3.000  0.00  0.00    -0.056 C 
ATOM     20  C   LIG d   1       4.743  -0.700  -2.325  0.00  0.00    -0.085 C 
ATOM     21  H   LIG d   1       4.664  -0.247  -1.347  0.00  0.00     0.057 H 
ATOM     22  H   LIG d   1       6.753  -0.228  -2.521  0.00  0.00     0.060 H 
BRANCH  20  23
ATOM     23  C   LIG d   1       3.568  -1.438  -2.911  0.00  0.00    -0.033 C 
ATOM     24  H   LIG d   1       3.858  -1.884  -3.863  0.00  0.00     0.031 H 
ATOM     25  H   LIG d   1       3.252  -2.223  -2.223  0.00  0.00     0.031 H 
BRANCH  23  26
ATOM     26  C   LIG d   1       2.412  -0.461  -3.135  0.00  0.00    -0.026 C 
ATOM     27  H   LIG d   1       1.474  -0.938  -2.854  0.00  0.00     0.029 H 
ATOM     28  H   LIG d   1       2.565   0.428  -2.524  0.00  0.00     0.029 H 
BRANCH  26  29
ATOM     29  C   LIG d   1       2.360  -0.062  -4.611  0.00  0.00     0.044 C 
ATOM     30  H   LIG d   1       2.800  -0.854  -5.217  0.00  0.00     0.056 H 
ATOM     31  H   LIG d   1       1.322   0.089  -4.909  0.00  0.00     0.056 H 
BRANCH  29  32
ATOM     32  O   LIG d   1       3.093   1.149  -4.804  0.00  0.00    -0.395 OA
ATOM     33  H   LIG d   1       3.756   1.320  -4.122  0.00  0.00     0.209 HD
ENDBRANCH  29  32
ENDBRANCH  26  29
ENDBRANCH  23  26
ENDBRANCH  20  23
ENDBRANCH   1  19
BRANCH   1  34
ATOM     34  O   LIG d   1       6.092   0.122  -5.272  0.00  0.00    -0.338 OA
BRANCH  34  35
ATOM     35  C   LIG d   1       5.852  -0.115  -6.661  0.00  0.00     0.189 C 
ATOM     36  H   LIG d   1       5.699  -1.182  -6.827  0.00  0.00     0.094 H 
ATOM     37  O   LIG d   1       4.687   0.603  -7.072  0.00  0.00    -0.341 OA
ATOM     38  C   LIG d   1       4.340   0.415  -8.446  0.00  0.00     0.113 C 
ATOM     39  C   LIG d   1       5.485   0.912  -9.333  0.00  0.00     0.112 C 
ATOM     40  H   LIG d   1       4.168  -0.645  -8.635  0.00  0.00     0.065 H 
ATOM     41  C   LIG d   1       6.767   0.160  -8.966  0.00  0.00     0.114 C 
ATOM     42  H   LIG d   1       5.241   0.729 -10.379  0.00  0.00     0.065 H 
ATOM     43  C   LIG d   1       7.057   0.361  -7.475  0.00  0.00     0.134 C 
ATOM     44  H   LIG d   1       6.639  -0.903  -9.172  0.00  0.00     0.065 H 
ATOM     45  H   LIG d   1       7.938  -0.216  -7.194  0.00  0.00     0.067 H 
BRANCH  38  46
ATOM     46  C   LIG d   1       3.068   1.204  -8.764  0.00  0.00     0.073 C 
ATOM     47  H   LIG d   1       3.177   1.694  -9.731  0.00  0.00     0.058 H 
ATOM     48  H   LIG d   1       2.218   0.523  -8.795  0.00  0.00     0.058 H 
BRANCH  46  49
ATOM     49  O   LIG d   1       2.853   2.189  -7.751  0.00  0.00    -0.392 OA
ATOM     50  H   LIG d   1       1.953   2.541  -7.730  0.00  0.00     0.209 HD
ENDBRANCH  46  49
ENDBRANCH  38  46
BRANCH  39  51
ATOM     51  O   LIG d   1       5.677   2.312  -9.125  0.00  0.00    -0.387 OA
ATOM     52  H   LIG d   1       6.606   2.579  -9.078  0.00  0.00     0.210 HD
ENDBRANCH  39  51
BRANCH  41  53
ATOM     53  O   LIG d   1       7.859   0.667  -9.737  0.00  0.00    -0.386 OA
ATOM     54  H   LIG d   1       8.700   0.691  -9.261  0.00  0.00     0.210 HD
ENDBRANCH  41  53
BRANCH  43  55
ATOM     55  O   LIG d   1       7.292   1.746  -7.216  0.00  0.00    -0.384 OA
ATOM     56  H   LIG d   1       8.204   1.952  -6.968  0.00  0.00     0.210 HD
ENDBRANCH  43  55
ENDBRANCH  34  35
ENDBRANCH   1  34
TORSDOF 18
ENDMDL
MODEL 5
REMARK VINA RESULT:      -5.4      3.714      5.944
REMARK  18 active torsions:
REMARK  status: ('A' for Active; 'I' for Inactive)
REMARK    1  A    between atoms: C_1  and  C_2 
REMARK    2  A    between atoms: C_3  and  C_4 
REMARK    3  A    between atoms: C_5  and  C_6 
REMARK    4  A    between atoms: C_7  and  C_8 
REMARK    5  A    between atoms: C_8  and  C_10 
REMARK    6  A    between atoms: C_8  and  O_35 
REMARK    7  A    between atoms: C_10  and  C_12 
REMARK    8  A    between atoms: C_10  and  O_18 
REMARK    9  A    between atoms: C_13  and  C_14 
REMARK   10  A    between atoms: C_14  and  C_15 
REMARK   11  A    between atoms: C_15  and  C_16 
REMARK   12  A    between atoms: C_16  and  O_17 
REMARK   13  A    between atoms: O_18  and  C_19 
REMARK   14  A    between atoms: C_21  and  O_34 
REMARK   15  A    between atoms: C_23  and  O_33 
REMARK   16  A    between atoms: C_25  and  O_32 
REMARK   17  A    between atoms: C_27  and  C_30 
REMARK   18  A    between atoms: C_30  and  O_31 
ROOT
ATOM      1  C   LIG d   1       4.639  -1.257  -5.590  0.00  0.00     0.117 C 
ATOM      2  H   LIG d   1       4.579  -2.169  -5.000  0.00  0.00     0.068 H 
ENDROOT
BRANCH   1   3
ATOM      3  C   LIG d   1       6.050  -0.674  -5.488  0.00  0.00     0.146 C 
ATOM      4  H   LIG d   1       6.456  -0.525  -6.489  0.00  0.00     0.076 H 
BRANCH   3   5
ATOM      5  C   LIG d   1       6.913  -1.606  -4.744  0.00  0.00    -0.054 C 
ATOM      6  C   LIG d   1       7.601  -2.349  -4.151  0.00  0.00    -0.012 C 
BRANCH   6   7
ATOM      7  C   LIG d   1       8.408  -3.221  -3.454  0.00  0.00    -0.010 C 
ATOM      8  C   LIG d   1       9.095  -3.965  -2.860  0.00  0.00    -0.061 C 
BRANCH   8   9
ATOM      9  C   LIG d   1       9.934  -4.872  -2.136  0.00  0.00    -0.015 C 
ATOM     10  C   LIG d   1       9.990  -6.155  -2.492  0.00  0.00    -0.079 C 
ATOM     11  H   LIG d   1      10.623  -6.840  -1.947  0.00  0.00     0.058 H 
ATOM     12  H   LIG d   1      10.520  -4.517  -1.302  0.00  0.00     0.071 H 
BRANCH  10  13
ATOM     13  C   LIG d   1       9.173  -6.651  -3.657  0.00  0.00    -0.046 C 
ATOM     14  H   LIG d   1       8.499  -5.862  -3.990  0.00  0.00     0.027 H 
ATOM     15  H   LIG d   1       9.838  -6.930  -4.474  0.00  0.00     0.027 H 
ATOM     16  H   LIG d   1       8.591  -7.520  -3.350  0.00  0.00     0.027 H 
ENDBRANCH  10  13
ENDBRANCH   8   9
ENDBRANCH   6   7
ENDBRANCH   3   5
BRANCH   3  17
ATOM     17  O   LIG d   1       5.999   0.579  -4.802  0.00  0.00    -0.376 OA
ATOM     18  H   LIG d   1       5.723   1.320  -5.357  0.00  0.00     0.211 HD
ENDBRANCH   3  17
ENDBRANCH   1   3
BRANCH   1  19
ATOM     19  C   LIG d   1       3.643  -0.254  -5.068  0.00  0.00    -0.056 C 
ATOM     20  C   LIG d   1       3.059  -0.453  -3.912  0.00  0.00    -0.085 C 
ATOM     21  H   LIG d   1       2.228   0.170  -3.613  0.00  0.00     0.057 H 
ATOM     22  H   LIG d   1       3.410   0.628  -5.646  0.00  0.00     0.060 H 
BRANCH  20  23
ATOM     23  C   LIG d   1       3.545  -1.550  -3.000  0.00  0.00    -0.033 C 
ATOM     24  H   LIG d   1       2.689  -2.055  -2.552  0.00  0.00     0.031 H 
ATOM     25  H   LIG d   1       4.130  -2.267  -3.576  0.00  0.00     0.031 H 
BRANCH  23  26
ATOM     26  C   LIG d   1       4.418  -0.948  -1.898  0.00  0.00    -0.026 C 
ATOM     27  H   LIG d   1       4.152  -1.393  -0.940  0.00  0.00     0.029 H 
ATOM     28  H   LIG d   1       5.467  -1.151  -2.115  0.00  0.00     0.029 H 
BRANCH  26  29
ATOM     29  C   LIG d   1       4.194   0.564  -1.839  0.00  0.00     0.044 C 
ATOM     30  H   LIG d   1       3.457   0.852  -2.588  0.00  0.00     0.056 H 
ATOM     31  H   LIG d   1       3.832   0.838  -0.848  0.00  0.00     0.056 H 
BRANCH  29  32
ATOM     32  O   LIG d   1       5.427   1.240  -2.099  0.00  0.00    -0.395 OA
ATOM     33  H   LIG d   1       6.213   0.703  -1.928  0.00  0.00     0.209 HD
ENDBRANCH  29  32
ENDBRANCH  26  29
ENDBRANCH  23  26
ENDBRANCH  20  23
ENDBRANCH   1  19
BRANCH   1  34
ATOM     34  O   LIG d   1       4.344  -1.552  -6.957  0.00  0.00    -0.338 OA
BRANCH  34  35
ATOM     35  C   LIG d   1       3.455  -0.620  -7.574  0.00  0.00     0.189 C 
ATOM     36  H   LIG d   1       2.762  -0.230  -6.829  0.00  0.00     0.094 H 
ATOM     37  O   LIG d   1       4.207   0.457  -8.135  0.00  0.00    -0.341 OA
ATOM     38  C   LIG d   1       3.409   1.466  -8.759  0.00  0.00     0.113 C 
ATOM     39  C   LIG d   1       2.620   0.846  -9.916  0.00  0.00     0.112 C 
ATOM     40  H   LIG d   1       2.716   1.883  -8.028  0.00  0.00     0.065 H 
ATOM     41  C   LIG d   1       1.762  -0.303  -9.381  0.00  0.00     0.114 C 
ATOM     42  H   LIG d   1       1.977   1.603 -10.364  0.00  0.00     0.065 H 
ATOM     43  C   LIG d   1       2.668  -1.323  -8.684  0.00  0.00     0.134 C 
ATOM     44  H   LIG d   1       1.035   0.086  -8.668  0.00  0.00     0.065 H 
ATOM     45  H   LIG d   1       2.059  -2.117  -8.252  0.00  0.00     0.067 H 
BRANCH  38  46
ATOM     46  C   LIG d   1       4.315   2.575  -9.294  0.00  0.00     0.073 C 
ATOM     47  H   LIG d   1       3.866   3.012 -10.186  0.00  0.00     0.058 H 
ATOM     48  H   LIG d   1       4.435   3.345  -8.532  0.00  0.00     0.058 H 
BRANCH  46  49
ATOM     49  O   LIG d   1       5.594   2.029  -9.623  0.00  0.00    -0.392 OA
ATOM     50  H   LIG d   1       6.336   2.488  -9.207  0.00  0.00     0.209 HD
ENDBRANCH  46  49
ENDBRANCH  38  46
BRANCH  39  51
ATOM     51  O   LIG d   1       3.528   0.346 -10.899  0.00  0.00    -0.387 OA
ATOM     52  H   LIG d   1       4.262   0.944 -11.098  0.00  0.00     0.210 HD
ENDBRANCH  39  51
BRANCH  41  53
ATOM     53  O   LIG d   1       1.077  -0.935 -10.464  0.00  0.00    -0.386 OA
ATOM     54  H   LIG d   1       0.219  -1.310 -10.222  0.00  0.00     0.210 HD
ENDBRANCH  41  53
BRANCH  43  55
ATOM     55  O   LIG d   1       3.578  -1.882  -9.633  0.00  0.00    -0.384 OA
ATOM     56  H   LIG d   1       3.918  -1.245 -10.276  0.00  0.00     0.210 HD
ENDBRANCH  43  55
ENDBRANCH  34  35
ENDBRANCH   1  34
TORSDOF 18
ENDMDL
MODEL 6
REMARK VINA RESULT:      -5.4      5.366     10.290
REMARK  18 active torsions:
REMARK  status: ('A' for Active; 'I' for Inactive)
REMARK    1  A    between atoms: C_1  and  C_2 
REMARK    2  A    between atoms: C_3  and  C_4 
REMARK    3  A    between atoms: C_5  and  C_6 
REMARK    4  A    between atoms: C_7  and  C_8 
REMARK    5  A    between atoms: C_8  and  C_10 
REMARK    6  A    between atoms: C_8  and  O_35 
REMARK    7  A    between atoms: C_10  and  C_12 
REMARK    8  A    between atoms: C_10  and  O_18 
REMARK    9  A    between atoms: C_13  and  C_14 
REMARK   10  A    between atoms: C_14  and  C_15 
REMARK   11  A    between atoms: C_15  and  C_16 
REMARK   12  A    between atoms: C_16  and  O_17 
REMARK   13  A    between atoms: O_18  and  C_19 
REMARK   14  A    between atoms: C_21  and  O_34 
REMARK   15  A    between atoms: C_23  and  O_33 
REMARK   16  A    between atoms: C_25  and  O_32 
REMARK   17  A    between atoms: C_27  and  C_30 
REMARK   18  A    between atoms: C_30  and  O_31 
ROOT
ATOM      1  C   LIG d   1      10.351   5.118  -3.824  0.00  0.00     0.117 C 
ATOM      2  H   LIG d   1      11.277   5.616  -4.106  0.00  0.00     0.068 H 
ENDROOT
BRANCH   1   3
ATOM      3  C   LIG d   1      10.665   3.718  -3.293  0.00  0.00     0.146 C 
ATOM      4  H   LIG d   1      11.483   3.286  -3.869  0.00  0.00     0.076 H 
BRANCH   3   5
ATOM      5  C   LIG d   1       9.472   2.866  -3.421  0.00  0.00    -0.054 C 
ATOM      6  C   LIG d   1       8.521   2.186  -3.523  0.00  0.00    -0.012 C 
BRANCH   6   7
ATOM      7  C   LIG d   1       7.404   1.388  -3.643  0.00  0.00    -0.010 C 
ATOM      8  C   LIG d   1       6.453   0.708  -3.744  0.00  0.00    -0.061 C 
BRANCH   8   9
ATOM      9  C   LIG d   1       5.291  -0.121  -3.870  0.00  0.00    -0.015 C 
ATOM     10  C   LIG d   1       4.346  -0.088  -2.932  0.00  0.00    -0.079 C 
ATOM     11  H   LIG d   1       3.469  -0.712  -3.026  0.00  0.00     0.058 H 
ATOM     12  H   LIG d   1       5.183  -0.773  -4.723  0.00  0.00     0.071 H 
BRANCH  10  13
ATOM     13  C   LIG d   1       4.496   0.823  -1.740  0.00  0.00    -0.046 C 
ATOM     14  H   LIG d   1       3.540   1.300  -1.525  0.00  0.00     0.027 H 
ATOM     15  H   LIG d   1       4.814   0.240  -0.876  0.00  0.00     0.027 H 
ATOM     16  H   LIG d   1       5.242   1.587  -1.957  0.00  0.00     0.027 H 
ENDBRANCH  10  13
ENDBRANCH   8   9
ENDBRANCH   6   7
ENDBRANCH   3   5
BRANCH   3  17
ATOM     17  O   LIG d   1      11.044   3.804  -1.918  0.00  0.00    -0.376 OA
ATOM     18  H   LIG d   1      11.961   4.076  -1.779  0.00  0.00     0.211 HD
ENDBRANCH   3  17
ENDBRANCH   1   3
BRANCH   1  19
ATOM     19  C   LIG d   1       9.453   5.008  -5.029  0.00  0.00    -0.056 C 
ATOM     20  C   LIG d   1       9.729   5.686  -6.116  0.00  0.00    -0.085 C 
ATOM     21  H   LIG d   1       9.006   5.741  -6.916  0.00  0.00     0.057 H 
ATOM     22  H   LIG d   1       8.581   4.371  -4.996  0.00  0.00     0.060 H 
BRANCH  20  23
ATOM     23  C   LIG d   1      11.056   6.387  -6.249  0.00  0.00    -0.033 C 
ATOM     24  H   LIG d   1      11.463   6.586  -5.257  0.00  0.00     0.031 H 
ATOM     25  H   LIG d   1      11.748   5.754  -6.805  0.00  0.00     0.031 H 
BRANCH  23  26
ATOM     26  C   LIG d   1      10.862   7.708  -6.995  0.00  0.00    -0.026 C 
ATOM     27  H   LIG d   1      10.872   8.533  -6.283  0.00  0.00     0.029 H 
ATOM     28  H   LIG d   1      11.669   7.840  -7.716  0.00  0.00     0.029 H 
BRANCH  26  29
ATOM     29  C   LIG d   1       9.521   7.686  -7.731  0.00  0.00     0.044 C 
ATOM     30  H   LIG d   1       9.689   7.481  -8.788  0.00  0.00     0.056 H 
ATOM     31  H   LIG d   1       8.888   6.906  -7.306  0.00  0.00     0.056 H 
BRANCH  29  32
ATOM     32  O   LIG d   1       8.877   8.953  -7.587  0.00  0.00    -0.395 OA
ATOM     33  H   LIG d   1       9.479   9.679  -7.377  0.00  0.00     0.209 HD
ENDBRANCH  29  32
ENDBRANCH  26  29
ENDBRANCH  23  26
ENDBRANCH  20  23
ENDBRANCH   1  19
BRANCH   1  34
ATOM     34  O   LIG d   1       9.692   5.876  -2.807  0.00  0.00    -0.338 OA
BRANCH  34  35
ATOM     35  C   LIG d   1      10.343   7.107  -2.486  0.00  0.00     0.189 C 
ATOM     36  H   LIG d   1      11.421   6.954  -2.464  0.00  0.00     0.094 H 
ATOM     37  O   LIG d   1      10.022   8.087  -3.476  0.00  0.00    -0.341 OA
ATOM     38  C   LIG d   1      10.645   9.356  -3.264  0.00  0.00     0.113 C 
ATOM     39  C   LIG d   1      10.182   9.933  -1.924  0.00  0.00     0.112 C 
ATOM     40  H   LIG d   1      11.728   9.231  -3.252  0.00  0.00     0.065 H 
ATOM     41  C   LIG d   1      10.523   8.944  -0.806  0.00  0.00     0.114 C 
ATOM     42  H   LIG d   1      10.690  10.880  -1.740  0.00  0.00     0.065 H 
ATOM     43  C   LIG d   1       9.867   7.594  -1.115  0.00  0.00     0.134 C 
ATOM     44  H   LIG d   1      11.604   8.819  -0.747  0.00  0.00     0.065 H 
ATOM     45  H   LIG d   1      10.150   6.869  -0.353  0.00  0.00     0.067 H 
BRANCH  38  46
ATOM     46  C   LIG d   1      10.254  10.311  -4.394  0.00  0.00     0.073 C 
ATOM     47  H   LIG d   1      10.233  11.333  -4.015  0.00  0.00     0.058 H 
ATOM     48  H   LIG d   1      10.984  10.237  -5.200  0.00  0.00     0.058 H 
BRANCH  46  49
ATOM     49  O   LIG d   1       8.961   9.959  -4.889  0.00  0.00    -0.392 OA
ATOM     50  H   LIG d   1       8.876   9.029  -5.140  0.00  0.00     0.209 HD
ENDBRANCH  46  49
ENDBRANCH  38  46
BRANCH  39  51
ATOM     51  O   LIG d   1       8.769  10.147  -1.958  0.00  0.00    -0.387 OA
ATOM     52  H   LIG d   1       8.254   9.345  -2.121  0.00  0.00     0.210 HD
ENDBRANCH  39  51
BRANCH  41  53
ATOM     53  O   LIG d   1      10.030   9.439   0.440  0.00  0.00    -0.386 OA
ATOM     54  H   LIG d   1       9.103   9.225   0.611  0.00  0.00     0.210 HD
ENDBRANCH  41  53
BRANCH  43  55
ATOM     55  O   LIG d   1       8.447   7.743  -1.128  0.00  0.00    -0.384 OA
ATOM     56  H   LIG d   1       8.076   8.058  -0.292  0.00  0.00     0.210 HD
ENDBRANCH  43  55
ENDBRANCH  34  35
ENDBRANCH   1  34
TORSDOF 18
ENDMDL
MODEL 7
REMARK VINA RESULT:      -5.3      1.151      2.126
REMARK  18 active torsions:
REMARK  status: ('A' for Active; 'I' for Inactive)
REMARK    1  A    between atoms: C_1  and  C_2 
REMARK    2  A    between atoms: C_3  and  C_4 
REMARK    3  A    between atoms: C_5  and  C_6 
REMARK    4  A    between atoms: C_7  and  C_8 
REMARK    5  A    between atoms: C_8  and  C_10 
REMARK    6  A    between atoms: C_8  and  O_35 
REMARK    7  A    between atoms: C_10  and  C_12 
REMARK    8  A    between atoms: C_10  and  O_18 
REMARK    9  A    between atoms: C_13  and  C_14 
REMARK   10  A    between atoms: C_14  and  C_15 
REMARK   11  A    between atoms: C_15  and  C_16 
REMARK   12  A    between atoms: C_16  and  O_17 
REMARK   13  A    between atoms: O_18  and  C_19 
REMARK   14  A    between atoms: C_21  and  O_34 
REMARK   15  A    between atoms: C_23  and  O_33 
REMARK   16  A    between atoms: C_25  and  O_32 
REMARK   17  A    between atoms: C_27  and  C_30 
REMARK   18  A    between atoms: C_30  and  O_31 
ROOT
ATOM      1  C   LIG d   1       6.244  -0.035  -3.866  0.00  0.00     0.117 C 
ATOM      2  H   LIG d   1       5.929  -1.069  -3.736  0.00  0.00     0.068 H 
ENDROOT
BRANCH   1   3
ATOM      3  C   LIG d   1       7.761   0.062  -3.694  0.00  0.00     0.146 C 
ATOM      4  H   LIG d   1       8.028  -0.195  -2.669  0.00  0.00     0.076 H 
BRANCH   3   5
ATOM      5  C   LIG d   1       8.201   1.436  -3.984  0.00  0.00    -0.054 C 
ATOM      6  C   LIG d   1       8.552   2.532  -4.216  0.00  0.00    -0.012 C 
BRANCH   6   7
ATOM      7  C   LIG d   1       8.963   3.818  -4.488  0.00  0.00    -0.010 C 
ATOM      8  C   LIG d   1       9.314   4.914  -4.719  0.00  0.00    -0.061 C 
BRANCH   8   9
ATOM      9  C   LIG d   1       9.741   6.252  -5.002  0.00  0.00    -0.015 C 
ATOM     10  C   LIG d   1       9.873   7.132  -4.011  0.00  0.00    -0.079 C 
ATOM     11  H   LIG d   1      10.196   8.141  -4.223  0.00  0.00     0.058 H 
ATOM     12  H   LIG d   1       9.956   6.546  -6.018  0.00  0.00     0.071 H 
BRANCH  10  13
ATOM     13  C   LIG d   1       9.574   6.721  -2.592  0.00  0.00    -0.046 C 
ATOM     14  H   LIG d   1      10.488   6.771  -1.999  0.00  0.00     0.027 H 
ATOM     15  H   LIG d   1       8.829   7.395  -2.168  0.00  0.00     0.027 H 
ATOM     16  H   LIG d   1       9.189   5.702  -2.581  0.00  0.00     0.027 H 
ENDBRANCH  10  13
ENDBRANCH   8   9
ENDBRANCH   6   7
ENDBRANCH   3   5
BRANCH   3  17
ATOM     17  O   LIG d   1       8.401  -0.844  -4.595  0.00  0.00    -0.376 OA
ATOM     18  H   LIG d   1       7.860  -1.089  -5.357  0.00  0.00     0.211 HD
ENDBRANCH   3  17
ENDBRANCH   1   3
BRANCH   1  19
ATOM     19  C   LIG d   1       5.566   0.830  -2.835  0.00  0.00    -0.056 C 
ATOM     20  C   LIG d   1       4.710   0.301  -1.997  0.00  0.00    -0.085 C 
ATOM     21  H   LIG d   1       4.101   0.938  -1.372  0.00  0.00     0.057 H 
ATOM     22  H   LIG d   1       5.785   1.887  -2.789  0.00  0.00     0.060 H 
BRANCH  20  23
ATOM     23  C   LIG d   1       4.574  -1.198  -1.903  0.00  0.00    -0.033 C 
ATOM     24  H   LIG d   1       5.456  -1.669  -2.339  0.00  0.00     0.031 H 
ATOM     25  H   LIG d   1       4.485  -1.489  -0.857  0.00  0.00     0.031 H 
BRANCH  23  26
ATOM     26  C   LIG d   1       3.326  -1.645  -2.665  0.00  0.00    -0.026 C 
ATOM     27  H   LIG d   1       3.623  -2.160  -3.579  0.00  0.00     0.029 H 
ATOM     28  H   LIG d   1       2.742  -2.322  -2.040  0.00  0.00     0.029 H 
BRANCH  26  29
ATOM     29  C   LIG d   1       2.479  -0.422  -3.021  0.00  0.00     0.044 C 
ATOM     30  H   LIG d   1       1.697  -0.291  -2.273  0.00  0.00     0.056 H 
ATOM     31  H   LIG d   1       3.114   0.465  -3.041  0.00  0.00     0.056 H 
BRANCH  29  32
ATOM     32  O   LIG d   1       1.883  -0.611  -4.305  0.00  0.00    -0.395 OA
ATOM     33  H   LIG d   1       1.774   0.205  -4.813  0.00  0.00     0.209 HD
ENDBRANCH  29  32
ENDBRANCH  26  29
ENDBRANCH  23  26
ENDBRANCH  20  23
ENDBRANCH   1  19
BRANCH   1  34
ATOM     34  O   LIG d   1       5.883   0.413  -5.175  0.00  0.00    -0.338 OA
BRANCH  34  35
ATOM     35  C   LIG d   1       4.905  -0.405  -5.820  0.00  0.00     0.189 C 
ATOM     36  H   LIG d   1       4.136  -0.688  -5.101  0.00  0.00     0.094 H 
ATOM     37  O   LIG d   1       4.307   0.324  -6.893  0.00  0.00    -0.341 OA
ATOM     38  C   LIG d   1       3.291  -0.396  -7.594  0.00  0.00     0.113 C 
ATOM     39  C   LIG d   1       3.897  -1.655  -8.217  0.00  0.00     0.112 C 
ATOM     40  H   LIG d   1       2.501  -0.678  -6.898  0.00  0.00     0.065 H 
ATOM     41  C   LIG d   1       4.533  -2.506  -7.114  0.00  0.00     0.114 C 
ATOM     42  H   LIG d   1       3.115  -2.229  -8.714  0.00  0.00     0.065 H 
ATOM     43  C   LIG d   1       5.577  -1.664  -6.372  0.00  0.00     0.134 C 
ATOM     44  H   LIG d   1       3.763  -2.831  -6.415  0.00  0.00     0.065 H 
ATOM     45  H   LIG d   1       5.994  -2.245  -5.550  0.00  0.00     0.067 H 
BRANCH  38  46
ATOM     46  C   LIG d   1       2.706   0.490  -8.697  0.00  0.00     0.073 C 
ATOM     47  H   LIG d   1       1.980   1.177  -8.263  0.00  0.00     0.058 H 
ATOM     48  H   LIG d   1       3.508   1.057  -9.169  0.00  0.00     0.058 H 
BRANCH  46  49
ATOM     49  O   LIG d   1       2.063  -0.330  -9.675  0.00  0.00    -0.392 OA
ATOM     50  H   LIG d   1       2.597  -1.079  -9.973  0.00  0.00     0.209 HD
ENDBRANCH  46  49
ENDBRANCH  38  46
BRANCH  39  51
ATOM     51  O   LIG d   1       4.896  -1.284  -9.169  0.00  0.00    -0.387 OA
ATOM     52  H   LIG d   1       4.861  -0.354  -9.435  0.00  0.00     0.210 HD
ENDBRANCH  39  51
BRANCH  41  53
ATOM     53  O   LIG d   1       5.166  -3.648  -7.693  0.00  0.00    -0.386 OA
ATOM     54  H   LIG d   1       4.785  -4.493  -7.416  0.00  0.00     0.210 HD
ENDBRANCH  41  53
BRANCH  43  55
ATOM     55  O   LIG d   1       6.621  -1.293  -7.273  0.00  0.00    -0.384 OA
ATOM     56  H   LIG d   1       6.810  -1.956  -7.952  0.00  0.00     0.210 HD
ENDBRANCH  43  55
ENDBRANCH  34  35
ENDBRANCH   1  34
TORSDOF 18
ENDMDL
MODEL 8
REMARK VINA RESULT:      -5.2      5.026      9.426
REMARK  18 active torsions:
REMARK  status: ('A' for Active; 'I' for Inactive)
REMARK    1  A    between atoms: C_1  and  C_2 
REMARK    2  A    between atoms: C_3  and  C_4 
REMARK    3  A    between atoms: C_5  and  C_6 
REMARK    4  A    between atoms: C_7  and  C_8 
REMARK    5  A    between atoms: C_8  and  C_10 
REMARK    6  A    between atoms: C_8  and  O_35 
REMARK    7  A    between atoms: C_10  and  C_12 
REMARK    8  A    between atoms: C_10  and  O_18 
REMARK    9  A    between atoms: C_13  and  C_14 
REMARK   10  A    between atoms: C_14  and  C_15 
REMARK   11  A    between atoms: C_15  and  C_16 
REMARK   12  A    between atoms: C_16  and  O_17 
REMARK   13  A    between atoms: O_18  and  C_19 
REMARK   14  A    between atoms: C_21  and  O_34 
REMARK   15  A    between atoms: C_23  and  O_33 
REMARK   16  A    between atoms: C_25  and  O_32 
REMARK   17  A    between atoms: C_27  and  C_30 
REMARK   18  A    between atoms: C_30  and  O_31 
ROOT
ATOM      1  C   LIG d   1       9.665   5.256  -4.235  0.00  0.00     0.117 C 
ATOM      2  H   LIG d   1       9.078   4.996  -3.355  0.00  0.00     0.068 H 
ENDROOT
BRANCH   1   3
ATOM      3  C   LIG d   1       9.604   4.110  -5.247  0.00  0.00     0.146 C 
ATOM      4  H   LIG d   1       9.198   4.477  -6.189  0.00  0.00     0.076 H 
BRANCH   3   5
ATOM      5  C   LIG d   1       8.740   3.040  -4.724  0.00  0.00    -0.054 C 
ATOM      6  C   LIG d   1       8.050   2.186  -4.307  0.00  0.00    -0.012 C 
BRANCH   6   7
ATOM      7  C   LIG d   1       7.241   1.185  -3.818  0.00  0.00    -0.010 C 
ATOM      8  C   LIG d   1       6.551   0.331  -3.401  0.00  0.00    -0.061 C 
BRANCH   8   9
ATOM      9  C   LIG d   1       5.708  -0.710  -2.893  0.00  0.00    -0.015 C 
ATOM     10  C   LIG d   1       4.697  -0.410  -2.079  0.00  0.00    -0.079 C 
ATOM     11  H   LIG d   1       4.061  -1.194  -1.696  0.00  0.00     0.058 H 
ATOM     12  H   LIG d   1       5.893  -1.737  -3.168  0.00  0.00     0.071 H 
BRANCH  10  13
ATOM     13  C   LIG d   1       4.438   1.025  -1.694  0.00  0.00    -0.046 C 
ATOM     14  H   LIG d   1       3.367   1.176  -1.557  0.00  0.00     0.027 H 
ATOM     15  H   LIG d   1       4.959   1.250  -0.764  0.00  0.00     0.027 H 
ATOM     16  H   LIG d   1       4.799   1.684  -2.482  0.00  0.00     0.027 H 
ENDBRANCH  10  13
ENDBRANCH   8   9
ENDBRANCH   6   7
ENDBRANCH   3   5
BRANCH   3  17
ATOM     17  O   LIG d   1      10.920   3.596  -5.463  0.00  0.00    -0.376 OA
ATOM     18  H   LIG d   1      11.065   3.248  -6.353  0.00  0.00     0.211 HD
ENDBRANCH   3  17
ENDBRANCH   1   3
BRANCH   1  19
ATOM     19  C   LIG d   1      11.097   5.494  -3.832  0.00  0.00    -0.056 C 
ATOM     20  C   LIG d   1      11.392   5.740  -2.579  0.00  0.00    -0.085 C 
ATOM     21  H   LIG d   1      12.385   6.074  -2.314  0.00  0.00     0.057 H 
ATOM     22  H   LIG d   1      11.880   5.464  -4.575  0.00  0.00     0.060 H 
BRANCH  20  23
ATOM     23  C   LIG d   1      10.348   5.556  -1.508  0.00  0.00    -0.033 C 
ATOM     24  H   LIG d   1       9.399   5.284  -1.971  0.00  0.00     0.031 H 
ATOM     25  H   LIG d   1      10.661   4.764  -0.828  0.00  0.00     0.031 H 
BRANCH  23  26
ATOM     26  C   LIG d   1      10.181   6.861  -0.728  0.00  0.00    -0.026 C 
ATOM     27  H   LIG d   1       9.702   6.654   0.228  0.00  0.00     0.029 H 
ATOM     28  H   LIG d   1      11.160   7.308  -0.555  0.00  0.00     0.029 H 
BRANCH  26  29
ATOM     29  C   LIG d   1       9.314   7.830  -1.535  0.00  0.00     0.044 C 
ATOM     30  H   LIG d   1       9.791   8.809  -1.560  0.00  0.00     0.056 H 
ATOM     31  H   LIG d   1       9.202   7.454  -2.553  0.00  0.00     0.056 H 
BRANCH  29  32
ATOM     32  O   LIG d   1       8.028   7.941  -0.924  0.00  0.00    -0.395 OA
ATOM     33  H   LIG d   1       7.664   7.099  -0.616  0.00  0.00     0.209 HD
ENDBRANCH  29  32
ENDBRANCH  26  29
ENDBRANCH  23  26
ENDBRANCH  20  23
ENDBRANCH   1  19
BRANCH   1  34
ATOM     34  O   LIG d   1       9.134   6.443  -4.828  0.00  0.00    -0.338 OA
BRANCH  34  35
ATOM     35  C   LIG d   1      10.005   7.058  -5.778  0.00  0.00     0.189 C 
ATOM     36  H   LIG d   1      10.958   6.529  -5.794  0.00  0.00     0.094 H 
ATOM     37  O   LIG d   1       9.410   7.005  -7.076  0.00  0.00    -0.341 OA
ATOM     38  C   LIG d   1      10.214   7.574  -8.112  0.00  0.00     0.113 C 
ATOM     39  C   LIG d   1      10.457   9.055  -7.812  0.00  0.00     0.112 C 
ATOM     40  H   LIG d   1      11.170   7.051  -8.157  0.00  0.00     0.065 H 
ATOM     41  C   LIG d   1      11.125   9.188  -6.441  0.00  0.00     0.114 C 
ATOM     42  H   LIG d   1      11.107   9.480  -8.577  0.00  0.00     0.065 H 
ATOM     43  C   LIG d   1      10.239   8.519  -5.385  0.00  0.00     0.134 C 
ATOM     44  H   LIG d   1      12.099   8.700  -6.461  0.00  0.00     0.065 H 
ATOM     45  H   LIG d   1      10.734   8.561  -4.415  0.00  0.00     0.067 H 
BRANCH  38  46
ATOM     46  C   LIG d   1       9.492   7.435  -9.453  0.00  0.00     0.073 C 
ATOM     47  H   LIG d   1       9.893   6.579  -9.994  0.00  0.00     0.058 H 
ATOM     48  H   LIG d   1       8.426   7.288  -9.277  0.00  0.00     0.058 H 
BRANCH  46  49
ATOM     49  O   LIG d   1       9.688   8.622 -10.224  0.00  0.00    -0.392 OA
ATOM     50  H   LIG d   1       9.776   9.425  -9.694  0.00  0.00     0.209 HD
ENDBRANCH  46  49
ENDBRANCH  38  46
BRANCH  39  51
ATOM     51  O   LIG d   1       9.209   9.752  -7.804  0.00  0.00    -0.387 OA
ATOM     52  H   LIG d   1       8.529   9.335  -7.257  0.00  0.00     0.210 HD
ENDBRANCH  39  51
BRANCH  41  53
ATOM     53  O   LIG d   1      11.290  10.571  -6.118  0.00  0.00    -0.386 OA
ATOM     54  H   LIG d   1      11.167  11.167  -6.869  0.00  0.00     0.210 HD
ENDBRANCH  41  53
BRANCH  43  55
ATOM     55  O   LIG d   1       8.986   9.200  -5.311  0.00  0.00    -0.384 OA
ATOM     56  H   LIG d   1       8.259   8.738  -5.751  0.00  0.00     0.210 HD
ENDBRANCH  43  55
ENDBRANCH  34  35
ENDBRANCH   1  34
TORSDOF 18
ENDMDL
MODEL 9
REMARK VINA RESULT:      -5.2      5.002      9.399
REMARK  18 active torsions:
REMARK  status: ('A' for Active; 'I' for Inactive)
REMARK    1  A    between atoms: C_1  and  C_2 
REMARK    2  A    between atoms: C_3  and  C_4 
REMARK    3  A    between atoms: C_5  and  C_6 
REMARK    4  A    between atoms: C_7  and  C_8 
REMARK    5  A    between atoms: C_8  and  C_10 
REMARK    6  A    between atoms: C_8  and  O_35 
REMARK    7  A    between atoms: C_10  and  C_12 
REMARK    8  A    between atoms: C_10  and  O_18 
REMARK    9  A    between atoms: C_13  and  C_14 
REMARK   10  A    between atoms: C_14  and  C_15 
REMARK   11  A    between atoms: C_15  and  C_16 
REMARK   12  A    between atoms: C_16  and  O_17 
REMARK   13  A    between atoms: O_18  and  C_19 
REMARK   14  A    between atoms: C_21  and  O_34 
REMARK   15  A    between atoms: C_23  and  O_33 
REMARK   16  A    between atoms: C_25  and  O_32 
REMARK   17  A    between atoms: C_27  and  C_30 
REMARK   18  A    between atoms: C_30  and  O_31 
ROOT
ATOM      1  C   LIG d   1       9.883   4.775  -4.907  0.00  0.00     0.117 C 
ATOM      2  H   LIG d   1       8.957   5.205  -4.528  0.00  0.00     0.068 H 
ENDROOT
BRANCH   1   3
ATOM      3  C   LIG d   1       9.565   3.525  -5.730  0.00  0.00     0.146 C 
ATOM      4  H   LIG d   1       9.120   3.819  -6.680  0.00  0.00     0.076 H 
BRANCH   3   5
ATOM      5  C   LIG d   1       8.621   2.676  -4.988  0.00  0.00    -0.054 C 
ATOM      6  C   LIG d   1       7.867   1.998  -4.396  0.00  0.00    -0.012 C 
BRANCH   6   7
ATOM      7  C   LIG d   1       6.983   1.202  -3.702  0.00  0.00    -0.010 C 
ATOM      8  C   LIG d   1       6.228   0.525  -3.110  0.00  0.00    -0.061 C 
BRANCH   8   9
ATOM      9  C   LIG d   1       5.309  -0.303  -2.388  0.00  0.00    -0.015 C 
ATOM     10  C   LIG d   1       4.087   0.148  -2.105  0.00  0.00    -0.079 C 
ATOM     11  H   LIG d   1       3.393  -0.475  -1.561  0.00  0.00     0.058 H 
ATOM     12  H   LIG d   1       5.605  -1.292  -2.073  0.00  0.00     0.071 H 
BRANCH  10  13
ATOM     13  C   LIG d   1       3.672   1.529  -2.546  0.00  0.00    -0.046 C 
ATOM     14  H   LIG d   1       2.736   1.467  -3.101  0.00  0.00     0.027 H 
ATOM     15  H   LIG d   1       3.534   2.163  -1.670  0.00  0.00     0.027 H 
ATOM     16  H   LIG d   1       4.445   1.955  -3.184  0.00  0.00     0.027 H 
ENDBRANCH  10  13
ENDBRANCH   8   9
ENDBRANCH   6   7
ENDBRANCH   3   5
BRANCH   3  17
ATOM     17  O   LIG d   1      10.771   2.797  -5.974  0.00  0.00    -0.376 OA
ATOM     18  H   LIG d   1      10.831   2.422  -6.862  0.00  0.00     0.211 HD
ENDBRANCH   3  17
ENDBRANCH   1   3
BRANCH   1  19
ATOM     19  C   LIG d   1      10.772   4.401  -3.749  0.00  0.00    -0.056 C 
ATOM     20  C   LIG d   1      10.739   5.103  -2.644  0.00  0.00    -0.085 C 
ATOM     21  H   LIG d   1      11.486   4.944  -1.880  0.00  0.00     0.057 H 
ATOM     22  H   LIG d   1      11.438   3.554  -3.831  0.00  0.00     0.060 H 
BRANCH  20  23
ATOM     23  C   LIG d   1       9.657   6.132  -2.437  0.00  0.00    -0.033 C 
ATOM     24  H   LIG d   1       9.663   6.837  -3.270  0.00  0.00     0.031 H 
ATOM     25  H   LIG d   1       8.688   5.636  -2.388  0.00  0.00     0.031 H 
BRANCH  23  26
ATOM     26  C   LIG d   1       9.912   6.885  -1.130  0.00  0.00    -0.026 C 
ATOM     27  H   LIG d   1       9.505   6.312  -0.297  0.00  0.00     0.029 H 
ATOM     28  H   LIG d   1      10.985   7.017  -0.991  0.00  0.00     0.029 H 
BRANCH  26  29
ATOM     29  C   LIG d   1       9.232   8.254  -1.188  0.00  0.00     0.044 C 
ATOM     30  H   LIG d   1       9.666   8.908  -0.432  0.00  0.00     0.056 H 
ATOM     31  H   LIG d   1       9.383   8.691  -2.176  0.00  0.00     0.056 H 
BRANCH  29  32
ATOM     32  O   LIG d   1       7.833   8.103  -0.942  0.00  0.00    -0.395 OA
ATOM     33  H   LIG d   1       7.626   7.594  -0.146  0.00  0.00     0.209 HD
ENDBRANCH  29  32
ENDBRANCH  26  29
ENDBRANCH  23  26
ENDBRANCH  20  23
ENDBRANCH   1  19
BRANCH   1  34
ATOM     34  O   LIG d   1      10.552   5.732  -5.731  0.00  0.00    -0.338 OA
BRANCH  34  35
ATOM     35  C   LIG d   1       9.725   6.820  -6.146  0.00  0.00     0.189 C 
ATOM     36  H   LIG d   1       8.679   6.571  -5.968  0.00  0.00     0.094 H 
ATOM     37  O   LIG d   1      10.068   7.991  -5.402  0.00  0.00    -0.341 OA
ATOM     38  C   LIG d   1       9.280   9.139  -5.722  0.00  0.00     0.113 C 
ATOM     39  C   LIG d   1       9.477   9.496  -7.198  0.00  0.00     0.112 C 
ATOM     40  H   LIG d   1       8.228   8.920  -5.538  0.00  0.00     0.065 H 
ATOM     41  C   LIG d   1       9.096   8.291  -8.062  0.00  0.00     0.114 C 
ATOM     42  H   LIG d   1       8.842  10.344  -7.455  0.00  0.00     0.065 H 
ATOM     43  C   LIG d   1       9.940   7.085  -7.639  0.00  0.00     0.134 C 
ATOM     44  H   LIG d   1       8.039   8.063  -7.924  0.00  0.00     0.065 H 
ATOM     45  H   LIG d   1       9.636   6.209  -8.211  0.00  0.00     0.067 H 
BRANCH  38  46
ATOM     46  C   LIG d   1       9.716  10.317  -4.848  0.00  0.00     0.073 C 
ATOM     47  H   LIG d   1      10.361   9.955  -4.048  0.00  0.00     0.058 H 
ATOM     48  H   LIG d   1      10.261  11.038  -5.458  0.00  0.00     0.058 H 
BRANCH  46  49
ATOM     49  O   LIG d   1       8.562  10.945  -4.285  0.00  0.00    -0.392 OA
ATOM     50  H   LIG d   1       8.767  11.675  -3.685  0.00  0.00     0.209 HD
ENDBRANCH  46  49
ENDBRANCH  38  46
BRANCH  39  51
ATOM     51  O   LIG d   1      10.846   9.836  -7.429  0.00  0.00    -0.387 OA
ATOM     52  H   LIG d   1      11.477   9.225  -7.022  0.00  0.00     0.210 HD
ENDBRANCH  39  51
BRANCH  41  53
ATOM     53  O   LIG d   1       9.345   8.588  -9.437  0.00  0.00    -0.386 OA
ATOM     54  H   LIG d   1       9.081   7.886 -10.046  0.00  0.00     0.210 HD
ENDBRANCH  41  53
BRANCH  43  55
ATOM     55  O   LIG d   1      11.321   7.358  -7.881  0.00  0.00    -0.384 OA
ATOM     56  H   LIG d   1      11.825   7.575  -7.085  0.00  0.00     0.210 HD
ENDBRANCH  43  55
ENDBRANCH  34  35
ENDBRANCH   1  34
TORSDOF 18
ENDMDL
MODEL 10
REMARK VINA RESULT:      -5.2      1.876      4.568
REMARK  18 active torsions:
REMARK  status: ('A' for Active; 'I' for Inactive)
REMARK    1  A    between atoms: C_1  and  C_2 
REMARK    2  A    between atoms: C_3  and  C_4 
REMARK    3  A    between atoms: C_5  and  C_6 
REMARK    4  A    between atoms: C_7  and  C_8 
REMARK    5  A    between atoms: C_8  and  C_10 
REMARK    6  A    between atoms: C_8  and  O_35 
REMARK    7  A    between atoms: C_10  and  C_12 
REMARK    8  A    between atoms: C_10  and  O_18 
REMARK    9  A    between atoms: C_13  and  C_14 
REMARK   10  A    between atoms: C_14  and  C_15 
REMARK   11  A    between atoms: C_15  and  C_16 
REMARK   12  A    between atoms: C_16  and  O_17 
REMARK   13  A    between atoms: O_18  and  C_19 
REMARK   14  A    between atoms: C_21  and  O_34 
REMARK   15  A    between atoms: C_23  and  O_33 
REMARK   16  A    between atoms: C_25  and  O_32 
REMARK   17  A    between atoms: C_27  and  C_30 
REMARK   18  A    between atoms: C_30  and  O_31 
ROOT
ATOM      1  C   LIG d   1       5.708  -0.589  -6.825  0.00  0.00     0.117 C 
ATOM      2  H   LIG d   1       4.906   0.066  -6.487  0.00  0.00     0.068 H 
ENDROOT
BRANCH   1   3
ATOM      3  C   LIG d   1       6.793   0.244  -7.511  0.00  0.00     0.146 C 
ATOM      4  H   LIG d   1       7.516  -0.420  -7.983  0.00  0.00     0.076 H 
BRANCH   3   5
ATOM      5  C   LIG d   1       7.475   1.080  -6.511  0.00  0.00    -0.054 C 
ATOM      6  C   LIG d   1       8.020   1.748  -5.713  0.00  0.00    -0.012 C 
BRANCH   6   7
ATOM      7  C   LIG d   1       8.659   2.531  -4.778  0.00  0.00    -0.010 C 
ATOM      8  C   LIG d   1       9.203   3.199  -3.980  0.00  0.00    -0.061 C 
BRANCH   8   9
ATOM      9  C   LIG d   1       9.868   4.013  -3.007  0.00  0.00    -0.015 C 
ATOM     10  C   LIG d   1       9.913   5.335  -3.165  0.00  0.00    -0.079 C 
ATOM     11  H   LIG d   1      10.413   5.950  -2.431  0.00  0.00     0.058 H 
ATOM     12  H   LIG d   1      10.332   3.555  -2.146  0.00  0.00     0.071 H 
BRANCH  10  13
ATOM     13  C   LIG d   1       9.265   5.975  -4.366  0.00  0.00    -0.046 C 
ATOM     14  H   LIG d   1       9.159   5.234  -5.159  0.00  0.00     0.027 H 
ATOM     15  H   LIG d   1       8.281   6.353  -4.088  0.00  0.00     0.027 H 
ATOM     16  H   LIG d   1       9.885   6.798  -4.718  0.00  0.00     0.027 H 
ENDBRANCH  10  13
ENDBRANCH   8   9
ENDBRANCH   6   7
ENDBRANCH   3   5
BRANCH   3  17
ATOM     17  O   LIG d   1       6.194   1.080  -8.503  0.00  0.00    -0.376 OA
ATOM     18  H   LIG d   1       5.526   0.635  -9.042  0.00  0.00     0.211 HD
ENDBRANCH   3  17
ENDBRANCH   1   3
BRANCH   1  19
ATOM     19  C   LIG d   1       5.157  -1.597  -7.800  0.00  0.00    -0.056 C 
ATOM     20  C   LIG d   1       3.890  -1.562  -8.132  0.00  0.00    -0.085 C 
ATOM     21  H   LIG d   1       3.457  -2.376  -8.695  0.00  0.00     0.057 H 
ATOM     22  H   LIG d   1       5.806  -2.349  -8.223  0.00  0.00     0.060 H 
BRANCH  20  23
ATOM     23  C   LIG d   1       3.038  -0.386  -7.730  0.00  0.00    -0.033 C 
ATOM     24  H   LIG d   1       2.259  -0.720  -7.045  0.00  0.00     0.031 H 
ATOM     25  H   LIG d   1       3.660   0.362  -7.237  0.00  0.00     0.031 H 
BRANCH  23  26
ATOM     26  C   LIG d   1       2.395   0.227  -8.975  0.00  0.00    -0.026 C 
ATOM     27  H   LIG d   1       2.837  -0.215  -9.868  0.00  0.00     0.029 H 
ATOM     28  H   LIG d   1       1.323   0.031  -8.964  0.00  0.00     0.029 H 
BRANCH  26  29
ATOM     29  C   LIG d   1       2.636   1.738  -8.982  0.00  0.00     0.044 C 
ATOM     30  H   LIG d   1       3.121   2.024  -9.915  0.00  0.00     0.056 H 
ATOM     31  H   LIG d   1       1.680   2.258  -8.896  0.00  0.00     0.056 H 
BRANCH  29  32
ATOM     32  O   LIG d   1       3.473   2.093  -7.880  0.00  0.00    -0.395 OA
ATOM     33  H   LIG d   1       3.054   1.979  -7.016  0.00  0.00     0.209 HD
ENDBRANCH  29  32
ENDBRANCH  26  29
ENDBRANCH  23  26
ENDBRANCH  20  23
ENDBRANCH   1  19
BRANCH   1  34
ATOM     34  O   LIG d   1       6.271  -1.271  -5.701  0.00  0.00    -0.338 OA
BRANCH  34  35
ATOM     35  C   LIG d   1       5.673  -0.923  -4.451  0.00  0.00     0.189 C 
ATOM     36  H   LIG d   1       6.449  -0.618  -3.749  0.00  0.00     0.094 H 
ATOM     37  O   LIG d   1       4.756   0.156  -4.645  0.00  0.00    -0.341 OA
ATOM     38  C   LIG d   1       4.118   0.603  -3.447  0.00  0.00     0.113 C 
ATOM     39  C   LIG d   1       3.305  -0.546  -2.845  0.00  0.00     0.112 C 
ATOM     40  H   LIG d   1       4.874   0.927  -2.732  0.00  0.00     0.065 H 
ATOM     41  C   LIG d   1       4.235  -1.734  -2.580  0.00  0.00     0.114 C 
ATOM     42  H   LIG d   1       2.854  -0.221  -1.907  0.00  0.00     0.065 H 
ATOM     43  C   LIG d   1       4.923  -2.133  -3.890  0.00  0.00     0.134 C 
ATOM     44  H   LIG d   1       4.987  -1.452  -1.844  0.00  0.00     0.065 H 
ATOM     45  H   LIG d   1       5.627  -2.942  -3.699  0.00  0.00     0.067 H 
BRANCH  38  46
ATOM     46  C   LIG d   1       3.186   1.773  -3.771  0.00  0.00     0.073 C 
ATOM     47  H   LIG d   1       2.404   1.833  -3.015  0.00  0.00     0.058 H 
ATOM     48  H   LIG d   1       3.759   2.700  -3.778  0.00  0.00     0.058 H 
BRANCH  46  49
ATOM     49  O   LIG d   1       2.595   1.569  -5.055  0.00  0.00    -0.392 OA
ATOM     50  H   LIG d   1       3.217   1.263  -5.730  0.00  0.00     0.209 HD
ENDBRANCH  46  49
ENDBRANCH  38  46
BRANCH  39  51
ATOM     51  O   LIG d   1       2.279  -0.937  -3.759  0.00  0.00    -0.387 OA
ATOM     52  H   LIG d   1       1.385  -0.880  -3.395  0.00  0.00     0.210 HD
ENDBRANCH  39  51
BRANCH  41  53
ATOM     53  O   LIG d   1       3.474  -2.838  -2.085  0.00  0.00    -0.386 OA
ATOM     54  H   LIG d   1       3.560  -2.981  -1.133  0.00  0.00     0.210 HD
ENDBRANCH  41  53
BRANCH  43  55
ATOM     55  O   LIG d   1       3.942  -2.567  -4.833  0.00  0.00    -0.384 OA
ATOM     56  H   LIG d   1       3.068  -2.172  -4.703  0.00  0.00     0.210 HD
ENDBRANCH  43  55
ENDBRANCH  34  35
ENDBRANCH   1  34
TORSDOF 18
ENDMDL
