MODEL 1
REMARK VINA RESULT:      -5.4      0.000      0.000
REMARK  8 active torsions:
REMARK  status: ('A' for Active; 'I' for Inactive)
REMARK    1  A    between atoms: C_1  and  C_2 
REMARK    2  A    between atoms: C_3  and  C_16 
REMARK    3  A    between atoms: C_4  and  C_15 
REMARK    4  A    between atoms: C_5  and  O_14 
REMARK    5  A    between atoms: C_10  and  C_12 
REMARK    6  A    between atoms: C_10  and  C_13 
REMARK    7  A    between atoms: C_16  and  C_17 
REMARK    8  A    between atoms: C_17  and  O_18 
ROOT
ATOM      1  C   LIG d   1       5.020  -1.623  -3.332  0.00  0.00    -0.036 A 
ATOM      2  C   LIG d   1       5.521  -0.367  -3.075  0.00  0.00    -0.035 A 
ATOM      3  C   LIG d   1       6.589   0.120  -3.807  0.00  0.00    -0.005 A 
ATOM      4  C   LIG d   1       7.158  -0.654  -4.808  0.00  0.00     0.124 A 
ATOM      5  C   LIG d   1       6.660  -1.919  -5.080  0.00  0.00     0.006 A 
ATOM      6  C   LIG d   1       5.583  -2.414  -4.345  0.00  0.00     0.028 A 
ATOM      7  C   LIG d   1       5.223  -3.767  -4.801  0.00  0.00     0.170 A 
ATOM      8  O   LIG d   1       4.329  -4.454  -4.355  0.00  0.00    -0.291 OA
ATOM      9  C   LIG d   1       6.160  -4.150  -5.921  0.00  0.00     0.032 A 
ATOM     10  C   LIG d   1       7.093  -2.944  -6.100  0.00  0.00    -0.011 A 
ATOM     11  H   LIG d   1       6.991  -2.538  -7.107  0.00  0.00     0.032 H 
ATOM     12  H   LIG d   1       8.125  -3.242  -5.918  0.00  0.00     0.032 H 
ENDROOT
BRANCH   2  13
ATOM     13  C   LIG d   1       4.907   0.479  -1.989  0.00  0.00    -0.004 C 
ATOM     14  H   LIG d   1       5.580   1.302  -1.746  0.00  0.00     0.034 H 
ATOM     15  H   LIG d   1       4.745  -0.132  -1.102  0.00  0.00     0.034 H 
BRANCH  13  16
ATOM     16  C   LIG d   1       3.570   1.041  -2.475  0.00  0.00     0.048 C 
ATOM     17  H   LIG d   1       2.967   1.337  -1.616  0.00  0.00     0.056 H 
ATOM     18  H   LIG d   1       3.039   0.277  -3.044  0.00  0.00     0.056 H 
BRANCH  16  19
ATOM     19  O   LIG d   1       3.804   2.178  -3.307  0.00  0.00    -0.395 OA
ATOM     20  H   LIG d   1       4.476   2.036  -3.987  0.00  0.00     0.209 HD
ENDBRANCH  16  19
ENDBRANCH  13  16
ENDBRANCH   2  13
BRANCH   1  21
ATOM     21  C   LIG d   1       3.860  -2.150  -2.526  0.00  0.00    -0.039 C 
ATOM     22  H   LIG d   1       3.994  -1.880  -1.479  0.00  0.00     0.028 H 
ATOM     23  H   LIG d   1       2.933  -1.714  -2.897  0.00  0.00     0.028 H 
ATOM     24  H   LIG d   1       3.815  -3.235  -2.620  0.00  0.00     0.028 H 
ENDBRANCH   1  21
BRANCH   3  25
ATOM     25  C   LIG d   1       7.136   1.495  -3.515  0.00  0.00    -0.036 C 
ATOM     26  H   LIG d   1       6.654   1.895  -2.623  0.00  0.00     0.028 H 
ATOM     27  H   LIG d   1       8.211   1.429  -3.349  0.00  0.00     0.028 H 
ATOM     28  H   LIG d   1       6.938   2.151  -4.362  0.00  0.00     0.028 H 
ENDBRANCH   3  25
BRANCH   4  29
ATOM     29  O   LIG d   1       8.208  -0.171  -5.524  0.00  0.00    -0.506 OA
ATOM     30  H   LIG d   1       8.581  -0.804  -6.152  0.00  0.00     0.292 HD
ENDBRANCH   4  29
BRANCH   9  31
ATOM     31  C   LIG d   1       5.370  -4.405  -7.208  0.00  0.00    -0.052 C 
ATOM     32  H   LIG d   1       4.451  -4.939  -6.970  0.00  0.00     0.024 H 
ATOM     33  H   LIG d   1       5.125  -3.452  -7.679  0.00  0.00     0.024 H 
ATOM     34  H   LIG d   1       5.972  -5.003  -7.892  0.00  0.00     0.024 H 
ENDBRANCH   9  31
BRANCH   9  35
ATOM     35  C   LIG d   1       6.965  -5.393  -5.540  0.00  0.00    -0.052 C 
ATOM     36  H   LIG d   1       7.049  -6.051  -6.406  0.00  0.00     0.024 H 
ATOM     37  H   LIG d   1       7.961  -5.096  -5.213  0.00  0.00     0.024 H 
ATOM     38  H   LIG d   1       6.458  -5.920  -4.731  0.00  0.00     0.024 H 
ENDBRANCH   9  35
TORSDOF 8
ENDMDL
MODEL 2
REMARK VINA RESULT:      -5.3      3.047      5.341
REMARK  8 active torsions:
REMARK  status: ('A' for Active; 'I' for Inactive)
REMARK    1  A    between atoms: C_1  and  C_2 
REMARK    2  A    between atoms: C_3  and  C_16 
REMARK    3  A    between atoms: C_4  and  C_15 
REMARK    4  A    between atoms: C_5  and  O_14 
REMARK    5  A    between atoms: C_10  and  C_12 
REMARK    6  A    between atoms: C_10  and  C_13 
REMARK    7  A    between atoms: C_16  and  C_17 
REMARK    8  A    between atoms: C_17  and  O_18 
ROOT
ATOM      1  C   LIG d   1       6.204  -0.216  -6.075  0.00  0.00    -0.036 A 
ATOM      2  C   LIG d   1       5.640  -0.104  -7.326  0.00  0.00    -0.035 A 
ATOM      3  C   LIG d   1       4.266  -0.049  -7.468  0.00  0.00    -0.005 A 
ATOM      4  C   LIG d   1       3.447  -0.099  -6.349  0.00  0.00     0.124 A 
ATOM      5  C   LIG d   1       4.002  -0.206  -5.082  0.00  0.00     0.006 A 
ATOM      6  C   LIG d   1       5.387  -0.263  -4.934  0.00  0.00     0.028 A 
ATOM      7  C   LIG d   1       5.753  -0.374  -3.512  0.00  0.00     0.170 A 
ATOM      8  O   LIG d   1       6.880  -0.442  -3.070  0.00  0.00    -0.291 OA
ATOM      9  C   LIG d   1       4.480  -0.389  -2.700  0.00  0.00     0.032 A 
ATOM     10  C   LIG d   1       3.343  -0.279  -3.727  0.00  0.00    -0.011 A 
ATOM     11  H   LIG d   1       2.760   0.625  -3.544  0.00  0.00     0.032 H 
ATOM     12  H   LIG d   1       2.701  -1.157  -3.668  0.00  0.00     0.032 H 
ENDROOT
BRANCH   2  13
ATOM     13  C   LIG d   1       6.524  -0.048  -8.545  0.00  0.00    -0.004 C 
ATOM     14  H   LIG d   1       5.935  -0.285  -9.432  0.00  0.00     0.034 H 
ATOM     15  H   LIG d   1       7.331  -0.773  -8.442  0.00  0.00     0.034 H 
BRANCH  13  16
ATOM     16  C   LIG d   1       7.114   1.356  -8.684  0.00  0.00     0.048 C 
ATOM     17  H   LIG d   1       8.063   1.301  -9.218  0.00  0.00     0.056 H 
ATOM     18  H   LIG d   1       7.279   1.781  -7.694  0.00  0.00     0.056 H 
BRANCH  16  19
ATOM     19  O   LIG d   1       6.206   2.185  -9.413  0.00  0.00    -0.395 OA
ATOM     20  H   LIG d   1       6.609   2.986  -9.774  0.00  0.00     0.209 HD
ENDBRANCH  16  19
ENDBRANCH  13  16
ENDBRANCH   2  13
BRANCH   1  21
ATOM     21  C   LIG d   1       7.703  -0.282  -5.928  0.00  0.00    -0.039 C 
ATOM     22  H   LIG d   1       7.959  -0.407  -4.877  0.00  0.00     0.028 H 
ATOM     23  H   LIG d   1       8.086  -1.127  -6.499  0.00  0.00     0.028 H 
ATOM     24  H   LIG d   1       8.146   0.641  -6.304  0.00  0.00     0.028 H 
ENDBRANCH   1  21
BRANCH   3  25
ATOM     25  C   LIG d   1       3.656   0.067  -8.842  0.00  0.00    -0.036 C 
ATOM     26  H   LIG d   1       3.977   1.001  -9.303  0.00  0.00     0.028 H 
ATOM     27  H   LIG d   1       3.984  -0.772  -9.456  0.00  0.00     0.028 H 
ATOM     28  H   LIG d   1       2.570   0.055  -8.760  0.00  0.00     0.028 H 
ENDBRANCH   3  25
BRANCH   4  29
ATOM     29  O   LIG d   1       2.097  -0.044  -6.494  0.00  0.00    -0.506 OA
ATOM     30  H   LIG d   1       1.712  -0.832  -6.901  0.00  0.00     0.292 HD
ENDBRANCH   4  29
BRANCH   9  31
ATOM     31  C   LIG d   1       4.448   0.806  -1.744  0.00  0.00    -0.052 C 
ATOM     32  H   LIG d   1       5.247   1.501  -2.003  0.00  0.00     0.024 H 
ATOM     33  H   LIG d   1       3.485   1.313  -1.827  0.00  0.00     0.024 H 
ATOM     34  H   LIG d   1       4.587   0.458  -0.721  0.00  0.00     0.024 H 
ENDBRANCH   9  31
BRANCH   9  35
ATOM     35  C   LIG d   1       4.363  -1.697  -1.917  0.00  0.00    -0.052 C 
ATOM     36  H   LIG d   1       4.939  -2.474  -2.420  0.00  0.00     0.024 H 
ATOM     37  H   LIG d   1       4.750  -1.553  -0.909  0.00  0.00     0.024 H 
ATOM     38  H   LIG d   1       3.316  -1.997  -1.864  0.00  0.00     0.024 H 
ENDBRANCH   9  35
TORSDOF 8
ENDMDL
MODEL 3
REMARK VINA RESULT:      -5.2      3.088      4.796
REMARK  8 active torsions:
REMARK  status: ('A' for Active; 'I' for Inactive)
REMARK    1  A    between atoms: C_1  and  C_2 
REMARK    2  A    between atoms: C_3  and  C_16 
REMARK    3  A    between atoms: C_4  and  C_15 
REMARK    4  A    between atoms: C_5  and  O_14 
REMARK    5  A    between atoms: C_10  and  C_12 
REMARK    6  A    between atoms: C_10  and  C_13 
REMARK    7  A    between atoms: C_16  and  C_17 
REMARK    8  A    between atoms: C_17  and  O_18 
ROOT
ATOM      1  C   LIG d   1       4.257  -0.212  -6.565  0.00  0.00    -0.036 A 
ATOM      2  C   LIG d   1       5.264  -0.311  -7.499  0.00  0.00    -0.035 A 
ATOM      3  C   LIG d   1       6.542  -0.665  -7.109  0.00  0.00    -0.005 A 
ATOM      4  C   LIG d   1       6.816  -0.930  -5.774  0.00  0.00     0.124 A 
ATOM      5  C   LIG d   1       5.810  -0.839  -4.825  0.00  0.00     0.006 A 
ATOM      6  C   LIG d   1       4.519  -0.482  -5.212  0.00  0.00     0.028 A 
ATOM      7  C   LIG d   1       3.618  -0.448  -4.048  0.00  0.00     0.170 A 
ATOM      8  O   LIG d   1       2.438  -0.172  -4.069  0.00  0.00    -0.291 OA
ATOM      9  C   LIG d   1       4.420  -0.818  -2.824  0.00  0.00     0.032 A 
ATOM     10  C   LIG d   1       5.846  -1.072  -3.334  0.00  0.00    -0.011 A 
ATOM     11  H   LIG d   1       6.142  -2.100  -3.122  0.00  0.00     0.032 H 
ATOM     12  H   LIG d   1       6.540  -0.377  -2.862  0.00  0.00     0.032 H 
ENDROOT
BRANCH   2  13
ATOM     13  C   LIG d   1       4.973  -0.025  -8.949  0.00  0.00    -0.004 C 
ATOM     14  H   LIG d   1       3.937  -0.285  -9.170  0.00  0.00     0.034 H 
ATOM     15  H   LIG d   1       5.637  -0.618  -9.577  0.00  0.00     0.034 H 
BRANCH  13  16
ATOM     16  C   LIG d   1       5.196   1.462  -9.232  0.00  0.00     0.048 C 
ATOM     17  H   LIG d   1       6.259   1.646  -9.388  0.00  0.00     0.056 H 
ATOM     18  H   LIG d   1       4.847   2.050  -8.383  0.00  0.00     0.056 H 
BRANCH  16  19
ATOM     19  O   LIG d   1       4.470   1.839 -10.404  0.00  0.00    -0.395 OA
ATOM     20  H   LIG d   1       4.859   2.582 -10.885  0.00  0.00     0.209 HD
ENDBRANCH  16  19
ENDBRANCH  13  16
ENDBRANCH   2  13
BRANCH   1  21
ATOM     21  C   LIG d   1       2.867   0.181  -6.996  0.00  0.00    -0.039 C 
ATOM     22  H   LIG d   1       2.317  -0.708  -7.303  0.00  0.00     0.028 H 
ATOM     23  H   LIG d   1       2.350   0.659  -6.164  0.00  0.00     0.028 H 
ATOM     24  H   LIG d   1       2.930   0.878  -7.833  0.00  0.00     0.028 H 
ENDBRANCH   1  21
BRANCH   3  25
ATOM     25  C   LIG d   1       7.641  -0.765  -8.137  0.00  0.00    -0.036 C 
ATOM     26  H   LIG d   1       8.395  -0.004  -7.937  0.00  0.00     0.028 H 
ATOM     27  H   LIG d   1       8.099  -1.753  -8.083  0.00  0.00     0.028 H 
ATOM     28  H   LIG d   1       7.223  -0.611  -9.131  0.00  0.00     0.028 H 
ENDBRANCH   3  25
BRANCH   4  29
ATOM     29  O   LIG d   1       8.074  -1.278  -5.398  0.00  0.00    -0.506 OA
ATOM     30  H   LIG d   1       8.178  -1.409  -4.445  0.00  0.00     0.292 HD
ENDBRANCH   4  29
BRANCH   9  31
ATOM     31  C   LIG d   1       3.853  -2.087  -2.182  0.00  0.00    -0.052 C 
ATOM     32  H   LIG d   1       4.672  -2.708  -1.819  0.00  0.00     0.024 H 
ATOM     33  H   LIG d   1       3.206  -1.814  -1.348  0.00  0.00     0.024 H 
ATOM     34  H   LIG d   1       3.277  -2.642  -2.922  0.00  0.00     0.024 H 
ENDBRANCH   9  31
BRANCH   9  35
ATOM     35  C   LIG d   1       4.414   0.333  -1.816  0.00  0.00    -0.052 C 
ATOM     36  H   LIG d   1       5.151   1.080  -2.113  0.00  0.00     0.024 H 
ATOM     37  H   LIG d   1       3.425   0.789  -1.790  0.00  0.00     0.024 H 
ATOM     38  H   LIG d   1       4.664  -0.050  -0.826  0.00  0.00     0.024 H 
ENDBRANCH   9  35
TORSDOF 8
ENDMDL
MODEL 4
REMARK VINA RESULT:      -5.2      3.520      4.617
REMARK  8 active torsions:
REMARK  status: ('A' for Active; 'I' for Inactive)
REMARK    1  A    between atoms: C_1  and  C_2 
REMARK    2  A    between atoms: C_3  and  C_16 
REMARK    3  A    between atoms: C_4  and  C_15 
REMARK    4  A    between atoms: C_5  and  O_14 
REMARK    5  A    between atoms: C_10  and  C_12 
REMARK    6  A    between atoms: C_10  and  C_13 
REMARK    7  A    between atoms: C_16  and  C_17 
REMARK    8  A    between atoms: C_17  and  O_18 
ROOT
ATOM      1  C   LIG d   1       3.220   0.097  -5.294  0.00  0.00    -0.036 A 
ATOM      2  C   LIG d   1       3.604  -0.896  -4.420  0.00  0.00    -0.035 A 
ATOM      3  C   LIG d   1       4.353  -1.968  -4.869  0.00  0.00    -0.005 A 
ATOM      4  C   LIG d   1       4.726  -2.046  -6.204  0.00  0.00     0.124 A 
ATOM      5  C   LIG d   1       4.350  -1.051  -7.093  0.00  0.00     0.006 A 
ATOM      6  C   LIG d   1       3.595   0.032  -6.645  0.00  0.00     0.028 A 
ATOM      7  C   LIG d   1       3.311   0.960  -7.752  0.00  0.00     0.170 A 
ATOM      8  O   LIG d   1       2.678   1.991  -7.672  0.00  0.00    -0.291 OA
ATOM      9  C   LIG d   1       3.948   0.406  -9.004  0.00  0.00     0.032 A 
ATOM     10  C   LIG d   1       4.623  -0.903  -8.570  0.00  0.00    -0.011 A 
ATOM     11  H   LIG d   1       5.697  -0.848  -8.750  0.00  0.00     0.032 H 
ATOM     12  H   LIG d   1       4.195  -1.743  -9.117  0.00  0.00     0.032 H 
ENDROOT
BRANCH   2  13
ATOM     13  C   LIG d   1       3.202  -0.815  -2.970  0.00  0.00    -0.004 C 
ATOM     14  H   LIG d   1       3.028  -1.820  -2.585  0.00  0.00     0.034 H 
ATOM     15  H   LIG d   1       2.289  -0.228  -2.878  0.00  0.00     0.034 H 
BRANCH  13  16
ATOM     16  C   LIG d   1       4.321  -0.149  -2.166  0.00  0.00     0.048 C 
ATOM     17  H   LIG d   1       5.201  -0.031  -2.798  0.00  0.00     0.056 H 
ATOM     18  H   LIG d   1       4.571  -0.770  -1.306  0.00  0.00     0.056 H 
BRANCH  16  19
ATOM     19  O   LIG d   1       3.884   1.135  -1.715  0.00  0.00    -0.395 OA
ATOM     20  H   LIG d   1       4.601   1.712  -1.419  0.00  0.00     0.209 HD
ENDBRANCH  16  19
ENDBRANCH  13  16
ENDBRANCH   2  13
BRANCH   1  21
ATOM     21  C   LIG d   1       2.398   1.259  -4.798  0.00  0.00    -0.039 C 
ATOM     22  H   LIG d   1       1.689   0.909  -4.048  0.00  0.00     0.028 H 
ATOM     23  H   LIG d   1       3.056   2.006  -4.355  0.00  0.00     0.028 H 
ATOM     24  H   LIG d   1       1.855   1.702  -5.634  0.00  0.00     0.028 H 
ENDBRANCH   1  21
BRANCH   3  25
ATOM     25  C   LIG d   1       4.765  -3.053  -3.907  0.00  0.00    -0.036 C 
ATOM     26  H   LIG d   1       5.543  -2.674  -3.245  0.00  0.00     0.028 H 
ATOM     27  H   LIG d   1       3.902  -3.359  -3.315  0.00  0.00     0.028 H 
ATOM     28  H   LIG d   1       5.145  -3.908  -4.465  0.00  0.00     0.028 H 
ENDBRANCH   3  25
BRANCH   4  29
ATOM     29  O   LIG d   1       5.462  -3.102  -6.640  0.00  0.00    -0.506 OA
ATOM     30  H   LIG d   1       5.052  -3.597  -7.361  0.00  0.00     0.292 HD
ENDBRANCH   4  29
BRANCH   9  31
ATOM     31  C   LIG d   1       4.991   1.386  -9.546  0.00  0.00    -0.052 C 
ATOM     32  H   LIG d   1       5.458   1.916  -8.716  0.00  0.00     0.024 H 
ATOM     33  H   LIG d   1       5.753   0.836 -10.101  0.00  0.00     0.024 H 
ATOM     34  H   LIG d   1       4.507   2.103 -10.209  0.00  0.00     0.024 H 
ENDBRANCH   9  31
BRANCH   9  35
ATOM     35  C   LIG d   1       2.882   0.127 -10.065  0.00  0.00    -0.052 C 
ATOM     36  H   LIG d   1       2.064   0.840  -9.952  0.00  0.00     0.024 H 
ATOM     37  H   LIG d   1       3.320   0.231 -11.057  0.00  0.00     0.024 H 
ATOM     38  H   LIG d   1       2.501  -0.887  -9.939  0.00  0.00     0.024 H 
ENDBRANCH   9  35
TORSDOF 8
ENDMDL
MODEL 5
REMARK VINA RESULT:      -5.2      0.999      3.410
REMARK  8 active torsions:
REMARK  status: ('A' for Active; 'I' for Inactive)
REMARK    1  A    between atoms: C_1  and  C_2 
REMARK    2  A    between atoms: C_3  and  C_16 
REMARK    3  A    between atoms: C_4  and  C_15 
REMARK    4  A    between atoms: C_5  and  O_14 
REMARK    5  A    between atoms: C_10  and  C_12 
REMARK    6  A    between atoms: C_10  and  C_13 
REMARK    7  A    between atoms: C_16  and  C_17 
REMARK    8  A    between atoms: C_17  and  O_18 
ROOT
ATOM      1  C   LIG d   1       6.451  -0.119  -3.749  0.00  0.00    -0.036 A 
ATOM      2  C   LIG d   1       5.371  -0.461  -2.967  0.00  0.00    -0.035 A 
ATOM      3  C   LIG d   1       4.751  -1.686  -3.133  0.00  0.00    -0.005 A 
ATOM      4  C   LIG d   1       5.220  -2.581  -4.085  0.00  0.00     0.124 A 
ATOM      5  C   LIG d   1       6.311  -2.251  -4.875  0.00  0.00     0.006 A 
ATOM      6  C   LIG d   1       6.939  -1.016  -4.712  0.00  0.00     0.028 A 
ATOM      7  C   LIG d   1       8.066  -0.879  -5.649  0.00  0.00     0.170 A 
ATOM      8  O   LIG d   1       8.800   0.081  -5.744  0.00  0.00    -0.291 OA
ATOM      9  C   LIG d   1       8.148  -2.143  -6.471  0.00  0.00     0.032 A 
ATOM     10  C   LIG d   1       7.005  -3.032  -5.964  0.00  0.00    -0.011 A 
ATOM     11  H   LIG d   1       7.405  -3.963  -5.560  0.00  0.00     0.032 H 
ATOM     12  H   LIG d   1       6.309  -3.244  -6.775  0.00  0.00     0.032 H 
ENDROOT
BRANCH   2  13
ATOM     13  C   LIG d   1       4.857   0.506  -1.932  0.00  0.00    -0.004 C 
ATOM     14  H   LIG d   1       5.604   1.281  -1.757  0.00  0.00     0.034 H 
ATOM     15  H   LIG d   1       4.663  -0.027  -1.002  0.00  0.00     0.034 H 
BRANCH  13  16
ATOM     16  C   LIG d   1       3.562   1.149  -2.431  0.00  0.00     0.048 C 
ATOM     17  H   LIG d   1       3.004   1.549  -1.584  0.00  0.00     0.056 H 
ATOM     18  H   LIG d   1       2.957   0.400  -2.943  0.00  0.00     0.056 H 
BRANCH  16  19
ATOM     19  O   LIG d   1       3.874   2.209  -3.337  0.00  0.00    -0.395 OA
ATOM     20  H   LIG d   1       4.816   2.287  -3.541  0.00  0.00     0.209 HD
ENDBRANCH  16  19
ENDBRANCH  13  16
ENDBRANCH   2  13
BRANCH   1  21
ATOM     21  C   LIG d   1       7.117   1.222  -3.567  0.00  0.00    -0.039 C 
ATOM     22  H   LIG d   1       7.445   1.327  -2.533  0.00  0.00     0.028 H 
ATOM     23  H   LIG d   1       7.979   1.292  -4.230  0.00  0.00     0.028 H 
ATOM     24  H   LIG d   1       6.408   2.015  -3.807  0.00  0.00     0.028 H 
ENDBRANCH   1  21
BRANCH   3  25
ATOM     25  C   LIG d   1       3.565  -2.051  -2.277  0.00  0.00    -0.036 C 
ATOM     26  H   LIG d   1       2.692  -2.199  -2.912  0.00  0.00     0.028 H 
ATOM     27  H   LIG d   1       3.779  -2.972  -1.734  0.00  0.00     0.028 H 
ATOM     28  H   LIG d   1       3.368  -1.247  -1.568  0.00  0.00     0.028 H 
ENDBRANCH   3  25
BRANCH   4  29
ATOM     29  O   LIG d   1       4.608  -3.783  -4.243  0.00  0.00    -0.506 OA
ATOM     30  H   LIG d   1       4.714  -4.381  -3.491  0.00  0.00     0.292 HD
ENDBRANCH   4  29
BRANCH   9  31
ATOM     31  C   LIG d   1       9.496  -2.833  -6.248  0.00  0.00    -0.052 C 
ATOM     32  H   LIG d   1      10.263  -2.081  -6.063  0.00  0.00     0.024 H 
ATOM     33  H   LIG d   1       9.425  -3.499  -5.387  0.00  0.00     0.024 H 
ATOM     34  H   LIG d   1       9.760  -3.412  -7.133  0.00  0.00     0.024 H 
ENDBRANCH   9  31
BRANCH   9  35
ATOM     35  C   LIG d   1       7.956  -1.826  -7.955  0.00  0.00    -0.052 C 
ATOM     36  H   LIG d   1       7.245  -1.006  -8.062  0.00  0.00     0.024 H 
ATOM     37  H   LIG d   1       8.911  -1.538  -8.393  0.00  0.00     0.024 H 
ATOM     38  H   LIG d   1       7.573  -2.709  -8.469  0.00  0.00     0.024 H 
ENDBRANCH   9  35
TORSDOF 8
ENDMDL
MODEL 6
REMARK VINA RESULT:      -5.2      3.341      5.062
REMARK  8 active torsions:
REMARK  status: ('A' for Active; 'I' for Inactive)
REMARK    1  A    between atoms: C_1  and  C_2 
REMARK    2  A    between atoms: C_3  and  C_16 
REMARK    3  A    between atoms: C_4  and  C_15 
REMARK    4  A    between atoms: C_5  and  O_14 
REMARK    5  A    between atoms: C_10  and  C_12 
REMARK    6  A    between atoms: C_10  and  C_13 
REMARK    7  A    between atoms: C_16  and  C_17 
REMARK    8  A    between atoms: C_17  and  O_18 
ROOT
ATOM      1  C   LIG d   1       5.970  -0.546  -5.604  0.00  0.00    -0.036 A 
ATOM      2  C   LIG d   1       5.857  -0.917  -4.283  0.00  0.00    -0.035 A 
ATOM      3  C   LIG d   1       4.616  -0.957  -3.675  0.00  0.00    -0.005 A 
ATOM      4  C   LIG d   1       3.476  -0.628  -4.395  0.00  0.00     0.124 A 
ATOM      5  C   LIG d   1       3.575  -0.257  -5.727  0.00  0.00     0.006 A 
ATOM      6  C   LIG d   1       4.824  -0.216  -6.345  0.00  0.00     0.028 A 
ATOM      7  C   LIG d   1       4.694   0.201  -7.751  0.00  0.00     0.170 A 
ATOM      8  O   LIG d   1       5.603   0.329  -8.544  0.00  0.00    -0.291 OA
ATOM      9  C   LIG d   1       3.230   0.440  -8.036  0.00  0.00     0.032 A 
ATOM     10  C   LIG d   1       2.506   0.141  -6.716  0.00  0.00    -0.011 A 
ATOM     11  H   LIG d   1       1.799  -0.678  -6.854  0.00  0.00     0.032 H 
ATOM     12  H   LIG d   1       1.984   1.031  -6.366  0.00  0.00     0.032 H 
ENDROOT
BRANCH   2  13
ATOM     13  C   LIG d   1       7.091  -1.276  -3.496  0.00  0.00    -0.004 C 
ATOM     14  H   LIG d   1       6.895  -1.143  -2.432  0.00  0.00     0.034 H 
ATOM     15  H   LIG d   1       7.914  -0.628  -3.797  0.00  0.00     0.034 H 
BRANCH  13  16
ATOM     16  C   LIG d   1       7.464  -2.734  -3.768  0.00  0.00     0.048 C 
ATOM     17  H   LIG d   1       7.659  -2.867  -4.832  0.00  0.00     0.056 H 
ATOM     18  H   LIG d   1       6.641  -3.383  -3.466  0.00  0.00     0.056 H 
BRANCH  16  19
ATOM     19  O   LIG d   1       8.635  -3.074  -3.024  0.00  0.00    -0.395 OA
ATOM     20  H   LIG d   1       8.463  -3.633  -2.254  0.00  0.00     0.209 HD
ENDBRANCH  16  19
ENDBRANCH  13  16
ENDBRANCH   2  13
BRANCH   1  21
ATOM     21  C   LIG d   1       7.327  -0.498  -6.259  0.00  0.00    -0.039 C 
ATOM     22  H   LIG d   1       7.848  -1.438  -6.082  0.00  0.00     0.028 H 
ATOM     23  H   LIG d   1       7.208  -0.345  -7.331  0.00  0.00     0.028 H 
ATOM     24  H   LIG d   1       7.905   0.324  -5.837  0.00  0.00     0.028 H 
ENDBRANCH   1  21
BRANCH   3  25
ATOM     25  C   LIG d   1       4.501  -1.359  -2.226  0.00  0.00    -0.036 C 
ATOM     26  H   LIG d   1       3.767  -2.158  -2.129  0.00  0.00     0.028 H 
ATOM     27  H   LIG d   1       5.470  -1.711  -1.870  0.00  0.00     0.028 H 
ATOM     28  H   LIG d   1       4.186  -0.500  -1.635  0.00  0.00     0.028 H 
ENDBRANCH   3  25
BRANCH   4  29
ATOM     29  O   LIG d   1       2.259  -0.669  -3.792  0.00  0.00    -0.506 OA
ATOM     30  H   LIG d   1       1.654   0.029  -4.077  0.00  0.00     0.292 HD
ENDBRANCH   4  29
BRANCH   9  31
ATOM     31  C   LIG d   1       2.742  -0.506  -9.135  0.00  0.00    -0.052 C 
ATOM     32  H   LIG d   1       3.284  -0.301 -10.058  0.00  0.00     0.024 H 
ATOM     33  H   LIG d   1       2.920  -1.539  -8.831  0.00  0.00     0.024 H 
ATOM     34  H   LIG d   1       1.676  -0.356  -9.298  0.00  0.00     0.024 H 
ENDBRANCH   9  31
BRANCH   9  35
ATOM     35  C   LIG d   1       2.999   1.895  -8.450  0.00  0.00    -0.052 C 
ATOM     36  H   LIG d   1       3.157   2.546  -7.589  0.00  0.00     0.024 H 
ATOM     37  H   LIG d   1       3.698   2.163  -9.241  0.00  0.00     0.024 H 
ATOM     38  H   LIG d   1       1.977   2.012  -8.812  0.00  0.00     0.024 H 
ENDBRANCH   9  35
TORSDOF 8
ENDMDL
MODEL 7
REMARK VINA RESULT:      -4.9      3.229      5.470
REMARK  8 active torsions:
REMARK  status: ('A' for Active; 'I' for Inactive)
REMARK    1  A    between atoms: C_1  and  C_2 
REMARK    2  A    between atoms: C_3  and  C_16 
REMARK    3  A    between atoms: C_4  and  C_15 
REMARK    4  A    between atoms: C_5  and  O_14 
REMARK    5  A    between atoms: C_10  and  C_12 
REMARK    6  A    between atoms: C_10  and  C_13 
REMARK    7  A    between atoms: C_16  and  C_17 
REMARK    8  A    between atoms: C_17  and  O_18 
ROOT
ATOM      1  C   LIG d   1       4.280  -2.384  -7.225  0.00  0.00    -0.036 A 
ATOM      2  C   LIG d   1       3.691  -1.632  -8.216  0.00  0.00    -0.035 A 
ATOM      3  C   LIG d   1       3.195  -0.372  -7.933  0.00  0.00    -0.005 A 
ATOM      4  C   LIG d   1       3.294   0.144  -6.649  0.00  0.00     0.124 A 
ATOM      5  C   LIG d   1       3.890  -0.601  -5.642  0.00  0.00     0.006 A 
ATOM      6  C   LIG d   1       4.392  -1.872  -5.922  0.00  0.00     0.028 A 
ATOM      7  C   LIG d   1       4.977  -2.477  -4.714  0.00  0.00     0.170 A 
ATOM      8  O   LIG d   1       5.490  -3.573  -4.644  0.00  0.00    -0.291 OA
ATOM      9  C   LIG d   1       4.826  -1.494  -3.578  0.00  0.00     0.032 A 
ATOM     10  C   LIG d   1       4.119  -0.275  -4.187  0.00  0.00    -0.011 A 
ATOM     11  H   LIG d   1       4.751   0.609  -4.095  0.00  0.00     0.032 H 
ATOM     12  H   LIG d   1       3.166  -0.107  -3.685  0.00  0.00     0.032 H 
ENDROOT
BRANCH   2  13
ATOM     13  C   LIG d   1       3.580  -2.186  -9.613  0.00  0.00    -0.004 C 
ATOM     14  H   LIG d   1       4.290  -3.004  -9.736  0.00  0.00     0.034 H 
ATOM     15  H   LIG d   1       3.803  -1.401 -10.334  0.00  0.00     0.034 H 
BRANCH  13  16
ATOM     16  C   LIG d   1       2.160  -2.704  -9.846  0.00  0.00     0.048 C 
ATOM     17  H   LIG d   1       1.861  -2.497 -10.874  0.00  0.00     0.056 H 
ATOM     18  H   LIG d   1       1.473  -2.205  -9.162  0.00  0.00     0.056 H 
BRANCH  16  19
ATOM     19  O   LIG d   1       2.122  -4.114  -9.614  0.00  0.00    -0.395 OA
ATOM     20  H   LIG d   1       1.892  -4.357  -8.707  0.00  0.00     0.209 HD
ENDBRANCH  16  19
ENDBRANCH  13  16
ENDBRANCH   2  13
BRANCH   1  21
ATOM     21  C   LIG d   1       4.813  -3.759  -7.539  0.00  0.00    -0.039 C 
ATOM     22  H   LIG d   1       4.236  -4.193  -8.354  0.00  0.00     0.028 H 
ATOM     23  H   LIG d   1       5.859  -3.684  -7.834  0.00  0.00     0.028 H 
ATOM     24  H   LIG d   1       4.728  -4.391  -6.655  0.00  0.00     0.028 H 
ENDBRANCH   1  21
BRANCH   3  25
ATOM     25  C   LIG d   1       2.545   0.442  -9.023  0.00  0.00    -0.036 C 
ATOM     26  H   LIG d   1       2.516   1.490  -8.725  0.00  0.00     0.028 H 
ATOM     27  H   LIG d   1       3.123   0.343  -9.943  0.00  0.00     0.028 H 
ATOM     28  H   LIG d   1       1.531   0.082  -9.191  0.00  0.00     0.028 H 
ENDBRANCH   3  25
BRANCH   4  29
ATOM     29  O   LIG d   1       2.805   1.382  -6.377  0.00  0.00    -0.506 OA
ATOM     30  H   LIG d   1       3.416   2.101  -6.586  0.00  0.00     0.292 HD
ENDBRANCH   4  29
BRANCH   9  31
ATOM     31  C   LIG d   1       6.202  -1.094  -3.038  0.00  0.00    -0.052 C 
ATOM     32  H   LIG d   1       6.748  -0.545  -3.806  0.00  0.00     0.024 H 
ATOM     33  H   LIG d   1       6.077  -0.461  -2.158  0.00  0.00     0.024 H 
ATOM     34  H   LIG d   1       6.760  -1.989  -2.765  0.00  0.00     0.024 H 
ENDBRANCH   9  31
BRANCH   9  35
ATOM     35  C   LIG d   1       3.975  -2.098  -2.460  0.00  0.00    -0.052 C 
ATOM     36  H   LIG d   1       2.919  -1.935  -2.680  0.00  0.00     0.024 H 
ATOM     37  H   LIG d   1       4.171  -3.168  -2.392  0.00  0.00     0.024 H 
ATOM     38  H   LIG d   1       4.227  -1.621  -1.513  0.00  0.00     0.024 H 
ENDBRANCH   9  35
TORSDOF 8
ENDMDL
MODEL 8
REMARK VINA RESULT:      -4.9      1.945      4.442
REMARK  8 active torsions:
REMARK  status: ('A' for Active; 'I' for Inactive)
REMARK    1  A    between atoms: C_1  and  C_2 
REMARK    2  A    between atoms: C_3  and  C_16 
REMARK    3  A    between atoms: C_4  and  C_15 
REMARK    4  A    between atoms: C_5  and  O_14 
REMARK    5  A    between atoms: C_10  and  C_12 
REMARK    6  A    between atoms: C_10  and  C_13 
REMARK    7  A    between atoms: C_16  and  C_17 
REMARK    8  A    between atoms: C_17  and  O_18 
ROOT
ATOM      1  C   LIG d   1       5.757  -0.109  -3.283  0.00  0.00    -0.036 A 
ATOM      2  C   LIG d   1       5.097  -1.312  -3.397  0.00  0.00    -0.035 A 
ATOM      3  C   LIG d   1       5.521  -2.254  -4.316  0.00  0.00    -0.005 A 
ATOM      4  C   LIG d   1       6.619  -1.995  -5.124  0.00  0.00     0.124 A 
ATOM      5  C   LIG d   1       7.296  -0.790  -5.015  0.00  0.00     0.006 A 
ATOM      6  C   LIG d   1       6.872   0.164  -4.090  0.00  0.00     0.028 A 
ATOM      7  C   LIG d   1       7.731   1.358  -4.147  0.00  0.00     0.170 A 
ATOM      8  O   LIG d   1       7.613   2.353  -3.464  0.00  0.00    -0.291 OA
ATOM      9  C   LIG d   1       8.786   1.128  -5.202  0.00  0.00     0.032 A 
ATOM     10  C   LIG d   1       8.499  -0.271  -5.764  0.00  0.00    -0.011 A 
ATOM     11  H   LIG d   1       9.356  -0.925  -5.597  0.00  0.00     0.032 H 
ATOM     12  H   LIG d   1       8.279  -0.208  -6.829  0.00  0.00     0.032 H 
ENDROOT
BRANCH   2  13
ATOM     13  C   LIG d   1       3.904  -1.599  -2.522  0.00  0.00    -0.004 C 
ATOM     14  H   LIG d   1       4.164  -1.410  -1.480  0.00  0.00     0.034 H 
ATOM     15  H   LIG d   1       3.611  -2.642  -2.639  0.00  0.00     0.034 H 
BRANCH  13  16
ATOM     16  C   LIG d   1       2.741  -0.693  -2.930  0.00  0.00     0.048 C 
ATOM     17  H   LIG d   1       3.014   0.349  -2.757  0.00  0.00     0.056 H 
ATOM     18  H   LIG d   1       1.861  -0.940  -2.337  0.00  0.00     0.056 H 
BRANCH  16  19
ATOM     19  O   LIG d   1       2.450  -0.885  -4.316  0.00  0.00    -0.395 OA
ATOM     20  H   LIG d   1       3.092  -0.475  -4.913  0.00  0.00     0.209 HD
ENDBRANCH  16  19
ENDBRANCH  13  16
ENDBRANCH   2  13
BRANCH   1  21
ATOM     21  C   LIG d   1       5.285   0.917  -2.283  0.00  0.00    -0.039 C 
ATOM     22  H   LIG d   1       4.197   0.971  -2.306  0.00  0.00     0.028 H 
ATOM     23  H   LIG d   1       5.614   0.629  -1.285  0.00  0.00     0.028 H 
ATOM     24  H   LIG d   1       5.704   1.891  -2.538  0.00  0.00     0.028 H 
ENDBRANCH   1  21
BRANCH   3  25
ATOM     25  C   LIG d   1       4.788  -3.567  -4.438  0.00  0.00    -0.036 C 
ATOM     26  H   LIG d   1       5.370  -4.250  -5.058  0.00  0.00     0.028 H 
ATOM     27  H   LIG d   1       4.654  -4.000  -3.447  0.00  0.00     0.028 H 
ATOM     28  H   LIG d   1       3.815  -3.398  -4.897  0.00  0.00     0.028 H 
ENDBRANCH   3  25
BRANCH   4  29
ATOM     29  O   LIG d   1       7.031  -2.926  -6.024  0.00  0.00    -0.506 OA
ATOM     30  H   LIG d   1       7.934  -3.239  -5.881  0.00  0.00     0.292 HD
ENDBRANCH   4  29
BRANCH   9  31
ATOM     31  C   LIG d   1      10.182   1.171  -4.574  0.00  0.00    -0.052 C 
ATOM     32  H   LIG d   1      10.769   0.326  -4.935  0.00  0.00     0.024 H 
ATOM     33  H   LIG d   1      10.677   2.102  -4.852  0.00  0.00     0.024 H 
ATOM     34  H   LIG d   1      10.095   1.116  -3.490  0.00  0.00     0.024 H 
ENDBRANCH   9  31
BRANCH   9  35
ATOM     35  C   LIG d   1       8.671   2.178  -6.308  0.00  0.00    -0.052 C 
ATOM     36  H   LIG d   1       9.375   1.943  -7.107  0.00  0.00     0.024 H 
ATOM     37  H   LIG d   1       7.657   2.178  -6.706  0.00  0.00     0.024 H 
ATOM     38  H   LIG d   1       8.901   3.163  -5.899  0.00  0.00     0.024 H 
ENDBRANCH   9  35
TORSDOF 8
ENDMDL
MODEL 9
REMARK VINA RESULT:      -4.8      6.518      9.393
REMARK  8 active torsions:
REMARK  status: ('A' for Active; 'I' for Inactive)
REMARK    1  A    between atoms: C_1  and  C_2 
REMARK    2  A    between atoms: C_3  and  C_16 
REMARK    3  A    between atoms: C_4  and  C_15 
REMARK    4  A    between atoms: C_5  and  O_14 
REMARK    5  A    between atoms: C_10  and  C_12 
REMARK    6  A    between atoms: C_10  and  C_13 
REMARK    7  A    between atoms: C_16  and  C_17 
REMARK    8  A    between atoms: C_17  and  O_18 
ROOT
ATOM      1  C   LIG d   1       9.972   7.182  -2.930  0.00  0.00    -0.036 A 
ATOM      2  C   LIG d   1      10.303   7.685  -1.691  0.00  0.00    -0.035 A 
ATOM      3  C   LIG d   1      10.734   6.837  -0.688  0.00  0.00    -0.005 A 
ATOM      4  C   LIG d   1      10.841   5.473  -0.926  0.00  0.00     0.124 A 
ATOM      5  C   LIG d   1      10.516   4.955  -2.170  0.00  0.00     0.006 A 
ATOM      6  C   LIG d   1      10.081   5.806  -3.185  0.00  0.00     0.028 A 
ATOM      7  C   LIG d   1       9.793   5.045  -4.412  0.00  0.00     0.170 A 
ATOM      8  O   LIG d   1       9.400   5.508  -5.462  0.00  0.00    -0.291 OA
ATOM      9  C   LIG d   1      10.075   3.587  -4.137  0.00  0.00     0.032 A 
ATOM     10  C   LIG d   1      10.545   3.534  -2.677  0.00  0.00    -0.011 A 
ATOM     11  H   LIG d   1      11.560   3.137  -2.625  0.00  0.00     0.032 H 
ATOM     12  H   LIG d   1       9.869   2.912  -2.090  0.00  0.00     0.032 H 
ENDROOT
BRANCH   2  13
ATOM     13  C   LIG d   1      10.190   9.164  -1.427  0.00  0.00    -0.004 C 
ATOM     14  H   LIG d   1      10.254   9.707  -2.370  0.00  0.00     0.034 H 
ATOM     15  H   LIG d   1      11.000   9.479  -0.771  0.00  0.00     0.034 H 
BRANCH  13  16
ATOM     16  C   LIG d   1       8.846   9.462  -0.758  0.00  0.00     0.048 C 
ATOM     17  H   LIG d   1       9.019   9.953   0.200  0.00  0.00     0.056 H 
ATOM     18  H   LIG d   1       8.307   8.528  -0.595  0.00  0.00     0.056 H 
BRANCH  16  19
ATOM     19  O   LIG d   1       8.073  10.318  -1.600  0.00  0.00    -0.395 OA
ATOM     20  H   LIG d   1       8.529  10.593  -2.407  0.00  0.00     0.209 HD
ENDBRANCH  16  19
ENDBRANCH  13  16
ENDBRANCH   2  13
BRANCH   1  21
ATOM     21  C   LIG d   1       9.497   8.112  -4.017  0.00  0.00    -0.039 C 
ATOM     22  H   LIG d   1       9.879   7.770  -4.979  0.00  0.00     0.028 H 
ATOM     23  H   LIG d   1       8.408   8.118  -4.039  0.00  0.00     0.028 H 
ATOM     24  H   LIG d   1       9.863   9.120  -3.818  0.00  0.00     0.028 H 
ENDBRANCH   1  21
BRANCH   3  25
ATOM     25  C   LIG d   1      11.088   7.394   0.667  0.00  0.00    -0.036 C 
ATOM     26  H   LIG d   1      11.962   8.040   0.576  0.00  0.00     0.028 H 
ATOM     27  H   LIG d   1      10.248   7.973   1.052  0.00  0.00     0.028 H 
ATOM     28  H   LIG d   1      11.310   6.575   1.351  0.00  0.00     0.028 H 
ENDBRANCH   3  25
BRANCH   4  29
ATOM     29  O   LIG d   1      11.265   4.645   0.064  0.00  0.00    -0.506 OA
ATOM     30  H   LIG d   1      11.810   5.078   0.735  0.00  0.00     0.292 HD
ENDBRANCH   4  29
BRANCH   9  31
ATOM     31  C   LIG d   1      11.177   3.076  -5.068  0.00  0.00    -0.052 C 
ATOM     32  H   LIG d   1      11.003   3.450  -6.077  0.00  0.00     0.024 H 
ATOM     33  H   LIG d   1      12.146   3.428  -4.712  0.00  0.00     0.024 H 
ATOM     34  H   LIG d   1      11.169   1.986  -5.078  0.00  0.00     0.024 H 
ENDBRANCH   9  31
BRANCH   9  35
ATOM     35  C   LIG d   1       8.803   2.757  -4.317  0.00  0.00    -0.052 C 
ATOM     36  H   LIG d   1       8.905   1.816  -3.775  0.00  0.00     0.024 H 
ATOM     37  H   LIG d   1       7.949   3.310  -3.927  0.00  0.00     0.024 H 
ATOM     38  H   LIG d   1       8.650   2.551  -5.377  0.00  0.00     0.024 H 
ENDBRANCH   9  35
TORSDOF 8
ENDMDL
MODEL 10
REMARK VINA RESULT:      -4.8      3.297      5.504
REMARK  8 active torsions:
REMARK  status: ('A' for Active; 'I' for Inactive)
REMARK    1  A    between atoms: C_1  and  C_2 
REMARK    2  A    between atoms: C_3  and  C_16 
REMARK    3  A    between atoms: C_4  and  C_15 
REMARK    4  A    between atoms: C_5  and  O_14 
REMARK    5  A    between atoms: C_10  and  C_12 
REMARK    6  A    between atoms: C_10  and  C_13 
REMARK    7  A    between atoms: C_16  and  C_17 
REMARK    8  A    between atoms: C_17  and  O_18 
ROOT
ATOM      1  C   LIG d   1       3.601  -0.609  -7.139  0.00  0.00    -0.036 A 
ATOM      2  C   LIG d   1       3.774  -1.433  -8.229  0.00  0.00    -0.035 A 
ATOM      3  C   LIG d   1       4.453  -2.630  -8.096  0.00  0.00    -0.005 A 
ATOM      4  C   LIG d   1       4.960  -3.010  -6.862  0.00  0.00     0.124 A 
ATOM      5  C   LIG d   1       4.788  -2.192  -5.755  0.00  0.00     0.006 A 
ATOM      6  C   LIG d   1       4.104  -0.984  -5.884  0.00  0.00     0.028 A 
ATOM      7  C   LIG d   1       4.041  -0.283  -4.591  0.00  0.00     0.170 A 
ATOM      8  O   LIG d   1       3.511   0.789  -4.387  0.00  0.00    -0.291 OA
ATOM      9  C   LIG d   1       4.750  -1.131  -3.562  0.00  0.00     0.032 A 
ATOM     10  C   LIG d   1       5.234  -2.372  -4.325  0.00  0.00    -0.011 A 
ATOM     11  H   LIG d   1       4.784  -3.271  -3.902  0.00  0.00     0.032 H 
ATOM     12  H   LIG d   1       6.321  -2.439  -4.276  0.00  0.00     0.032 H 
ENDROOT
BRANCH   2  13
ATOM     13  C   LIG d   1       3.226  -1.025  -9.573  0.00  0.00    -0.004 C 
ATOM     14  H   LIG d   1       3.916  -1.337 -10.357  0.00  0.00     0.034 H 
ATOM     15  H   LIG d   1       3.107   0.057  -9.603  0.00  0.00     0.034 H 
BRANCH  13  16
ATOM     16  C   LIG d   1       1.867  -1.694  -9.794  0.00  0.00     0.048 C 
ATOM     17  H   LIG d   1       1.591  -2.257  -8.902  0.00  0.00     0.056 H 
ATOM     18  H   LIG d   1       1.929  -2.371 -10.646  0.00  0.00     0.056 H 
BRANCH  16  19
ATOM     19  O   LIG d   1       0.879  -0.694 -10.051  0.00  0.00    -0.395 OA
ATOM     20  H   LIG d   1       1.048   0.148  -9.607  0.00  0.00     0.209 HD
ENDBRANCH  16  19
ENDBRANCH  13  16
ENDBRANCH   2  13
BRANCH   1  21
ATOM     21  C   LIG d   1       2.864   0.698  -7.293  0.00  0.00    -0.039 C 
ATOM     22  H   LIG d   1       3.509   1.517  -6.977  0.00  0.00     0.028 H 
ATOM     23  H   LIG d   1       2.586   0.837  -8.337  0.00  0.00     0.028 H 
ATOM     24  H   LIG d   1       1.965   0.683  -6.677  0.00  0.00     0.028 H 
ENDBRANCH   1  21
BRANCH   3  25
ATOM     25  C   LIG d   1       4.643  -3.523  -9.296  0.00  0.00    -0.036 C 
ATOM     26  H   LIG d   1       3.726  -3.541  -9.883  0.00  0.00     0.028 H 
ATOM     27  H   LIG d   1       5.459  -3.139  -9.908  0.00  0.00     0.028 H 
ATOM     28  H   LIG d   1       4.882  -4.533  -8.962  0.00  0.00     0.028 H 
ENDBRANCH   3  25
BRANCH   4  29
ATOM     29  O   LIG d   1       5.627  -4.188  -6.737  0.00  0.00    -0.506 OA
ATOM     30  H   LIG d   1       5.683  -4.697  -7.556  0.00  0.00     0.292 HD
ENDBRANCH   4  29
BRANCH   9  31
ATOM     31  C   LIG d   1       3.780  -1.537  -2.450  0.00  0.00    -0.052 C 
ATOM     32  H   LIG d   1       4.232  -2.321  -1.842  0.00  0.00     0.024 H 
ATOM     33  H   LIG d   1       3.562  -0.671  -1.824  0.00  0.00     0.024 H 
ATOM     34  H   LIG d   1       2.855  -1.907  -2.891  0.00  0.00     0.024 H 
ENDBRANCH   9  31
BRANCH   9  35
ATOM     35  C   LIG d   1       5.940  -0.370  -2.975  0.00  0.00    -0.052 C 
ATOM     36  H   LIG d   1       5.885   0.677  -3.275  0.00  0.00     0.024 H 
ATOM     37  H   LIG d   1       5.915  -0.439  -1.888  0.00  0.00     0.024 H 
ATOM     38  H   LIG d   1       6.869  -0.806  -3.345  0.00  0.00     0.024 H 
ENDBRANCH   9  35
TORSDOF 8
ENDMDL
