MODEL 1
REMARK VINA RESULT:      -5.9      0.000      0.000
REMARK  5 active torsions:
REMARK  status: ('A' for Active; 'I' for Inactive)
REMARK    1  A    between atoms: C_1  and  C_2 
REMARK    2  A    between atoms: C_2  and  O_3 
REMARK    3  A    between atoms: O_3  and  C_4 
REMARK    4  A    between atoms: C_7  and  C_10 
REMARK    5  A    between atoms: C_17  and  N_21 
ROOT
ATOM      1  C   LIG d   1       3.317  -0.623  -3.893  0.00  0.00     0.120 A 
ATOM      2  C   LIG d   1       2.479   0.255  -4.571  0.00  0.00    -0.019 A 
ATOM      3  C   LIG d   1       2.594   0.405  -5.935  0.00  0.00    -0.048 A 
ATOM      4  C   LIG d   1       3.556  -0.326  -6.638  0.00  0.00     0.018 A 
ATOM      5  C   LIG d   1       4.393  -1.211  -5.953  0.00  0.00    -0.048 A 
ATOM      6  C   LIG d   1       4.274  -1.352  -4.589  0.00  0.00    -0.019 A 
ATOM      7  H   LIG d   1       1.736   0.819  -4.026  0.00  0.00     0.065 H 
ATOM      8  H   LIG d   1       1.942   1.087  -6.461  0.00  0.00     0.063 H 
ATOM      9  H   LIG d   1       5.135  -1.782  -6.493  0.00  0.00     0.063 H 
ATOM     10  H   LIG d   1       4.924  -2.034  -4.058  0.00  0.00     0.065 H 
ENDROOT
BRANCH   4  11
ATOM     11  C   LIG d   1       3.682  -0.168  -8.099  0.00  0.00     0.139 A 
ATOM     12  O   LIG d   1       3.778  -1.268  -8.862  0.00  0.00    -0.455 OA
ATOM     13  C   LIG d   1       3.896  -1.206 -10.205  0.00  0.00     0.141 A 
ATOM     14  C   LIG d   1       3.919   0.044 -10.848  0.00  0.00     0.064 A 
ATOM     15  C   LIG d   1       3.994  -2.363 -10.964  0.00  0.00     0.002 A 
ATOM     16  C   LIG d   1       3.813   1.261 -10.021  0.00  0.00     0.193 A 
ATOM     17  C   LIG d   1       4.041   0.119 -12.236  0.00  0.00    -0.046 A 
ATOM     18  C   LIG d   1       3.695   1.088  -8.622  0.00  0.00     0.029 A 
ATOM     19  O   LIG d   1       3.829   2.372 -10.524  0.00  0.00    -0.287 OA
ATOM     20  H   LIG d   1       3.614   1.948  -7.974  0.00  0.00     0.069 H 
ATOM     21  C   LIG d   1       4.132  -1.027 -12.972  0.00  0.00    -0.040 A 
ATOM     22  H   LIG d   1       4.058   1.082 -12.726  0.00  0.00     0.063 H 
ATOM     23  C   LIG d   1       4.114  -2.271 -12.343  0.00  0.00     0.028 A 
ATOM     24  H   LIG d   1       4.222  -0.969 -14.047  0.00  0.00     0.064 H 
ATOM     25  H   LIG d   1       3.977  -3.329 -10.484  0.00  0.00     0.067 H 
BRANCH  23  26
ATOM     26  N   LIG d   1       4.213  -3.432 -13.106  0.00  0.00    -0.358 N 
ATOM     27  H   LIG d   1       3.453  -4.221 -13.007  0.00  0.00     0.142 HD
ATOM     28  H   LIG d   1       5.050  -3.559 -13.808  0.00  0.00     0.142 HD
ENDBRANCH  23  26
ENDBRANCH   4  11
BRANCH   1  29
ATOM     29  O   LIG d   1       3.200  -0.769  -2.548  0.00  0.00    -0.492 OA
BRANCH  29  30
ATOM     30  C   LIG d   1       4.379  -0.560  -1.769  0.00  0.00     0.087 C 
ATOM     31  H   LIG d   1       5.237  -1.032  -2.270  0.00  0.00     0.069 H 
ATOM     32  H   LIG d   1       4.244  -1.007  -0.772  0.00  0.00     0.069 H 
BRANCH  30  33
ATOM     33  C   LIG d   1       4.635   0.941  -1.623  0.00  0.00    -0.031 C 
ATOM     34  H   LIG d   1       5.188   1.131  -0.691  0.00  0.00     0.026 H 
ATOM     35  H   LIG d   1       3.675   1.476  -1.595  0.00  0.00     0.026 H 
ATOM     36  H   LIG d   1       5.228   1.297  -2.480  0.00  0.00     0.026 H 
ENDBRANCH  30  33
ENDBRANCH  29  30
ENDBRANCH   1  29
TORSDOF 5
ENDMDL
MODEL 2
REMARK VINA RESULT:      -5.7      9.976     11.981
REMARK  5 active torsions:
REMARK  status: ('A' for Active; 'I' for Inactive)
REMARK    1  A    between atoms: C_1  and  C_2 
REMARK    2  A    between atoms: C_2  and  O_3 
REMARK    3  A    between atoms: O_3  and  C_4 
REMARK    4  A    between atoms: C_7  and  C_10 
REMARK    5  A    between atoms: C_17  and  N_21 
ROOT
ATOM      1  C   LIG d   1      11.169   7.361   1.351  0.00  0.00     0.120 A 
ATOM      2  C   LIG d   1      10.940   6.141   0.725  0.00  0.00    -0.019 A 
ATOM      3  C   LIG d   1      10.630   6.100  -0.616  0.00  0.00    -0.048 A 
ATOM      4  C   LIG d   1      10.544   7.288  -1.348  0.00  0.00     0.018 A 
ATOM      5  C   LIG d   1      10.778   8.512  -0.715  0.00  0.00    -0.048 A 
ATOM      6  C   LIG d   1      11.083   8.545   0.626  0.00  0.00    -0.019 A 
ATOM      7  H   LIG d   1      11.008   5.224   1.292  0.00  0.00     0.065 H 
ATOM      8  H   LIG d   1      10.455   5.151  -1.101  0.00  0.00     0.063 H 
ATOM      9  H   LIG d   1      10.716   9.432  -1.279  0.00  0.00     0.063 H 
ATOM     10  H   LIG d   1      11.261   9.491   1.116  0.00  0.00     0.065 H 
ENDROOT
BRANCH   4  11
ATOM     11  C   LIG d   1      10.212   7.248  -2.785  0.00  0.00     0.139 A 
ATOM     12  O   LIG d   1      10.200   8.397  -3.477  0.00  0.00    -0.455 OA
ATOM     13  C   LIG d   1       9.907   8.442  -4.793  0.00  0.00     0.141 A 
ATOM     14  C   LIG d   1       9.602   7.256  -5.483  0.00  0.00     0.064 A 
ATOM     15  C   LIG d   1       9.902   9.648  -5.480  0.00  0.00     0.002 A 
ATOM     16  C   LIG d   1       9.612   5.986  -4.734  0.00  0.00     0.193 A 
ATOM     17  C   LIG d   1       9.296   7.292  -6.845  0.00  0.00    -0.046 A 
ATOM     18  C   LIG d   1       9.931   6.045  -3.357  0.00  0.00     0.029 A 
ATOM     19  O   LIG d   1       9.354   4.925  -5.280  0.00  0.00    -0.287 OA
ATOM     20  H   LIG d   1       9.952   5.143  -2.765  0.00  0.00     0.069 H 
ATOM     21  C   LIG d   1       9.300   8.484  -7.509  0.00  0.00    -0.040 A 
ATOM     22  H   LIG d   1       9.062   6.378  -7.371  0.00  0.00     0.063 H 
ATOM     23  C   LIG d   1       9.597   9.666  -6.833  0.00  0.00     0.028 A 
ATOM     24  H   LIG d   1       9.068   8.511  -8.564  0.00  0.00     0.064 H 
ATOM     25  H   LIG d   1      10.135  10.566  -4.963  0.00  0.00     0.067 H 
BRANCH  23  26
ATOM     26  N   LIG d   1       9.593  10.877  -7.522  0.00  0.00    -0.358 N 
ATOM     27  H   LIG d   1       8.675  11.225  -8.016  0.00  0.00     0.142 HD
ATOM     28  H   LIG d   1      10.509  11.484  -7.572  0.00  0.00     0.142 HD
ENDBRANCH  23  26
ENDBRANCH   4  11
BRANCH   1  29
ATOM     29  O   LIG d   1      11.474   7.398   2.673  0.00  0.00    -0.492 OA
BRANCH  29  30
ATOM     30  C   LIG d   1      10.978   6.330   3.483  0.00  0.00     0.087 C 
ATOM     31  H   LIG d   1      11.539   5.410   3.259  0.00  0.00     0.069 H 
ATOM     32  H   LIG d   1       9.911   6.171   3.267  0.00  0.00     0.069 H 
BRANCH  30  33
ATOM     33  C   LIG d   1      11.152   6.687   4.960  0.00  0.00    -0.031 C 
ATOM     34  H   LIG d   1      10.712   7.677   5.153  0.00  0.00     0.026 H 
ATOM     35  H   LIG d   1      12.222   6.707   5.210  0.00  0.00     0.026 H 
ATOM     36  H   LIG d   1      10.645   5.933   5.582  0.00  0.00     0.026 H 
ENDBRANCH  30  33
ENDBRANCH  29  30
ENDBRANCH   1  29
TORSDOF 5
ENDMDL
MODEL 3
REMARK VINA RESULT:      -5.7      5.354      7.849
REMARK  5 active torsions:
REMARK  status: ('A' for Active; 'I' for Inactive)
REMARK    1  A    between atoms: C_1  and  C_2 
REMARK    2  A    between atoms: C_2  and  O_3 
REMARK    3  A    between atoms: O_3  and  C_4 
REMARK    4  A    between atoms: C_7  and  C_10 
REMARK    5  A    between atoms: C_17  and  N_21 
ROOT
ATOM      1  C   LIG d   1      10.025   3.481  -5.932  0.00  0.00     0.120 A 
ATOM      2  C   LIG d   1       9.285   2.604  -6.716  0.00  0.00    -0.019 A 
ATOM      3  C   LIG d   1       8.323   1.805  -6.139  0.00  0.00    -0.048 A 
ATOM      4  C   LIG d   1       8.092   1.877  -4.762  0.00  0.00     0.018 A 
ATOM      5  C   LIG d   1       8.836   2.764  -3.978  0.00  0.00    -0.048 A 
ATOM      6  C   LIG d   1       9.798   3.556  -4.563  0.00  0.00    -0.019 A 
ATOM      7  H   LIG d   1       9.464   2.550  -7.780  0.00  0.00     0.065 H 
ATOM      8  H   LIG d   1       7.747   1.125  -6.749  0.00  0.00     0.063 H 
ATOM      9  H   LIG d   1       8.658   2.826  -2.914  0.00  0.00     0.063 H 
ATOM     10  H   LIG d   1      10.376   4.238  -3.957  0.00  0.00     0.065 H 
ENDROOT
BRANCH   4  11
ATOM     11  C   LIG d   1       7.062   1.024  -4.140  0.00  0.00     0.139 A 
ATOM     12  O   LIG d   1       6.821  -0.186  -4.668  0.00  0.00    -0.455 OA
ATOM     13  C   LIG d   1       5.895  -1.024  -4.156  0.00  0.00     0.141 A 
ATOM     14  C   LIG d   1       5.148  -0.637  -3.030  0.00  0.00     0.064 A 
ATOM     15  C   LIG d   1       5.669  -2.268  -4.726  0.00  0.00     0.002 A 
ATOM     16  C   LIG d   1       5.404   0.690  -2.439  0.00  0.00     0.193 A 
ATOM     17  C   LIG d   1       4.187  -1.496  -2.493  0.00  0.00    -0.046 A 
ATOM     18  C   LIG d   1       6.395   1.494  -3.051  0.00  0.00     0.029 A 
ATOM     19  O   LIG d   1       4.785   1.080  -1.463  0.00  0.00    -0.287 OA
ATOM     20  H   LIG d   1       6.619   2.473  -2.656  0.00  0.00     0.069 H 
ATOM     21  C   LIG d   1       3.978  -2.719  -3.061  0.00  0.00    -0.040 A 
ATOM     22  H   LIG d   1       3.615  -1.194  -1.628  0.00  0.00     0.063 H 
ATOM     23  C   LIG d   1       4.712  -3.110  -4.181  0.00  0.00     0.028 A 
ATOM     24  H   LIG d   1       3.238  -3.385  -2.643  0.00  0.00     0.064 H 
ATOM     25  H   LIG d   1       6.236  -2.578  -5.591  0.00  0.00     0.067 H 
BRANCH  23  26
ATOM     26  N   LIG d   1       4.485  -4.360  -4.753  0.00  0.00    -0.358 N 
ATOM     27  H   LIG d   1       4.437  -5.255  -4.118  0.00  0.00     0.142 HD
ATOM     28  H   LIG d   1       4.354  -4.449  -5.841  0.00  0.00     0.142 HD
ENDBRANCH  23  26
ENDBRANCH   4  11
BRANCH   1  29
ATOM     29  O   LIG d   1      10.973   4.267  -6.506  0.00  0.00    -0.492 OA
BRANCH  29  30
ATOM     30  C   LIG d   1      10.877   5.673  -6.272  0.00  0.00     0.087 C 
ATOM     31  H   LIG d   1      11.868   6.134  -6.400  0.00  0.00     0.069 H 
ATOM     32  H   LIG d   1      10.518   5.852  -5.247  0.00  0.00     0.069 H 
BRANCH  30  33
ATOM     33  C   LIG d   1       9.896   6.290  -7.270  0.00  0.00    -0.031 C 
ATOM     34  H   LIG d   1      10.042   7.380  -7.302  0.00  0.00     0.026 H 
ATOM     35  H   LIG d   1       8.866   6.067  -6.958  0.00  0.00     0.026 H 
ATOM     36  H   LIG d   1      10.075   5.867  -8.270  0.00  0.00     0.026 H 
ENDBRANCH  30  33
ENDBRANCH  29  30
ENDBRANCH   1  29
TORSDOF 5
ENDMDL
MODEL 4
REMARK VINA RESULT:      -5.5      1.545      1.859
REMARK  5 active torsions:
REMARK  status: ('A' for Active; 'I' for Inactive)
REMARK    1  A    between atoms: C_1  and  C_2 
REMARK    2  A    between atoms: C_2  and  O_3 
REMARK    3  A    between atoms: O_3  and  C_4 
REMARK    4  A    between atoms: C_7  and  C_10 
REMARK    5  A    between atoms: C_17  and  N_21 
ROOT
ATOM      1  C   LIG d   1       3.943   0.092  -4.044  0.00  0.00     0.120 A 
ATOM      2  C   LIG d   1       2.741   0.425  -4.658  0.00  0.00    -0.019 A 
ATOM      3  C   LIG d   1       2.595   0.277  -6.019  0.00  0.00    -0.048 A 
ATOM      4  C   LIG d   1       3.659  -0.209  -6.785  0.00  0.00     0.018 A 
ATOM      5  C   LIG d   1       4.865  -0.547  -6.163  0.00  0.00    -0.048 A 
ATOM      6  C   LIG d   1       5.003  -0.391  -4.803  0.00  0.00    -0.019 A 
ATOM      7  H   LIG d   1       1.919   0.800  -4.065  0.00  0.00     0.065 H 
ATOM      8  H   LIG d   1       1.660   0.534  -6.494  0.00  0.00     0.063 H 
ATOM      9  H   LIG d   1       5.688  -0.927  -6.750  0.00  0.00     0.063 H 
ATOM     10  H   LIG d   1       5.936  -0.649  -4.322  0.00  0.00     0.065 H 
ENDROOT
BRANCH   4  11
ATOM     11  C   LIG d   1       3.507  -0.370  -8.243  0.00  0.00     0.139 A 
ATOM     12  O   LIG d   1       4.611  -0.440  -9.003  0.00  0.00    -0.455 OA
ATOM     13  C   LIG d   1       4.554  -0.588 -10.344  0.00  0.00     0.141 A 
ATOM     14  C   LIG d   1       3.306  -0.674 -10.986  0.00  0.00     0.064 A 
ATOM     15  C   LIG d   1       5.714  -0.656 -11.101  0.00  0.00     0.002 A 
ATOM     16  C   LIG d   1       2.086  -0.600 -10.161  0.00  0.00     0.193 A 
ATOM     17  C   LIG d   1       3.237  -0.826 -12.371  0.00  0.00    -0.046 A 
ATOM     18  C   LIG d   1       2.253  -0.443  -8.765  0.00  0.00     0.029 A 
ATOM     19  O   LIG d   1       0.976  -0.668 -10.664  0.00  0.00    -0.287 OA
ATOM     20  H   LIG d   1       1.390  -0.384  -8.118  0.00  0.00     0.069 H 
ATOM     21  C   LIG d   1       4.386  -0.897 -13.105  0.00  0.00    -0.040 A 
ATOM     22  H   LIG d   1       2.276  -0.892 -12.861  0.00  0.00     0.063 H 
ATOM     23  C   LIG d   1       5.628  -0.808 -12.477  0.00  0.00     0.028 A 
ATOM     24  H   LIG d   1       4.332  -1.018 -14.176  0.00  0.00     0.064 H 
ATOM     25  H   LIG d   1       6.679  -0.591 -10.622  0.00  0.00     0.067 H 
BRANCH  23  26
ATOM     26  N   LIG d   1       6.793  -0.876 -13.238  0.00  0.00    -0.358 N 
ATOM     27  H   LIG d   1       7.670  -1.415 -12.852  0.00  0.00     0.142 HD
ATOM     28  H   LIG d   1       6.834  -0.393 -14.225  0.00  0.00     0.142 HD
ENDBRANCH  23  26
ENDBRANCH   4  11
BRANCH   1  29
ATOM     29  O   LIG d   1       4.082   0.240  -2.702  0.00  0.00    -0.492 OA
BRANCH  29  30
ATOM     30  C   LIG d   1       4.597  -0.877  -1.976  0.00  0.00     0.087 C 
ATOM     31  H   LIG d   1       4.574  -0.656  -0.899  0.00  0.00     0.069 H 
ATOM     32  H   LIG d   1       5.635  -1.071  -2.289  0.00  0.00     0.069 H 
BRANCH  30  33
ATOM     33  C   LIG d   1       3.740  -2.111  -2.263  0.00  0.00    -0.031 C 
ATOM     34  H   LIG d   1       4.291  -3.017  -1.970  0.00  0.00     0.026 H 
ATOM     35  H   LIG d   1       3.506  -2.155  -3.336  0.00  0.00     0.026 H 
ATOM     36  H   LIG d   1       2.804  -2.049  -1.686  0.00  0.00     0.026 H 
ENDBRANCH  30  33
ENDBRANCH  29  30
ENDBRANCH   1  29
TORSDOF 5
ENDMDL
MODEL 5
REMARK VINA RESULT:      -5.4      8.230      9.547
REMARK  5 active torsions:
REMARK  status: ('A' for Active; 'I' for Inactive)
REMARK    1  A    between atoms: C_1  and  C_2 
REMARK    2  A    between atoms: C_2  and  O_3 
REMARK    3  A    between atoms: O_3  and  C_4 
REMARK    4  A    between atoms: C_7  and  C_10 
REMARK    5  A    between atoms: C_17  and  N_21 
ROOT
ATOM      1  C   LIG d   1      10.133   6.314  -1.293  0.00  0.00     0.120 A 
ATOM      2  C   LIG d   1       9.675   7.308  -2.150  0.00  0.00    -0.019 A 
ATOM      3  C   LIG d   1       9.569   7.060  -3.501  0.00  0.00    -0.048 A 
ATOM      4  C   LIG d   1       9.925   5.808  -4.010  0.00  0.00     0.018 A 
ATOM      5  C   LIG d   1      10.382   4.811  -3.143  0.00  0.00    -0.048 A 
ATOM      6  C   LIG d   1      10.488   5.068  -1.796  0.00  0.00    -0.019 A 
ATOM      7  H   LIG d   1       9.399   8.275  -1.755  0.00  0.00     0.065 H 
ATOM      8  H   LIG d   1       9.211   7.833  -4.165  0.00  0.00     0.063 H 
ATOM      9  H   LIG d   1      10.655   3.840  -3.532  0.00  0.00     0.063 H 
ATOM     10  H   LIG d   1      10.845   4.298  -1.126  0.00  0.00     0.065 H 
ENDROOT
BRANCH   4  11
ATOM     11  C   LIG d   1       9.813   5.539  -5.456  0.00  0.00     0.139 A 
ATOM     12  O   LIG d   1       9.821   6.576  -6.308  0.00  0.00    -0.455 OA
ATOM     13  C   LIG d   1       9.722   6.411  -7.644  0.00  0.00     0.141 A 
ATOM     14  C   LIG d   1       9.609   5.117  -8.182  0.00  0.00     0.064 A 
ATOM     15  C   LIG d   1       9.732   7.504  -8.497  0.00  0.00     0.002 A 
ATOM     16  C   LIG d   1       9.600   3.969  -7.256  0.00  0.00     0.193 A 
ATOM     17  C   LIG d   1       9.506   4.936  -9.562  0.00  0.00    -0.046 A 
ATOM     18  C   LIG d   1       9.707   4.248  -5.874  0.00  0.00     0.029 A 
ATOM     19  O   LIG d   1       9.503   2.825  -7.667  0.00  0.00    -0.287 OA
ATOM     20  H   LIG d   1       9.706   3.442  -5.156  0.00  0.00     0.069 H 
ATOM     21  C   LIG d   1       9.522   6.020 -10.392  0.00  0.00    -0.040 A 
ATOM     22  H   LIG d   1       9.419   3.941  -9.973  0.00  0.00     0.063 H 
ATOM     23  C   LIG d   1       9.630   7.307  -9.867  0.00  0.00     0.028 A 
ATOM     24  H   LIG d   1       9.446   5.880 -11.460  0.00  0.00     0.064 H 
ATOM     25  H   LIG d   1       9.819   8.503  -8.098  0.00  0.00     0.067 H 
BRANCH  23  26
ATOM     26  N   LIG d   1       9.640   8.405 -10.724  0.00  0.00    -0.358 N 
ATOM     27  H   LIG d   1      10.579   8.723 -11.198  0.00  0.00     0.142 HD
ATOM     28  H   LIG d   1       8.708   8.952 -10.927  0.00  0.00     0.142 HD
ENDBRANCH  23  26
ENDBRANCH   4  11
BRANCH   1  29
ATOM     29  O   LIG d   1      10.236   6.562   0.038  0.00  0.00    -0.492 OA
BRANCH  29  30
ATOM     30  C   LIG d   1      11.282   5.892   0.744  0.00  0.00     0.087 C 
ATOM     31  H   LIG d   1      12.178   6.529   0.762  0.00  0.00     0.069 H 
ATOM     32  H   LIG d   1      11.516   4.943   0.238  0.00  0.00     0.069 H 
BRANCH  30  33
ATOM     33  C   LIG d   1      10.828   5.608   2.177  0.00  0.00    -0.031 C 
ATOM     34  H   LIG d   1       9.755   5.831   2.274  0.00  0.00     0.026 H 
ATOM     35  H   LIG d   1      11.398   6.238   2.874  0.00  0.00     0.026 H 
ATOM     36  H   LIG d   1      11.005   4.547   2.414  0.00  0.00     0.026 H 
ENDBRANCH  30  33
ENDBRANCH  29  30
ENDBRANCH   1  29
TORSDOF 5
ENDMDL
MODEL 6
REMARK VINA RESULT:      -5.3      9.581     13.002
REMARK  5 active torsions:
REMARK  status: ('A' for Active; 'I' for Inactive)
REMARK    1  A    between atoms: C_1  and  C_2 
REMARK    2  A    between atoms: C_2  and  O_3 
REMARK    3  A    between atoms: O_3  and  C_4 
REMARK    4  A    between atoms: C_7  and  C_10 
REMARK    5  A    between atoms: C_17  and  N_21 
ROOT
ATOM      1  C   LIG d   1       9.795   3.035  -4.307  0.00  0.00     0.120 A 
ATOM      2  C   LIG d   1      10.474   2.842  -3.109  0.00  0.00    -0.019 A 
ATOM      3  C   LIG d   1      10.664   3.898  -2.245  0.00  0.00    -0.048 A 
ATOM      4  C   LIG d   1      10.173   5.165  -2.574  0.00  0.00     0.018 A 
ATOM      5  C   LIG d   1       9.488   5.353  -3.778  0.00  0.00    -0.048 A 
ATOM      6  C   LIG d   1       9.306   4.294  -4.637  0.00  0.00    -0.019 A 
ATOM      7  H   LIG d   1      10.851   1.862  -2.856  0.00  0.00     0.065 H 
ATOM      8  H   LIG d   1      11.190   3.746  -1.314  0.00  0.00     0.063 H 
ATOM      9  H   LIG d   1       9.104   6.330  -4.034  0.00  0.00     0.063 H 
ATOM     10  H   LIG d   1       8.780   4.440  -5.570  0.00  0.00     0.065 H 
ENDROOT
BRANCH   4  11
ATOM     11  C   LIG d   1      10.374   6.298  -1.651  0.00  0.00     0.139 A 
ATOM     12  O   LIG d   1      10.070   7.535  -2.071  0.00  0.00    -0.455 OA
ATOM     13  C   LIG d   1      10.226   8.621  -1.286  0.00  0.00     0.141 A 
ATOM     14  C   LIG d   1      10.721   8.474   0.022  0.00  0.00     0.064 A 
ATOM     15  C   LIG d   1       9.902   9.887  -1.751  0.00  0.00     0.002 A 
ATOM     16  C   LIG d   1      11.059   7.119   0.496  0.00  0.00     0.193 A 
ATOM     17  C   LIG d   1      10.887   9.591   0.842  0.00  0.00    -0.046 A 
ATOM     18  C   LIG d   1      10.861   6.046  -0.405  0.00  0.00     0.029 A 
ATOM     19  O   LIG d   1      11.494   6.931   1.620  0.00  0.00    -0.287 OA
ATOM     20  H   LIG d   1      11.093   5.036  -0.105  0.00  0.00     0.069 H 
ATOM     21  C   LIG d   1      10.560  10.831   0.373  0.00  0.00    -0.040 A 
ATOM     22  H   LIG d   1      11.268   9.474   1.846  0.00  0.00     0.063 H 
ATOM     23  C   LIG d   1      10.071  10.988  -0.923  0.00  0.00     0.028 A 
ATOM     24  H   LIG d   1      10.684  11.695   1.009  0.00  0.00     0.064 H 
ATOM     25  H   LIG d   1       9.520  10.015  -2.752  0.00  0.00     0.067 H 
BRANCH  23  26
ATOM     26  N   LIG d   1       9.746  12.259  -1.390  0.00  0.00    -0.358 N 
ATOM     27  H   LIG d   1       9.648  12.439  -2.470  0.00  0.00     0.142 HD
ATOM     28  H   LIG d   1       9.587  13.082  -0.678  0.00  0.00     0.142 HD
ENDBRANCH  23  26
ENDBRANCH   4  11
BRANCH   1  29
ATOM     29  O   LIG d   1       9.610   1.992  -5.156  0.00  0.00    -0.492 OA
BRANCH  29  30
ATOM     30  C   LIG d   1       8.262   1.670  -5.503  0.00  0.00     0.087 C 
ATOM     31  H   LIG d   1       8.260   0.966  -6.349  0.00  0.00     0.069 H 
ATOM     32  H   LIG d   1       7.727   2.588  -5.788  0.00  0.00     0.069 H 
BRANCH  30  33
ATOM     33  C   LIG d   1       7.567   1.026  -4.302  0.00  0.00    -0.031 C 
ATOM     34  H   LIG d   1       8.288   0.910  -3.479  0.00  0.00     0.026 H 
ATOM     35  H   LIG d   1       7.175   0.040  -4.589  0.00  0.00     0.026 H 
ATOM     36  H   LIG d   1       6.736   1.668  -3.972  0.00  0.00     0.026 H 
ENDBRANCH  30  33
ENDBRANCH  29  30
ENDBRANCH   1  29
TORSDOF 5
ENDMDL
MODEL 7
REMARK VINA RESULT:      -5.2      5.124      6.538
REMARK  5 active torsions:
REMARK  status: ('A' for Active; 'I' for Inactive)
REMARK    1  A    between atoms: C_1  and  C_2 
REMARK    2  A    between atoms: C_2  and  O_3 
REMARK    3  A    between atoms: O_3  and  C_4 
REMARK    4  A    between atoms: C_7  and  C_10 
REMARK    5  A    between atoms: C_17  and  N_21 
ROOT
ATOM      1  C   LIG d   1       4.828  -0.816  -4.528  0.00  0.00     0.120 A 
ATOM      2  C   LIG d   1       4.832  -1.935  -3.704  0.00  0.00    -0.019 A 
ATOM      3  C   LIG d   1       4.748  -3.196  -4.250  0.00  0.00    -0.048 A 
ATOM      4  C   LIG d   1       4.657  -3.350  -5.636  0.00  0.00     0.018 A 
ATOM      5  C   LIG d   1       4.657  -2.223  -6.462  0.00  0.00    -0.048 A 
ATOM      6  C   LIG d   1       4.737  -0.966  -5.908  0.00  0.00    -0.019 A 
ATOM      7  H   LIG d   1       4.903  -1.814  -2.632  0.00  0.00     0.065 H 
ATOM      8  H   LIG d   1       4.753  -4.065  -3.608  0.00  0.00     0.063 H 
ATOM      9  H   LIG d   1       4.592  -2.338  -7.534  0.00  0.00     0.063 H 
ATOM     10  H   LIG d   1       4.734  -0.093  -6.545  0.00  0.00     0.065 H 
ENDROOT
BRANCH   4  11
ATOM     11  C   LIG d   1       4.568  -4.700  -6.225  0.00  0.00     0.139 A 
ATOM     12  O   LIG d   1       4.900  -5.757  -5.469  0.00  0.00    -0.455 OA
ATOM     13  C   LIG d   1       4.844  -7.023  -5.935  0.00  0.00     0.141 A 
ATOM     14  C   LIG d   1       4.425  -7.263  -7.256  0.00  0.00     0.064 A 
ATOM     15  C   LIG d   1       5.195  -8.094  -5.128  0.00  0.00     0.002 A 
ATOM     16  C   LIG d   1       4.056  -6.109  -8.097  0.00  0.00     0.193 A 
ATOM     17  C   LIG d   1       4.364  -8.568  -7.748  0.00  0.00    -0.046 A 
ATOM     18  C   LIG d   1       4.150  -4.823  -7.514  0.00  0.00     0.029 A 
ATOM     19  O   LIG d   1       3.687  -6.258  -9.250  0.00  0.00    -0.287 OA
ATOM     20  H   LIG d   1       3.892  -3.947  -8.089  0.00  0.00     0.069 H 
ATOM     21  C   LIG d   1       4.708  -9.614  -6.942  0.00  0.00    -0.040 A 
ATOM     22  H   LIG d   1       4.042  -8.749  -8.763  0.00  0.00     0.063 H 
ATOM     23  C   LIG d   1       5.128  -9.385  -5.632  0.00  0.00     0.028 A 
ATOM     24  H   LIG d   1       4.657 -10.624  -7.321  0.00  0.00     0.064 H 
ATOM     25  H   LIG d   1       5.518  -7.925  -4.112  0.00  0.00     0.067 H 
BRANCH  23  26
ATOM     26  N   LIG d   1       5.480 -10.461  -4.821  0.00  0.00    -0.358 N 
ATOM     27  H   LIG d   1       4.709 -11.161  -4.471  0.00  0.00     0.142 HD
ATOM     28  H   LIG d   1       6.531 -10.611  -4.532  0.00  0.00     0.142 HD
ENDBRANCH  23  26
ENDBRANCH   4  11
BRANCH   1  29
ATOM     29  O   LIG d   1       4.911   0.426  -3.986  0.00  0.00    -0.492 OA
BRANCH  29  30
ATOM     30  C   LIG d   1       5.538   0.534  -2.706  0.00  0.00     0.087 C 
ATOM     31  H   LIG d   1       6.366   1.256  -2.764  0.00  0.00     0.069 H 
ATOM     32  H   LIG d   1       5.928  -0.450  -2.404  0.00  0.00     0.069 H 
BRANCH  30  33
ATOM     33  C   LIG d   1       4.514   1.014  -1.676  0.00  0.00    -0.031 C 
ATOM     34  H   LIG d   1       4.602   0.407  -0.762  0.00  0.00     0.026 H 
ATOM     35  H   LIG d   1       3.501   0.909  -2.089  0.00  0.00     0.026 H 
ATOM     36  H   LIG d   1       4.704   2.070  -1.434  0.00  0.00     0.026 H 
ENDBRANCH  30  33
ENDBRANCH  29  30
ENDBRANCH   1  29
TORSDOF 5
ENDMDL
MODEL 8
REMARK VINA RESULT:      -5.2      4.641      6.929
REMARK  5 active torsions:
REMARK  status: ('A' for Active; 'I' for Inactive)
REMARK    1  A    between atoms: C_1  and  C_2 
REMARK    2  A    between atoms: C_2  and  O_3 
REMARK    3  A    between atoms: O_3  and  C_4 
REMARK    4  A    between atoms: C_7  and  C_10 
REMARK    5  A    between atoms: C_17  and  N_21 
ROOT
ATOM      1  C   LIG d   1       9.304  -5.097  -4.124  0.00  0.00     0.120 A 
ATOM      2  C   LIG d   1       9.318  -3.964  -3.319  0.00  0.00    -0.019 A 
ATOM      3  C   LIG d   1       8.264  -3.078  -3.353  0.00  0.00    -0.048 A 
ATOM      4  C   LIG d   1       7.178  -3.320  -4.199  0.00  0.00     0.018 A 
ATOM      5  C   LIG d   1       7.166  -4.463  -5.004  0.00  0.00    -0.048 A 
ATOM      6  C   LIG d   1       8.226  -5.340  -4.967  0.00  0.00    -0.019 A 
ATOM      7  H   LIG d   1      10.158  -3.778  -2.665  0.00  0.00     0.065 H 
ATOM      8  H   LIG d   1       8.276  -2.199  -2.725  0.00  0.00     0.063 H 
ATOM      9  H   LIG d   1       6.327  -4.656  -5.657  0.00  0.00     0.063 H 
ATOM     10  H   LIG d   1       8.219  -6.222  -5.592  0.00  0.00     0.065 H 
ENDROOT
BRANCH   4  11
ATOM     11  C   LIG d   1       6.046  -2.375  -4.238  0.00  0.00     0.139 A 
ATOM     12  O   LIG d   1       5.584  -1.970  -5.431  0.00  0.00    -0.455 OA
ATOM     13  C   LIG d   1       4.553  -1.107  -5.549  0.00  0.00     0.141 A 
ATOM     14  C   LIG d   1       3.926  -0.605  -4.395  0.00  0.00     0.064 A 
ATOM     15  C   LIG d   1       4.100  -0.707  -6.797  0.00  0.00     0.002 A 
ATOM     16  C   LIG d   1       4.424  -1.043  -3.078  0.00  0.00     0.193 A 
ATOM     17  C   LIG d   1       2.860   0.289  -4.506  0.00  0.00    -0.046 A 
ATOM     18  C   LIG d   1       5.511  -1.949  -3.062  0.00  0.00     0.029 A 
ATOM     19  O   LIG d   1       3.920  -0.639  -2.043  0.00  0.00    -0.287 OA
ATOM     20  H   LIG d   1       5.912  -2.299  -2.123  0.00  0.00     0.069 H 
ATOM     21  C   LIG d   1       2.420   0.671  -5.741  0.00  0.00    -0.040 A 
ATOM     22  H   LIG d   1       2.380   0.673  -3.617  0.00  0.00     0.063 H 
ATOM     23  C   LIG d   1       3.038   0.181  -6.891  0.00  0.00     0.028 A 
ATOM     24  H   LIG d   1       1.592   1.358  -5.827  0.00  0.00     0.064 H 
ATOM     25  H   LIG d   1       4.572  -1.085  -7.692  0.00  0.00     0.067 H 
BRANCH  23  26
ATOM     26  N   LIG d   1       2.583   0.582  -8.144  0.00  0.00    -0.358 N 
ATOM     27  H   LIG d   1       1.531   0.869  -8.281  0.00  0.00     0.142 HD
ATOM     28  H   LIG d   1       3.277   0.613  -8.997  0.00  0.00     0.142 HD
ENDBRANCH  23  26
ENDBRANCH   4  11
BRANCH   1  29
ATOM     29  O   LIG d   1      10.346  -5.967  -4.087  0.00  0.00    -0.492 OA
BRANCH  29  30
ATOM     30  C   LIG d   1      10.765  -6.423  -2.800  0.00  0.00     0.087 C 
ATOM     31  H   LIG d   1      10.829  -5.567  -2.111  0.00  0.00     0.069 H 
ATOM     32  H   LIG d   1      11.752  -6.902  -2.883  0.00  0.00     0.069 H 
BRANCH  30  33
ATOM     33  C   LIG d   1       9.751  -7.435  -2.263  0.00  0.00    -0.031 C 
ATOM     34  H   LIG d   1       8.782  -7.285  -2.763  0.00  0.00     0.026 H 
ATOM     35  H   LIG d   1       9.630  -7.294  -1.179  0.00  0.00     0.026 H 
ATOM     36  H   LIG d   1      10.111  -8.456  -2.462  0.00  0.00     0.026 H 
ENDBRANCH  30  33
ENDBRANCH  29  30
ENDBRANCH   1  29
TORSDOF 5
ENDMDL
MODEL 9
REMARK VINA RESULT:      -5.2      8.319      9.423
REMARK  5 active torsions:
REMARK  status: ('A' for Active; 'I' for Inactive)
REMARK    1  A    between atoms: C_1  and  C_2 
REMARK    2  A    between atoms: C_2  and  O_3 
REMARK    3  A    between atoms: O_3  and  C_4 
REMARK    4  A    between atoms: C_7  and  C_10 
REMARK    5  A    between atoms: C_17  and  N_21 
ROOT
ATOM      1  C   LIG d   1       9.982   6.739  -1.652  0.00  0.00     0.120 A 
ATOM      2  C   LIG d   1      10.039   7.949  -2.334  0.00  0.00    -0.019 A 
ATOM      3  C   LIG d   1       9.933   7.974  -3.707  0.00  0.00    -0.048 A 
ATOM      4  C   LIG d   1       9.767   6.779  -4.415  0.00  0.00     0.018 A 
ATOM      5  C   LIG d   1       9.705   5.566  -3.724  0.00  0.00    -0.048 A 
ATOM      6  C   LIG d   1       9.817   5.550  -2.353  0.00  0.00    -0.019 A 
ATOM      7  H   LIG d   1      10.167   8.871  -1.786  0.00  0.00     0.065 H 
ATOM      8  H   LIG d   1       9.976   8.914  -4.236  0.00  0.00     0.063 H 
ATOM      9  H   LIG d   1       9.573   4.641  -4.267  0.00  0.00     0.063 H 
ATOM     10  H   LIG d   1       9.773   4.611  -1.818  0.00  0.00     0.065 H 
ENDROOT
BRANCH   4  11
ATOM     11  C   LIG d   1       9.652   6.801  -5.885  0.00  0.00     0.139 A 
ATOM     12  O   LIG d   1       9.790   5.651  -6.561  0.00  0.00    -0.455 OA
ATOM     13  C   LIG d   1       9.698   5.589  -7.906  0.00  0.00     0.141 A 
ATOM     14  C   LIG d   1       9.448   6.760  -8.644  0.00  0.00     0.064 A 
ATOM     15  C   LIG d   1       9.847   4.383  -8.575  0.00  0.00     0.002 A 
ATOM     16  C   LIG d   1       9.293   8.031  -7.913  0.00  0.00     0.193 A 
ATOM     17  C   LIG d   1       9.352   6.708 -10.035  0.00  0.00    -0.046 A 
ATOM     18  C   LIG d   1       9.408   7.989  -6.503  0.00  0.00     0.029 A 
ATOM     19  O   LIG d   1       9.076   9.078  -8.501  0.00  0.00    -0.287 OA
ATOM     20  H   LIG d   1       9.303   8.893  -5.923  0.00  0.00     0.069 H 
ATOM     21  C   LIG d   1       9.495   5.513 -10.681  0.00  0.00    -0.040 A 
ATOM     22  H   LIG d   1       9.159   7.609 -10.599  0.00  0.00     0.063 H 
ATOM     23  C   LIG d   1       9.748   4.348  -9.958  0.00  0.00     0.028 A 
ATOM     24  H   LIG d   1       9.417   5.472 -11.757  0.00  0.00     0.064 H 
ATOM     25  H   LIG d   1      10.040   3.477  -8.022  0.00  0.00     0.067 H 
BRANCH  23  26
ATOM     26  N   LIG d   1       9.897   3.137 -10.630  0.00  0.00    -0.358 N 
ATOM     27  H   LIG d   1       9.550   3.038 -11.668  0.00  0.00     0.142 HD
ATOM     28  H   LIG d   1      10.364   2.281 -10.121  0.00  0.00     0.142 HD
ENDBRANCH  23  26
ENDBRANCH   4  11
BRANCH   1  29
ATOM     29  O   LIG d   1      10.087   6.719  -0.299  0.00  0.00    -0.492 OA
BRANCH  29  30
ATOM     30  C   LIG d   1      11.278   6.153   0.251  0.00  0.00     0.087 C 
ATOM     31  H   LIG d   1      12.078   6.909   0.247  0.00  0.00     0.069 H 
ATOM     32  H   LIG d   1      11.587   5.288  -0.356  0.00  0.00     0.069 H 
BRANCH  30  33
ATOM     33  C   LIG d   1      11.012   5.699   1.687  0.00  0.00    -0.031 C 
ATOM     34  H   LIG d   1      10.057   5.155   1.728  0.00  0.00     0.026 H 
ATOM     35  H   LIG d   1      10.962   6.578   2.346  0.00  0.00     0.026 H 
ATOM     36  H   LIG d   1      11.826   5.037   2.019  0.00  0.00     0.026 H 
ENDBRANCH  30  33
ENDBRANCH  29  30
ENDBRANCH   1  29
TORSDOF 5
ENDMDL
