MODEL 1
REMARK VINA RESULT:      -7.8      0.000      0.000
REMARK  6 active torsions:
REMARK  status: ('A' for Active; 'I' for Inactive)
REMARK    1  A    between atoms: C_6  and  C_7 
REMARK    2  A    between atoms: C_7  and  N_8 
REMARK    3  A    between atoms: C_17  and  C_19 
REMARK    4  A    between atoms: C_21  and  C_24 
REMARK    5  A    between atoms: C_27  and  O_30 
REMARK    6  A    between atoms: O_30  and  C_31 
ROOT
ATOM      1  N   LIG d   1       7.499   1.116  -5.093  0.00  0.00    -0.279 N 
ATOM      2  C   LIG d   1       6.915   0.117  -6.005  0.00  0.00     0.066 C 
ATOM      3  C   LIG d   1       7.053   0.627  -7.417  0.00  0.00     0.159 A 
ATOM      4  C   LIG d   1       7.893   1.629  -7.765  0.00  0.00     0.148 A 
ATOM      5  N   LIG d   1       7.754   1.823  -9.102  0.00  0.00    -0.247 N 
ATOM      6  H   LIG d   1       8.226   2.476  -9.643  0.00  0.00     0.310 HD
ATOM      7  C   LIG d   1       6.833   0.931  -9.538  0.00  0.00     0.243 A 
ATOM      8  N   LIG d   1       6.422   0.221  -8.519  0.00  0.00    -0.246 N 
ATOM      9  C   LIG d   1       8.787   2.344  -6.784  0.00  0.00     0.037 C 
ATOM     10  C   LIG d   1       8.856   1.494  -5.506  0.00  0.00     0.098 C 
ATOM     11  H   LIG d   1       9.442   0.595  -5.700  0.00  0.00     0.057 H 
ATOM     12  H   LIG d   1       7.447  -0.829  -5.903  0.00  0.00     0.051 H 
ATOM     13  H   LIG d   1       5.861  -0.026  -5.768  0.00  0.00     0.051 H 
ATOM     14  H   LIG d   1       6.494   0.824 -10.557  0.00  0.00     0.158 H 
ATOM     15  H   LIG d   1       9.786   2.455  -7.208  0.00  0.00     0.037 H 
ATOM     16  H   LIG d   1       8.372   3.324  -6.553  0.00  0.00     0.037 H 
ATOM     17  H   LIG d   1       5.761  -0.489  -8.559  0.00  0.00     0.310 HD
ENDROOT
BRANCH  10  18
ATOM     18  C   LIG d   1       9.511   2.292  -4.409  0.00  0.00     0.245 A 
ATOM     19  O   LIG d   1      10.370   1.816  -3.499  0.00  0.00    -0.336 OA
ATOM     20  N   LIG d   1      10.729   2.913  -2.672  0.00  0.00    -0.056 NA
ATOM     21  C   LIG d   1      10.069   3.950  -3.126  0.00  0.00     0.202 A 
ATOM     22  N   LIG d   1       9.331   3.563  -4.182  0.00  0.00    -0.190 NA
BRANCH  21  23
ATOM     23  C   LIG d   1      10.126   5.322  -2.567  0.00  0.00     0.023 A 
ATOM     24  C   LIG d   1      10.420   5.517  -1.218  0.00  0.00    -0.048 A 
ATOM     25  C   LIG d   1      10.479   6.793  -0.703  0.00  0.00    -0.019 A 
ATOM     26  H   LIG d   1      10.606   4.666  -0.578  0.00  0.00     0.063 H 
ATOM     27  C   LIG d   1      10.234   7.887  -1.524  0.00  0.00     0.130 A 
ATOM     28  H   LIG d   1      10.712   6.944   0.341  0.00  0.00     0.065 H 
ATOM     29  C   LIG d   1       9.935   7.697  -2.866  0.00  0.00    -0.019 A 
ATOM     30  C   LIG d   1       9.881   6.422  -3.389  0.00  0.00    -0.048 A 
ATOM     31  H   LIG d   1       9.745   8.549  -3.502  0.00  0.00     0.065 H 
ATOM     32  H   LIG d   1       9.649   6.275  -4.433  0.00  0.00     0.063 H 
BRANCH  27  33
ATOM     33  O   LIG d   1      10.287   9.144  -1.011  0.00  0.00    -0.406 OA
BRANCH  33  34
ATOM     34  C   LIG d   1       9.040   9.787  -0.739  0.00  0.00     0.575 C 
ATOM     35  F   LIG d   1       8.710  10.634  -1.803  0.00  0.00    -0.133 F 
ATOM     36  F   LIG d   1       8.041   8.821  -0.586  0.00  0.00    -0.133 F 
ATOM     37  F   LIG d   1       9.149  10.537   0.437  0.00  0.00    -0.133 F 
ENDBRANCH  33  34
ENDBRANCH  27  33
ENDBRANCH  21  23
ENDBRANCH  10  18
BRANCH   1  38
ATOM     38  C   LIG d   1       7.487   0.632  -3.706  0.00  0.00     0.025 C 
ATOM     39  H   LIG d   1       7.833   1.424  -3.041  0.00  0.00     0.048 H 
ATOM     40  H   LIG d   1       8.145  -0.232  -3.617  0.00  0.00     0.048 H 
BRANCH  38  41
ATOM     41  C   LIG d   1       6.084   0.234  -3.325  0.00  0.00    -0.033 A 
ATOM     42  C   LIG d   1       5.148   1.206  -3.024  0.00  0.00    -0.055 A 
ATOM     43  C   LIG d   1       3.861   0.842  -2.673  0.00  0.00    -0.026 A 
ATOM     44  H   LIG d   1       5.421   2.249  -3.066  0.00  0.00     0.062 H 
ATOM     45  C   LIG d   1       3.510  -0.497  -2.624  0.00  0.00     0.123 A 
ATOM     46  H   LIG d   1       3.130   1.601  -2.438  0.00  0.00     0.065 H 
ATOM     47  C   LIG d   1       4.448  -1.469  -2.926  0.00  0.00    -0.026 A 
ATOM     48  F   LIG d   1       2.253  -0.854  -2.282  0.00  0.00    -0.205 F 
ATOM     49  C   LIG d   1       5.734  -1.103  -3.276  0.00  0.00    -0.055 A 
ATOM     50  H   LIG d   1       4.176  -2.513  -2.888  0.00  0.00     0.065 H 
ATOM     51  H   LIG d   1       6.467  -1.861  -3.512  0.00  0.00     0.062 H 
ENDBRANCH  38  41
ENDBRANCH   1  38
TORSDOF 6
ENDMDL
MODEL 2
REMARK VINA RESULT:      -7.7      7.433      9.624
REMARK  6 active torsions:
REMARK  status: ('A' for Active; 'I' for Inactive)
REMARK    1  A    between atoms: C_6  and  C_7 
REMARK    2  A    between atoms: C_7  and  N_8 
REMARK    3  A    between atoms: C_17  and  C_19 
REMARK    4  A    between atoms: C_21  and  C_24 
REMARK    5  A    between atoms: C_27  and  O_30 
REMARK    6  A    between atoms: O_30  and  C_31 
ROOT
ATOM      1  N   LIG d   1       4.769  -1.105 -12.488  0.00  0.00    -0.279 N 
ATOM      2  C   LIG d   1       5.022  -0.791 -13.904  0.00  0.00     0.066 C 
ATOM      3  C   LIG d   1       6.477  -1.063 -14.197  0.00  0.00     0.159 A 
ATOM      4  C   LIG d   1       7.269  -1.808 -13.392  0.00  0.00     0.148 A 
ATOM      5  N   LIG d   1       8.502  -1.838 -13.958  0.00  0.00    -0.247 N 
ATOM      6  H   LIG d   1       9.286  -2.294 -13.613  0.00  0.00     0.310 HD
ATOM      7  C   LIG d   1       8.431  -1.111 -15.099  0.00  0.00     0.243 A 
ATOM      8  N   LIG d   1       7.213  -0.653 -15.230  0.00  0.00    -0.246 N 
ATOM      9  C   LIG d   1       6.787  -2.453 -12.118  0.00  0.00     0.037 C 
ATOM     10  C   LIG d   1       5.251  -2.448 -12.139  0.00  0.00     0.098 C 
ATOM     11  H   LIG d   1       4.896  -3.166 -12.879  0.00  0.00     0.057 H 
ATOM     12  H   LIG d   1       4.397  -1.420 -14.538  0.00  0.00     0.051 H 
ATOM     13  H   LIG d   1       4.800   0.259 -14.095  0.00  0.00     0.051 H 
ATOM     14  H   LIG d   1       9.246  -0.938 -15.786  0.00  0.00     0.158 H 
ATOM     15  H   LIG d   1       7.151  -3.479 -12.062  0.00  0.00     0.037 H 
ATOM     16  H   LIG d   1       7.145  -1.886 -11.258  0.00  0.00     0.037 H 
ATOM     17  H   LIG d   1       6.896  -0.102 -15.963  0.00  0.00     0.310 HD
ENDROOT
BRANCH  10  18
ATOM     18  C   LIG d   1       4.729  -2.830 -10.779  0.00  0.00     0.245 A 
ATOM     19  O   LIG d   1       3.759  -3.720 -10.533  0.00  0.00    -0.336 OA
ATOM     20  N   LIG d   1       3.600  -3.762  -9.122  0.00  0.00    -0.056 NA
ATOM     21  C   LIG d   1       4.462  -2.909  -8.627  0.00  0.00     0.202 A 
ATOM     22  N   LIG d   1       5.144  -2.347  -9.641  0.00  0.00    -0.190 NA
BRANCH  21  23
ATOM     23  C   LIG d   1       4.653  -2.611  -7.187  0.00  0.00     0.023 A 
ATOM     24  C   LIG d   1       4.670  -3.647  -6.254  0.00  0.00    -0.048 A 
ATOM     25  C   LIG d   1       4.855  -3.368  -4.918  0.00  0.00    -0.019 A 
ATOM     26  H   LIG d   1       4.543  -4.669  -6.581  0.00  0.00     0.063 H 
ATOM     27  C   LIG d   1       5.011  -2.054  -4.497  0.00  0.00     0.130 A 
ATOM     28  H   LIG d   1       4.873  -4.171  -4.196  0.00  0.00     0.065 H 
ATOM     29  C   LIG d   1       4.988  -1.019  -5.421  0.00  0.00    -0.019 A 
ATOM     30  C   LIG d   1       4.810  -1.292  -6.761  0.00  0.00    -0.048 A 
ATOM     31  H   LIG d   1       5.111   0.003  -5.091  0.00  0.00     0.065 H 
ATOM     32  H   LIG d   1       4.794  -0.487  -7.480  0.00  0.00     0.063 H 
BRANCH  27  33
ATOM     33  O   LIG d   1       5.187  -1.781  -3.177  0.00  0.00    -0.406 OA
BRANCH  33  34
ATOM     34  C   LIG d   1       4.009  -1.663  -2.376  0.00  0.00     0.575 C 
ATOM     35  F   LIG d   1       4.298  -0.913  -1.231  0.00  0.00    -0.133 F 
ATOM     36  F   LIG d   1       3.007  -1.023  -3.112  0.00  0.00    -0.133 F 
ATOM     37  F   LIG d   1       3.571  -2.938  -2.000  0.00  0.00    -0.133 F 
ENDBRANCH  33  34
ENDBRANCH  27  33
ENDBRANCH  21  23
ENDBRANCH  10  18
BRANCH   1  38
ATOM     38  C   LIG d   1       3.344  -0.957 -12.164  0.00  0.00     0.025 C 
ATOM     39  H   LIG d   1       2.934  -1.924 -11.872  0.00  0.00     0.048 H 
ATOM     40  H   LIG d   1       2.809  -0.584 -13.037  0.00  0.00     0.048 H 
BRANCH  38  41
ATOM     41  C   LIG d   1       3.186   0.018 -11.026  0.00  0.00    -0.033 A 
ATOM     42  C   LIG d   1       2.294  -0.250 -10.005  0.00  0.00    -0.055 A 
ATOM     43  C   LIG d   1       2.148   0.644  -8.961  0.00  0.00    -0.026 A 
ATOM     44  H   LIG d   1       1.713  -1.160 -10.020  0.00  0.00     0.062 H 
ATOM     45  C   LIG d   1       2.897   1.809  -8.938  0.00  0.00     0.123 A 
ATOM     46  H   LIG d   1       1.451   0.434  -8.163  0.00  0.00     0.065 H 
ATOM     47  C   LIG d   1       3.789   2.076  -9.961  0.00  0.00    -0.026 A 
ATOM     48  F   LIG d   1       2.755   2.684  -7.918  0.00  0.00    -0.205 F 
ATOM     49  C   LIG d   1       3.934   1.181 -11.004  0.00  0.00    -0.055 A 
ATOM     50  H   LIG d   1       4.374   2.984  -9.945  0.00  0.00     0.065 H 
ATOM     51  H   LIG d   1       4.631   1.389 -11.802  0.00  0.00     0.062 H 
ENDBRANCH  38  41
ENDBRANCH   1  38
TORSDOF 6
ENDMDL
MODEL 3
REMARK VINA RESULT:      -7.6      2.805      8.614
REMARK  6 active torsions:
REMARK  status: ('A' for Active; 'I' for Inactive)
REMARK    1  A    between atoms: C_6  and  C_7 
REMARK    2  A    between atoms: C_7  and  N_8 
REMARK    3  A    between atoms: C_17  and  C_19 
REMARK    4  A    between atoms: C_21  and  C_24 
REMARK    5  A    between atoms: C_27  and  O_30 
REMARK    6  A    between atoms: O_30  and  C_31 
ROOT
ATOM      1  N   LIG d   1      10.166   6.317  -4.356  0.00  0.00    -0.279 N 
ATOM      2  C   LIG d   1      10.192   7.644  -4.994  0.00  0.00     0.066 C 
ATOM      3  C   LIG d   1      11.186   7.605  -6.127  0.00  0.00     0.159 A 
ATOM      4  C   LIG d   1      11.658   6.455  -6.661  0.00  0.00     0.148 A 
ATOM      5  N   LIG d   1      12.526   6.796  -7.648  0.00  0.00    -0.247 N 
ATOM      6  H   LIG d   1      13.026   6.187  -8.214  0.00  0.00     0.310 HD
ATOM      7  C   LIG d   1      12.560   8.149  -7.693  0.00  0.00     0.243 A 
ATOM      8  N   LIG d   1      11.753   8.621  -6.778  0.00  0.00    -0.246 N 
ATOM      9  C   LIG d   1      11.240   5.086  -6.188  0.00  0.00     0.037 C 
ATOM     10  C   LIG d   1       9.967   5.248  -5.343  0.00  0.00     0.098 C 
ATOM     11  H   LIG d   1       9.131   5.504  -5.994  0.00  0.00     0.057 H 
ATOM     12  H   LIG d   1       9.203   7.885  -5.382  0.00  0.00     0.051 H 
ATOM     13  H   LIG d   1      10.496   8.396  -4.266  0.00  0.00     0.051 H 
ATOM     14  H   LIG d   1      13.156   8.741  -8.372  0.00  0.00     0.158 H 
ATOM     15  H   LIG d   1      11.034   4.445  -7.046  0.00  0.00     0.037 H 
ATOM     16  H   LIG d   1      12.032   4.648  -5.580  0.00  0.00     0.037 H 
ATOM     17  H   LIG d   1      11.593   9.561  -6.601  0.00  0.00     0.310 HD
ENDROOT
BRANCH  10  18
ATOM     18  C   LIG d   1       9.671   3.955  -4.630  0.00  0.00     0.245 A 
ATOM     19  O   LIG d   1      10.484   3.330  -3.769  0.00  0.00    -0.336 OA
ATOM     20  N   LIG d   1       9.800   2.160  -3.346  0.00  0.00    -0.056 NA
ATOM     21  C   LIG d   1       8.649   2.157  -3.973  0.00  0.00     0.202 A 
ATOM     22  N   LIG d   1       8.580   3.251  -4.752  0.00  0.00    -0.190 NA
BRANCH  21  23
ATOM     23  C   LIG d   1       7.599   1.118  -3.846  0.00  0.00     0.023 A 
ATOM     24  C   LIG d   1       6.318   1.467  -3.420  0.00  0.00    -0.048 A 
ATOM     25  C   LIG d   1       5.342   0.501  -3.309  0.00  0.00    -0.019 A 
ATOM     26  H   LIG d   1       6.090   2.496  -3.180  0.00  0.00     0.063 H 
ATOM     27  C   LIG d   1       5.636  -0.823  -3.611  0.00  0.00     0.130 A 
ATOM     28  H   LIG d   1       4.349   0.771  -2.984  0.00  0.00     0.065 H 
ATOM     29  C   LIG d   1       6.912  -1.175  -4.030  0.00  0.00    -0.019 A 
ATOM     30  C   LIG d   1       7.891  -0.212  -4.148  0.00  0.00    -0.048 A 
ATOM     31  H   LIG d   1       7.137  -2.206  -4.264  0.00  0.00     0.065 H 
ATOM     32  H   LIG d   1       8.883  -0.487  -4.475  0.00  0.00     0.063 H 
BRANCH  27  33
ATOM     33  O   LIG d   1       4.673  -1.775  -3.495  0.00  0.00    -0.406 OA
BRANCH  33  34
ATOM     34  C   LIG d   1       3.846  -1.723  -2.330  0.00  0.00     0.575 C 
ATOM     35  F   LIG d   1       4.558  -1.133  -1.280  0.00  0.00    -0.133 F 
ATOM     36  F   LIG d   1       2.703  -0.965  -2.603  0.00  0.00    -0.133 F 
ATOM     37  F   LIG d   1       3.470  -3.021  -1.968  0.00  0.00    -0.133 F 
ENDBRANCH  33  34
ENDBRANCH  27  33
ENDBRANCH  21  23
ENDBRANCH  10  18
BRANCH   1  38
ATOM     38  C   LIG d   1       9.141   6.259  -3.305  0.00  0.00     0.025 C 
ATOM     39  H   LIG d   1       8.727   5.252  -3.256  0.00  0.00     0.048 H 
ATOM     40  H   LIG d   1       8.345   6.968  -3.534  0.00  0.00     0.048 H 
BRANCH  38  41
ATOM     41  C   LIG d   1       9.761   6.613  -1.978  0.00  0.00    -0.033 A 
ATOM     42  C   LIG d   1      10.491   5.667  -1.283  0.00  0.00    -0.055 A 
ATOM     43  C   LIG d   1      11.060   5.990  -0.065  0.00  0.00    -0.026 A 
ATOM     44  H   LIG d   1      10.621   4.677  -1.693  0.00  0.00     0.062 H 
ATOM     45  C   LIG d   1      10.898   7.262   0.458  0.00  0.00     0.123 A 
ATOM     46  H   LIG d   1      11.631   5.251   0.478  0.00  0.00     0.065 H 
ATOM     47  C   LIG d   1      10.166   8.208  -0.239  0.00  0.00    -0.026 A 
ATOM     48  F   LIG d   1      11.453   7.579   1.649  0.00  0.00    -0.205 F 
ATOM     49  C   LIG d   1       9.599   7.883  -1.456  0.00  0.00    -0.055 A 
ATOM     50  H   LIG d   1      10.039   9.201   0.168  0.00  0.00     0.065 H 
ATOM     51  H   LIG d   1       9.028   8.621  -2.001  0.00  0.00     0.062 H 
ENDBRANCH  38  41
ENDBRANCH   1  38
TORSDOF 6
ENDMDL
MODEL 4
REMARK VINA RESULT:      -7.5      4.018      8.863
REMARK  6 active torsions:
REMARK  status: ('A' for Active; 'I' for Inactive)
REMARK    1  A    between atoms: C_6  and  C_7 
REMARK    2  A    between atoms: C_7  and  N_8 
REMARK    3  A    between atoms: C_17  and  C_19 
REMARK    4  A    between atoms: C_21  and  C_24 
REMARK    5  A    between atoms: C_27  and  O_30 
REMARK    6  A    between atoms: O_30  and  C_31 
ROOT
ATOM      1  N   LIG d   1      10.543   5.926  -4.492  0.00  0.00    -0.279 N 
ATOM      2  C   LIG d   1      11.191   7.233  -4.290  0.00  0.00     0.066 C 
ATOM      3  C   LIG d   1      10.588   7.878  -3.068  0.00  0.00     0.159 A 
ATOM      4  C   LIG d   1       9.869   7.195  -2.148  0.00  0.00     0.148 A 
ATOM      5  N   LIG d   1       9.485   8.086  -1.197  0.00  0.00    -0.247 N 
ATOM      6  H   LIG d   1       8.955   7.895  -0.406  0.00  0.00     0.310 HD
ATOM      7  C   LIG d   1       9.983   9.292  -1.560  0.00  0.00     0.243 A 
ATOM      8  N   LIG d   1      10.642   9.153  -2.682  0.00  0.00    -0.246 N 
ATOM      9  C   LIG d   1       9.594   5.716  -2.237  0.00  0.00     0.037 C 
ATOM     10  C   LIG d   1      10.566   5.118  -3.265  0.00  0.00     0.098 C 
ATOM     11  H   LIG d   1      11.575   5.115  -2.851  0.00  0.00     0.057 H 
ATOM     12  H   LIG d   1      12.262   7.093  -4.141  0.00  0.00     0.051 H 
ATOM     13  H   LIG d   1      11.021   7.867  -5.160  0.00  0.00     0.051 H 
ATOM     14  H   LIG d   1       9.857  10.214  -1.015  0.00  0.00     0.158 H 
ATOM     15  H   LIG d   1       9.755   5.251  -1.264  0.00  0.00     0.037 H 
ATOM     16  H   LIG d   1       8.567   5.550  -2.562  0.00  0.00     0.037 H 
ATOM     17  H   LIG d   1      11.097   9.866  -3.158  0.00  0.00     0.310 HD
ENDROOT
BRANCH  10  18
ATOM     18  C   LIG d   1      10.150   3.706  -3.587  0.00  0.00     0.245 A 
ATOM     19  O   LIG d   1      10.943   2.751  -4.088  0.00  0.00    -0.336 OA
ATOM     20  N   LIG d   1      10.136   1.591  -4.226  0.00  0.00    -0.056 NA
ATOM     21  C   LIG d   1       8.937   1.922  -3.815  0.00  0.00     0.202 A 
ATOM     22  N   LIG d   1       8.956   3.211  -3.428  0.00  0.00    -0.190 NA
BRANCH  21  23
ATOM     23  C   LIG d   1       7.756   1.026  -3.782  0.00  0.00     0.023 A 
ATOM     24  C   LIG d   1       7.880  -0.309  -4.167  0.00  0.00    -0.048 A 
ATOM     25  C   LIG d   1       6.783  -1.141  -4.129  0.00  0.00    -0.019 A 
ATOM     26  H   LIG d   1       8.837  -0.690  -4.491  0.00  0.00     0.063 H 
ATOM     27  C   LIG d   1       5.550  -0.648  -3.719  0.00  0.00     0.130 A 
ATOM     28  H   LIG d   1       6.879  -2.175  -4.423  0.00  0.00     0.065 H 
ATOM     29  C   LIG d   1       5.422   0.681  -3.340  0.00  0.00    -0.019 A 
ATOM     30  C   LIG d   1       6.518   1.517  -3.370  0.00  0.00    -0.048 A 
ATOM     31  H   LIG d   1       4.462   1.060  -3.021  0.00  0.00     0.065 H 
ATOM     32  H   LIG d   1       6.418   2.550  -3.074  0.00  0.00     0.063 H 
BRANCH  27  33
ATOM     33  O   LIG d   1       4.468  -1.470  -3.688  0.00  0.00    -0.406 OA
BRANCH  33  34
ATOM     34  C   LIG d   1       3.791  -1.605  -2.437  0.00  0.00     0.575 C 
ATOM     35  F   LIG d   1       3.542  -2.959  -2.186  0.00  0.00    -0.133 F 
ATOM     36  F   LIG d   1       4.591  -1.081  -1.416  0.00  0.00    -0.133 F 
ATOM     37  F   LIG d   1       2.579  -0.909  -2.485  0.00  0.00    -0.133 F 
ENDBRANCH  33  34
ENDBRANCH  27  33
ENDBRANCH  21  23
ENDBRANCH  10  18
BRANCH   1  38
ATOM     38  C   LIG d   1      11.157   5.201  -5.611  0.00  0.00     0.025 C 
ATOM     39  H   LIG d   1      11.194   4.137  -5.379  0.00  0.00     0.048 H 
ATOM     40  H   LIG d   1      12.169   5.573  -5.773  0.00  0.00     0.048 H 
BRANCH  38  41
ATOM     41  C   LIG d   1      10.339   5.415  -6.859  0.00  0.00    -0.033 A 
ATOM     42  C   LIG d   1       9.838   4.329  -7.551  0.00  0.00    -0.055 A 
ATOM     43  C   LIG d   1       9.088   4.524  -8.696  0.00  0.00    -0.026 A 
ATOM     44  H   LIG d   1      10.030   3.327  -7.196  0.00  0.00     0.062 H 
ATOM     45  C   LIG d   1       8.838   5.809  -9.148  0.00  0.00     0.123 A 
ATOM     46  H   LIG d   1       8.697   3.675  -9.236  0.00  0.00     0.065 H 
ATOM     47  C   LIG d   1       9.341   6.896  -8.454  0.00  0.00    -0.026 A 
ATOM     48  F   LIG d   1       8.105   6.001 -10.267  0.00  0.00    -0.205 F 
ATOM     49  C   LIG d   1      10.090   6.698  -7.310  0.00  0.00    -0.055 A 
ATOM     50  H   LIG d   1       9.147   7.899  -8.806  0.00  0.00     0.065 H 
ATOM     51  H   LIG d   1      10.482   7.546  -6.767  0.00  0.00     0.062 H 
ENDBRANCH  38  41
ENDBRANCH   1  38
TORSDOF 6
ENDMDL
MODEL 5
REMARK VINA RESULT:      -7.5      2.709      3.442
REMARK  6 active torsions:
REMARK  status: ('A' for Active; 'I' for Inactive)
REMARK    1  A    between atoms: C_6  and  C_7 
REMARK    2  A    between atoms: C_7  and  N_8 
REMARK    3  A    between atoms: C_17  and  C_19 
REMARK    4  A    between atoms: C_21  and  C_24 
REMARK    5  A    between atoms: C_27  and  O_30 
REMARK    6  A    between atoms: O_30  and  C_31 
ROOT
ATOM      1  N   LIG d   1       7.605  -1.840  -4.587  0.00  0.00    -0.279 N 
ATOM      2  C   LIG d   1       7.801  -3.260  -4.253  0.00  0.00     0.066 C 
ATOM      3  C   LIG d   1       8.384  -3.955  -5.459  0.00  0.00     0.159 A 
ATOM      4  C   LIG d   1       8.955  -3.293  -6.491  0.00  0.00     0.148 A 
ATOM      5  N   LIG d   1       9.363  -4.227  -7.389  0.00  0.00    -0.247 N 
ATOM      6  H   LIG d   1       9.808  -4.059  -8.235  0.00  0.00     0.310 HD
ATOM      7  C   LIG d   1       9.033  -5.437  -6.879  0.00  0.00     0.243 A 
ATOM      8  N   LIG d   1       8.448  -5.260  -5.723  0.00  0.00    -0.246 N 
ATOM      9  C   LIG d   1       9.077  -1.792  -6.552  0.00  0.00     0.037 C 
ATOM     10  C   LIG d   1       8.829  -1.243  -5.139  0.00  0.00     0.098 C 
ATOM     11  H   LIG d   1       9.675  -1.491  -4.499  0.00  0.00     0.057 H 
ATOM     12  H   LIG d   1       8.487  -3.349  -3.411  0.00  0.00     0.051 H 
ATOM     13  H   LIG d   1       6.843  -3.714  -3.998  0.00  0.00     0.051 H 
ATOM     14  H   LIG d   1       9.221  -6.390  -7.350  0.00  0.00     0.158 H 
ATOM     15  H   LIG d   1      10.078  -1.516  -6.884  0.00  0.00     0.037 H 
ATOM     16  H   LIG d   1       8.334  -1.389  -7.240  0.00  0.00     0.037 H 
ATOM     17  H   LIG d   1       8.113  -5.967  -5.149  0.00  0.00     0.310 HD
ENDROOT
BRANCH  10  18
ATOM     18  C   LIG d   1       8.671   0.254  -5.204  0.00  0.00     0.245 A 
ATOM     19  O   LIG d   1       7.892   0.924  -6.064  0.00  0.00    -0.336 OA
ATOM     20  N   LIG d   1       8.053   2.302  -5.762  0.00  0.00    -0.056 NA
ATOM     21  C   LIG d   1       8.904   2.367  -4.768  0.00  0.00     0.202 A 
ATOM     22  N   LIG d   1       9.275   1.117  -4.436  0.00  0.00    -0.190 NA
BRANCH  21  23
ATOM     23  C   LIG d   1       9.381   3.611  -4.118  0.00  0.00     0.023 A 
ATOM     24  C   LIG d   1       9.995   3.556  -2.868  0.00  0.00    -0.048 A 
ATOM     25  C   LIG d   1      10.444   4.713  -2.269  0.00  0.00    -0.019 A 
ATOM     26  H   LIG d   1      10.123   2.606  -2.370  0.00  0.00     0.063 H 
ATOM     27  C   LIG d   1      10.273   5.937  -2.905  0.00  0.00     0.130 A 
ATOM     28  H   LIG d   1      10.923   4.671  -1.302  0.00  0.00     0.065 H 
ATOM     29  C   LIG d   1       9.657   5.996  -4.148  0.00  0.00    -0.019 A 
ATOM     30  C   LIG d   1       9.212   4.841  -4.754  0.00  0.00    -0.048 A 
ATOM     31  H   LIG d   1       9.527   6.949  -4.640  0.00  0.00     0.065 H 
ATOM     32  H   LIG d   1       8.734   4.888  -5.721  0.00  0.00     0.063 H 
BRANCH  27  33
ATOM     33  O   LIG d   1      10.711   7.077  -2.309  0.00  0.00    -0.406 OA
BRANCH  33  34
ATOM     34  C   LIG d   1       9.923   7.592  -1.234  0.00  0.00     0.575 C 
ATOM     35  F   LIG d   1       8.579   7.266  -1.445  0.00  0.00    -0.133 F 
ATOM     36  F   LIG d   1      10.355   7.030  -0.029  0.00  0.00    -0.133 F 
ATOM     37  F   LIG d   1      10.063   8.983  -1.178  0.00  0.00    -0.133 F 
ENDBRANCH  33  34
ENDBRANCH  27  33
ENDBRANCH  21  23
ENDBRANCH  10  18
BRANCH   1  38
ATOM     38  C   LIG d   1       7.132  -1.085  -3.420  0.00  0.00     0.025 C 
ATOM     39  H   LIG d   1       7.558  -0.082  -3.437  0.00  0.00     0.048 H 
ATOM     40  H   LIG d   1       7.441  -1.596  -2.507  0.00  0.00     0.048 H 
BRANCH  38  41
ATOM     41  C   LIG d   1       5.628  -0.992  -3.456  0.00  0.00    -0.033 A 
ATOM     42  C   LIG d   1       4.872  -1.647  -2.502  0.00  0.00    -0.055 A 
ATOM     43  C   LIG d   1       3.493  -1.563  -2.536  0.00  0.00    -0.026 A 
ATOM     44  H   LIG d   1       5.359  -2.222  -1.729  0.00  0.00     0.062 H 
ATOM     45  C   LIG d   1       2.869  -0.822  -3.525  0.00  0.00     0.123 A 
ATOM     46  H   LIG d   1       2.903  -2.075  -1.790  0.00  0.00     0.065 H 
ATOM     47  C   LIG d   1       3.627  -0.167  -4.479  0.00  0.00    -0.026 A 
ATOM     48  F   LIG d   1       1.520  -0.739  -3.559  0.00  0.00    -0.205 F 
ATOM     49  C   LIG d   1       5.006  -0.252  -4.444  0.00  0.00    -0.055 A 
ATOM     50  H   LIG d   1       3.142   0.412  -5.252  0.00  0.00     0.065 H 
ATOM     51  H   LIG d   1       5.598   0.259  -5.189  0.00  0.00     0.062 H 
ENDBRANCH  38  41
ENDBRANCH   1  38
TORSDOF 6
ENDMDL
MODEL 6
REMARK VINA RESULT:      -7.4      2.603      3.975
REMARK  6 active torsions:
REMARK  status: ('A' for Active; 'I' for Inactive)
REMARK    1  A    between atoms: C_6  and  C_7 
REMARK    2  A    between atoms: C_7  and  N_8 
REMARK    3  A    between atoms: C_17  and  C_19 
REMARK    4  A    between atoms: C_21  and  C_24 
REMARK    5  A    between atoms: C_27  and  O_30 
REMARK    6  A    between atoms: O_30  and  C_31 
ROOT
ATOM      1  N   LIG d   1       4.806  -0.858  -7.224  0.00  0.00    -0.279 N 
ATOM      2  C   LIG d   1       3.737  -1.560  -7.955  0.00  0.00     0.066 C 
ATOM      3  C   LIG d   1       3.513  -0.848  -9.266  0.00  0.00     0.159 A 
ATOM      4  C   LIG d   1       4.399   0.026  -9.796  0.00  0.00     0.148 A 
ATOM      5  N   LIG d   1       3.874   0.470 -10.967  0.00  0.00    -0.247 N 
ATOM      6  H   LIG d   1       4.278   1.108 -11.577  0.00  0.00     0.310 HD
ATOM      7  C   LIG d   1       2.679  -0.148 -11.124  0.00  0.00     0.243 A 
ATOM      8  N   LIG d   1       2.475  -0.935 -10.099  0.00  0.00    -0.246 N 
ATOM      9  C   LIG d   1       5.709   0.383  -9.141  0.00  0.00     0.037 C 
ATOM     10  C   LIG d   1       5.998  -0.672  -8.062  0.00  0.00     0.098 C 
ATOM     11  H   LIG d   1       6.259  -1.617  -8.540  0.00  0.00     0.057 H 
ATOM     12  H   LIG d   1       4.035  -2.591  -8.144  0.00  0.00     0.051 H 
ATOM     13  H   LIG d   1       2.818  -1.544  -7.369  0.00  0.00     0.051 H 
ATOM     14  H   LIG d   1       2.006  -0.013 -11.957  0.00  0.00     0.158 H 
ATOM     15  H   LIG d   1       6.507   0.379  -9.884  0.00  0.00     0.037 H 
ATOM     16  H   LIG d   1       5.635   1.369  -8.681  0.00  0.00     0.037 H 
ATOM     17  H   LIG d   1       1.693  -1.493  -9.965  0.00  0.00     0.310 HD
ENDROOT
BRANCH  10  18
ATOM     18  C   LIG d   1       7.147  -0.210  -7.204  0.00  0.00     0.245 A 
ATOM     19  O   LIG d   1       8.145  -0.978  -6.751  0.00  0.00    -0.336 OA
ATOM     20  N   LIG d   1       8.994  -0.129  -5.993  0.00  0.00    -0.056 NA
ATOM     21  C   LIG d   1       8.456   1.065  -6.035  0.00  0.00     0.202 A 
ATOM     22  N   LIG d   1       7.333   1.006  -6.773  0.00  0.00    -0.190 NA
BRANCH  21  23
ATOM     23  C   LIG d   1       8.995   2.279  -5.376  0.00  0.00     0.023 A 
ATOM     24  C   LIG d   1       8.863   2.445  -3.998  0.00  0.00    -0.048 A 
ATOM     25  C   LIG d   1       9.371   3.570  -3.387  0.00  0.00    -0.019 A 
ATOM     26  H   LIG d   1       8.366   1.687  -3.409  0.00  0.00     0.063 H 
ATOM     27  C   LIG d   1      10.004   4.547  -4.146  0.00  0.00     0.130 A 
ATOM     28  H   LIG d   1       9.273   3.697  -2.319  0.00  0.00     0.065 H 
ATOM     29  C   LIG d   1      10.132   4.389  -5.519  0.00  0.00    -0.019 A 
ATOM     30  C   LIG d   1       9.631   3.262  -6.135  0.00  0.00    -0.048 A 
ATOM     31  H   LIG d   1      10.625   5.151  -6.106  0.00  0.00     0.065 H 
ATOM     32  H   LIG d   1       9.732   3.139  -7.202  0.00  0.00     0.063 H 
BRANCH  27  33
ATOM     33  O   LIG d   1      10.498   5.660  -3.541  0.00  0.00    -0.406 OA
BRANCH  33  34
ATOM     34  C   LIG d   1       9.598   6.756  -3.362  0.00  0.00     0.575 C 
ATOM     35  F   LIG d   1       8.590   6.693  -4.330  0.00  0.00    -0.133 F 
ATOM     36  F   LIG d   1       9.026   6.684  -2.087  0.00  0.00    -0.133 F 
ATOM     37  F   LIG d   1      10.298   7.960  -3.493  0.00  0.00    -0.133 F 
ENDBRANCH  33  34
ENDBRANCH  27  33
ENDBRANCH  21  23
ENDBRANCH  10  18
BRANCH   1  38
ATOM     38  C   LIG d   1       5.142  -1.563  -5.980  0.00  0.00     0.025 C 
ATOM     39  H   LIG d   1       6.212  -1.772  -5.958  0.00  0.00     0.048 H 
ATOM     40  H   LIG d   1       4.587  -2.500  -5.932  0.00  0.00     0.048 H 
BRANCH  38  41
ATOM     41  C   LIG d   1       4.774  -0.701  -4.800  0.00  0.00    -0.033 A 
ATOM     42  C   LIG d   1       5.734  -0.367  -3.863  0.00  0.00    -0.055 A 
ATOM     43  C   LIG d   1       5.398   0.422  -2.780  0.00  0.00    -0.026 A 
ATOM     44  H   LIG d   1       6.748  -0.720  -3.980  0.00  0.00     0.062 H 
ATOM     45  C   LIG d   1       4.099   0.879  -2.633  0.00  0.00     0.123 A 
ATOM     46  H   LIG d   1       6.149   0.683  -2.048  0.00  0.00     0.065 H 
ATOM     47  C   LIG d   1       3.139   0.543  -3.572  0.00  0.00    -0.026 A 
ATOM     48  F   LIG d   1       3.769   1.651  -1.574  0.00  0.00    -0.205 F 
ATOM     49  C   LIG d   1       3.477  -0.246  -4.654  0.00  0.00    -0.055 A 
ATOM     50  H   LIG d   1       2.125   0.899  -3.459  0.00  0.00     0.065 H 
ATOM     51  H   LIG d   1       2.728  -0.508  -5.387  0.00  0.00     0.062 H 
ENDBRANCH  38  41
ENDBRANCH   1  38
TORSDOF 6
ENDMDL
MODEL 7
REMARK VINA RESULT:      -7.2      6.307     11.402
REMARK  6 active torsions:
REMARK  status: ('A' for Active; 'I' for Inactive)
REMARK    1  A    between atoms: C_6  and  C_7 
REMARK    2  A    between atoms: C_7  and  N_8 
REMARK    3  A    between atoms: C_17  and  C_19 
REMARK    4  A    between atoms: C_21  and  C_24 
REMARK    5  A    between atoms: C_27  and  O_30 
REMARK    6  A    between atoms: O_30  and  C_31 
ROOT
ATOM      1  N   LIG d   1       4.825  -1.512  -6.557  0.00  0.00    -0.279 N 
ATOM      2  C   LIG d   1       3.843  -0.566  -7.113  0.00  0.00     0.066 C 
ATOM      3  C   LIG d   1       4.397  -0.010  -8.400  0.00  0.00     0.159 A 
ATOM      4  C   LIG d   1       5.425  -0.577  -9.072  0.00  0.00     0.148 A 
ATOM      5  N   LIG d   1       5.655   0.185 -10.172  0.00  0.00    -0.247 N 
ATOM      6  H   LIG d   1       6.333   0.031 -10.850  0.00  0.00     0.310 HD
ATOM      7  C   LIG d   1       4.759   1.199 -10.145  0.00  0.00     0.243 A 
ATOM      8  N   LIG d   1       4.011   1.071  -9.079  0.00  0.00    -0.246 N 
ATOM      9  C   LIG d   1       6.127  -1.830  -8.614  0.00  0.00     0.037 C 
ATOM     10  C   LIG d   1       5.242  -2.505  -7.556  0.00  0.00     0.098 C 
ATOM     11  H   LIG d   1       4.360  -2.929  -8.037  0.00  0.00     0.057 H 
ATOM     12  H   LIG d   1       2.905  -1.084  -7.310  0.00  0.00     0.051 H 
ATOM     13  H   LIG d   1       3.673   0.246  -6.406  0.00  0.00     0.051 H 
ATOM     14  H   LIG d   1       4.676   1.985 -10.881  0.00  0.00     0.158 H 
ATOM     15  H   LIG d   1       6.270  -2.504  -9.459  0.00  0.00     0.037 H 
ATOM     16  H   LIG d   1       7.092  -1.574  -8.178  0.00  0.00     0.037 H 
ATOM     17  H   LIG d   1       3.290   1.668  -8.823  0.00  0.00     0.310 HD
ENDROOT
BRANCH  10  18
ATOM     18  C   LIG d   1       6.020  -3.603  -6.878  0.00  0.00     0.245 A 
ATOM     19  O   LIG d   1       7.305  -3.539  -6.509  0.00  0.00    -0.336 OA
ATOM     20  N   LIG d   1       7.614  -4.790  -5.911  0.00  0.00    -0.056 NA
ATOM     21  C   LIG d   1       6.519  -5.507  -5.965  0.00  0.00     0.202 A 
ATOM     22  N   LIG d   1       5.555  -4.777  -6.555  0.00  0.00    -0.190 NA
BRANCH  21  23
ATOM     23  C   LIG d   1       6.368  -6.894  -5.462  0.00  0.00     0.023 A 
ATOM     24  C   LIG d   1       7.478  -7.589  -4.984  0.00  0.00    -0.048 A 
ATOM     25  C   LIG d   1       7.334  -8.875  -4.510  0.00  0.00    -0.019 A 
ATOM     26  H   LIG d   1       8.450  -7.118  -4.981  0.00  0.00     0.063 H 
ATOM     27  C   LIG d   1       6.085  -9.483  -4.520  0.00  0.00     0.130 A 
ATOM     28  H   LIG d   1       8.192  -9.412  -4.136  0.00  0.00     0.065 H 
ATOM     29  C   LIG d   1       4.979  -8.796  -5.000  0.00  0.00    -0.019 A 
ATOM     30  C   LIG d   1       5.116  -7.507  -5.470  0.00  0.00    -0.048 A 
ATOM     31  H   LIG d   1       4.009  -9.272  -5.006  0.00  0.00     0.065 H 
ATOM     32  H   LIG d   1       4.255  -6.973  -5.843  0.00  0.00     0.063 H 
BRANCH  27  33
ATOM     33  O   LIG d   1       5.947 -10.754  -4.058  0.00  0.00    -0.406 OA
BRANCH  33  34
ATOM     34  C   LIG d   1       5.387 -10.912  -2.752  0.00  0.00     0.575 C 
ATOM     35  F   LIG d   1       5.661  -9.773  -1.987  0.00  0.00    -0.133 F 
ATOM     36  F   LIG d   1       4.003 -11.082  -2.856  0.00  0.00    -0.133 F 
ATOM     37  F   LIG d   1       5.951 -12.034  -2.136  0.00  0.00    -0.133 F 
ENDBRANCH  33  34
ENDBRANCH  27  33
ENDBRANCH  21  23
ENDBRANCH  10  18
BRANCH   1  38
ATOM     38  C   LIG d   1       4.301  -2.166  -5.351  0.00  0.00     0.025 C 
ATOM     39  H   LIG d   1       4.880  -3.066  -5.144  0.00  0.00     0.048 H 
ATOM     40  H   LIG d   1       3.256  -2.435  -5.508  0.00  0.00     0.048 H 
BRANCH  38  41
ATOM     41  C   LIG d   1       4.404  -1.222  -4.181  0.00  0.00    -0.033 A 
ATOM     42  C   LIG d   1       3.272  -0.885  -3.463  0.00  0.00    -0.055 A 
ATOM     43  C   LIG d   1       3.366  -0.018  -2.390  0.00  0.00    -0.026 A 
ATOM     44  H   LIG d   1       2.315  -1.301  -3.738  0.00  0.00     0.062 H 
ATOM     45  C   LIG d   1       4.596   0.511  -2.034  0.00  0.00     0.123 A 
ATOM     46  H   LIG d   1       2.481   0.245  -1.830  0.00  0.00     0.065 H 
ATOM     47  C   LIG d   1       5.728   0.173  -2.754  0.00  0.00    -0.026 A 
ATOM     48  F   LIG d   1       4.688   1.359  -0.986  0.00  0.00    -0.205 F 
ATOM     49  C   LIG d   1       5.632  -0.694  -3.826  0.00  0.00    -0.055 A 
ATOM     50  H   LIG d   1       6.688   0.585  -2.478  0.00  0.00     0.065 H 
ATOM     51  H   LIG d   1       6.516  -0.959  -4.388  0.00  0.00     0.062 H 
ENDBRANCH  38  41
ENDBRANCH   1  38
TORSDOF 6
ENDMDL
MODEL 8
REMARK VINA RESULT:      -7.2      3.068      8.555
REMARK  6 active torsions:
REMARK  status: ('A' for Active; 'I' for Inactive)
REMARK    1  A    between atoms: C_6  and  C_7 
REMARK    2  A    between atoms: C_7  and  N_8 
REMARK    3  A    between atoms: C_17  and  C_19 
REMARK    4  A    between atoms: C_21  and  C_24 
REMARK    5  A    between atoms: C_27  and  O_30 
REMARK    6  A    between atoms: O_30  and  C_31 
ROOT
ATOM      1  N   LIG d   1      12.626   3.072  -4.402  0.00  0.00    -0.279 N 
ATOM      2  C   LIG d   1      14.003   3.593  -4.389  0.00  0.00     0.066 C 
ATOM      3  C   LIG d   1      14.884   2.588  -3.690  0.00  0.00     0.159 A 
ATOM      4  C   LIG d   1      14.515   1.305  -3.471  0.00  0.00     0.148 A 
ATOM      5  N   LIG d   1      15.542   0.697  -2.822  0.00  0.00    -0.247 N 
ATOM      6  H   LIG d   1      15.574  -0.227  -2.529  0.00  0.00     0.310 HD
ATOM      7  C   LIG d   1      16.514   1.626  -2.663  0.00  0.00     0.243 A 
ATOM      8  N   LIG d   1      16.108   2.754  -3.187  0.00  0.00    -0.246 N 
ATOM      9  C   LIG d   1      13.189   0.734  -3.905  0.00  0.00     0.037 C 
ATOM     10  C   LIG d   1      12.574   1.701  -4.928  0.00  0.00     0.098 C 
ATOM     11  H   LIG d   1      13.135   1.648  -5.861  0.00  0.00     0.057 H 
ATOM     12  H   LIG d   1      14.352   3.737  -5.411  0.00  0.00     0.051 H 
ATOM     13  H   LIG d   1      14.033   4.542  -3.853  0.00  0.00     0.051 H 
ATOM     14  H   LIG d   1      17.467   1.464  -2.182  0.00  0.00     0.158 H 
ATOM     15  H   LIG d   1      13.340  -0.242  -4.365  0.00  0.00     0.037 H 
ATOM     16  H   LIG d   1      12.528   0.640  -3.043  0.00  0.00     0.037 H 
ATOM     17  H   LIG d   1      16.616   3.580  -3.207  0.00  0.00     0.310 HD
ENDROOT
BRANCH  10  18
ATOM     18  C   LIG d   1      11.140   1.316  -5.182  0.00  0.00     0.245 A 
ATOM     19  O   LIG d   1      10.570   1.165  -6.384  0.00  0.00    -0.336 OA
ATOM     20  N   LIG d   1       9.219   0.798  -6.146  0.00  0.00    -0.056 NA
ATOM     21  C   LIG d   1       9.069   0.762  -4.845  0.00  0.00     0.202 A 
ATOM     22  N   LIG d   1      10.242   1.079  -4.267  0.00  0.00    -0.190 NA
BRANCH  21  23
ATOM     23  C   LIG d   1       7.814   0.429  -4.128  0.00  0.00     0.023 A 
ATOM     24  C   LIG d   1       7.467  -0.903  -3.908  0.00  0.00    -0.048 A 
ATOM     25  C   LIG d   1       6.304  -1.210  -3.235  0.00  0.00    -0.019 A 
ATOM     26  H   LIG d   1       8.113  -1.695  -4.261  0.00  0.00     0.063 H 
ATOM     27  C   LIG d   1       5.471  -0.193  -2.788  0.00  0.00     0.130 A 
ATOM     28  H   LIG d   1       6.037  -2.241  -3.061  0.00  0.00     0.065 H 
ATOM     29  C   LIG d   1       5.810   1.135  -3.010  0.00  0.00    -0.019 A 
ATOM     30  C   LIG d   1       6.976   1.448  -3.677  0.00  0.00    -0.048 A 
ATOM     31  H   LIG d   1       5.160   1.924  -2.660  0.00  0.00     0.065 H 
ATOM     32  H   LIG d   1       7.239   2.481  -3.849  0.00  0.00     0.063 H 
BRANCH  27  33
ATOM     33  O   LIG d   1       4.321  -0.498  -2.130  0.00  0.00    -0.406 OA
BRANCH  33  34
ATOM     34  C   LIG d   1       3.416  -1.389  -2.786  0.00  0.00     0.575 C 
ATOM     35  F   LIG d   1       2.106  -0.922  -2.626  0.00  0.00    -0.133 F 
ATOM     36  F   LIG d   1       3.726  -1.450  -4.148  0.00  0.00    -0.133 F 
ATOM     37  F   LIG d   1       3.528  -2.665  -2.223  0.00  0.00    -0.133 F 
ENDBRANCH  33  34
ENDBRANCH  27  33
ENDBRANCH  21  23
ENDBRANCH  10  18
BRANCH   1  38
ATOM     38  C   LIG d   1      11.735   3.960  -5.160  0.00  0.00     0.025 C 
ATOM     39  H   LIG d   1      11.036   3.362  -5.745  0.00  0.00     0.048 H 
ATOM     40  H   LIG d   1      12.327   4.585  -5.828  0.00  0.00     0.048 H 
BRANCH  38  41
ATOM     41  C   LIG d   1      10.967   4.837  -4.204  0.00  0.00    -0.033 A 
ATOM     42  C   LIG d   1      10.362   5.992  -4.661  0.00  0.00    -0.055 A 
ATOM     43  C   LIG d   1       9.658   6.798  -3.785  0.00  0.00    -0.026 A 
ATOM     44  H   LIG d   1      10.435   6.265  -5.703  0.00  0.00     0.062 H 
ATOM     45  C   LIG d   1       9.560   6.446  -2.449  0.00  0.00     0.123 A 
ATOM     46  H   LIG d   1       9.185   7.700  -4.142  0.00  0.00     0.065 H 
ATOM     47  C   LIG d   1      10.167   5.289  -1.993  0.00  0.00    -0.026 A 
ATOM     48  F   LIG d   1       8.872   7.232  -1.591  0.00  0.00    -0.205 F 
ATOM     49  C   LIG d   1      10.870   4.485  -2.870  0.00  0.00    -0.055 A 
ATOM     50  H   LIG d   1      10.092   5.013  -0.951  0.00  0.00     0.065 H 
ATOM     51  H   LIG d   1      11.344   3.582  -2.515  0.00  0.00     0.062 H 
ENDBRANCH  38  41
ENDBRANCH   1  38
TORSDOF 6
ENDMDL
MODEL 9
REMARK VINA RESULT:      -7.2      3.474      9.412
REMARK  6 active torsions:
REMARK  status: ('A' for Active; 'I' for Inactive)
REMARK    1  A    between atoms: C_6  and  C_7 
REMARK    2  A    between atoms: C_7  and  N_8 
REMARK    3  A    between atoms: C_17  and  C_19 
REMARK    4  A    between atoms: C_21  and  C_24 
REMARK    5  A    between atoms: C_27  and  O_30 
REMARK    6  A    between atoms: O_30  and  C_31 
ROOT
ATOM      1  N   LIG d   1       9.629   6.004  -3.336  0.00  0.00    -0.279 N 
ATOM      2  C   LIG d   1      10.184   7.337  -3.049  0.00  0.00     0.066 C 
ATOM      3  C   LIG d   1      10.705   7.338  -1.633  0.00  0.00     0.159 A 
ATOM      4  C   LIG d   1      10.943   6.208  -0.930  0.00  0.00     0.148 A 
ATOM      5  N   LIG d   1      11.398   6.585   0.293  0.00  0.00    -0.247 N 
ATOM      6  H   LIG d   1      11.653   5.996   1.021  0.00  0.00     0.310 HD
ATOM      7  C   LIG d   1      11.428   7.938   0.304  0.00  0.00     0.243 A 
ATOM      8  N   LIG d   1      11.012   8.377  -0.856  0.00  0.00    -0.246 N 
ATOM      9  C   LIG d   1      10.720   4.823  -1.480  0.00  0.00     0.037 C 
ATOM     10  C   LIG d   1      10.586   4.939  -3.006  0.00  0.00     0.098 C 
ATOM     11  H   LIG d   1      11.558   5.177  -3.439  0.00  0.00     0.057 H 
ATOM     12  H   LIG d   1      10.999   7.553  -3.740  0.00  0.00     0.051 H 
ATOM     13  H   LIG d   1       9.404   8.091  -3.152  0.00  0.00     0.051 H 
ATOM     14  H   LIG d   1      11.744   8.554   1.133  0.00  0.00     0.158 H 
ATOM     15  H   LIG d   1      11.568   4.185  -1.233  0.00  0.00     0.037 H 
ATOM     16  H   LIG d   1       9.805   4.402  -1.062  0.00  0.00     0.037 H 
ATOM     17  H   LIG d   1      10.938   9.311  -1.110  0.00  0.00     0.310 HD
ENDROOT
BRANCH  10  18
ATOM     18  C   LIG d   1      10.094   3.631  -3.568  0.00  0.00     0.245 A 
ATOM     19  O   LIG d   1      10.732   2.876  -4.471  0.00  0.00    -0.336 OA
ATOM     20  N   LIG d   1       9.908   1.744  -4.703  0.00  0.00    -0.056 NA
ATOM     21  C   LIG d   1       8.849   1.894  -3.946  0.00  0.00     0.202 A 
ATOM     22  N   LIG d   1       8.971   3.045  -3.259  0.00  0.00    -0.190 NA
BRANCH  21  23
ATOM     23  C   LIG d   1       7.707   0.953  -3.860  0.00  0.00     0.023 A 
ATOM     24  C   LIG d   1       7.884  -0.394  -4.174  0.00  0.00    -0.048 A 
ATOM     25  C   LIG d   1       6.823  -1.267  -4.087  0.00  0.00    -0.019 A 
ATOM     26  H   LIG d   1       8.856  -0.753  -4.482  0.00  0.00     0.063 H 
ATOM     27  C   LIG d   1       5.572  -0.805  -3.699  0.00  0.00     0.130 A 
ATOM     28  H   LIG d   1       6.961  -2.311  -4.327  0.00  0.00     0.065 H 
ATOM     29  C   LIG d   1       5.389   0.536  -3.391  0.00  0.00    -0.019 A 
ATOM     30  C   LIG d   1       6.449   1.414  -3.470  0.00  0.00    -0.048 A 
ATOM     31  H   LIG d   1       4.415   0.893  -3.089  0.00  0.00     0.065 H 
ATOM     32  H   LIG d   1       6.307   2.457  -3.230  0.00  0.00     0.063 H 
BRANCH  27  33
ATOM     33  O   LIG d   1       4.525  -1.668  -3.620  0.00  0.00    -0.406 OA
BRANCH  33  34
ATOM     34  C   LIG d   1       3.795  -1.692  -2.391  0.00  0.00     0.575 C 
ATOM     35  F   LIG d   1       2.595  -0.990  -2.549  0.00  0.00    -0.133 F 
ATOM     36  F   LIG d   1       3.517  -3.017  -2.041  0.00  0.00    -0.133 F 
ATOM     37  F   LIG d   1       4.558  -1.092  -1.384  0.00  0.00    -0.133 F 
ENDBRANCH  33  34
ENDBRANCH  27  33
ENDBRANCH  21  23
ENDBRANCH  10  18
BRANCH   1  38
ATOM     38  C   LIG d   1       9.195   5.906  -4.736  0.00  0.00     0.025 C 
ATOM     39  H   LIG d   1       8.112   6.020  -4.790  0.00  0.00     0.048 H 
ATOM     40  H   LIG d   1       9.478   4.932  -5.137  0.00  0.00     0.048 H 
BRANCH  38  41
ATOM     41  C   LIG d   1       9.856   6.992  -5.545  0.00  0.00    -0.033 A 
ATOM     42  C   LIG d   1       9.160   8.148  -5.847  0.00  0.00    -0.055 A 
ATOM     43  C   LIG d   1       9.765   9.145  -6.589  0.00  0.00    -0.026 A 
ATOM     44  H   LIG d   1       8.146   8.274  -5.501  0.00  0.00     0.062 H 
ATOM     45  C   LIG d   1      11.069   8.985  -7.029  0.00  0.00     0.123 A 
ATOM     46  H   LIG d   1       9.222  10.048  -6.826  0.00  0.00     0.065 H 
ATOM     47  C   LIG d   1      11.764   7.827  -6.726  0.00  0.00    -0.026 A 
ATOM     48  F   LIG d   1      11.662   9.959  -7.755  0.00  0.00    -0.205 F 
ATOM     49  C   LIG d   1      11.157   6.832  -5.984  0.00  0.00    -0.055 A 
ATOM     50  H   LIG d   1      12.780   7.701  -7.068  0.00  0.00     0.065 H 
ATOM     51  H   LIG d   1      11.699   5.928  -5.746  0.00  0.00     0.062 H 
ENDBRANCH  38  41
ENDBRANCH   1  38
TORSDOF 6
ENDMDL
MODEL 10
REMARK VINA RESULT:      -7.1      6.404      9.525
REMARK  6 active torsions:
REMARK  status: ('A' for Active; 'I' for Inactive)
REMARK    1  A    between atoms: C_6  and  C_7 
REMARK    2  A    between atoms: C_7  and  N_8 
REMARK    3  A    between atoms: C_17  and  C_19 
REMARK    4  A    between atoms: C_21  and  C_24 
REMARK    5  A    between atoms: C_27  and  O_30 
REMARK    6  A    between atoms: O_30  and  C_31 
ROOT
ATOM      1  N   LIG d   1       2.555  -2.924 -11.513  0.00  0.00    -0.279 N 
ATOM      2  C   LIG d   1       2.083  -3.561 -12.754  0.00  0.00     0.066 C 
ATOM      3  C   LIG d   1       0.700  -3.042 -13.057  0.00  0.00     0.159 A 
ATOM      4  C   LIG d   1       0.184  -1.929 -12.487  0.00  0.00     0.148 A 
ATOM      5  N   LIG d   1      -1.069  -1.766 -12.986  0.00  0.00    -0.247 N 
ATOM      6  H   LIG d   1      -1.690  -1.054 -12.766  0.00  0.00     0.310 HD
ATOM      7  C   LIG d   1      -1.285  -2.785 -13.851  0.00  0.00     0.243 A 
ATOM      8  N   LIG d   1      -0.218  -3.541 -13.885  0.00  0.00    -0.246 N 
ATOM      9  C   LIG d   1       0.933  -1.080 -11.492  0.00  0.00     0.037 C 
ATOM     10  C   LIG d   1       2.419  -1.462 -11.573  0.00  0.00     0.098 C 
ATOM     11  H   LIG d   1       2.838  -1.096 -12.511  0.00  0.00     0.057 H 
ATOM     12  H   LIG d   1       2.756  -3.312 -13.574  0.00  0.00     0.051 H 
ATOM     13  H   LIG d   1       2.048  -4.642 -12.622  0.00  0.00     0.051 H 
ATOM     14  H   LIG d   1      -2.189  -2.947 -14.419  0.00  0.00     0.158 H 
ATOM     15  H   LIG d   1       0.810  -0.025 -11.739  0.00  0.00     0.037 H 
ATOM     16  H   LIG d   1       0.558  -1.271 -10.487  0.00  0.00     0.037 H 
ATOM     17  H   LIG d   1      -0.112  -4.340 -14.426  0.00  0.00     0.310 HD
ENDROOT
BRANCH  10  18
ATOM     18  C   LIG d   1       3.160  -0.842 -10.417  0.00  0.00     0.245 A 
ATOM     19  O   LIG d   1       4.198  -0.002 -10.512  0.00  0.00    -0.336 OA
ATOM     20  N   LIG d   1       4.572   0.327  -9.182  0.00  0.00    -0.056 NA
ATOM     21  C   LIG d   1       3.755  -0.328  -8.394  0.00  0.00     0.202 A 
ATOM     22  N   LIG d   1       2.899  -1.036  -9.155  0.00  0.00    -0.190 NA
BRANCH  21  23
ATOM     23  C   LIG d   1       3.770  -0.295  -6.912  0.00  0.00     0.023 A 
ATOM     24  C   LIG d   1       4.798  -0.923  -6.210  0.00  0.00    -0.048 A 
ATOM     25  C   LIG d   1       4.814  -0.885  -4.832  0.00  0.00    -0.019 A 
ATOM     26  H   LIG d   1       5.584  -1.436  -6.746  0.00  0.00     0.063 H 
ATOM     27  C   LIG d   1       3.800  -0.233  -4.143  0.00  0.00     0.130 A 
ATOM     28  H   LIG d   1       5.612  -1.368  -4.288  0.00  0.00     0.065 H 
ATOM     29  C   LIG d   1       2.772   0.389  -4.838  0.00  0.00    -0.019 A 
ATOM     30  C   LIG d   1       2.754   0.360  -6.217  0.00  0.00    -0.048 A 
ATOM     31  H   LIG d   1       1.986   0.896  -4.299  0.00  0.00     0.065 H 
ATOM     32  H   LIG d   1       1.955   0.844  -6.757  0.00  0.00     0.063 H 
BRANCH  27  33
ATOM     33  O   LIG d   1       3.816  -0.202  -2.784  0.00  0.00    -0.406 OA
BRANCH  33  34
ATOM     34  C   LIG d   1       4.222   1.021  -2.167  0.00  0.00     0.575 C 
ATOM     35  F   LIG d   1       3.114   1.863  -2.027  0.00  0.00    -0.133 F 
ATOM     36  F   LIG d   1       4.763   0.749  -0.906  0.00  0.00    -0.133 F 
ATOM     37  F   LIG d   1       5.187   1.647  -2.964  0.00  0.00    -0.133 F 
ENDBRANCH  33  34
ENDBRANCH  27  33
ENDBRANCH  21  23
ENDBRANCH  10  18
BRANCH   1  38
ATOM     38  C   LIG d   1       3.940  -3.311 -11.216  0.00  0.00     0.025 C 
ATOM     39  H   LIG d   1       4.466  -2.469 -10.767  0.00  0.00     0.048 H 
ATOM     40  H   LIG d   1       4.442  -3.602 -12.139  0.00  0.00     0.048 H 
BRANCH  38  41
ATOM     41  C   LIG d   1       3.942  -4.474 -10.257  0.00  0.00    -0.033 A 
ATOM     42  C   LIG d   1       3.649  -4.269  -8.922  0.00  0.00    -0.055 A 
ATOM     43  C   LIG d   1       3.651  -5.334  -8.042  0.00  0.00    -0.026 A 
ATOM     44  H   LIG d   1       3.414  -3.276  -8.568  0.00  0.00     0.062 H 
ATOM     45  C   LIG d   1       3.947  -6.608  -8.498  0.00  0.00     0.123 A 
ATOM     46  H   LIG d   1       3.422  -5.173  -6.999  0.00  0.00     0.065 H 
ATOM     47  C   LIG d   1       4.240  -6.812  -9.835  0.00  0.00    -0.026 A 
ATOM     48  F   LIG d   1       3.949  -7.650  -7.638  0.00  0.00    -0.205 F 
ATOM     49  C   LIG d   1       4.238  -5.745 -10.714  0.00  0.00    -0.055 A 
ATOM     50  H   LIG d   1       4.472  -7.805 -10.193  0.00  0.00     0.065 H 
ATOM     51  H   LIG d   1       4.467  -5.904 -11.757  0.00  0.00     0.062 H 
ENDBRANCH  38  41
ENDBRANCH   1  38
TORSDOF 6
ENDMDL
