MODEL 1
REMARK VINA RESULT:      -6.0      0.000      0.000
REMARK  13 active torsions:
REMARK  status: ('A' for Active; 'I' for Inactive)
REMARK    1  A    between atoms: C_1  and  C_2 
REMARK    2  A    between atoms: C_4  and  C_26 
REMARK    3  A    between atoms: C_6  and  C_23 
REMARK    4  A    between atoms: C_9  and  C_11 
REMARK    5  A    between atoms: C_11  and  C_12 
REMARK    6  A    between atoms: C_15  and  C_17 
REMARK    7  A    between atoms: C_23  and  C_24 
REMARK    8  A    between atoms: C_23  and  C_25 
REMARK    9  A    between atoms: C_26  and  N_27 
REMARK   10  A    between atoms: N_30  and  C_33 
REMARK   11  A    between atoms: C_33  and  C_34 
REMARK   12  A    between atoms: C_34  and  O_35 
REMARK   13  A    between atoms: O_35  and  C_36 
ROOT
ATOM      1  C   LIG d   1       7.158  -2.338  -3.797  0.00  0.00    -0.072 C 
ATOM      2  C   LIG d   1       7.634  -1.157  -3.560  0.00  0.00    -0.076 C 
ATOM      3  C   LIG d   1       6.787   0.049  -3.276  0.00  0.00     0.021 C 
ATOM      4  H   LIG d   1       6.806   0.260  -2.207  0.00  0.00     0.040 H 
ATOM      5  C   LIG d   1       5.345  -0.204  -3.718  0.00  0.00    -0.027 C 
ATOM      6  H   LIG d   1       5.294  -0.231  -4.806  0.00  0.00     0.031 H 
ATOM      7  C   LIG d   1       4.891  -1.553  -3.147  0.00  0.00    -0.042 C 
ATOM      8  C   LIG d   1       5.694  -2.661  -3.837  0.00  0.00    -0.011 C 
ATOM      9  H   LIG d   1       5.518  -3.606  -3.322  0.00  0.00     0.035 H 
ATOM     10  H   LIG d   1       8.707  -1.033  -3.567  0.00  0.00     0.058 H 
ATOM     11  H   LIG d   1       5.077  -1.577  -2.073  0.00  0.00     0.027 H 
ATOM     12  H   LIG d   1       3.829  -1.696  -3.342  0.00  0.00     0.027 H 
ENDROOT
BRANCH   3  13
ATOM     13  C   LIG d   1       7.346   1.251  -4.040  0.00  0.00    -0.025 C 
ATOM     14  H   LIG d   1       6.902   1.288  -5.035  0.00  0.00     0.082 H 
ATOM     15  H   LIG d   1       7.107   2.168  -3.501  0.00  0.00     0.082 H 
BRANCH  13  16
ATOM     16  N   LIG d   1       8.804   1.121  -4.159  0.00  0.00     0.237 N 
ATOM     17  C   LIG d   1       9.453   2.259  -3.495  0.00  0.00    -0.019 C 
ATOM     18  C   LIG d   1      10.973   2.114  -3.602  0.00  0.00     0.039 C 
ATOM     19  H   LIG d   1       9.142   3.186  -3.975  0.00  0.00     0.083 H 
ATOM     20  H   LIG d   1       9.163   2.279  -2.444  0.00  0.00     0.083 H 
ATOM     21  N   LIG d   1      11.358   2.068  -5.019  0.00  0.00    -0.290 N 
ATOM     22  H   LIG d   1      11.286   1.194  -3.110  0.00  0.00     0.048 H 
ATOM     23  H   LIG d   1      11.454   2.966  -3.122  0.00  0.00     0.048 H 
ATOM     24  C   LIG d   1      10.697   0.948  -5.704  0.00  0.00     0.039 C 
ATOM     25  C   LIG d   1       9.180   1.103  -5.580  0.00  0.00    -0.019 C 
ATOM     26  H   LIG d   1      11.006   0.008  -5.246  0.00  0.00     0.048 H 
ATOM     27  H   LIG d   1      10.978   0.950  -6.758  0.00  0.00     0.048 H 
ATOM     28  H   LIG d   1       8.687   0.265  -6.074  0.00  0.00     0.083 H 
ATOM     29  H   LIG d   1       8.870   2.036  -6.049  0.00  0.00     0.083 H 
ATOM     30  H   LIG d   1       9.103   0.262  -3.722  0.00  0.00     0.203 HD
BRANCH  21  31
ATOM     31  C   LIG d   1      12.818   1.986  -5.166  0.00  0.00     0.023 C 
ATOM     32  H   LIG d   1      13.067   1.199  -5.879  0.00  0.00     0.045 H 
ATOM     33  H   LIG d   1      13.201   2.940  -5.528  0.00  0.00     0.045 H 
BRANCH  31  34
ATOM     34  C   LIG d   1      13.450   1.664  -3.810  0.00  0.00     0.060 C 
ATOM     35  H   LIG d   1      14.096   2.489  -3.507  0.00  0.00     0.057 H 
ATOM     36  H   LIG d   1      12.664   1.525  -3.068  0.00  0.00     0.057 H 
BRANCH  34  37
ATOM     37  O   LIG d   1      14.223   0.467  -3.916  0.00  0.00    -0.382 OA
BRANCH  37  38
ATOM     38  C   LIG d   1      13.456  -0.732  -3.801  0.00  0.00     0.036 C 
ATOM     39  H   LIG d   1      13.999  -1.556  -4.265  0.00  0.00     0.052 H 
ATOM     40  H   LIG d   1      13.287  -0.955  -2.748  0.00  0.00     0.052 H 
ATOM     41  H   LIG d   1      12.497  -0.600  -4.303  0.00  0.00     0.052 H 
ENDBRANCH  37  38
ENDBRANCH  34  37
ENDBRANCH  31  34
ENDBRANCH  21  31
ENDBRANCH  13  16
ENDBRANCH   3  13
BRANCH   5  42
ATOM     42  C   LIG d   1       4.442   0.913  -3.190  0.00  0.00    -0.043 C 
ATOM     43  H   LIG d   1       4.814   1.876  -3.538  0.00  0.00     0.030 H 
BRANCH  42  44
ATOM     44  C   LIG d   1       3.016   0.701  -3.702  0.00  0.00    -0.062 C 
ATOM     45  H   LIG d   1       2.826   1.376  -4.537  0.00  0.00     0.023 H 
ATOM     46  H   LIG d   1       2.899  -0.331  -4.035  0.00  0.00     0.023 H 
ATOM     47  H   LIG d   1       2.307   0.908  -2.900  0.00  0.00     0.023 H 
ENDBRANCH  42  44
BRANCH  42  48
ATOM     48  C   LIG d   1       4.442   0.888  -1.660  0.00  0.00    -0.062 C 
ATOM     49  H   LIG d   1       4.902  -0.037  -1.313  0.00  0.00     0.023 H 
ATOM     50  H   LIG d   1       5.008   1.740  -1.283  0.00  0.00     0.023 H 
ATOM     51  H   LIG d   1       3.416   0.943  -1.296  0.00  0.00     0.023 H 
ENDBRANCH  42  48
ENDBRANCH   5  42
BRANCH   1  52
ATOM     52  C   LIG d   1       8.136  -3.455  -4.054  0.00  0.00    -0.043 C 
ATOM     53  H   LIG d   1       9.016  -3.059  -4.562  0.00  0.00     0.027 H 
ATOM     54  H   LIG d   1       8.436  -3.902  -3.106  0.00  0.00     0.027 H 
ATOM     55  H   LIG d   1       7.665  -4.213  -4.681  0.00  0.00     0.027 H 
ENDBRANCH   1  52
BRANCH   8  56
ATOM     56  C   LIG d   1       5.243  -2.789  -5.293  0.00  0.00     0.032 C 
ATOM     57  H   LIG d   1       4.379  -2.147  -5.464  0.00  0.00     0.037 H 
ATOM     58  H   LIG d   1       6.055  -2.487  -5.953  0.00  0.00     0.037 H 
BRANCH  56  59
ATOM     59  C   LIG d   1       4.868  -4.220  -5.579  0.00  0.00     0.218 A 
ATOM     60  O   LIG d   1       5.633  -5.301  -5.352  0.00  0.00    -0.420 OA
ATOM     61  C   LIG d   1       4.912  -6.369  -5.749  0.00  0.00     0.248 A 
ATOM     62  N   LIG d   1       3.765  -5.916  -6.201  0.00  0.00    -0.107 NA
ATOM     63  N   LIG d   1       3.745  -4.635  -6.097  0.00  0.00    -0.112 NA
BRANCH  61  64
ATOM     64  C   LIG d   1       5.335  -7.783  -5.691  0.00  0.00     0.041 A 
ATOM     65  C   LIG d   1       6.444  -8.172  -4.928  0.00  0.00    -0.031 A 
ATOM     66  C   LIG d   1       6.801  -9.503  -4.898  0.00  0.00     0.028 A 
ATOM     67  H   LIG d   1       7.007  -7.439  -4.370  0.00  0.00     0.064 H 
ATOM     68  N   LIG d   1       6.121 -10.404  -5.581  0.00  0.00    -0.263 NA
ATOM     69  H   LIG d   1       7.652  -9.812  -4.308  0.00  0.00     0.083 H 
ATOM     70  C   LIG d   1       5.074 -10.081  -6.316  0.00  0.00     0.028 A 
ATOM     71  C   LIG d   1       4.643  -8.772  -6.400  0.00  0.00    -0.031 A 
ATOM     72  H   LIG d   1       4.548 -10.850  -6.859  0.00  0.00     0.083 H 
ATOM     73  H   LIG d   1       3.786  -8.515  -7.003  0.00  0.00     0.064 H 
ENDBRANCH  61  64
ENDBRANCH  56  59
ENDBRANCH   8  56
TORSDOF 13
ENDMDL
MODEL 2
REMARK VINA RESULT:      -5.8      3.031      4.388
REMARK  13 active torsions:
REMARK  status: ('A' for Active; 'I' for Inactive)
REMARK    1  A    between atoms: C_1  and  C_2 
REMARK    2  A    between atoms: C_4  and  C_26 
REMARK    3  A    between atoms: C_6  and  C_23 
REMARK    4  A    between atoms: C_9  and  C_11 
REMARK    5  A    between atoms: C_11  and  C_12 
REMARK    6  A    between atoms: C_15  and  C_17 
REMARK    7  A    between atoms: C_23  and  C_24 
REMARK    8  A    between atoms: C_23  and  C_25 
REMARK    9  A    between atoms: C_26  and  N_27 
REMARK   10  A    between atoms: N_30  and  C_33 
REMARK   11  A    between atoms: C_33  and  C_34 
REMARK   12  A    between atoms: C_34  and  O_35 
REMARK   13  A    between atoms: O_35  and  C_36 
ROOT
ATOM      1  C   LIG d   1       5.793   0.706  -3.202  0.00  0.00    -0.072 C 
ATOM      2  C   LIG d   1       6.774   1.513  -3.444  0.00  0.00    -0.076 C 
ATOM      3  C   LIG d   1       7.699   1.385  -4.619  0.00  0.00     0.021 C 
ATOM      4  H   LIG d   1       7.426   2.122  -5.375  0.00  0.00     0.040 H 
ATOM      5  C   LIG d   1       7.596  -0.018  -5.219  0.00  0.00    -0.027 C 
ATOM      6  H   LIG d   1       8.041  -0.742  -4.536  0.00  0.00     0.031 H 
ATOM      7  C   LIG d   1       6.113  -0.350  -5.429  0.00  0.00    -0.042 C 
ATOM      8  C   LIG d   1       5.452  -0.482  -4.053  0.00  0.00    -0.011 C 
ATOM      9  H   LIG d   1       4.370  -0.538  -4.179  0.00  0.00     0.035 H 
ATOM     10  H   LIG d   1       6.938   2.332  -2.757  0.00  0.00     0.058 H 
ATOM     11  H   LIG d   1       5.636   0.451  -5.994  0.00  0.00     0.027 H 
ATOM     12  H   LIG d   1       6.021  -1.291  -5.970  0.00  0.00     0.027 H 
ENDROOT
BRANCH   3  13
ATOM     13  C   LIG d   1       9.137   1.635  -4.162  0.00  0.00    -0.025 C 
ATOM     14  H   LIG d   1       9.414   0.895  -3.411  0.00  0.00     0.082 H 
ATOM     15  H   LIG d   1       9.810   1.556  -5.017  0.00  0.00     0.082 H 
BRANCH  13  16
ATOM     16  N   LIG d   1       9.240   2.981  -3.583  0.00  0.00     0.237 N 
ATOM     17  C   LIG d   1       9.302   3.975  -4.662  0.00  0.00    -0.019 C 
ATOM     18  C   LIG d   1       9.390   5.379  -4.060  0.00  0.00     0.039 C 
ATOM     19  H   LIG d   1      10.181   3.789  -5.279  0.00  0.00     0.083 H 
ATOM     20  H   LIG d   1       8.404   3.899  -5.278  0.00  0.00     0.083 H 
ATOM     21  N   LIG d   1      10.590   5.472  -3.216  0.00  0.00    -0.290 N 
ATOM     22  H   LIG d   1       8.504   5.572  -3.455  0.00  0.00     0.048 H 
ATOM     23  H   LIG d   1       9.451   6.115  -4.861  0.00  0.00     0.048 H 
ATOM     24  C   LIG d   1      10.554   4.466  -2.146  0.00  0.00     0.039 C 
ATOM     25  C   LIG d   1      10.457   3.070  -2.764  0.00  0.00    -0.019 C 
ATOM     26  H   LIG d   1       9.687   4.644  -1.509  0.00  0.00     0.048 H 
ATOM     27  H   LIG d   1      11.465   4.538  -1.550  0.00  0.00     0.048 H 
ATOM     28  H   LIG d   1      10.415   2.323  -1.971  0.00  0.00     0.083 H 
ATOM     29  H   LIG d   1      11.330   2.888  -3.390  0.00  0.00     0.083 H 
ATOM     30  H   LIG d   1       8.433   3.162  -3.006  0.00  0.00     0.203 HD
BRANCH  21  31
ATOM     31  C   LIG d   1      10.741   6.825  -2.663  0.00  0.00     0.023 C 
ATOM     32  H   LIG d   1      11.787   7.127  -2.726  0.00  0.00     0.045 H 
ATOM     33  H   LIG d   1      10.126   7.521  -3.233  0.00  0.00     0.045 H 
BRANCH  31  34
ATOM     34  C   LIG d   1      10.296   6.831  -1.199  0.00  0.00     0.060 C 
ATOM     35  H   LIG d   1      10.225   5.804  -0.838  0.00  0.00     0.057 H 
ATOM     36  H   LIG d   1      11.025   7.378  -0.601  0.00  0.00     0.057 H 
BRANCH  34  37
ATOM     37  O   LIG d   1       9.019   7.463  -1.092  0.00  0.00    -0.382 OA
BRANCH  37  38
ATOM     38  C   LIG d   1       9.085   8.879  -0.910  0.00  0.00     0.036 C 
ATOM     39  H   LIG d   1       8.078   9.294  -0.930  0.00  0.00     0.052 H 
ATOM     40  H   LIG d   1       9.551   9.100   0.050  0.00  0.00     0.052 H 
ATOM     41  H   LIG d   1       9.677   9.321  -1.712  0.00  0.00     0.052 H 
ENDBRANCH  37  38
ENDBRANCH  34  37
ENDBRANCH  31  34
ENDBRANCH  21  31
ENDBRANCH  13  16
ENDBRANCH   3  13
BRANCH   5  42
ATOM     42  C   LIG d   1       8.332  -0.059  -6.560  0.00  0.00    -0.043 C 
ATOM     43  H   LIG d   1       9.383   0.184  -6.406  0.00  0.00     0.030 H 
BRANCH  42  44
ATOM     44  C   LIG d   1       8.215  -1.460  -7.163  0.00  0.00    -0.062 C 
ATOM     45  H   LIG d   1       8.440  -1.417  -8.229  0.00  0.00     0.023 H 
ATOM     46  H   LIG d   1       8.920  -2.129  -6.670  0.00  0.00     0.023 H 
ATOM     47  H   LIG d   1       7.200  -1.833  -7.022  0.00  0.00     0.023 H 
ENDBRANCH  42  44
BRANCH  42  48
ATOM     48  C   LIG d   1       7.707   0.960  -7.515  0.00  0.00    -0.062 C 
ATOM     49  H   LIG d   1       7.112   0.438  -8.264  0.00  0.00     0.023 H 
ATOM     50  H   LIG d   1       7.069   1.641  -6.953  0.00  0.00     0.023 H 
ATOM     51  H   LIG d   1       8.497   1.526  -8.009  0.00  0.00     0.023 H 
ENDBRANCH  42  48
ENDBRANCH   5  42
BRANCH   1  52
ATOM     52  C   LIG d   1       4.943   0.971  -1.986  0.00  0.00    -0.043 C 
ATOM     53  H   LIG d   1       4.305   0.108  -1.793  0.00  0.00     0.027 H 
ATOM     54  H   LIG d   1       5.586   1.146  -1.123  0.00  0.00     0.027 H 
ATOM     55  H   LIG d   1       4.322   1.850  -2.160  0.00  0.00     0.027 H 
ENDBRANCH   1  52
BRANCH   8  56
ATOM     56  C   LIG d   1       5.946  -1.756  -3.367  0.00  0.00     0.032 C 
ATOM     57  H   LIG d   1       7.032  -1.722  -3.273  0.00  0.00     0.037 H 
ATOM     58  H   LIG d   1       5.500  -1.831  -2.375  0.00  0.00     0.037 H 
BRANCH  56  59
ATOM     59  C   LIG d   1       5.551  -2.956  -4.188  0.00  0.00     0.218 A 
ATOM     60  O   LIG d   1       6.388  -3.790  -4.827  0.00  0.00    -0.420 OA
ATOM     61  C   LIG d   1       5.616  -4.717  -5.429  0.00  0.00     0.248 A 
ATOM     62  N   LIG d   1       4.368  -4.422  -5.152  0.00  0.00    -0.107 NA
ATOM     63  N   LIG d   1       4.335  -3.371  -4.411  0.00  0.00    -0.112 NA
BRANCH  61  64
ATOM     64  C   LIG d   1       6.088  -5.851  -6.252  0.00  0.00     0.041 A 
ATOM     65  C   LIG d   1       6.840  -5.633  -7.413  0.00  0.00    -0.031 A 
ATOM     66  C   LIG d   1       7.266  -6.719  -8.147  0.00  0.00     0.028 A 
ATOM     67  H   LIG d   1       7.087  -4.629  -7.725  0.00  0.00     0.064 H 
ATOM     68  N   LIG d   1       6.965  -7.949  -7.776  0.00  0.00    -0.263 NA
ATOM     69  H   LIG d   1       7.850  -6.561  -9.042  0.00  0.00     0.083 H 
ATOM     70  C   LIG d   1       6.254  -8.199  -6.693  0.00  0.00     0.028 A 
ATOM     71  C   LIG d   1       5.793  -7.171  -5.895  0.00  0.00    -0.031 A 
ATOM     72  H   LIG d   1       6.031  -9.221  -6.427  0.00  0.00     0.083 H 
ATOM     73  H   LIG d   1       5.212  -7.383  -5.010  0.00  0.00     0.064 H 
ENDBRANCH  61  64
ENDBRANCH  56  59
ENDBRANCH   8  56
TORSDOF 13
ENDMDL
MODEL 3
REMARK VINA RESULT:      -5.8      4.653      8.158
REMARK  13 active torsions:
REMARK  status: ('A' for Active; 'I' for Inactive)
REMARK    1  A    between atoms: C_1  and  C_2 
REMARK    2  A    between atoms: C_4  and  C_26 
REMARK    3  A    between atoms: C_6  and  C_23 
REMARK    4  A    between atoms: C_9  and  C_11 
REMARK    5  A    between atoms: C_11  and  C_12 
REMARK    6  A    between atoms: C_15  and  C_17 
REMARK    7  A    between atoms: C_23  and  C_24 
REMARK    8  A    between atoms: C_23  and  C_25 
REMARK    9  A    between atoms: C_26  and  N_27 
REMARK   10  A    between atoms: N_30  and  C_33 
REMARK   11  A    between atoms: C_33  and  C_34 
REMARK   12  A    between atoms: C_34  and  O_35 
REMARK   13  A    between atoms: O_35  and  C_36 
ROOT
ATOM      1  C   LIG d   1      11.621   3.655  -4.093  0.00  0.00    -0.072 C 
ATOM      2  C   LIG d   1      12.300   4.756  -4.089  0.00  0.00    -0.076 C 
ATOM      3  C   LIG d   1      12.057   5.890  -3.137  0.00  0.00     0.021 C 
ATOM      4  H   LIG d   1      12.822   5.879  -2.360  0.00  0.00     0.040 H 
ATOM      5  C   LIG d   1      10.677   5.751  -2.493  0.00  0.00    -0.027 C 
ATOM      6  H   LIG d   1       9.904   5.946  -3.236  0.00  0.00     0.031 H 
ATOM      7  C   LIG d   1      10.532   4.320  -1.960  0.00  0.00    -0.042 C 
ATOM      8  C   LIG d   1      10.484   3.365  -3.158  0.00  0.00    -0.011 C 
ATOM      9  H   LIG d   1      10.562   2.337  -2.801  0.00  0.00     0.035 H 
ATOM     10  H   LIG d   1      13.092   4.865  -4.816  0.00  0.00     0.058 H 
ATOM     11  H   LIG d   1      11.385   4.076  -1.327  0.00  0.00     0.027 H 
ATOM     12  H   LIG d   1       9.609   4.234  -1.387  0.00  0.00     0.027 H 
ENDROOT
BRANCH   3  13
ATOM     13  C   LIG d   1      12.127   7.215  -3.899  0.00  0.00    -0.025 C 
ATOM     14  H   LIG d   1      11.814   8.028  -3.244  0.00  0.00     0.082 H 
ATOM     15  H   LIG d   1      13.151   7.390  -4.232  0.00  0.00     0.082 H 
BRANCH  13  16
ATOM     16  N   LIG d   1      11.237   7.156  -5.066  0.00  0.00     0.237 N 
ATOM     17  C   LIG d   1      12.009   7.429  -6.285  0.00  0.00    -0.019 C 
ATOM     18  C   LIG d   1      11.087   7.349  -7.504  0.00  0.00     0.039 C 
ATOM     19  H   LIG d   1      12.445   8.426  -6.225  0.00  0.00     0.083 H 
ATOM     20  H   LIG d   1      12.806   6.690  -6.384  0.00  0.00     0.083 H 
ATOM     21  N   LIG d   1      10.004   8.332  -7.358  0.00  0.00    -0.290 N 
ATOM     22  H   LIG d   1      10.662   6.348  -7.573  0.00  0.00     0.048 H 
ATOM     23  H   LIG d   1      11.657   7.566  -8.406  0.00  0.00     0.048 H 
ATOM     24  C   LIG d   1       9.237   8.087  -6.129  0.00  0.00     0.039 C 
ATOM     25  C   LIG d   1      10.176   8.162  -4.923  0.00  0.00    -0.019 C 
ATOM     26  H   LIG d   1       8.781   7.098  -6.176  0.00  0.00     0.048 H 
ATOM     27  H   LIG d   1       8.457   8.844  -6.031  0.00  0.00     0.048 H 
ATOM     28  H   LIG d   1       9.611   7.965  -4.011  0.00  0.00     0.083 H 
ATOM     29  H   LIG d   1      10.620   9.155  -4.869  0.00  0.00     0.083 H 
ATOM     30  H   LIG d   1      10.824   6.238  -5.128  0.00  0.00     0.203 HD
BRANCH  21  31
ATOM     31  C   LIG d   1       9.126   8.326  -8.537  0.00  0.00     0.023 C 
ATOM     32  H   LIG d   1       8.094   8.174  -8.219  0.00  0.00     0.045 H 
ATOM     33  H   LIG d   1       9.209   9.281  -9.056  0.00  0.00     0.045 H 
BRANCH  31  34
ATOM     34  C   LIG d   1       9.543   7.195  -9.479  0.00  0.00     0.060 C 
ATOM     35  H   LIG d   1       9.823   7.613 -10.446  0.00  0.00     0.057 H 
ATOM     36  H   LIG d   1      10.393   6.663  -9.052  0.00  0.00     0.057 H 
BRANCH  34  37
ATOM     37  O   LIG d   1       8.450   6.289  -9.649  0.00  0.00    -0.382 OA
BRANCH  37  38
ATOM     38  C   LIG d   1       8.793   4.919  -9.437  0.00  0.00     0.036 C 
ATOM     39  H   LIG d   1       7.902   4.363  -9.145  0.00  0.00     0.052 H 
ATOM     40  H   LIG d   1       9.198   4.499 -10.358  0.00  0.00     0.052 H 
ATOM     41  H   LIG d   1       9.540   4.849  -8.646  0.00  0.00     0.052 H 
ENDBRANCH  37  38
ENDBRANCH  34  37
ENDBRANCH  31  34
ENDBRANCH  21  31
ENDBRANCH  13  16
ENDBRANCH   3  13
BRANCH   5  42
ATOM     42  C   LIG d   1      10.545   6.749  -1.340  0.00  0.00    -0.043 C 
ATOM     43  H   LIG d   1      11.320   7.509  -1.427  0.00  0.00     0.030 H 
BRANCH  42  44
ATOM     44  C   LIG d   1       9.168   7.415  -1.399  0.00  0.00    -0.062 C 
ATOM     45  H   LIG d   1       9.263   8.469  -1.136  0.00  0.00     0.023 H 
ATOM     46  H   LIG d   1       8.764   7.327  -2.407  0.00  0.00     0.023 H 
ATOM     47  H   LIG d   1       8.497   6.924  -0.693  0.00  0.00     0.023 H 
ENDBRANCH  42  44
BRANCH  42  48
ATOM     48  C   LIG d   1      10.698   6.013  -0.008  0.00  0.00    -0.062 C 
ATOM     49  H   LIG d   1      11.652   6.280   0.446  0.00  0.00     0.023 H 
ATOM     50  H   LIG d   1       9.885   6.297   0.660  0.00  0.00     0.023 H 
ATOM     51  H   LIG d   1      10.666   4.937  -0.181  0.00  0.00     0.023 H 
ENDBRANCH  42  48
ENDBRANCH   5  42
BRANCH   1  52
ATOM     52  C   LIG d   1      11.989   2.600  -5.105  0.00  0.00    -0.043 C 
ATOM     53  H   LIG d   1      12.811   1.997  -4.719  0.00  0.00     0.027 H 
ATOM     54  H   LIG d   1      11.128   1.960  -5.294  0.00  0.00     0.027 H 
ATOM     55  H   LIG d   1      12.296   3.080  -6.035  0.00  0.00     0.027 H 
ENDBRANCH   1  52
BRANCH   8  56
ATOM     56  C   LIG d   1       9.158   3.540  -3.900  0.00  0.00     0.032 C 
ATOM     57  H   LIG d   1       8.575   4.327  -3.422  0.00  0.00     0.037 H 
ATOM     58  H   LIG d   1       9.356   3.816  -4.937  0.00  0.00     0.037 H 
BRANCH  56  59
ATOM     59  C   LIG d   1       8.385   2.248  -3.862  0.00  0.00     0.218 A 
ATOM     60  O   LIG d   1       7.120   2.093  -3.437  0.00  0.00    -0.420 OA
ATOM     61  C   LIG d   1       6.829   0.784  -3.578  0.00  0.00     0.248 A 
ATOM     62  N   LIG d   1       7.898   0.199  -4.064  0.00  0.00    -0.107 NA
ATOM     63  N   LIG d   1       8.823   1.076  -4.232  0.00  0.00    -0.112 NA
BRANCH  61  64
ATOM     64  C   LIG d   1       5.546   0.131  -3.244  0.00  0.00     0.041 A 
ATOM     65  C   LIG d   1       4.397   0.890  -2.990  0.00  0.00    -0.031 A 
ATOM     66  C   LIG d   1       3.219   0.240  -2.687  0.00  0.00     0.028 A 
ATOM     67  H   LIG d   1       4.432   1.969  -3.035  0.00  0.00     0.064 H 
ATOM     68  N   LIG d   1       3.168  -1.077  -2.625  0.00  0.00    -0.263 NA
ATOM     69  H   LIG d   1       2.326   0.817  -2.494  0.00  0.00     0.083 H 
ATOM     70  C   LIG d   1       4.228  -1.830  -2.851  0.00  0.00     0.028 A 
ATOM     71  C   LIG d   1       5.446  -1.263  -3.167  0.00  0.00    -0.031 A 
ATOM     72  H   LIG d   1       4.140  -2.904  -2.789  0.00  0.00     0.083 H 
ATOM     73  H   LIG d   1       6.308  -1.885  -3.352  0.00  0.00     0.064 H 
ENDBRANCH  61  64
ENDBRANCH  56  59
ENDBRANCH   8  56
TORSDOF 13
ENDMDL
MODEL 4
REMARK VINA RESULT:      -5.7      1.997      2.765
REMARK  13 active torsions:
REMARK  status: ('A' for Active; 'I' for Inactive)
REMARK    1  A    between atoms: C_1  and  C_2 
REMARK    2  A    between atoms: C_4  and  C_26 
REMARK    3  A    between atoms: C_6  and  C_23 
REMARK    4  A    between atoms: C_9  and  C_11 
REMARK    5  A    between atoms: C_11  and  C_12 
REMARK    6  A    between atoms: C_15  and  C_17 
REMARK    7  A    between atoms: C_23  and  C_24 
REMARK    8  A    between atoms: C_23  and  C_25 
REMARK    9  A    between atoms: C_26  and  N_27 
REMARK   10  A    between atoms: N_30  and  C_33 
REMARK   11  A    between atoms: C_33  and  C_34 
REMARK   12  A    between atoms: C_34  and  O_35 
REMARK   13  A    between atoms: O_35  and  C_36 
ROOT
ATOM      1  C   LIG d   1       6.529  -3.551  -5.264  0.00  0.00    -0.072 C 
ATOM      2  C   LIG d   1       6.935  -2.327  -5.362  0.00  0.00    -0.076 C 
ATOM      3  C   LIG d   1       6.099  -1.132  -5.007  0.00  0.00     0.021 C 
ATOM      4  H   LIG d   1       6.418  -0.743  -4.040  0.00  0.00     0.040 H 
ATOM      5  C   LIG d   1       4.623  -1.526  -4.934  0.00  0.00    -0.027 C 
ATOM      6  H   LIG d   1       4.250  -1.739  -5.935  0.00  0.00     0.031 H 
ATOM      7  C   LIG d   1       4.497  -2.780  -4.059  0.00  0.00    -0.042 C 
ATOM      8  C   LIG d   1       5.160  -3.948  -4.797  0.00  0.00    -0.011 C 
ATOM      9  H   LIG d   1       5.241  -4.800  -4.121  0.00  0.00     0.035 H 
ATOM     10  H   LIG d   1       7.939  -2.153  -5.722  0.00  0.00     0.058 H 
ATOM     11  H   LIG d   1       4.998  -2.613  -3.105  0.00  0.00     0.027 H 
ATOM     12  H   LIG d   1       3.445  -3.005  -3.890  0.00  0.00     0.027 H 
ENDROOT
BRANCH   3  13
ATOM     13  C   LIG d   1       6.281  -0.051  -6.074  0.00  0.00    -0.025 C 
ATOM     14  H   LIG d   1       6.663  -0.503  -6.989  0.00  0.00     0.082 H 
ATOM     15  H   LIG d   1       5.321   0.426  -6.276  0.00  0.00     0.082 H 
BRANCH  13  16
ATOM     16  N   LIG d   1       7.234   0.957  -5.592  0.00  0.00     0.237 N 
ATOM     17  C   LIG d   1       8.535   0.751  -6.241  0.00  0.00    -0.019 C 
ATOM     18  C   LIG d   1       9.524   1.813  -5.754  0.00  0.00     0.039 C 
ATOM     19  H   LIG d   1       8.914  -0.240  -5.992  0.00  0.00     0.083 H 
ATOM     20  H   LIG d   1       8.418   0.833  -7.323  0.00  0.00     0.083 H 
ATOM     21  N   LIG d   1       9.664   1.712  -4.294  0.00  0.00    -0.290 N 
ATOM     22  H   LIG d   1       9.153   2.803  -6.015  0.00  0.00     0.048 H 
ATOM     23  H   LIG d   1      10.493   1.650  -6.224  0.00  0.00     0.048 H 
ATOM     24  C   LIG d   1       8.366   1.891  -3.630  0.00  0.00     0.039 C 
ATOM     25  C   LIG d   1       7.387   0.829  -4.136  0.00  0.00    -0.019 C 
ATOM     26  H   LIG d   1       7.976   2.883  -3.857  0.00  0.00     0.048 H 
ATOM     27  H   LIG d   1       8.491   1.787  -2.552  0.00  0.00     0.048 H 
ATOM     28  H   LIG d   1       6.418   0.969  -3.656  0.00  0.00     0.083 H 
ATOM     29  H   LIG d   1       7.771  -0.162  -3.897  0.00  0.00     0.083 H 
ATOM     30  H   LIG d   1       6.890   1.879  -5.813  0.00  0.00     0.203 HD
BRANCH  21  31
ATOM     31  C   LIG d   1      10.650   2.679  -3.792  0.00  0.00     0.023 C 
ATOM     32  H   LIG d   1      11.337   2.175  -3.109  0.00  0.00     0.045 H 
ATOM     33  H   LIG d   1      11.210   3.095  -4.629  0.00  0.00     0.045 H 
BRANCH  31  34
ATOM     34  C   LIG d   1       9.928   3.805  -3.050  0.00  0.00     0.060 C 
ATOM     35  H   LIG d   1       9.641   4.581  -3.760  0.00  0.00     0.057 H 
ATOM     36  H   LIG d   1       9.037   3.407  -2.566  0.00  0.00     0.057 H 
BRANCH  34  37
ATOM     37  O   LIG d   1      10.799   4.361  -2.063  0.00  0.00    -0.382 OA
BRANCH  37  38
ATOM     38  C   LIG d   1      10.362   5.618  -1.544  0.00  0.00     0.036 C 
ATOM     39  H   LIG d   1      10.281   5.555  -0.459  0.00  0.00     0.052 H 
ATOM     40  H   LIG d   1      11.082   6.392  -1.810  0.00  0.00     0.052 H 
ATOM     41  H   LIG d   1       9.388   5.867  -1.966  0.00  0.00     0.052 H 
ENDBRANCH  37  38
ENDBRANCH  34  37
ENDBRANCH  31  34
ENDBRANCH  21  31
ENDBRANCH  13  16
ENDBRANCH   3  13
BRANCH   5  42
ATOM     42  C   LIG d   1       3.815  -0.381  -4.318  0.00  0.00    -0.043 C 
ATOM     43  H   LIG d   1       4.487   0.432  -4.047  0.00  0.00     0.030 H 
BRANCH  42  44
ATOM     44  C   LIG d   1       2.788   0.122  -5.335  0.00  0.00    -0.062 C 
ATOM     45  H   LIG d   1       2.679   1.202  -5.237  0.00  0.00     0.023 H 
ATOM     46  H   LIG d   1       3.126  -0.118  -6.343  0.00  0.00     0.023 H 
ATOM     47  H   LIG d   1       1.827  -0.358  -5.149  0.00  0.00     0.023 H 
ENDBRANCH  42  44
BRANCH  42  48
ATOM     48  C   LIG d   1       3.090  -0.883  -3.068  0.00  0.00    -0.062 C 
ATOM     49  H   LIG d   1       2.016  -0.750  -3.194  0.00  0.00     0.023 H 
ATOM     50  H   LIG d   1       3.310  -1.940  -2.920  0.00  0.00     0.023 H 
ATOM     51  H   LIG d   1       3.427  -0.317  -2.200  0.00  0.00     0.023 H 
ENDBRANCH  42  48
ENDBRANCH   5  42
BRANCH   1  52
ATOM     52  C   LIG d   1       7.489  -4.647  -5.649  0.00  0.00    -0.043 C 
ATOM     53  H   LIG d   1       6.948  -5.443  -6.160  0.00  0.00     0.027 H 
ATOM     54  H   LIG d   1       8.254  -4.244  -6.313  0.00  0.00     0.027 H 
ATOM     55  H   LIG d   1       7.963  -5.048  -4.751  0.00  0.00     0.027 H 
ENDBRANCH   1  52
BRANCH   8  56
ATOM     56  C   LIG d   1       4.307  -4.342  -6.003  0.00  0.00     0.032 C 
ATOM     57  H   LIG d   1       3.276  -4.025  -5.839  0.00  0.00     0.037 H 
ATOM     58  H   LIG d   1       4.697  -3.857  -6.898  0.00  0.00     0.037 H 
BRANCH  56  59
ATOM     59  C   LIG d   1       4.349  -5.837  -6.183  0.00  0.00     0.218 A 
ATOM     60  O   LIG d   1       4.732  -6.737  -5.261  0.00  0.00    -0.420 OA
ATOM     61  C   LIG d   1       4.613  -7.949  -5.838  0.00  0.00     0.248 A 
ATOM     62  N   LIG d   1       4.181  -7.755  -7.062  0.00  0.00    -0.107 NA
ATOM     63  N   LIG d   1       4.025  -6.494  -7.262  0.00  0.00    -0.112 NA
BRANCH  61  64
ATOM     64  C   LIG d   1       4.917  -9.252  -5.211  0.00  0.00     0.041 A 
ATOM     65  C   LIG d   1       5.840 -10.132  -5.791  0.00  0.00    -0.031 A 
ATOM     66  C   LIG d   1       6.098 -11.335  -5.169  0.00  0.00     0.028 A 
ATOM     67  H   LIG d   1       6.344  -9.869  -6.709  0.00  0.00     0.064 H 
ATOM     68  N   LIG d   1       5.483 -11.666  -4.049  0.00  0.00    -0.263 NA
ATOM     69  H   LIG d   1       6.811 -12.018  -5.606  0.00  0.00     0.083 H 
ATOM     70  C   LIG d   1       4.603 -10.869  -3.472  0.00  0.00     0.028 A 
ATOM     71  C   LIG d   1       4.289  -9.644  -4.023  0.00  0.00    -0.031 A 
ATOM     72  H   LIG d   1       4.123 -11.181  -2.557  0.00  0.00     0.083 H 
ATOM     73  H   LIG d   1       3.569  -8.997  -3.546  0.00  0.00     0.064 H 
ENDBRANCH  61  64
ENDBRANCH  56  59
ENDBRANCH   8  56
TORSDOF 13
ENDMDL
MODEL 5
REMARK VINA RESULT:      -5.7      2.265      9.894
REMARK  13 active torsions:
REMARK  status: ('A' for Active; 'I' for Inactive)
REMARK    1  A    between atoms: C_1  and  C_2 
REMARK    2  A    between atoms: C_4  and  C_26 
REMARK    3  A    between atoms: C_6  and  C_23 
REMARK    4  A    between atoms: C_9  and  C_11 
REMARK    5  A    between atoms: C_11  and  C_12 
REMARK    6  A    between atoms: C_15  and  C_17 
REMARK    7  A    between atoms: C_23  and  C_24 
REMARK    8  A    between atoms: C_23  and  C_25 
REMARK    9  A    between atoms: C_26  and  N_27 
REMARK   10  A    between atoms: N_30  and  C_33 
REMARK   11  A    between atoms: C_33  and  C_34 
REMARK   12  A    between atoms: C_34  and  O_35 
REMARK   13  A    between atoms: O_35  and  C_36 
ROOT
ATOM      1  C   LIG d   1       5.223  -1.403  -2.898  0.00  0.00    -0.072 C 
ATOM      2  C   LIG d   1       4.767  -2.345  -3.658  0.00  0.00    -0.076 C 
ATOM      3  C   LIG d   1       5.429  -2.797  -4.927  0.00  0.00     0.021 C 
ATOM      4  H   LIG d   1       5.950  -3.737  -4.747  0.00  0.00     0.040 H 
ATOM      5  C   LIG d   1       6.431  -1.743  -5.402  0.00  0.00    -0.027 C 
ATOM      6  H   LIG d   1       5.896  -0.864  -5.759  0.00  0.00     0.031 H 
ATOM      7  C   LIG d   1       7.328  -1.358  -4.219  0.00  0.00    -0.042 C 
ATOM      8  C   LIG d   1       6.469  -0.619  -3.188  0.00  0.00    -0.011 C 
ATOM      9  H   LIG d   1       7.041  -0.495  -2.267  0.00  0.00     0.035 H 
ATOM     10  H   LIG d   1       3.852  -2.838  -3.361  0.00  0.00     0.058 H 
ATOM     11  H   LIG d   1       7.751  -2.257  -3.772  0.00  0.00     0.027 H 
ATOM     12  H   LIG d   1       8.128  -0.703  -4.564  0.00  0.00     0.027 H 
ENDROOT
BRANCH   3  13
ATOM     13  C   LIG d   1       4.365  -3.006  -6.007  0.00  0.00    -0.025 C 
ATOM     14  H   LIG d   1       3.447  -2.495  -5.716  0.00  0.00     0.082 H 
ATOM     15  H   LIG d   1       4.723  -2.600  -6.954  0.00  0.00     0.082 H 
BRANCH  13  16
ATOM     16  N   LIG d   1       4.099  -4.442  -6.160  0.00  0.00     0.237 N 
ATOM     17  C   LIG d   1       5.115  -5.209  -5.429  0.00  0.00    -0.019 C 
ATOM     18  C   LIG d   1       4.827  -6.706  -5.572  0.00  0.00     0.039 C 
ATOM     19  H   LIG d   1       6.101  -4.988  -5.836  0.00  0.00     0.083 H 
ATOM     20  H   LIG d   1       5.088  -4.934  -4.373  0.00  0.00     0.083 H 
ATOM     21  N   LIG d   1       4.846  -7.069  -6.996  0.00  0.00    -0.290 N 
ATOM     22  H   LIG d   1       3.848  -6.930  -5.152  0.00  0.00     0.048 H 
ATOM     23  H   LIG d   1       5.590  -7.275  -5.041  0.00  0.00     0.048 H 
ATOM     24  C   LIG d   1       3.850  -6.292  -7.747  0.00  0.00     0.039 C 
ATOM     25  C   LIG d   1       4.147  -4.799  -7.585  0.00  0.00    -0.019 C 
ATOM     26  H   LIG d   1       2.854  -6.509  -7.362  0.00  0.00     0.048 H 
ATOM     27  H   LIG d   1       3.900  -6.560  -8.803  0.00  0.00     0.048 H 
ATOM     28  H   LIG d   1       3.400  -4.219  -8.129  0.00  0.00     0.083 H 
ATOM     29  H   LIG d   1       5.137  -4.580  -7.981  0.00  0.00     0.083 H 
ATOM     30  H   LIG d   1       3.185  -4.657  -5.791  0.00  0.00     0.203 HD
BRANCH  21  31
ATOM     31  C   LIG d   1       4.629  -8.512  -7.174  0.00  0.00     0.023 C 
ATOM     32  H   LIG d   1       3.574  -8.698  -7.376  0.00  0.00     0.045 H 
ATOM     33  H   LIG d   1       5.229  -8.869  -8.011  0.00  0.00     0.045 H 
BRANCH  31  34
ATOM     34  C   LIG d   1       5.043  -9.251  -5.899  0.00  0.00     0.060 C 
ATOM     35  H   LIG d   1       5.939  -9.839  -6.096  0.00  0.00     0.057 H 
ATOM     36  H   LIG d   1       5.248  -8.527  -5.111  0.00  0.00     0.057 H 
BRANCH  34  37
ATOM     37  O   LIG d   1       3.985 -10.119  -5.487  0.00  0.00    -0.382 OA
BRANCH  37  38
ATOM     38  C   LIG d   1       4.062 -10.519  -4.117  0.00  0.00     0.036 C 
ATOM     39  H   LIG d   1       4.969 -10.112  -3.671  0.00  0.00     0.052 H 
ATOM     40  H   LIG d   1       3.192 -10.144  -3.580  0.00  0.00     0.052 H 
ATOM     41  H   LIG d   1       4.085 -11.608  -4.058  0.00  0.00     0.052 H 
ENDBRANCH  37  38
ENDBRANCH  34  37
ENDBRANCH  31  34
ENDBRANCH  21  31
ENDBRANCH  13  16
ENDBRANCH   3  13
BRANCH   5  42
ATOM     42  C   LIG d   1       7.284  -2.320  -6.534  0.00  0.00    -0.043 C 
ATOM     43  H   LIG d   1       6.646  -2.862  -7.231  0.00  0.00     0.030 H 
BRANCH  42  44
ATOM     44  C   LIG d   1       7.991  -1.180  -7.271  0.00  0.00    -0.062 C 
ATOM     45  H   LIG d   1       9.069  -1.277  -7.142  0.00  0.00     0.023 H 
ATOM     46  H   LIG d   1       7.746  -1.226  -8.332  0.00  0.00     0.023 H 
ATOM     47  H   LIG d   1       7.661  -0.224  -6.862  0.00  0.00     0.023 H 
ENDBRANCH  42  44
BRANCH  42  48
ATOM     48  C   LIG d   1       8.329  -3.273  -5.951  0.00  0.00    -0.062 C 
ATOM     49  H   LIG d   1       7.839  -4.188  -5.618  0.00  0.00     0.023 H 
ATOM     50  H   LIG d   1       9.068  -3.514  -6.715  0.00  0.00     0.023 H 
ATOM     51  H   LIG d   1       8.823  -2.797  -5.104  0.00  0.00     0.023 H 
ENDBRANCH  42  48
ENDBRANCH   5  42
BRANCH   1  52
ATOM     52  C   LIG d   1       4.452  -1.068  -1.647  0.00  0.00    -0.043 C 
ATOM     53  H   LIG d   1       3.399  -0.932  -1.894  0.00  0.00     0.027 H 
ATOM     54  H   LIG d   1       4.554  -1.880  -0.928  0.00  0.00     0.027 H 
ATOM     55  H   LIG d   1       4.845  -0.148  -1.213  0.00  0.00     0.027 H 
ENDBRANCH   1  52
BRANCH   8  56
ATOM     56  C   LIG d   1       6.087   0.759  -3.731  0.00  0.00     0.032 C 
ATOM     57  H   LIG d   1       5.465   0.640  -4.618  0.00  0.00     0.037 H 
ATOM     58  H   LIG d   1       5.532   1.308  -2.970  0.00  0.00     0.037 H 
BRANCH  56  59
ATOM     59  C   LIG d   1       7.335   1.522  -4.091  0.00  0.00     0.218 A 
ATOM     60  O   LIG d   1       8.233   2.027  -3.229  0.00  0.00    -0.420 OA
ATOM     61  C   LIG d   1       9.184   2.624  -3.975  0.00  0.00     0.248 A 
ATOM     62  N   LIG d   1       8.841   2.474  -5.233  0.00  0.00    -0.107 NA
ATOM     63  N   LIG d   1       7.738   1.816  -5.297  0.00  0.00    -0.112 NA
BRANCH  61  64
ATOM     64  C   LIG d   1      10.386   3.320  -3.470  0.00  0.00     0.041 A 
ATOM     65  C   LIG d   1      10.280   4.326  -2.501  0.00  0.00    -0.031 A 
ATOM     66  C   LIG d   1      11.428   4.945  -2.053  0.00  0.00     0.028 A 
ATOM     67  H   LIG d   1       9.315   4.607  -2.107  0.00  0.00     0.064 H 
ATOM     68  N   LIG d   1      12.611   4.610  -2.532  0.00  0.00    -0.263 NA
ATOM     69  H   LIG d   1      11.357   5.719  -1.302  0.00  0.00     0.083 H 
ATOM     70  C   LIG d   1      12.755   3.673  -3.449  0.00  0.00     0.028 A 
ATOM     71  C   LIG d   1      11.660   2.997  -3.949  0.00  0.00    -0.031 A 
ATOM     72  H   LIG d   1      13.742   3.431  -3.813  0.00  0.00     0.083 H 
ATOM     73  H   LIG d   1      11.785   2.231  -4.699  0.00  0.00     0.064 H 
ENDBRANCH  61  64
ENDBRANCH  56  59
ENDBRANCH   8  56
TORSDOF 13
ENDMDL
MODEL 6
REMARK VINA RESULT:      -5.7      4.228      5.695
REMARK  13 active torsions:
REMARK  status: ('A' for Active; 'I' for Inactive)
REMARK    1  A    between atoms: C_1  and  C_2 
REMARK    2  A    between atoms: C_4  and  C_26 
REMARK    3  A    between atoms: C_6  and  C_23 
REMARK    4  A    between atoms: C_9  and  C_11 
REMARK    5  A    between atoms: C_11  and  C_12 
REMARK    6  A    between atoms: C_15  and  C_17 
REMARK    7  A    between atoms: C_23  and  C_24 
REMARK    8  A    between atoms: C_23  and  C_25 
REMARK    9  A    between atoms: C_26  and  N_27 
REMARK   10  A    between atoms: N_30  and  C_33 
REMARK   11  A    between atoms: C_33  and  C_34 
REMARK   12  A    between atoms: C_34  and  O_35 
REMARK   13  A    between atoms: O_35  and  C_36 
ROOT
ATOM      1  C   LIG d   1       5.958  -2.298  -6.507  0.00  0.00    -0.072 C 
ATOM      2  C   LIG d   1       6.876  -2.379  -5.598  0.00  0.00    -0.076 C 
ATOM      3  C   LIG d   1       6.640  -2.116  -4.140  0.00  0.00     0.021 C 
ATOM      4  H   LIG d   1       6.584  -3.065  -3.606  0.00  0.00     0.040 H 
ATOM      5  C   LIG d   1       5.331  -1.349  -3.948  0.00  0.00    -0.027 C 
ATOM      6  H   LIG d   1       5.446  -0.330  -4.318  0.00  0.00     0.031 H 
ATOM      7  C   LIG d   1       4.228  -2.064  -4.739  0.00  0.00    -0.042 C 
ATOM      8  C   LIG d   1       4.534  -1.913  -6.232  0.00  0.00    -0.011 C 
ATOM      9  H   LIG d   1       3.868  -2.562  -6.803  0.00  0.00     0.035 H 
ATOM     10  H   LIG d   1       7.874  -2.654  -5.909  0.00  0.00     0.058 H 
ATOM     11  H   LIG d   1       4.210  -3.120  -4.469  0.00  0.00     0.027 H 
ATOM     12  H   LIG d   1       3.263  -1.609  -4.516  0.00  0.00     0.027 H 
ENDROOT
BRANCH   3  13
ATOM     13  C   LIG d   1       7.798  -1.287  -3.580  0.00  0.00    -0.025 C 
ATOM     14  H   LIG d   1       7.547  -0.941  -2.578  0.00  0.00     0.082 H 
ATOM     15  H   LIG d   1       8.698  -1.901  -3.539  0.00  0.00     0.082 H 
BRANCH  13  16
ATOM     16  N   LIG d   1       8.036  -0.129  -4.452  0.00  0.00     0.237 N 
ATOM     17  C   LIG d   1       9.408  -0.183  -4.973  0.00  0.00    -0.019 C 
ATOM     18  C   LIG d   1       9.651   1.013  -5.897  0.00  0.00     0.039 C 
ATOM     19  H   LIG d   1      10.114  -0.150  -4.144  0.00  0.00     0.083 H 
ATOM     20  H   LIG d   1       9.548  -1.108  -5.533  0.00  0.00     0.083 H 
ATOM     21  N   LIG d   1       9.443   2.258  -5.144  0.00  0.00    -0.290 N 
ATOM     22  H   LIG d   1       8.955   0.974  -6.734  0.00  0.00     0.048 H 
ATOM     23  H   LIG d   1      10.674   0.981  -6.271  0.00  0.00     0.048 H 
ATOM     24  C   LIG d   1       8.082   2.316  -4.595  0.00  0.00     0.039 C 
ATOM     25  C   LIG d   1       7.852   1.109  -3.682  0.00  0.00    -0.019 C 
ATOM     26  H   LIG d   1       7.359   2.298  -5.411  0.00  0.00     0.048 H 
ATOM     27  H   LIG d   1       7.960   3.235  -4.020  0.00  0.00     0.048 H 
ATOM     28  H   LIG d   1       6.837   1.141  -3.285  0.00  0.00     0.083 H 
ATOM     29  H   LIG d   1       8.565   1.134  -2.859  0.00  0.00     0.083 H 
ATOM     30  H   LIG d   1       7.384  -0.146  -5.221  0.00  0.00     0.203 HD
BRANCH  21  31
ATOM     31  C   LIG d   1       9.723   3.433  -5.982  0.00  0.00     0.023 C 
ATOM     32  H   LIG d   1      10.755   3.391  -6.332  0.00  0.00     0.045 H 
ATOM     33  H   LIG d   1       9.048   3.437  -6.838  0.00  0.00     0.045 H 
BRANCH  31  34
ATOM     34  C   LIG d   1       9.514   4.707  -5.160  0.00  0.00     0.060 C 
ATOM     35  H   LIG d   1       9.566   5.575  -5.819  0.00  0.00     0.057 H 
ATOM     36  H   LIG d   1       8.537   4.672  -4.680  0.00  0.00     0.057 H 
BRANCH  34  37
ATOM     37  O   LIG d   1      10.533   4.804  -4.163  0.00  0.00    -0.382 OA
BRANCH  37  38
ATOM     38  C   LIG d   1      10.033   5.004  -2.840  0.00  0.00     0.036 C 
ATOM     39  H   LIG d   1       9.216   4.309  -2.651  0.00  0.00     0.052 H 
ATOM     40  H   LIG d   1      10.832   4.830  -2.120  0.00  0.00     0.052 H 
ATOM     41  H   LIG d   1       9.670   6.027  -2.739  0.00  0.00     0.052 H 
ENDBRANCH  37  38
ENDBRANCH  34  37
ENDBRANCH  31  34
ENDBRANCH  21  31
ENDBRANCH  13  16
ENDBRANCH   3  13
BRANCH   5  42
ATOM     42  C   LIG d   1       4.966  -1.317  -2.462  0.00  0.00    -0.043 C 
ATOM     43  H   LIG d   1       5.804  -1.689  -1.874  0.00  0.00     0.030 H 
BRANCH  42  44
ATOM     44  C   LIG d   1       4.649   0.120  -2.045  0.00  0.00    -0.062 C 
ATOM     45  H   LIG d   1       3.575   0.292  -2.121  0.00  0.00     0.023 H 
ATOM     46  H   LIG d   1       4.971   0.280  -1.016  0.00  0.00     0.023 H 
ATOM     47  H   LIG d   1       5.174   0.814  -2.703  0.00  0.00     0.023 H 
ENDBRANCH  42  44
BRANCH  42  48
ATOM     48  C   LIG d   1       3.740  -2.200  -2.219  0.00  0.00    -0.062 C 
ATOM     49  H   LIG d   1       3.064  -2.123  -3.069  0.00  0.00     0.023 H 
ATOM     50  H   LIG d   1       4.057  -3.236  -2.099  0.00  0.00     0.023 H 
ATOM     51  H   LIG d   1       3.228  -1.869  -1.315  0.00  0.00     0.023 H 
ENDBRANCH  42  48
ENDBRANCH   5  42
BRANCH   1  52
ATOM     52  C   LIG d   1       6.346  -2.603  -7.931  0.00  0.00    -0.043 C 
ATOM     53  H   LIG d   1       5.492  -3.030  -8.458  0.00  0.00     0.027 H 
ATOM     54  H   LIG d   1       6.655  -1.683  -8.429  0.00  0.00     0.027 H 
ATOM     55  H   LIG d   1       7.171  -3.315  -7.939  0.00  0.00     0.027 H 
ENDBRANCH   1  52
BRANCH   8  56
ATOM     56  C   LIG d   1       4.310  -0.462  -6.658  0.00  0.00     0.032 C 
ATOM     57  H   LIG d   1       3.866   0.095  -5.832  0.00  0.00     0.037 H 
ATOM     58  H   LIG d   1       5.265  -0.010  -6.927  0.00  0.00     0.037 H 
BRANCH  56  59
ATOM     59  C   LIG d   1       3.383  -0.423  -7.845  0.00  0.00     0.218 A 
ATOM     60  O   LIG d   1       2.956  -1.482  -8.553  0.00  0.00    -0.420 OA
ATOM     61  C   LIG d   1       2.148  -0.995  -9.516  0.00  0.00     0.248 A 
ATOM     62  N   LIG d   1       2.114   0.309  -9.373  0.00  0.00    -0.107 NA
ATOM     63  N   LIG d   1       2.853   0.645  -8.375  0.00  0.00    -0.112 NA
BRANCH  61  64
ATOM     64  C   LIG d   1       1.436  -1.784 -10.544  0.00  0.00     0.041 A 
ATOM     65  C   LIG d   1       1.005  -1.189 -11.736  0.00  0.00    -0.031 A 
ATOM     66  C   LIG d   1       0.349  -1.963 -12.670  0.00  0.00     0.028 A 
ATOM     67  H   LIG d   1       1.187  -0.141 -11.922  0.00  0.00     0.064 H 
ATOM     68  N   LIG d   1       0.118  -3.243 -12.449  0.00  0.00    -0.263 NA
ATOM     69  H   LIG d   1       0.017  -1.514 -13.595  0.00  0.00     0.083 H 
ATOM     70  C   LIG d   1       0.502  -3.842 -11.337  0.00  0.00     0.028 A 
ATOM     71  C   LIG d   1       1.170  -3.144 -10.351  0.00  0.00    -0.031 A 
ATOM     72  H   LIG d   1       0.292  -4.891 -11.198  0.00  0.00     0.083 H 
ATOM     73  H   LIG d   1       1.481  -3.640  -9.445  0.00  0.00     0.064 H 
ENDBRANCH  61  64
ENDBRANCH  56  59
ENDBRANCH   8  56
TORSDOF 13
ENDMDL
MODEL 7
REMARK VINA RESULT:      -5.6      5.349      8.787
REMARK  13 active torsions:
REMARK  status: ('A' for Active; 'I' for Inactive)
REMARK    1  A    between atoms: C_1  and  C_2 
REMARK    2  A    between atoms: C_4  and  C_26 
REMARK    3  A    between atoms: C_6  and  C_23 
REMARK    4  A    between atoms: C_9  and  C_11 
REMARK    5  A    between atoms: C_11  and  C_12 
REMARK    6  A    between atoms: C_15  and  C_17 
REMARK    7  A    between atoms: C_23  and  C_24 
REMARK    8  A    between atoms: C_23  and  C_25 
REMARK    9  A    between atoms: C_26  and  N_27 
REMARK   10  A    between atoms: N_30  and  C_33 
REMARK   11  A    between atoms: C_33  and  C_34 
REMARK   12  A    between atoms: C_34  and  O_35 
REMARK   13  A    between atoms: O_35  and  C_36 
ROOT
ATOM      1  C   LIG d   1      12.134   3.448  -3.847  0.00  0.00    -0.072 C 
ATOM      2  C   LIG d   1      12.965   4.404  -3.584  0.00  0.00    -0.076 C 
ATOM      3  C   LIG d   1      12.664   5.551  -2.663  0.00  0.00     0.021 C 
ATOM      4  H   LIG d   1      13.163   5.387  -1.708  0.00  0.00     0.040 H 
ATOM      5  C   LIG d   1      11.155   5.661  -2.434  0.00  0.00    -0.027 C 
ATOM      6  H   LIG d   1      10.671   6.006  -3.347  0.00  0.00     0.031 H 
ATOM      7  C   LIG d   1      10.619   4.274  -2.058  0.00  0.00    -0.042 C 
ATOM      8  C   LIG d   1      10.746   3.362  -3.282  0.00  0.00    -0.011 C 
ATOM      9  H   LIG d   1      10.540   2.332  -2.986  0.00  0.00     0.035 H 
ATOM     10  H   LIG d   1      13.937   4.375  -4.055  0.00  0.00     0.058 H 
ATOM     11  H   LIG d   1      11.202   3.868  -1.231  0.00  0.00     0.027 H 
ATOM     12  H   LIG d   1       9.571   4.353  -1.769  0.00  0.00     0.027 H 
ENDROOT
BRANCH   3  13
ATOM     13  C   LIG d   1      13.176   6.850  -3.287  0.00  0.00    -0.025 C 
ATOM     14  H   LIG d   1      13.306   7.601  -2.508  0.00  0.00     0.082 H 
ATOM     15  H   LIG d   1      14.132   6.666  -3.779  0.00  0.00     0.082 H 
BRANCH  13  16
ATOM     16  N   LIG d   1      12.204   7.334  -4.276  0.00  0.00     0.237 N 
ATOM     17  C   LIG d   1      12.746   7.146  -5.628  0.00  0.00    -0.019 C 
ATOM     18  C   LIG d   1      11.726   7.632  -6.660  0.00  0.00     0.039 C 
ATOM     19  H   LIG d   1      13.669   7.716  -5.733  0.00  0.00     0.083 H 
ATOM     20  H   LIG d   1      12.952   6.087  -5.792  0.00  0.00     0.083 H 
ATOM     21  N   LIG d   1      11.436   9.053  -6.424  0.00  0.00    -0.290 N 
ATOM     22  H   LIG d   1      10.808   7.053  -6.565  0.00  0.00     0.048 H 
ATOM     23  H   LIG d   1      12.135   7.506  -7.663  0.00  0.00     0.048 H 
ATOM     24  C   LIG d   1      10.916   9.262  -5.066  0.00  0.00     0.039 C 
ATOM     25  C   LIG d   1      11.943   8.762  -4.048  0.00  0.00    -0.019 C 
ATOM     26  H   LIG d   1       9.984   8.710  -4.945  0.00  0.00     0.048 H 
ATOM     27  H   LIG d   1      10.733  10.325  -4.906  0.00  0.00     0.048 H 
ATOM     28  H   LIG d   1      11.553   8.902  -3.039  0.00  0.00     0.083 H 
ATOM     29  H   LIG d   1      12.870   9.323  -4.160  0.00  0.00     0.083 H 
ATOM     30  H   LIG d   1      11.343   6.816  -4.184  0.00  0.00     0.203 HD
BRANCH  21  31
ATOM     31  C   LIG d   1      10.501   9.575  -7.431  0.00  0.00     0.023 C 
ATOM     32  H   LIG d   1      10.563   8.964  -8.333  0.00  0.00     0.045 H 
ATOM     33  H   LIG d   1       9.486   9.540  -7.037  0.00  0.00     0.045 H 
BRANCH  31  34
ATOM     34  C   LIG d   1      10.869  11.021  -7.768  0.00  0.00     0.060 C 
ATOM     35  H   LIG d   1      11.387  11.470  -6.921  0.00  0.00     0.057 H 
ATOM     36  H   LIG d   1      11.519  11.036  -8.642  0.00  0.00     0.057 H 
BRANCH  34  37
ATOM     37  O   LIG d   1       9.679  11.763  -8.047  0.00  0.00    -0.382 OA
BRANCH  37  38
ATOM     38  C   LIG d   1       9.597  13.010  -7.355  0.00  0.00     0.036 C 
ATOM     39  H   LIG d   1      10.332  13.028  -6.550  0.00  0.00     0.052 H 
ATOM     40  H   LIG d   1       9.800  13.825  -8.050  0.00  0.00     0.052 H 
ATOM     41  H   LIG d   1       8.597  13.129  -6.937  0.00  0.00     0.052 H 
ENDBRANCH  37  38
ENDBRANCH  34  37
ENDBRANCH  31  34
ENDBRANCH  21  31
ENDBRANCH  13  16
ENDBRANCH   3  13
BRANCH   5  42
ATOM     42  C   LIG d   1      10.878   6.650  -1.300  0.00  0.00    -0.043 C 
ATOM     43  H   LIG d   1      11.630   7.438  -1.313  0.00  0.00     0.030 H 
BRANCH  42  44
ATOM     44  C   LIG d   1       9.490   7.266  -1.489  0.00  0.00    -0.062 C 
ATOM     45  H   LIG d   1       9.354   7.541  -2.535  0.00  0.00     0.023 H 
ATOM     46  H   LIG d   1       8.728   6.540  -1.202  0.00  0.00     0.023 H 
ATOM     47  H   LIG d   1       9.399   8.155  -0.864  0.00  0.00     0.023 H 
ENDBRANCH  42  44
BRANCH  42  48
ATOM     48  C   LIG d   1      10.931   5.916   0.041  0.00  0.00    -0.062 C 
ATOM     49  H   LIG d   1      10.359   6.473   0.783  0.00  0.00     0.023 H 
ATOM     50  H   LIG d   1      10.505   4.920  -0.073  0.00  0.00     0.023 H 
ATOM     51  H   LIG d   1      11.968   5.832   0.369  0.00  0.00     0.023 H 
ENDBRANCH  42  48
ENDBRANCH   5  42
BRANCH   1  52
ATOM     52  C   LIG d   1      12.584   2.358  -4.784  0.00  0.00    -0.043 C 
ATOM     53  H   LIG d   1      13.646   2.480  -5.000  0.00  0.00     0.027 H 
ATOM     54  H   LIG d   1      12.417   1.387  -4.320  0.00  0.00     0.027 H 
ATOM     55  H   LIG d   1      12.016   2.419  -5.713  0.00  0.00     0.027 H 
ENDBRANCH   1  52
BRANCH   8  56
ATOM     56  C   LIG d   1       9.737   3.790  -4.348  0.00  0.00     0.032 C 
ATOM     57  H   LIG d   1       9.294   4.746  -4.066  0.00  0.00     0.037 H 
ATOM     58  H   LIG d   1      10.244   3.896  -5.308  0.00  0.00     0.037 H 
BRANCH  56  59
ATOM     59  C   LIG d   1       8.654   2.749  -4.464  0.00  0.00     0.218 A 
ATOM     60  O   LIG d   1       7.986   2.183  -3.445  0.00  0.00    -0.420 OA
ATOM     61  C   LIG d   1       7.113   1.316  -3.996  0.00  0.00     0.248 A 
ATOM     62  N   LIG d   1       7.277   1.375  -5.297  0.00  0.00    -0.107 NA
ATOM     63  N   LIG d   1       8.197   2.231  -5.570  0.00  0.00    -0.112 NA
BRANCH  61  64
ATOM     64  C   LIG d   1       6.154   0.457  -3.270  0.00  0.00     0.041 A 
ATOM     65  C   LIG d   1       5.218   1.010  -2.388  0.00  0.00    -0.031 A 
ATOM     66  C   LIG d   1       4.338   0.173  -1.735  0.00  0.00     0.028 A 
ATOM     67  H   LIG d   1       5.184   2.077  -2.224  0.00  0.00     0.064 H 
ATOM     68  N   LIG d   1       4.376  -1.132  -1.926  0.00  0.00    -0.263 NA
ATOM     69  H   LIG d   1       3.610   0.591  -1.056  0.00  0.00     0.083 H 
ATOM     70  C   LIG d   1       5.245  -1.695  -2.744  0.00  0.00     0.028 A 
ATOM     71  C   LIG d   1       6.158  -0.932  -3.442  0.00  0.00    -0.031 A 
ATOM     72  H   LIG d   1       5.240  -2.767  -2.869  0.00  0.00     0.083 H 
ATOM     73  H   LIG d   1       6.866  -1.399  -4.110  0.00  0.00     0.064 H 
ENDBRANCH  61  64
ENDBRANCH  56  59
ENDBRANCH   8  56
TORSDOF 13
ENDMDL
MODEL 8
REMARK VINA RESULT:      -5.6      9.449     13.491
REMARK  13 active torsions:
REMARK  status: ('A' for Active; 'I' for Inactive)
REMARK    1  A    between atoms: C_1  and  C_2 
REMARK    2  A    between atoms: C_4  and  C_26 
REMARK    3  A    between atoms: C_6  and  C_23 
REMARK    4  A    between atoms: C_9  and  C_11 
REMARK    5  A    between atoms: C_11  and  C_12 
REMARK    6  A    between atoms: C_15  and  C_17 
REMARK    7  A    between atoms: C_23  and  C_24 
REMARK    8  A    between atoms: C_23  and  C_25 
REMARK    9  A    between atoms: C_26  and  N_27 
REMARK   10  A    between atoms: N_30  and  C_33 
REMARK   11  A    between atoms: C_33  and  C_34 
REMARK   12  A    between atoms: C_34  and  O_35 
REMARK   13  A    between atoms: O_35  and  C_36 
ROOT
ATOM      1  C   LIG d   1       9.716   8.638  -1.479  0.00  0.00    -0.072 C 
ATOM      2  C   LIG d   1       9.822   8.643  -2.768  0.00  0.00    -0.076 C 
ATOM      3  C   LIG d   1      10.237   7.452  -3.583  0.00  0.00     0.021 C 
ATOM      4  H   LIG d   1       9.358   7.012  -4.053  0.00  0.00     0.040 H 
ATOM      5  C   LIG d   1      10.910   6.410  -2.687  0.00  0.00    -0.027 C 
ATOM      6  H   LIG d   1      11.882   6.779  -2.363  0.00  0.00     0.031 H 
ATOM      7  C   LIG d   1      10.014   6.170  -1.465  0.00  0.00    -0.042 C 
ATOM      8  C   LIG d   1      10.010   7.446  -0.616  0.00  0.00    -0.011 C 
ATOM      9  H   LIG d   1       9.244   7.361   0.156  0.00  0.00     0.035 H 
ATOM     10  H   LIG d   1       9.597   9.561  -3.292  0.00  0.00     0.058 H 
ATOM     11  H   LIG d   1       9.001   5.940  -1.793  0.00  0.00     0.027 H 
ATOM     12  H   LIG d   1      10.410   5.342  -0.877  0.00  0.00     0.027 H 
ENDROOT
BRANCH   3  13
ATOM     13  C   LIG d   1      11.222   7.898  -4.666  0.00  0.00    -0.025 C 
ATOM     14  H   LIG d   1      11.261   8.987  -4.696  0.00  0.00     0.082 H 
ATOM     15  H   LIG d   1      12.213   7.504  -4.440  0.00  0.00     0.082 H 
BRANCH  13  16
ATOM     16  N   LIG d   1      10.779   7.387  -5.970  0.00  0.00     0.237 N 
ATOM     17  C   LIG d   1      11.931   7.294  -6.876  0.00  0.00    -0.019 C 
ATOM     18  C   LIG d   1      11.474   6.744  -8.229  0.00  0.00     0.039 C 
ATOM     19  H   LIG d   1      12.366   8.284  -7.015  0.00  0.00     0.083 H 
ATOM     20  H   LIG d   1      12.678   6.626  -6.446  0.00  0.00     0.083 H 
ATOM     21  N   LIG d   1      10.453   7.637  -8.797  0.00  0.00    -0.290 N 
ATOM     22  H   LIG d   1      11.051   5.749  -8.094  0.00  0.00     0.048 H 
ATOM     23  H   LIG d   1      12.326   6.689  -8.906  0.00  0.00     0.048 H 
ATOM     24  C   LIG d   1       9.304   7.760  -7.889  0.00  0.00     0.039 C 
ATOM     25  C   LIG d   1       9.780   8.301  -6.540  0.00  0.00    -0.019 C 
ATOM     26  H   LIG d   1       8.846   6.781  -7.748  0.00  0.00     0.048 H 
ATOM     27  H   LIG d   1       8.573   8.446  -8.319  0.00  0.00     0.048 H 
ATOM     28  H   LIG d   1       8.931   8.379  -5.859  0.00  0.00     0.083 H 
ATOM     29  H   LIG d   1      10.225   9.286  -6.679  0.00  0.00     0.083 H 
ATOM     30  H   LIG d   1      10.369   6.473  -5.852  0.00  0.00     0.203 HD
BRANCH  21  31
ATOM     31  C   LIG d   1      10.028   7.173 -10.125  0.00  0.00     0.023 C 
ATOM     32  H   LIG d   1       9.755   8.033 -10.739  0.00  0.00     0.045 H 
ATOM     33  H   LIG d   1      10.846   6.632 -10.599  0.00  0.00     0.045 H 
BRANCH  31  34
ATOM     34  C   LIG d   1       8.819   6.247  -9.979  0.00  0.00     0.060 C 
ATOM     35  H   LIG d   1       8.641   6.047  -8.922  0.00  0.00     0.057 H 
ATOM     36  H   LIG d   1       7.941   6.726 -10.412  0.00  0.00     0.057 H 
BRANCH  34  37
ATOM     37  O   LIG d   1       9.076   5.017 -10.660  0.00  0.00    -0.382 OA
BRANCH  37  38
ATOM     38  C   LIG d   1       9.500   3.956  -9.803  0.00  0.00     0.036 C 
ATOM     39  H   LIG d   1       9.329   4.238  -8.764  0.00  0.00     0.052 H 
ATOM     40  H   LIG d   1       8.932   3.054 -10.033  0.00  0.00     0.052 H 
ATOM     41  H   LIG d   1      10.562   3.766  -9.957  0.00  0.00     0.052 H 
ENDBRANCH  37  38
ENDBRANCH  34  37
ENDBRANCH  31  34
ENDBRANCH  21  31
ENDBRANCH  13  16
ENDBRANCH   3  13
BRANCH   5  42
ATOM     42  C   LIG d   1      11.088   5.104  -3.464  0.00  0.00    -0.043 C 
ATOM     43  H   LIG d   1      11.292   5.328  -4.510  0.00  0.00     0.030 H 
BRANCH  42  44
ATOM     44  C   LIG d   1      12.260   4.316  -2.873  0.00  0.00    -0.062 C 
ATOM     45  H   LIG d   1      12.632   4.829  -1.986  0.00  0.00     0.023 H 
ATOM     46  H   LIG d   1      11.924   3.315  -2.601  0.00  0.00     0.023 H 
ATOM     47  H   LIG d   1      13.058   4.244  -3.612  0.00  0.00     0.023 H 
ENDBRANCH  42  44
BRANCH  42  48
ATOM     48  C   LIG d   1       9.810   4.270  -3.359  0.00  0.00    -0.062 C 
ATOM     49  H   LIG d   1       9.420   4.078  -4.359  0.00  0.00     0.023 H 
ATOM     50  H   LIG d   1      10.033   3.323  -2.868  0.00  0.00     0.023 H 
ATOM     51  H   LIG d   1       9.067   4.815  -2.778  0.00  0.00     0.023 H 
ENDBRANCH  42  48
ENDBRANCH   5  42
BRANCH   1  52
ATOM     52  C   LIG d   1       9.276   9.910  -0.801  0.00  0.00    -0.043 C 
ATOM     53  H   LIG d   1       8.378   9.718  -0.214  0.00  0.00     0.027 H 
ATOM     54  H   LIG d   1      10.070  10.265  -0.144  0.00  0.00     0.027 H 
ATOM     55  H   LIG d   1       9.062  10.668  -1.555  0.00  0.00     0.027 H 
ENDBRANCH   1  52
BRANCH   8  56
ATOM     56  C   LIG d   1      11.376   7.625   0.048  0.00  0.00     0.032 C 
ATOM     57  H   LIG d   1      12.114   7.010  -0.467  0.00  0.00     0.037 H 
ATOM     58  H   LIG d   1      11.674   8.672  -0.010  0.00  0.00     0.037 H 
BRANCH  56  59
ATOM     59  C   LIG d   1      11.292   7.205   1.492  0.00  0.00     0.218 A 
ATOM     60  O   LIG d   1      11.507   7.991   2.561  0.00  0.00    -0.420 OA
ATOM     61  C   LIG d   1      11.325   7.214   3.648  0.00  0.00     0.248 A 
ATOM     62  N   LIG d   1      11.021   6.012   3.219  0.00  0.00    -0.107 NA
ATOM     63  N   LIG d   1      11.003   6.012   1.933  0.00  0.00    -0.112 NA
BRANCH  61  64
ATOM     64  C   LIG d   1      11.450   7.638   5.058  0.00  0.00     0.041 A 
ATOM     65  C   LIG d   1      10.941   6.846   6.095  0.00  0.00    -0.031 A 
ATOM     66  C   LIG d   1      11.084   7.276   7.397  0.00  0.00     0.028 A 
ATOM     67  H   LIG d   1      10.448   5.910   5.877  0.00  0.00     0.064 H 
ATOM     68  N   LIG d   1      11.680   8.421   7.672  0.00  0.00    -0.263 NA
ATOM     69  H   LIG d   1      10.699   6.669   8.204  0.00  0.00     0.083 H 
ATOM     70  C   LIG d   1      12.169   9.200   6.725  0.00  0.00     0.028 A 
ATOM     71  C   LIG d   1      12.075   8.844   5.395  0.00  0.00    -0.031 A 
ATOM     72  H   LIG d   1      12.649  10.128   6.996  0.00  0.00     0.083 H 
ATOM     73  H   LIG d   1      12.477   9.486   4.627  0.00  0.00     0.064 H 
ENDBRANCH  61  64
ENDBRANCH  56  59
ENDBRANCH   8  56
TORSDOF 13
ENDMDL
MODEL 9
REMARK VINA RESULT:      -5.5      4.450      5.314
REMARK  13 active torsions:
REMARK  status: ('A' for Active; 'I' for Inactive)
REMARK    1  A    between atoms: C_1  and  C_2 
REMARK    2  A    between atoms: C_4  and  C_26 
REMARK    3  A    between atoms: C_6  and  C_23 
REMARK    4  A    between atoms: C_9  and  C_11 
REMARK    5  A    between atoms: C_11  and  C_12 
REMARK    6  A    between atoms: C_15  and  C_17 
REMARK    7  A    between atoms: C_23  and  C_24 
REMARK    8  A    between atoms: C_23  and  C_25 
REMARK    9  A    between atoms: C_26  and  N_27 
REMARK   10  A    between atoms: N_30  and  C_33 
REMARK   11  A    between atoms: C_33  and  C_34 
REMARK   12  A    between atoms: C_34  and  O_35 
REMARK   13  A    between atoms: O_35  and  C_36 
ROOT
ATOM      1  C   LIG d   1       5.765  -0.455  -6.632  0.00  0.00    -0.072 C 
ATOM      2  C   LIG d   1       6.737   0.006  -5.914  0.00  0.00    -0.076 C 
ATOM      3  C   LIG d   1       6.701   0.110  -4.417  0.00  0.00     0.021 C 
ATOM      4  H   LIG d   1       7.290  -0.698  -3.984  0.00  0.00     0.040 H 
ATOM      5  C   LIG d   1       5.258   0.011  -3.917  0.00  0.00    -0.027 C 
ATOM      6  H   LIG d   1       4.712   0.913  -4.193  0.00  0.00     0.031 H 
ATOM      7  C   LIG d   1       4.601  -1.211  -4.571  0.00  0.00    -0.042 C 
ATOM      8  C   LIG d   1       4.459  -0.934  -6.070  0.00  0.00    -0.011 C 
ATOM      9  H   LIG d   1       4.162  -1.853  -6.579  0.00  0.00     0.035 H 
ATOM     10  H   LIG d   1       7.631   0.336  -6.423  0.00  0.00     0.058 H 
ATOM     11  H   LIG d   1       5.226  -2.090  -4.414  0.00  0.00     0.027 H 
ATOM     12  H   LIG d   1       3.616  -1.374  -4.134  0.00  0.00     0.027 H 
ENDROOT
BRANCH   3  13
ATOM     13  C   LIG d   1       7.292   1.455  -3.988  0.00  0.00    -0.025 C 
ATOM     14  H   LIG d   1       7.118   2.195  -4.770  0.00  0.00     0.082 H 
ATOM     15  H   LIG d   1       6.817   1.783  -3.063  0.00  0.00     0.082 H 
BRANCH  13  16
ATOM     16  N   LIG d   1       8.737   1.306  -3.769  0.00  0.00     0.237 N 
ATOM     17  C   LIG d   1       9.307   2.599  -3.369  0.00  0.00    -0.019 C 
ATOM     18  C   LIG d   1      10.809   2.441  -3.122  0.00  0.00     0.039 C 
ATOM     19  H   LIG d   1       9.145   3.329  -4.162  0.00  0.00     0.083 H 
ATOM     20  H   LIG d   1       8.823   2.943  -2.455  0.00  0.00     0.083 H 
ATOM     21  N   LIG d   1      11.456   1.959  -4.350  0.00  0.00    -0.290 N 
ATOM     22  H   LIG d   1      10.972   1.722  -2.320  0.00  0.00     0.048 H 
ATOM     23  H   LIG d   1      11.235   3.404  -2.840  0.00  0.00     0.048 H 
ATOM     24  C   LIG d   1      10.879   0.677  -4.777  0.00  0.00     0.039 C 
ATOM     25  C   LIG d   1       9.376   0.851  -5.011  0.00  0.00    -0.019 C 
ATOM     26  H   LIG d   1      11.043  -0.072  -4.001  0.00  0.00     0.048 H 
ATOM     27  H   LIG d   1      11.356   0.353  -5.702  0.00  0.00     0.048 H 
ATOM     28  H   LIG d   1       8.943  -0.103  -5.313  0.00  0.00     0.083 H 
ATOM     29  H   LIG d   1       9.213   1.589  -5.795  0.00  0.00     0.083 H 
ATOM     30  H   LIG d   1       8.899   0.628  -3.039  0.00  0.00     0.203 HD
BRANCH  21  31
ATOM     31  C   LIG d   1      12.910   1.848  -4.171  0.00  0.00     0.023 C 
ATOM     32  H   LIG d   1      13.411   2.084  -5.111  0.00  0.00     0.045 H 
ATOM     33  H   LIG d   1      13.236   2.546  -3.400  0.00  0.00     0.045 H 
BRANCH  31  34
ATOM     34  C   LIG d   1      13.265   0.420  -3.749  0.00  0.00     0.060 C 
ATOM     35  H   LIG d   1      12.734   0.172  -2.830  0.00  0.00     0.057 H 
ATOM     36  H   LIG d   1      12.972  -0.274  -4.537  0.00  0.00     0.057 H 
BRANCH  34  37
ATOM     37  O   LIG d   1      14.673   0.324  -3.528  0.00  0.00    -0.382 OA
BRANCH  37  38
ATOM     38  C   LIG d   1      15.041  -0.635  -2.535  0.00  0.00     0.036 C 
ATOM     39  H   LIG d   1      16.077  -0.470  -2.238  0.00  0.00     0.052 H 
ATOM     40  H   LIG d   1      14.392  -0.525  -1.666  0.00  0.00     0.052 H 
ATOM     41  H   LIG d   1      14.936  -1.640  -2.944  0.00  0.00     0.052 H 
ENDBRANCH  37  38
ENDBRANCH  34  37
ENDBRANCH  31  34
ENDBRANCH  21  31
ENDBRANCH  13  16
ENDBRANCH   3  13
BRANCH   5  42
ATOM     42  C   LIG d   1       5.252  -0.147  -2.395  0.00  0.00    -0.043 C 
ATOM     43  H   LIG d   1       6.276  -0.157  -2.026  0.00  0.00     0.030 H 
BRANCH  42  44
ATOM     44  C   LIG d   1       4.493   1.022  -1.764  0.00  0.00    -0.062 C 
ATOM     45  H   LIG d   1       3.757   1.402  -2.473  0.00  0.00     0.023 H 
ATOM     46  H   LIG d   1       3.985   0.681  -0.861  0.00  0.00     0.023 H 
ATOM     47  H   LIG d   1       5.195   1.816  -1.509  0.00  0.00     0.023 H 
ENDBRANCH  42  44
BRANCH  42  48
ATOM     48  C   LIG d   1       4.562  -1.462  -2.023  0.00  0.00    -0.062 C 
ATOM     49  H   LIG d   1       5.263  -2.097  -1.481  0.00  0.00     0.023 H 
ATOM     50  H   LIG d   1       3.699  -1.253  -1.392  0.00  0.00     0.023 H 
ATOM     51  H   LIG d   1       4.236  -1.971  -2.930  0.00  0.00     0.023 H 
ENDBRANCH  42  48
ENDBRANCH   5  42
BRANCH   1  52
ATOM     52  C   LIG d   1       5.954  -0.508  -8.126  0.00  0.00    -0.043 C 
ATOM     53  H   LIG d   1       6.874  -1.044  -8.358  0.00  0.00     0.027 H 
ATOM     54  H   LIG d   1       5.109  -1.025  -8.582  0.00  0.00     0.027 H 
ATOM     55  H   LIG d   1       6.015   0.506  -8.521  0.00  0.00     0.027 H 
ENDBRANCH   1  52
BRANCH   8  56
ATOM     56  C   LIG d   1       3.387   0.134  -6.296  0.00  0.00     0.032 C 
ATOM     57  H   LIG d   1       2.578  -0.005  -5.578  0.00  0.00     0.037 H 
ATOM     58  H   LIG d   1       3.826   1.123  -6.160  0.00  0.00     0.037 H 
BRANCH  56  59
ATOM     59  C   LIG d   1       2.843   0.014  -7.695  0.00  0.00     0.218 A 
ATOM     60  O   LIG d   1       2.432  -1.118  -8.292  0.00  0.00    -0.420 OA
ATOM     61  C   LIG d   1       2.023  -0.769  -9.529  0.00  0.00     0.248 A 
ATOM     62  N   LIG d   1       2.200   0.526  -9.645  0.00  0.00    -0.107 NA
ATOM     63  N   LIG d   1       2.689   0.988  -8.549  0.00  0.00    -0.112 NA
BRANCH  61  64
ATOM     64  C   LIG d   1       1.481  -1.677 -10.561  0.00  0.00     0.041 A 
ATOM     65  C   LIG d   1       1.382  -3.055 -10.327  0.00  0.00    -0.031 A 
ATOM     66  C   LIG d   1       0.865  -3.865 -11.315  0.00  0.00     0.028 A 
ATOM     67  H   LIG d   1       1.702  -3.474  -9.385  0.00  0.00     0.064 H 
ATOM     68  N   LIG d   1       0.475  -3.362 -12.471  0.00  0.00    -0.263 NA
ATOM     69  H   LIG d   1       0.780  -4.928 -11.142  0.00  0.00     0.083 H 
ATOM     70  C   LIG d   1       0.556  -2.071 -12.735  0.00  0.00     0.028 A 
ATOM     71  C   LIG d   1       1.056  -1.187 -11.801  0.00  0.00    -0.031 A 
ATOM     72  H   LIG d   1       0.227  -1.703 -13.694  0.00  0.00     0.083 H 
ATOM     73  H   LIG d   1       1.119  -0.132 -12.023  0.00  0.00     0.064 H 
ENDBRANCH  61  64
ENDBRANCH  56  59
ENDBRANCH   8  56
TORSDOF 13
ENDMDL
MODEL 10
REMARK VINA RESULT:      -5.5      2.925     10.414
REMARK  13 active torsions:
REMARK  status: ('A' for Active; 'I' for Inactive)
REMARK    1  A    between atoms: C_1  and  C_2 
REMARK    2  A    between atoms: C_4  and  C_26 
REMARK    3  A    between atoms: C_6  and  C_23 
REMARK    4  A    between atoms: C_9  and  C_11 
REMARK    5  A    between atoms: C_11  and  C_12 
REMARK    6  A    between atoms: C_15  and  C_17 
REMARK    7  A    between atoms: C_23  and  C_24 
REMARK    8  A    between atoms: C_23  and  C_25 
REMARK    9  A    between atoms: C_26  and  N_27 
REMARK   10  A    between atoms: N_30  and  C_33 
REMARK   11  A    between atoms: C_33  and  C_34 
REMARK   12  A    between atoms: C_34  and  O_35 
REMARK   13  A    between atoms: O_35  and  C_36 
ROOT
ATOM      1  C   LIG d   1       7.470   0.213  -5.836  0.00  0.00    -0.072 C 
ATOM      2  C   LIG d   1       6.890  -0.943  -5.790  0.00  0.00    -0.076 C 
ATOM      3  C   LIG d   1       5.983  -1.386  -4.679  0.00  0.00     0.021 C 
ATOM      4  H   LIG d   1       4.947  -1.321  -5.010  0.00  0.00     0.040 H 
ATOM      5  C   LIG d   1       6.180  -0.494  -3.452  0.00  0.00    -0.027 C 
ATOM      6  H   LIG d   1       7.155  -0.694  -3.006  0.00  0.00     0.031 H 
ATOM      7  C   LIG d   1       6.109   0.972  -3.900  0.00  0.00    -0.042 C 
ATOM      8  C   LIG d   1       7.331   1.265  -4.776  0.00  0.00    -0.011 C 
ATOM      9  H   LIG d   1       7.208   2.241  -5.249  0.00  0.00     0.035 H 
ATOM     10  H   LIG d   1       7.068  -1.632  -6.603  0.00  0.00     0.058 H 
ATOM     11  H   LIG d   1       5.195   1.135  -4.472  0.00  0.00     0.027 H 
ATOM     12  H   LIG d   1       6.121   1.623  -3.026  0.00  0.00     0.027 H 
ENDROOT
BRANCH   3  13
ATOM     13  C   LIG d   1       6.307  -2.834  -4.308  0.00  0.00    -0.025 C 
ATOM     14  H   LIG d   1       7.373  -2.927  -4.100  0.00  0.00     0.082 H 
ATOM     15  H   LIG d   1       5.738  -3.119  -3.422  0.00  0.00     0.082 H 
BRANCH  13  16
ATOM     16  N   LIG d   1       5.948  -3.718  -5.424  0.00  0.00     0.237 N 
ATOM     17  C   LIG d   1       4.560  -4.172  -5.262  0.00  0.00    -0.019 C 
ATOM     18  C   LIG d   1       4.178  -5.077  -6.436  0.00  0.00     0.039 C 
ATOM     19  H   LIG d   1       4.465  -4.727  -4.329  0.00  0.00     0.083 H 
ATOM     20  H   LIG d   1       3.896  -3.307  -5.240  0.00  0.00     0.083 H 
ATOM     21  N   LIG d   1       5.088  -6.231  -6.475  0.00  0.00    -0.290 N 
ATOM     22  H   LIG d   1       4.259  -4.519  -7.367  0.00  0.00     0.048 H 
ATOM     23  H   LIG d   1       3.154  -5.426  -6.307  0.00  0.00     0.048 H 
ATOM     24  C   LIG d   1       6.483  -5.792  -6.612  0.00  0.00     0.039 C 
ATOM     25  C   LIG d   1       6.845  -4.881  -5.437  0.00  0.00    -0.019 C 
ATOM     26  H   LIG d   1       6.602  -5.245  -7.547  0.00  0.00     0.048 H 
ATOM     27  H   LIG d   1       7.140  -6.663  -6.613  0.00  0.00     0.048 H 
ATOM     28  H   LIG d   1       7.876  -4.541  -5.544  0.00  0.00     0.083 H 
ATOM     29  H   LIG d   1       6.740  -5.432  -4.503  0.00  0.00     0.083 H 
ATOM     30  H   LIG d   1       6.037  -3.215  -6.294  0.00  0.00     0.203 HD
BRANCH  21  31
ATOM     31  C   LIG d   1       4.719  -7.156  -7.555  0.00  0.00     0.023 C 
ATOM     32  H   LIG d   1       3.765  -6.848  -7.986  0.00  0.00     0.045 H 
ATOM     33  H   LIG d   1       5.489  -7.139  -8.326  0.00  0.00     0.045 H 
BRANCH  31  34
ATOM     34  C   LIG d   1       4.590  -8.573  -6.992  0.00  0.00     0.060 C 
ATOM     35  H   LIG d   1       3.789  -9.098  -7.513  0.00  0.00     0.057 H 
ATOM     36  H   LIG d   1       5.529  -9.107  -7.137  0.00  0.00     0.057 H 
BRANCH  34  37
ATOM     37  O   LIG d   1       4.289  -8.507  -5.597  0.00  0.00    -0.382 OA
BRANCH  37  38
ATOM     38  C   LIG d   1       4.835  -9.583  -4.833  0.00  0.00     0.036 C 
ATOM     39  H   LIG d   1       5.206 -10.355  -5.507  0.00  0.00     0.052 H 
ATOM     40  H   LIG d   1       5.655  -9.212  -4.218  0.00  0.00     0.052 H 
ATOM     41  H   LIG d   1       4.060 -10.003  -4.191  0.00  0.00     0.052 H 
ENDBRANCH  37  38
ENDBRANCH  34  37
ENDBRANCH  31  34
ENDBRANCH  21  31
ENDBRANCH  13  16
ENDBRANCH   3  13
BRANCH   5  42
ATOM     42  C   LIG d   1       5.079  -0.778  -2.428  0.00  0.00    -0.043 C 
ATOM     43  H   LIG d   1       5.423  -1.536  -1.725  0.00  0.00     0.030 H 
BRANCH  42  44
ATOM     44  C   LIG d   1       4.746   0.508  -1.668  0.00  0.00    -0.062 C 
ATOM     45  H   LIG d   1       5.218   1.356  -2.164  0.00  0.00     0.023 H 
ATOM     46  H   LIG d   1       3.666   0.651  -1.652  0.00  0.00     0.023 H 
ATOM     47  H   LIG d   1       5.118   0.432  -0.646  0.00  0.00     0.023 H 
ENDBRANCH  42  44
BRANCH  42  48
ATOM     48  C   LIG d   1       3.828  -1.281  -3.151  0.00  0.00    -0.062 C 
ATOM     49  H   LIG d   1       2.984  -1.273  -2.462  0.00  0.00     0.023 H 
ATOM     50  H   LIG d   1       3.612  -0.630  -3.997  0.00  0.00     0.023 H 
ATOM     51  H   LIG d   1       3.998  -2.297  -3.507  0.00  0.00     0.023 H 
ENDBRANCH  42  48
ENDBRANCH   5  42
BRANCH   1  52
ATOM     52  C   LIG d   1       8.344   0.518  -7.025  0.00  0.00    -0.043 C 
ATOM     53  H   LIG d   1       9.243   1.036  -6.692  0.00  0.00     0.027 H 
ATOM     54  H   LIG d   1       8.624  -0.412  -7.519  0.00  0.00     0.027 H 
ATOM     55  H   LIG d   1       7.798   1.151  -7.725  0.00  0.00     0.027 H 
ENDBRANCH   1  52
BRANCH   8  56
ATOM     56  C   LIG d   1       8.591   1.282  -3.909  0.00  0.00     0.032 C 
ATOM     57  H   LIG d   1       8.367   0.851  -2.934  0.00  0.00     0.037 H 
ATOM     58  H   LIG d   1       9.373   0.697  -4.394  0.00  0.00     0.037 H 
BRANCH  56  59
ATOM     59  C   LIG d   1       9.063   2.702  -3.734  0.00  0.00     0.218 A 
ATOM     60  O   LIG d   1       9.580   3.233  -2.614  0.00  0.00    -0.420 OA
ATOM     61  C   LIG d   1       9.867   4.520  -2.899  0.00  0.00     0.248 A 
ATOM     62  N   LIG d   1       9.517   4.727  -4.147  0.00  0.00    -0.107 NA
ATOM     63  N   LIG d   1       9.039   3.641  -4.640  0.00  0.00    -0.112 NA
BRANCH  61  64
ATOM     64  C   LIG d   1      10.460   5.511  -1.977  0.00  0.00     0.041 A 
ATOM     65  C   LIG d   1      11.672   5.252  -1.325  0.00  0.00    -0.031 A 
ATOM     66  C   LIG d   1      12.192   6.207  -0.477  0.00  0.00     0.028 A 
ATOM     67  H   LIG d   1      12.192   4.320  -1.488  0.00  0.00     0.064 H 
ATOM     68  N   LIG d   1      11.560   7.346  -0.269  0.00  0.00    -0.263 NA
ATOM     69  H   LIG d   1      13.129   6.017   0.027  0.00  0.00     0.083 H 
ATOM     70  C   LIG d   1      10.414   7.628  -0.858  0.00  0.00     0.028 A 
ATOM     71  C   LIG d   1       9.824   6.732  -1.727  0.00  0.00    -0.031 A 
ATOM     72  H   LIG d   1       9.931   8.573  -0.658  0.00  0.00     0.083 H 
ATOM     73  H   LIG d   1       8.887   6.970  -2.206  0.00  0.00     0.064 H 
ENDBRANCH  61  64
ENDBRANCH  56  59
ENDBRANCH   8  56
TORSDOF 13
ENDMDL
