MODEL 1
REMARK VINA RESULT:      -6.6      0.000      0.000
REMARK  7 active torsions:
REMARK  status: ('A' for Active; 'I' for Inactive)
REMARK    1  A    between atoms: C_1  and  C_2 
REMARK    2  A    between atoms: C_2  and  C_30 
REMARK    3  A    between atoms: C_6  and  C_21 
REMARK    4  A    between atoms: C_17  and  C_19 
REMARK    5  A    between atoms: C_17  and  C_20 
REMARK    6  A    between atoms: C_21  and  N_22 
REMARK       I    between atoms: N_22  and  C_23 
REMARK    7  A    between atoms: C_23  and  C_25 
ROOT
ATOM      1  C   LIG d   1       3.536  -0.040  -3.916  0.00  0.00     0.166 C 
ATOM      2  O   LIG d   1       4.736   0.382  -4.608  0.00  0.00    -0.341 OA
ATOM      3  C   LIG d   1       5.351  -0.810  -5.059  0.00  0.00     0.118 C 
ATOM      4  H   LIG d   1       4.901  -1.082  -6.013  0.00  0.00     0.065 H 
ATOM      5  C   LIG d   1       6.854  -0.874  -5.200  0.00  0.00     0.106 C 
ATOM      6  H   LIG d   1       7.323  -0.691  -4.233  0.00  0.00     0.064 H 
ATOM      7  O   LIG d   1       7.172  -2.219  -5.663  0.00  0.00    -0.341 OA
ATOM      8  C   LIG d   1       5.992  -2.970  -5.849  0.00  0.00     0.191 C 
ATOM      9  H   LIG d   1       5.320  -2.425  -6.512  0.00  0.00     0.094 H 
ATOM     10  C   LIG d   1       5.288  -3.187  -4.476  0.00  0.00     0.141 C 
ATOM     11  H   LIG d   1       5.986  -3.646  -3.777  0.00  0.00     0.068 H 
ATOM     12  C   LIG d   1       4.895  -1.837  -3.977  0.00  0.00     0.121 C 
ATOM     13  H   LIG d   1       5.400  -1.629  -3.034  0.00  0.00     0.065 H 
ATOM     14  O   LIG d   1       3.516  -1.491  -3.873  0.00  0.00    -0.341 OA
ATOM     15  O   LIG d   1       4.283  -4.131  -4.815  0.00  0.00    -0.338 OA
ATOM     16  C   LIG d   1       4.813  -4.889  -5.927  0.00  0.00     0.168 C 
ATOM     17  O   LIG d   1       6.089  -4.315  -6.310  0.00  0.00    -0.318 OA
ENDROOT
BRANCH   5  18
ATOM     18  C   LIG d   1       7.333   0.160  -6.220  0.00  0.00     0.041 C 
ATOM     19  H   LIG d   1       7.688   1.048  -5.698  0.00  0.00     0.049 H 
ATOM     20  H   LIG d   1       8.145  -0.262  -6.812  0.00  0.00     0.049 H 
BRANCH  18  21
ATOM     21  N   LIG d   1       6.223   0.524  -7.105  0.00  0.00    -0.306 N 
ATOM     22  C   LIG d   1       6.468   0.885  -8.380  0.00  0.00     0.279 C 
ATOM     23  O   LIG d   1       7.611   0.908  -8.797  0.00  0.00    -0.267 OA
ATOM     24  H   LIG d   1       5.312   0.505  -6.772  0.00  0.00     0.149 HD
BRANCH  22  25
ATOM     25  C   LIG d   1       5.357   1.249  -9.264  0.00  0.00     0.189 A 
ATOM     26  O   LIG d   1       4.997   0.603 -10.392  0.00  0.00    -0.458 OA
ATOM     27  C   LIG d   1       3.938   1.215 -10.937  0.00  0.00     0.093 A 
ATOM     28  C   LIG d   1       3.605   2.275 -10.168  0.00  0.00    -0.023 A 
ATOM     29  H   LIG d   1       3.436   0.914 -11.845  0.00  0.00     0.103 H 
ATOM     30  C   LIG d   1       4.509   2.306  -9.094  0.00  0.00    -0.011 A 
ATOM     31  H   LIG d   1       2.797   2.969 -10.347  0.00  0.00     0.065 H 
ATOM     32  H   LIG d   1       4.529   3.026  -8.290  0.00  0.00     0.066 H 
ENDBRANCH  22  25
ENDBRANCH  18  21
ENDBRANCH   5  18
BRANCH   1  33
ATOM     33  C   LIG d   1       2.303   0.470  -4.666  0.00  0.00    -0.011 C 
ATOM     34  H   LIG d   1       2.507   1.465  -5.064  0.00  0.00     0.028 H 
ATOM     35  H   LIG d   1       2.069  -0.209  -5.485  0.00  0.00     0.028 H 
ATOM     36  H   LIG d   1       1.457   0.520  -3.981  0.00  0.00     0.028 H 
ENDBRANCH   1  33
BRANCH   1  37
ATOM     37  C   LIG d   1       3.540   0.517  -2.491  0.00  0.00    -0.011 C 
ATOM     38  H   LIG d   1       2.889  -0.090  -1.862  0.00  0.00     0.028 H 
ATOM     39  H   LIG d   1       4.555   0.493  -2.094  0.00  0.00     0.028 H 
ATOM     40  H   LIG d   1       3.178   1.546  -2.502  0.00  0.00     0.028 H 
ENDBRANCH   1  37
BRANCH  16  41
ATOM     41  C   LIG d   1       3.842  -4.818  -7.108  0.00  0.00    -0.011 C 
ATOM     42  H   LIG d   1       2.898  -5.288  -6.831  0.00  0.00     0.028 H 
ATOM     43  H   LIG d   1       3.666  -3.775  -7.371  0.00  0.00     0.028 H 
ATOM     44  H   LIG d   1       4.271  -5.341  -7.962  0.00  0.00     0.028 H 
ENDBRANCH  16  41
BRANCH  16  45
ATOM     45  C   LIG d   1       5.009  -6.348  -5.510  0.00  0.00    -0.011 C 
ATOM     46  H   LIG d   1       4.138  -6.686  -4.947  0.00  0.00     0.028 H 
ATOM     47  H   LIG d   1       5.129  -6.966  -6.399  0.00  0.00     0.028 H 
ATOM     48  H   LIG d   1       5.899  -6.432  -4.886  0.00  0.00     0.028 H 
ENDBRANCH  16  45
TORSDOF 7
ENDMDL
MODEL 2
REMARK VINA RESULT:      -6.2      2.317      5.106
REMARK  7 active torsions:
REMARK  status: ('A' for Active; 'I' for Inactive)
REMARK    1  A    between atoms: C_1  and  C_2 
REMARK    2  A    between atoms: C_2  and  C_30 
REMARK    3  A    between atoms: C_6  and  C_21 
REMARK    4  A    between atoms: C_17  and  C_19 
REMARK    5  A    between atoms: C_17  and  C_20 
REMARK    6  A    between atoms: C_21  and  N_22 
REMARK       I    between atoms: N_22  and  C_23 
REMARK    7  A    between atoms: C_23  and  C_25 
ROOT
ATOM      1  C   LIG d   1       6.588  -3.308  -5.761  0.00  0.00     0.166 C 
ATOM      2  O   LIG d   1       5.325  -2.856  -5.215  0.00  0.00    -0.341 OA
ATOM      3  C   LIG d   1       5.607  -1.625  -4.578  0.00  0.00     0.118 C 
ATOM      4  H   LIG d   1       5.560  -0.837  -5.329  0.00  0.00     0.065 H 
ATOM      5  C   LIG d   1       4.795  -1.195  -3.379  0.00  0.00     0.106 C 
ATOM      6  H   LIG d   1       4.900  -1.929  -2.580  0.00  0.00     0.064 H 
ATOM      7  O   LIG d   1       5.332   0.089  -2.951  0.00  0.00    -0.341 OA
ATOM      8  C   LIG d   1       6.379   0.498  -3.803  0.00  0.00     0.191 C 
ATOM      9  H   LIG d   1       6.025   0.491  -4.834  0.00  0.00     0.094 H 
ATOM     10  C   LIG d   1       7.577  -0.489  -3.671  0.00  0.00     0.141 C 
ATOM     11  H   LIG d   1       7.876  -0.562  -2.625  0.00  0.00     0.068 H 
ATOM     12  C   LIG d   1       7.093  -1.819  -4.147  0.00  0.00     0.121 C 
ATOM     13  H   LIG d   1       7.151  -2.545  -3.336  0.00  0.00     0.065 H 
ATOM     14  O   LIG d   1       7.626  -2.384  -5.341  0.00  0.00    -0.341 OA
ATOM     15  O   LIG d   1       8.591   0.189  -4.396  0.00  0.00    -0.338 OA
ATOM     16  C   LIG d   1       8.289   1.598  -4.270  0.00  0.00     0.168 C 
ATOM     17  O   LIG d   1       7.033   1.739  -3.557  0.00  0.00    -0.318 OA
ENDROOT
BRANCH   5  18
ATOM     18  C   LIG d   1       3.322  -1.047  -3.765  0.00  0.00     0.041 C 
ATOM     19  H   LIG d   1       2.787  -1.962  -3.514  0.00  0.00     0.049 H 
ATOM     20  H   LIG d   1       2.886  -0.210  -3.219  0.00  0.00     0.049 H 
BRANCH  18  21
ATOM     21  N   LIG d   1       3.216  -0.797  -5.204  0.00  0.00    -0.306 N 
ATOM     22  C   LIG d   1       2.894   0.431  -5.654  0.00  0.00     0.279 C 
ATOM     23  O   LIG d   1       2.691   1.335  -4.864  0.00  0.00    -0.267 OA
ATOM     24  H   LIG d   1       3.378  -1.518  -5.834  0.00  0.00     0.149 HD
BRANCH  22  25
ATOM     25  C   LIG d   1       2.789   0.679  -7.095  0.00  0.00     0.189 A 
ATOM     26  O   LIG d   1       2.953   1.870  -7.709  0.00  0.00    -0.458 OA
ATOM     27  C   LIG d   1       2.787   1.717  -9.029  0.00  0.00     0.093 A 
ATOM     28  C   LIG d   1       2.503   0.420  -9.284  0.00  0.00    -0.023 A 
ATOM     29  H   LIG d   1       2.862   2.501  -9.767  0.00  0.00     0.103 H 
ATOM     30  C   LIG d   1       2.502  -0.252  -8.051  0.00  0.00    -0.011 A 
ATOM     31  H   LIG d   1       2.313  -0.016 -10.253  0.00  0.00     0.065 H 
ATOM     32  H   LIG d   1       2.311  -1.304  -7.891  0.00  0.00     0.066 H 
ENDBRANCH  22  25
ENDBRANCH  18  21
ENDBRANCH   5  18
BRANCH   1  33
ATOM     33  C   LIG d   1       6.509  -3.334  -7.289  0.00  0.00    -0.011 C 
ATOM     34  H   LIG d   1       5.807  -2.572  -7.629  0.00  0.00     0.028 H 
ATOM     35  H   LIG d   1       7.495  -3.133  -7.708  0.00  0.00     0.028 H 
ATOM     36  H   LIG d   1       6.167  -4.315  -7.618  0.00  0.00     0.028 H 
ENDBRANCH   1  33
BRANCH   1  37
ATOM     37  C   LIG d   1       6.904  -4.710  -5.237  0.00  0.00    -0.011 C 
ATOM     38  H   LIG d   1       6.501  -5.454  -5.924  0.00  0.00     0.028 H 
ATOM     39  H   LIG d   1       7.984  -4.834  -5.159  0.00  0.00     0.028 H 
ATOM     40  H   LIG d   1       6.451  -4.841  -4.253  0.00  0.00     0.028 H 
ENDBRANCH   1  37
BRANCH  16  41
ATOM     41  C   LIG d   1       8.165   2.226  -5.660  0.00  0.00    -0.011 C 
ATOM     42  H   LIG d   1       8.523   1.521  -6.410  0.00  0.00     0.028 H 
ATOM     43  H   LIG d   1       7.120   2.467  -5.857  0.00  0.00     0.028 H 
ATOM     44  H   LIG d   1       8.762   3.136  -5.703  0.00  0.00     0.028 H 
ENDBRANCH  16  41
BRANCH  16  45
ATOM     45  C   LIG d   1       9.405   2.297  -3.490  0.00  0.00    -0.011 C 
ATOM     46  H   LIG d   1       8.982   2.797  -2.619  0.00  0.00     0.028 H 
ATOM     47  H   LIG d   1      10.137   1.558  -3.164  0.00  0.00     0.028 H 
ATOM     48  H   LIG d   1       9.891   3.033  -4.130  0.00  0.00     0.028 H 
ENDBRANCH  16  45
TORSDOF 7
ENDMDL
MODEL 3
REMARK VINA RESULT:      -6.2      2.187      6.586
REMARK  7 active torsions:
REMARK  status: ('A' for Active; 'I' for Inactive)
REMARK    1  A    between atoms: C_1  and  C_2 
REMARK    2  A    between atoms: C_2  and  C_30 
REMARK    3  A    between atoms: C_6  and  C_21 
REMARK    4  A    between atoms: C_17  and  C_19 
REMARK    5  A    between atoms: C_17  and  C_20 
REMARK    6  A    between atoms: C_21  and  N_22 
REMARK       I    between atoms: N_22  and  C_23 
REMARK    7  A    between atoms: C_23  and  C_25 
ROOT
ATOM      1  C   LIG d   1       3.979   0.388  -8.669  0.00  0.00     0.166 C 
ATOM      2  O   LIG d   1       4.207  -1.038  -8.776  0.00  0.00    -0.341 OA
ATOM      3  C   LIG d   1       4.450  -1.482  -7.454  0.00  0.00     0.118 C 
ATOM      4  H   LIG d   1       3.488  -1.675  -6.981  0.00  0.00     0.065 H 
ATOM      5  C   LIG d   1       5.352  -2.669  -7.213  0.00  0.00     0.106 C 
ATOM      6  H   LIG d   1       6.348  -2.460  -7.603  0.00  0.00     0.064 H 
ATOM      7  O   LIG d   1       5.410  -2.862  -5.771  0.00  0.00    -0.341 OA
ATOM      8  C   LIG d   1       4.596  -1.918  -5.111  0.00  0.00     0.191 C 
ATOM      9  H   LIG d   1       3.587  -1.966  -5.520  0.00  0.00     0.094 H 
ATOM     10  C   LIG d   1       5.168  -0.486  -5.336  0.00  0.00     0.141 C 
ATOM     11  H   LIG d   1       6.209  -0.456  -5.016  0.00  0.00     0.068 H 
ATOM     12  C   LIG d   1       5.086  -0.216  -6.802  0.00  0.00     0.121 C 
ATOM     13  H   LIG d   1       6.085  -0.054  -7.205  0.00  0.00     0.065 H 
ATOM     14  O   LIG d   1       4.200   0.787  -7.291  0.00  0.00    -0.341 OA
ATOM     15  O   LIG d   1       4.385   0.282  -4.435  0.00  0.00    -0.338 OA
ATOM     16  C   LIG d   1       4.024  -0.618  -3.361  0.00  0.00     0.168 C 
ATOM     17  O   LIG d   1       4.509  -1.945  -3.689  0.00  0.00    -0.318 OA
ENDROOT
BRANCH   5  18
ATOM     18  C   LIG d   1       4.775  -3.915  -7.888  0.00  0.00     0.041 C 
ATOM     19  H   LIG d   1       3.688  -3.899  -7.811  0.00  0.00     0.049 H 
ATOM     20  H   LIG d   1       5.064  -3.927  -8.938  0.00  0.00     0.049 H 
BRANCH  18  21
ATOM     21  N   LIG d   1       5.294  -5.115  -7.226  0.00  0.00    -0.306 N 
ATOM     22  C   LIG d   1       4.500  -5.830  -6.406  0.00  0.00     0.279 C 
ATOM     23  O   LIG d   1       3.349  -5.480  -6.216  0.00  0.00    -0.267 OA
ATOM     24  H   LIG d   1       6.211  -5.393  -7.377  0.00  0.00     0.149 HD
BRANCH  22  25
ATOM     25  C   LIG d   1       5.020  -7.030  -5.744  0.00  0.00     0.189 A 
ATOM     26  O   LIG d   1       4.290  -8.086  -5.328  0.00  0.00    -0.458 OA
ATOM     27  C   LIG d   1       5.101  -8.995  -4.772  0.00  0.00     0.093 A 
ATOM     28  C   LIG d   1       6.369  -8.531  -4.814  0.00  0.00    -0.023 A 
ATOM     29  H   LIG d   1       4.791  -9.942  -4.354  0.00  0.00     0.103 H 
ATOM     30  C   LIG d   1       6.327  -7.273  -5.435  0.00  0.00    -0.011 A 
ATOM     31  H   LIG d   1       7.249  -9.034  -4.440  0.00  0.00     0.065 H 
ATOM     32  H   LIG d   1       7.168  -6.622  -5.629  0.00  0.00     0.066 H 
ENDBRANCH  22  25
ENDBRANCH  18  21
ENDBRANCH   5  18
BRANCH   1  33
ATOM     33  C   LIG d   1       2.539   0.711  -9.074  0.00  0.00    -0.011 C 
ATOM     34  H   LIG d   1       2.436   0.616 -10.156  0.00  0.00     0.028 H 
ATOM     35  H   LIG d   1       1.858   0.016  -8.582  0.00  0.00     0.028 H 
ATOM     36  H   LIG d   1       2.297   1.731  -8.775  0.00  0.00     0.028 H 
ENDBRANCH   1  33
BRANCH   1  37
ATOM     37  C   LIG d   1       4.951   1.136  -9.583  0.00  0.00    -0.011 C 
ATOM     38  H   LIG d   1       5.920   1.223  -9.091  0.00  0.00     0.028 H 
ATOM     39  H   LIG d   1       5.066   0.588 -10.518  0.00  0.00     0.028 H 
ATOM     40  H   LIG d   1       4.560   2.132  -9.793  0.00  0.00     0.028 H 
ENDBRANCH   1  37
BRANCH  16  41
ATOM     41  C   LIG d   1       2.502  -0.650  -3.205  0.00  0.00    -0.011 C 
ATOM     42  H   LIG d   1       2.082   0.297  -3.543  0.00  0.00     0.028 H 
ATOM     43  H   LIG d   1       2.094  -1.464  -3.804  0.00  0.00     0.028 H 
ATOM     44  H   LIG d   1       2.248  -0.807  -2.157  0.00  0.00     0.028 H 
ENDBRANCH  16  41
BRANCH  16  45
ATOM     45  C   LIG d   1       4.665  -0.144  -2.055  0.00  0.00    -0.011 C 
ATOM     46  H   LIG d   1       5.674   0.217  -2.254  0.00  0.00     0.028 H 
ATOM     47  H   LIG d   1       4.068   0.663  -1.630  0.00  0.00     0.028 H 
ATOM     48  H   LIG d   1       4.708  -0.974  -1.349  0.00  0.00     0.028 H 
ENDBRANCH  16  45
TORSDOF 7
ENDMDL
MODEL 4
REMARK VINA RESULT:      -5.9      2.623      4.062
REMARK  7 active torsions:
REMARK  status: ('A' for Active; 'I' for Inactive)
REMARK    1  A    between atoms: C_1  and  C_2 
REMARK    2  A    between atoms: C_2  and  C_30 
REMARK    3  A    between atoms: C_6  and  C_21 
REMARK    4  A    between atoms: C_17  and  C_19 
REMARK    5  A    between atoms: C_17  and  C_20 
REMARK    6  A    between atoms: C_21  and  N_22 
REMARK       I    between atoms: N_22  and  C_23 
REMARK    7  A    between atoms: C_23  and  C_25 
ROOT
ATOM      1  C   LIG d   1       3.532   0.013  -3.939  0.00  0.00     0.166 C 
ATOM      2  O   LIG d   1       4.759   0.418  -4.593  0.00  0.00    -0.341 OA
ATOM      3  C   LIG d   1       5.372  -0.783  -5.023  0.00  0.00     0.118 C 
ATOM      4  H   LIG d   1       4.948  -1.051  -5.990  0.00  0.00     0.065 H 
ATOM      5  C   LIG d   1       6.877  -0.868  -5.116  0.00  0.00     0.106 C 
ATOM      6  H   LIG d   1       7.318  -0.689  -4.136  0.00  0.00     0.064 H 
ATOM      7  O   LIG d   1       7.191  -2.217  -5.568  0.00  0.00    -0.341 OA
ATOM      8  C   LIG d   1       6.008  -2.953  -5.789  0.00  0.00     0.191 C 
ATOM      9  H   LIG d   1       5.365  -2.400  -6.474  0.00  0.00     0.094 H 
ATOM     10  C   LIG d   1       5.258  -3.158  -4.440  0.00  0.00     0.141 C 
ATOM     11  H   LIG d   1       5.928  -3.625  -3.718  0.00  0.00     0.068 H 
ATOM     12  C   LIG d   1       4.867  -1.801  -3.955  0.00  0.00     0.121 C 
ATOM     13  H   LIG d   1       5.345  -1.599  -2.996  0.00  0.00     0.065 H 
ATOM     14  O   LIG d   1       3.492  -1.437  -3.894  0.00  0.00    -0.341 OA
ATOM     15  O   LIG d   1       4.252  -4.089  -4.808  0.00  0.00    -0.338 OA
ATOM     16  C   LIG d   1       4.806  -4.856  -5.902  0.00  0.00     0.168 C 
ATOM     17  O   LIG d   1       6.102  -4.299  -6.246  0.00  0.00    -0.318 OA
ENDROOT
BRANCH   5  18
ATOM     18  C   LIG d   1       7.402   0.158  -6.122  0.00  0.00     0.041 C 
ATOM     19  H   LIG d   1       8.285  -0.241  -6.621  0.00  0.00     0.049 H 
ATOM     20  H   LIG d   1       6.631   0.368  -6.863  0.00  0.00     0.049 H 
BRANCH  18  21
ATOM     21  N   LIG d   1       7.753   1.396  -5.421  0.00  0.00    -0.306 N 
ATOM     22  C   LIG d   1       9.013   1.588  -4.983  0.00  0.00     0.279 C 
ATOM     23  O   LIG d   1       9.860   0.734  -5.172  0.00  0.00    -0.267 OA
ATOM     24  H   LIG d   1       7.078   2.076  -5.271  0.00  0.00     0.149 HD
BRANCH  22  25
ATOM     25  C   LIG d   1       9.364   2.826  -4.282  0.00  0.00     0.189 A 
ATOM     26  O   LIG d   1       9.878   2.914  -3.037  0.00  0.00    -0.458 OA
ATOM     27  C   LIG d   1      10.075   4.202  -2.728  0.00  0.00     0.093 A 
ATOM     28  C   LIG d   1       9.681   4.965  -3.771  0.00  0.00    -0.023 A 
ATOM     29  H   LIG d   1      10.478   4.570  -1.796  0.00  0.00     0.103 H 
ATOM     30  C   LIG d   1       9.224   4.093  -4.771  0.00  0.00    -0.011 A 
ATOM     31  H   LIG d   1       9.712   6.043  -3.824  0.00  0.00     0.065 H 
ATOM     32  H   LIG d   1       8.836   4.371  -5.740  0.00  0.00     0.066 H 
ENDBRANCH  22  25
ENDBRANCH  18  21
ENDBRANCH   5  18
BRANCH   1  33
ATOM     33  C   LIG d   1       2.330   0.539  -4.727  0.00  0.00    -0.011 C 
ATOM     34  H   LIG d   1       1.410   0.165  -4.278  0.00  0.00     0.028 H 
ATOM     35  H   LIG d   1       2.330   1.628  -4.705  0.00  0.00     0.028 H 
ATOM     36  H   LIG d   1       2.396   0.196  -5.760  0.00  0.00     0.028 H 
ENDBRANCH   1  33
BRANCH   1  37
ATOM     37  C   LIG d   1       3.499   0.573  -2.515  0.00  0.00    -0.011 C 
ATOM     38  H   LIG d   1       3.177   1.614  -2.540  0.00  0.00     0.028 H 
ATOM     39  H   LIG d   1       2.802  -0.009  -1.912  0.00  0.00     0.028 H 
ATOM     40  H   LIG d   1       4.496   0.511  -2.077  0.00  0.00     0.028 H 
ENDBRANCH   1  37
BRANCH  16  41
ATOM     41  C   LIG d   1       3.874  -4.774  -7.113  0.00  0.00    -0.011 C 
ATOM     42  H   LIG d   1       4.283  -5.373  -7.927  0.00  0.00     0.028 H 
ATOM     43  H   LIG d   1       2.890  -5.155  -6.839  0.00  0.00     0.028 H 
ATOM     44  H   LIG d   1       3.785  -3.737  -7.434  0.00  0.00     0.028 H 
ENDBRANCH  16  41
BRANCH  16  45
ATOM     45  C   LIG d   1       4.969  -6.317  -5.477  0.00  0.00    -0.011 C 
ATOM     46  H   LIG d   1       6.015  -6.512  -5.241  0.00  0.00     0.028 H 
ATOM     47  H   LIG d   1       4.356  -6.509  -4.597  0.00  0.00     0.028 H 
ATOM     48  H   LIG d   1       4.653  -6.969  -6.291  0.00  0.00     0.028 H 
ENDBRANCH  16  45
TORSDOF 7
ENDMDL
MODEL 5
REMARK VINA RESULT:      -5.9      1.978      6.202
REMARK  7 active torsions:
REMARK  status: ('A' for Active; 'I' for Inactive)
REMARK    1  A    between atoms: C_1  and  C_2 
REMARK    2  A    between atoms: C_2  and  C_30 
REMARK    3  A    between atoms: C_6  and  C_21 
REMARK    4  A    between atoms: C_17  and  C_19 
REMARK    5  A    between atoms: C_17  and  C_20 
REMARK    6  A    between atoms: C_21  and  N_22 
REMARK       I    between atoms: N_22  and  C_23 
REMARK    7  A    between atoms: C_23  and  C_25 
ROOT
ATOM      1  C   LIG d   1       4.352   1.348  -9.675  0.00  0.00     0.166 C 
ATOM      2  O   LIG d   1       4.057   0.175  -8.880  0.00  0.00    -0.341 OA
ATOM      3  C   LIG d   1       5.283  -0.193  -8.278  0.00  0.00     0.118 C 
ATOM      4  H   LIG d   1       5.400   0.391  -7.366  0.00  0.00     0.065 H 
ATOM      5  C   LIG d   1       5.560  -1.644  -7.959  0.00  0.00     0.106 C 
ATOM      6  H   LIG d   1       5.535  -2.233  -8.876  0.00  0.00     0.064 H 
ATOM      7  O   LIG d   1       6.891  -1.694  -7.369  0.00  0.00    -0.341 OA
ATOM      8  C   LIG d   1       7.438  -0.397  -7.269  0.00  0.00     0.191 C 
ATOM      9  H   LIG d   1       6.741   0.245  -6.728  0.00  0.00     0.094 H 
ATOM     10  C   LIG d   1       7.666   0.187  -8.695  0.00  0.00     0.141 C 
ATOM     11  H   LIG d   1       8.284  -0.498  -9.274  0.00  0.00     0.068 H 
ATOM     12  C   LIG d   1       6.320   0.307  -9.330  0.00  0.00     0.121 C 
ATOM     13  H   LIG d   1       6.275  -0.320 -10.221  0.00  0.00     0.065 H 
ATOM     14  O   LIG d   1       5.782   1.594  -9.617  0.00  0.00    -0.341 OA
ATOM     15  O   LIG d   1       8.414   1.359  -8.410  0.00  0.00    -0.338 OA
ATOM     16  C   LIG d   1       9.143   1.074  -7.193  0.00  0.00     0.168 C 
ATOM     17  O   LIG d   1       8.736  -0.230  -6.706  0.00  0.00    -0.318 OA
ENDROOT
BRANCH   5  18
ATOM     18  C   LIG d   1       4.524  -2.173  -6.966  0.00  0.00     0.041 C 
ATOM     19  H   LIG d   1       3.603  -2.414  -7.496  0.00  0.00     0.049 H 
ATOM     20  H   LIG d   1       4.910  -3.069  -6.482  0.00  0.00     0.049 H 
BRANCH  18  21
ATOM     21  N   LIG d   1       4.252  -1.150  -5.953  0.00  0.00    -0.306 N 
ATOM     22  C   LIG d   1       4.713  -1.306  -4.697  0.00  0.00     0.279 C 
ATOM     23  O   LIG d   1       5.358  -2.296  -4.403  0.00  0.00    -0.267 OA
ATOM     24  H   LIG d   1       3.738  -0.361  -6.187  0.00  0.00     0.149 HD
BRANCH  22  25
ATOM     25  C   LIG d   1       4.440  -0.282  -3.683  0.00  0.00     0.189 A 
ATOM     26  O   LIG d   1       3.805   0.890  -3.891  0.00  0.00    -0.458 OA
ATOM     27  C   LIG d   1       3.734   1.568  -2.738  0.00  0.00     0.093 A 
ATOM     28  C   LIG d   1       4.334   0.841  -1.769  0.00  0.00    -0.023 A 
ATOM     29  H   LIG d   1       3.277   2.538  -2.606  0.00  0.00     0.103 H 
ATOM     30  C   LIG d   1       4.789  -0.345  -2.365  0.00  0.00    -0.011 A 
ATOM     31  H   LIG d   1       4.442   1.122  -0.732  0.00  0.00     0.065 H 
ATOM     32  H   LIG d   1       5.315  -1.151  -1.874  0.00  0.00     0.066 H 
ENDBRANCH  22  25
ENDBRANCH  18  21
ENDBRANCH   5  18
BRANCH   1  33
ATOM     33  C   LIG d   1       3.599   2.555  -9.111  0.00  0.00    -0.011 C 
ATOM     34  H   LIG d   1       2.629   2.639  -9.602  0.00  0.00     0.028 H 
ATOM     35  H   LIG d   1       3.454   2.425  -8.039  0.00  0.00     0.028 H 
ATOM     36  H   LIG d   1       4.177   3.461  -9.293  0.00  0.00     0.028 H 
ENDBRANCH   1  33
BRANCH   1  37
ATOM     37  C   LIG d   1       3.929   1.108 -11.126  0.00  0.00    -0.011 C 
ATOM     38  H   LIG d   1       4.762   1.338 -11.790  0.00  0.00     0.028 H 
ATOM     39  H   LIG d   1       3.640   0.066 -11.252  0.00  0.00     0.028 H 
ATOM     40  H   LIG d   1       3.083   1.752 -11.368  0.00  0.00     0.028 H 
ENDBRANCH   1  37
BRANCH  16  41
ATOM     41  C   LIG d   1       8.824   2.139  -6.141  0.00  0.00    -0.011 C 
ATOM     42  H   LIG d   1       8.087   2.835  -6.540  0.00  0.00     0.028 H 
ATOM     43  H   LIG d   1       8.425   1.657  -5.248  0.00  0.00     0.028 H 
ATOM     44  H   LIG d   1       9.734   2.681  -5.885  0.00  0.00     0.028 H 
ENDBRANCH  16  41
BRANCH  16  45
ATOM     45  C   LIG d   1      10.646   1.071  -7.481  0.00  0.00    -0.011 C 
ATOM     46  H   LIG d   1      11.137   0.341  -6.838  0.00  0.00     0.028 H 
ATOM     47  H   LIG d   1      10.815   0.807  -8.524  0.00  0.00     0.028 H 
ATOM     48  H   LIG d   1      11.056   2.062  -7.284  0.00  0.00     0.028 H 
ENDBRANCH  16  45
TORSDOF 7
ENDMDL
MODEL 6
REMARK VINA RESULT:      -5.7      2.122      4.567
REMARK  7 active torsions:
REMARK  status: ('A' for Active; 'I' for Inactive)
REMARK    1  A    between atoms: C_1  and  C_2 
REMARK    2  A    between atoms: C_2  and  C_30 
REMARK    3  A    between atoms: C_6  and  C_21 
REMARK    4  A    between atoms: C_17  and  C_19 
REMARK    5  A    between atoms: C_17  and  C_20 
REMARK    6  A    between atoms: C_21  and  N_22 
REMARK       I    between atoms: N_22  and  C_23 
REMARK    7  A    between atoms: C_23  and  C_25 
ROOT
ATOM      1  C   LIG d   1       5.029  -4.999  -6.198  0.00  0.00     0.166 C 
ATOM      2  O   LIG d   1       4.292  -3.976  -5.486  0.00  0.00    -0.341 OA
ATOM      3  C   LIG d   1       5.262  -3.035  -5.065  0.00  0.00     0.118 C 
ATOM      4  H   LIG d   1       5.432  -2.337  -5.885  0.00  0.00     0.065 H 
ATOM      5  C   LIG d   1       5.042  -2.244  -3.797  0.00  0.00     0.106 C 
ATOM      6  H   LIG d   1       4.957  -2.924  -2.949  0.00  0.00     0.064 H 
ATOM      7  O   LIG d   1       6.208  -1.386  -3.635  0.00  0.00    -0.341 OA
ATOM      8  C   LIG d   1       7.104  -1.559  -4.710  0.00  0.00     0.191 C 
ATOM      9  H   LIG d   1       6.572  -1.404  -5.649  0.00  0.00     0.094 H 
ATOM     10  C   LIG d   1       7.680  -3.007  -4.684  0.00  0.00     0.141 C 
ATOM     11  H   LIG d   1       8.130  -3.202  -3.711  0.00  0.00     0.068 H 
ATOM     12  C   LIG d   1       6.527  -3.931  -4.897  0.00  0.00     0.121 C 
ATOM     13  H   LIG d   1       6.408  -4.580  -4.030  0.00  0.00     0.065 H 
ATOM     14  O   LIG d   1       6.446  -4.702  -6.092  0.00  0.00    -0.341 OA
ATOM     15  O   LIG d   1       8.706  -2.926  -5.661  0.00  0.00    -0.338 OA
ATOM     16  C   LIG d   1       9.151  -1.550  -5.652  0.00  0.00     0.168 C 
ATOM     17  O   LIG d   1       8.309  -0.798  -4.741  0.00  0.00    -0.318 OA
ENDROOT
BRANCH   5  18
ATOM     18  C   LIG d   1       3.776  -1.394  -3.918  0.00  0.00     0.041 C 
ATOM     19  H   LIG d   1       2.921  -1.961  -3.549  0.00  0.00     0.049 H 
ATOM     20  H   LIG d   1       3.891  -0.485  -3.327  0.00  0.00     0.049 H 
BRANCH  18  21
ATOM     21  N   LIG d   1       3.558  -1.039  -5.323  0.00  0.00    -0.306 N 
ATOM     22  C   LIG d   1       3.119   0.193  -5.646  0.00  0.00     0.279 C 
ATOM     23  O   LIG d   1       2.905   1.013  -4.771  0.00  0.00    -0.267 OA
ATOM     24  H   LIG d   1       3.729  -1.692  -6.019  0.00  0.00     0.149 HD
BRANCH  22  25
ATOM     25  C   LIG d   1       2.902   0.548  -7.052  0.00  0.00     0.189 A 
ATOM     26  O   LIG d   1       3.050   1.775  -7.592  0.00  0.00    -0.458 OA
ATOM     27  C   LIG d   1       2.769   1.722  -8.900  0.00  0.00     0.093 A 
ATOM     28  C   LIG d   1       2.426   0.455  -9.220  0.00  0.00    -0.023 A 
ATOM     29  H   LIG d   1       2.806   2.557  -9.586  0.00  0.00     0.103 H 
ATOM     30  C   LIG d   1       2.508  -0.304  -8.043  0.00  0.00    -0.011 A 
ATOM     31  H   LIG d   1       2.142   0.095 -10.198  0.00  0.00     0.065 H 
ATOM     32  H   LIG d   1       2.299  -1.360  -7.941  0.00  0.00     0.066 H 
ENDBRANCH  22  25
ENDBRANCH  18  21
ENDBRANCH   5  18
BRANCH   1  33
ATOM     33  C   LIG d   1       4.612  -5.004  -7.670  0.00  0.00    -0.011 C 
ATOM     34  H   LIG d   1       4.733  -4.004  -8.085  0.00  0.00     0.028 H 
ATOM     35  H   LIG d   1       5.236  -5.706  -8.222  0.00  0.00     0.028 H 
ATOM     36  H   LIG d   1       3.567  -5.306  -7.750  0.00  0.00     0.028 H 
ENDBRANCH   1  33
BRANCH   1  37
ATOM     37  C   LIG d   1       4.743  -6.368  -5.576  0.00  0.00    -0.011 C 
ATOM     38  H   LIG d   1       4.182  -6.236  -4.651  0.00  0.00     0.028 H 
ATOM     39  H   LIG d   1       4.160  -6.969  -6.273  0.00  0.00     0.028 H 
ATOM     40  H   LIG d   1       5.685  -6.873  -5.360  0.00  0.00     0.028 H 
ENDBRANCH   1  37
BRANCH  16  41
ATOM     41  C   LIG d   1       9.038  -0.963  -7.061  0.00  0.00    -0.011 C 
ATOM     42  H   LIG d   1       9.884  -0.301  -7.247  0.00  0.00     0.028 H 
ATOM     43  H   LIG d   1       9.041  -1.771  -7.792  0.00  0.00     0.028 H 
ATOM     44  H   LIG d   1       8.110  -0.399  -7.146  0.00  0.00     0.028 H 
ENDBRANCH  16  41
BRANCH  16  45
ATOM     45  C   LIG d   1      10.606  -1.482  -5.183  0.00  0.00    -0.011 C 
ATOM     46  H   LIG d   1      10.835  -2.360  -4.579  0.00  0.00     0.028 H 
ATOM     47  H   LIG d   1      11.266  -1.456  -6.050  0.00  0.00     0.028 H 
ATOM     48  H   LIG d   1      10.754  -0.582  -4.586  0.00  0.00     0.028 H 
ENDBRANCH  16  45
TORSDOF 7
ENDMDL
MODEL 7
REMARK VINA RESULT:      -5.7      2.468      5.679
REMARK  7 active torsions:
REMARK  status: ('A' for Active; 'I' for Inactive)
REMARK    1  A    between atoms: C_1  and  C_2 
REMARK    2  A    between atoms: C_2  and  C_30 
REMARK    3  A    between atoms: C_6  and  C_21 
REMARK    4  A    between atoms: C_17  and  C_19 
REMARK    5  A    between atoms: C_17  and  C_20 
REMARK    6  A    between atoms: C_21  and  N_22 
REMARK       I    between atoms: N_22  and  C_23 
REMARK    7  A    between atoms: C_23  and  C_25 
ROOT
ATOM      1  C   LIG d   1       6.716  -1.871  -7.506  0.00  0.00     0.166 C 
ATOM      2  O   LIG d   1       6.104  -3.112  -7.078  0.00  0.00    -0.341 OA
ATOM      3  C   LIG d   1       5.359  -2.787  -5.920  0.00  0.00     0.118 C 
ATOM      4  H   LIG d   1       4.383  -2.420  -6.239  0.00  0.00     0.065 H 
ATOM      5  C   LIG d   1       5.154  -3.824  -4.841  0.00  0.00     0.106 C 
ATOM      6  H   LIG d   1       6.119  -4.140  -4.446  0.00  0.00     0.064 H 
ATOM      7  O   LIG d   1       4.370  -3.184  -3.793  0.00  0.00    -0.341 OA
ATOM      8  C   LIG d   1       4.051  -1.858  -4.152  0.00  0.00     0.191 C 
ATOM      9  H   LIG d   1       3.562  -1.858  -5.127  0.00  0.00     0.094 H 
ATOM     10  C   LIG d   1       5.354  -1.009  -4.236  0.00  0.00     0.141 C 
ATOM     11  H   LIG d   1       5.898  -1.082  -3.295  0.00  0.00     0.068 H 
ATOM     12  C   LIG d   1       6.177  -1.595  -5.336  0.00  0.00     0.121 C 
ATOM     13  H   LIG d   1       7.124  -1.957  -4.937  0.00  0.00     0.065 H 
ATOM     14  O   LIG d   1       6.409  -0.846  -6.525  0.00  0.00    -0.341 OA
ATOM     15  O   LIG d   1       4.835   0.304  -4.371  0.00  0.00    -0.338 OA
ATOM     16  C   LIG d   1       3.555   0.293  -3.697  0.00  0.00     0.168 C 
ATOM     17  O   LIG d   1       3.277  -1.062  -3.259  0.00  0.00    -0.318 OA
ENDROOT
BRANCH   5  18
ATOM     18  C   LIG d   1       4.396  -5.028  -5.404  0.00  0.00     0.041 C 
ATOM     19  H   LIG d   1       5.101  -5.828  -5.629  0.00  0.00     0.049 H 
ATOM     20  H   LIG d   1       3.673  -5.378  -4.667  0.00  0.00     0.049 H 
BRANCH  18  21
ATOM     21  N   LIG d   1       3.694  -4.635  -6.628  0.00  0.00    -0.306 N 
ATOM     22  C   LIG d   1       3.567  -5.511  -7.643  0.00  0.00     0.279 C 
ATOM     23  O   LIG d   1       4.035  -6.631  -7.543  0.00  0.00    -0.267 OA
ATOM     24  H   LIG d   1       3.321  -3.743  -6.708  0.00  0.00     0.149 HD
BRANCH  22  25
ATOM     25  C   LIG d   1       2.864  -5.118  -8.868  0.00  0.00     0.189 A 
ATOM     26  O   LIG d   1       1.947  -5.855  -9.528  0.00  0.00    -0.458 OA
ATOM     27  C   LIG d   1       1.518  -5.176 -10.599  0.00  0.00     0.093 A 
ATOM     28  C   LIG d   1       2.162  -3.990 -10.649  0.00  0.00    -0.023 A 
ATOM     29  H   LIG d   1       0.781  -5.523 -11.309  0.00  0.00     0.103 H 
ATOM     30  C   LIG d   1       3.027  -3.944  -9.545  0.00  0.00    -0.011 A 
ATOM     31  H   LIG d   1       2.036  -3.223 -11.399  0.00  0.00     0.065 H 
ATOM     32  H   LIG d   1       3.693  -3.134  -9.282  0.00  0.00     0.066 H 
ENDBRANCH  22  25
ENDBRANCH  18  21
ENDBRANCH   5  18
BRANCH   1  33
ATOM     33  C   LIG d   1       6.154  -1.464  -8.870  0.00  0.00    -0.011 C 
ATOM     34  H   LIG d   1       6.696  -0.593  -9.240  0.00  0.00     0.028 H 
ATOM     35  H   LIG d   1       6.270  -2.290  -9.572  0.00  0.00     0.028 H 
ATOM     36  H   LIG d   1       5.097  -1.218  -8.769  0.00  0.00     0.028 H 
ENDBRANCH   1  33
BRANCH   1  37
ATOM     37  C   LIG d   1       8.232  -2.052  -7.606  0.00  0.00    -0.011 C 
ATOM     38  H   LIG d   1       8.728  -1.307  -6.983  0.00  0.00     0.028 H 
ATOM     39  H   LIG d   1       8.502  -3.050  -7.264  0.00  0.00     0.028 H 
ATOM     40  H   LIG d   1       8.546  -1.925  -8.643  0.00  0.00     0.028 H 
ENDBRANCH   1  37
BRANCH  16  41
ATOM     41  C   LIG d   1       2.460   0.757  -4.660  0.00  0.00    -0.011 C 
ATOM     42  H   LIG d   1       1.873   1.544  -4.190  0.00  0.00     0.028 H 
ATOM     43  H   LIG d   1       2.919   1.139  -5.572  0.00  0.00     0.028 H 
ATOM     44  H   LIG d   1       1.812  -0.084  -4.905  0.00  0.00     0.028 H 
ENDBRANCH  16  41
BRANCH  16  45
ATOM     45  C   LIG d   1       3.602   1.226  -2.485  0.00  0.00    -0.011 C 
ATOM     46  H   LIG d   1       3.135   0.737  -1.631  0.00  0.00     0.028 H 
ATOM     47  H   LIG d   1       4.639   1.460  -2.248  0.00  0.00     0.028 H 
ATOM     48  H   LIG d   1       3.064   2.147  -2.714  0.00  0.00     0.028 H 
ENDBRANCH  16  45
TORSDOF 7
ENDMDL
MODEL 8
REMARK VINA RESULT:      -5.7      2.403      4.841
REMARK  7 active torsions:
REMARK  status: ('A' for Active; 'I' for Inactive)
REMARK    1  A    between atoms: C_1  and  C_2 
REMARK    2  A    between atoms: C_2  and  C_30 
REMARK    3  A    between atoms: C_6  and  C_21 
REMARK    4  A    between atoms: C_17  and  C_19 
REMARK    5  A    between atoms: C_17  and  C_20 
REMARK    6  A    between atoms: C_21  and  N_22 
REMARK       I    between atoms: N_22  and  C_23 
REMARK    7  A    between atoms: C_23  and  C_25 
ROOT
ATOM      1  C   LIG d   1       6.776   0.281  -7.818  0.00  0.00     0.166 C 
ATOM      2  O   LIG d   1       6.204  -1.049  -7.844  0.00  0.00    -0.341 OA
ATOM      3  C   LIG d   1       5.674  -1.258  -6.549  0.00  0.00     0.118 C 
ATOM      4  H   LIG d   1       4.672  -0.831  -6.521  0.00  0.00     0.065 H 
ATOM      5  C   LIG d   1       5.619  -2.654  -5.975  0.00  0.00     0.106 C 
ATOM      6  H   LIG d   1       6.626  -3.067  -5.912  0.00  0.00     0.064 H 
ATOM      7  O   LIG d   1       5.044  -2.534  -4.642  0.00  0.00    -0.341 OA
ATOM      8  C   LIG d   1       4.713  -1.191  -4.364  0.00  0.00     0.191 C 
ATOM      9  H   LIG d   1       4.068  -0.810  -5.156  0.00  0.00     0.094 H 
ATOM     10  C   LIG d   1       6.011  -0.332  -4.307  0.00  0.00     0.141 C 
ATOM     11  H   LIG d   1       6.702  -0.764  -3.584  0.00  0.00     0.068 H 
ATOM     12  C   LIG d   1       6.618  -0.381  -5.670  0.00  0.00     0.121 C 
ATOM     13  H   LIG d   1       7.606  -0.837  -5.619  0.00  0.00     0.065 H 
ATOM     14  O   LIG d   1       6.672   0.800  -6.466  0.00  0.00    -0.341 OA
ATOM     15  O   LIG d   1       5.520   0.899  -3.800  0.00  0.00    -0.338 OA
ATOM     16  C   LIG d   1       4.372   0.561  -2.988  0.00  0.00     0.168 C 
ATOM     17  O   LIG d   1       4.126  -0.864  -3.107  0.00  0.00    -0.318 OA
ENDROOT
BRANCH   5  18
ATOM     18  C   LIG d   1       4.738  -3.549  -6.848  0.00  0.00     0.041 C 
ATOM     19  H   LIG d   1       5.367  -4.136  -7.517  0.00  0.00     0.049 H 
ATOM     20  H   LIG d   1       4.159  -4.219  -6.214  0.00  0.00     0.049 H 
BRANCH  18  21
ATOM     21  N   LIG d   1       3.827  -2.717  -7.639  0.00  0.00    -0.306 N 
ATOM     22  C   LIG d   1       3.476  -3.096  -8.882  0.00  0.00     0.279 C 
ATOM     23  O   LIG d   1       3.914  -4.132  -9.350  0.00  0.00    -0.267 OA
ATOM     24  H   LIG d   1       3.478  -1.892  -7.266  0.00  0.00     0.149 HD
BRANCH  22  25
ATOM     25  C   LIG d   1       2.564  -2.263  -9.673  0.00  0.00     0.189 A 
ATOM     26  O   LIG d   1       2.014  -2.595 -10.859  0.00  0.00    -0.458 OA
ATOM     27  C   LIG d   1       1.233  -1.593 -11.283  0.00  0.00     0.093 A 
ATOM     28  C   LIG d   1       1.277  -0.594 -10.375  0.00  0.00    -0.023 A 
ATOM     29  H   LIG d   1       0.666  -1.584 -12.202  0.00  0.00     0.103 H 
ATOM     30  C   LIG d   1       2.127  -1.014  -9.339  0.00  0.00    -0.011 A 
ATOM     31  H   LIG d   1       0.756   0.350 -10.435  0.00  0.00     0.065 H 
ATOM     32  H   LIG d   1       2.385  -0.455  -8.451  0.00  0.00     0.066 H 
ENDBRANCH  22  25
ENDBRANCH  18  21
ENDBRANCH   5  18
BRANCH   1  33
ATOM     33  C   LIG d   1       6.008   1.191  -8.779  0.00  0.00    -0.011 C 
ATOM     34  H   LIG d   1       5.821   2.152  -8.299  0.00  0.00     0.028 H 
ATOM     35  H   LIG d   1       6.596   1.344  -9.684  0.00  0.00     0.028 H 
ATOM     36  H   LIG d   1       5.057   0.724  -9.039  0.00  0.00     0.028 H 
ENDBRANCH   1  33
BRANCH   1  37
ATOM     37  C   LIG d   1       8.247   0.218  -8.234  0.00  0.00    -0.011 C 
ATOM     38  H   LIG d   1       8.393  -0.608  -8.930  0.00  0.00     0.028 H 
ATOM     39  H   LIG d   1       8.530   1.154  -8.714  0.00  0.00     0.028 H 
ATOM     40  H   LIG d   1       8.867   0.061  -7.350  0.00  0.00     0.028 H 
ENDBRANCH   1  37
BRANCH  16  41
ATOM     41  C   LIG d   1       3.147   1.337  -3.479  0.00  0.00    -0.011 C 
ATOM     42  H   LIG d   1       3.287   1.614  -4.523  0.00  0.00     0.028 H 
ATOM     43  H   LIG d   1       2.260   0.711  -3.384  0.00  0.00     0.028 H 
ATOM     44  H   LIG d   1       3.022   2.237  -2.877  0.00  0.00     0.028 H 
ENDBRANCH  16  41
BRANCH  16  45
ATOM     45  C   LIG d   1       4.652   0.915  -1.526  0.00  0.00    -0.011 C 
ATOM     46  H   LIG d   1       5.034   0.036  -1.006  0.00  0.00     0.028 H 
ATOM     47  H   LIG d   1       5.392   1.713  -1.482  0.00  0.00     0.028 H 
ATOM     48  H   LIG d   1       3.730   1.247  -1.049  0.00  0.00     0.028 H 
ENDBRANCH  16  45
TORSDOF 7
ENDMDL
MODEL 9
REMARK VINA RESULT:      -5.6      2.521      4.624
REMARK  7 active torsions:
REMARK  status: ('A' for Active; 'I' for Inactive)
REMARK    1  A    between atoms: C_1  and  C_2 
REMARK    2  A    between atoms: C_2  and  C_30 
REMARK    3  A    between atoms: C_6  and  C_21 
REMARK    4  A    between atoms: C_17  and  C_19 
REMARK    5  A    between atoms: C_17  and  C_20 
REMARK    6  A    between atoms: C_21  and  N_22 
REMARK       I    between atoms: N_22  and  C_23 
REMARK    7  A    between atoms: C_23  and  C_25 
ROOT
ATOM      1  C   LIG d   1       4.727  -0.010  -3.280  0.00  0.00     0.166 C 
ATOM      2  O   LIG d   1       5.984  -0.421  -3.869  0.00  0.00    -0.341 OA
ATOM      3  C   LIG d   1       5.731  -0.536  -5.257  0.00  0.00     0.118 C 
ATOM      4  H   LIG d   1       5.847   0.450  -5.704  0.00  0.00     0.065 H 
ATOM      5  C   LIG d   1       6.509  -1.534  -6.082  0.00  0.00     0.106 C 
ATOM      6  H   LIG d   1       6.335  -2.541  -5.703  0.00  0.00     0.064 H 
ATOM      7  O   LIG d   1       6.013  -1.422  -7.447  0.00  0.00    -0.341 OA
ATOM      8  C   LIG d   1       5.024  -0.419  -7.534  0.00  0.00     0.191 C 
ATOM      9  H   LIG d   1       5.422   0.513  -7.133  0.00  0.00     0.094 H 
ATOM     10  C   LIG d   1       3.777  -0.840  -6.700  0.00  0.00     0.141 C 
ATOM     11  H   LIG d   1       3.430  -1.818  -7.032  0.00  0.00     0.068 H 
ATOM     12  C   LIG d   1       4.221  -0.922  -5.277  0.00  0.00     0.121 C 
ATOM     13  H   LIG d   1       4.094  -1.940  -4.908  0.00  0.00     0.065 H 
ATOM     14  O   LIG d   1       3.715   0.004  -4.320  0.00  0.00    -0.341 OA
ATOM     15  O   LIG d   1       2.829   0.143  -7.084  0.00  0.00    -0.338 OA
ATOM     16  C   LIG d   1       3.189   0.533  -8.430  0.00  0.00     0.168 C 
ATOM     17  O   LIG d   1       4.417  -0.147  -8.794  0.00  0.00    -0.318 OA
ENDROOT
BRANCH   5  18
ATOM     18  C   LIG d   1       8.003  -1.207  -6.037  0.00  0.00     0.041 C 
ATOM     19  H   LIG d   1       8.503  -1.889  -5.351  0.00  0.00     0.049 H 
ATOM     20  H   LIG d   1       8.429  -1.317  -7.034  0.00  0.00     0.049 H 
BRANCH  18  21
ATOM     21  N   LIG d   1       8.187   0.172  -5.578  0.00  0.00    -0.306 N 
ATOM     22  C   LIG d   1       8.987   1.011  -6.265  0.00  0.00     0.279 C 
ATOM     23  O   LIG d   1       9.556   0.623  -7.269  0.00  0.00    -0.267 OA
ATOM     24  H   LIG d   1       7.733   0.481  -4.778  0.00  0.00     0.149 HD
BRANCH  22  25
ATOM     25  C   LIG d   1       9.171   2.390  -5.805  0.00  0.00     0.189 A 
ATOM     26  O   LIG d   1       9.739   3.392  -6.508  0.00  0.00    -0.458 OA
ATOM     27  C   LIG d   1       9.733   4.511  -5.773  0.00  0.00     0.093 A 
ATOM     28  C   LIG d   1       9.165   4.242  -4.576  0.00  0.00    -0.023 A 
ATOM     29  H   LIG d   1      10.122   5.469  -6.083  0.00  0.00     0.103 H 
ATOM     30  C   LIG d   1       8.802   2.886  -4.587  0.00  0.00    -0.011 A 
ATOM     31  H   LIG d   1       9.019   4.939  -3.765  0.00  0.00     0.065 H 
ATOM     32  H   LIG d   1       8.324   2.341  -3.786  0.00  0.00     0.066 H 
ENDBRANCH  22  25
ENDBRANCH  18  21
ENDBRANCH   5  18
BRANCH   1  33
ATOM     33  C   LIG d   1       4.872   1.391  -2.682  0.00  0.00    -0.011 C 
ATOM     34  H   LIG d   1       4.113   2.047  -3.108  0.00  0.00     0.028 H 
ATOM     35  H   LIG d   1       4.744   1.340  -1.601  0.00  0.00     0.028 H 
ATOM     36  H   LIG d   1       5.862   1.783  -2.913  0.00  0.00     0.028 H 
ENDBRANCH   1  33
BRANCH   1  37
ATOM     37  C   LIG d   1       4.324  -0.999  -2.184  0.00  0.00    -0.011 C 
ATOM     38  H   LIG d   1       4.214  -0.469  -1.238  0.00  0.00     0.028 H 
ATOM     39  H   LIG d   1       3.378  -1.470  -2.450  0.00  0.00     0.028 H 
ATOM     40  H   LIG d   1       5.095  -1.764  -2.084  0.00  0.00     0.028 H 
ENDBRANCH   1  37
BRANCH  16  41
ATOM     41  C   LIG d   1       3.402   2.048  -8.488  0.00  0.00    -0.011 C 
ATOM     42  H   LIG d   1       2.752   2.534  -7.762  0.00  0.00     0.028 H 
ATOM     43  H   LIG d   1       4.443   2.276  -8.256  0.00  0.00     0.028 H 
ATOM     44  H   LIG d   1       3.166   2.410  -9.488  0.00  0.00     0.028 H 
ENDBRANCH  16  41
BRANCH  16  45
ATOM     45  C   LIG d   1       2.073   0.135  -9.398  0.00  0.00    -0.011 C 
ATOM     46  H   LIG d   1       1.104   0.324  -8.935  0.00  0.00     0.028 H 
ATOM     47  H   LIG d   1       2.159   0.723 -10.312  0.00  0.00     0.028 H 
ATOM     48  H   LIG d   1       2.161  -0.925  -9.638  0.00  0.00     0.028 H 
ENDBRANCH  16  45
TORSDOF 7
ENDMDL
MODEL 10
REMARK VINA RESULT:      -5.6      2.888      7.515
REMARK  7 active torsions:
REMARK  status: ('A' for Active; 'I' for Inactive)
REMARK    1  A    between atoms: C_1  and  C_2 
REMARK    2  A    between atoms: C_2  and  C_30 
REMARK    3  A    between atoms: C_6  and  C_21 
REMARK    4  A    between atoms: C_17  and  C_19 
REMARK    5  A    between atoms: C_17  and  C_20 
REMARK    6  A    between atoms: C_21  and  N_22 
REMARK       I    between atoms: N_22  and  C_23 
REMARK    7  A    between atoms: C_23  and  C_25 
ROOT
ATOM      1  C   LIG d   1       5.684   1.058  -8.950  0.00  0.00     0.166 C 
ATOM      2  O   LIG d   1       6.137   1.043  -7.574  0.00  0.00    -0.341 OA
ATOM      3  C   LIG d   1       7.338   1.790  -7.564  0.00  0.00     0.118 C 
ATOM      4  H   LIG d   1       7.080   2.844  -7.463  0.00  0.00     0.065 H 
ATOM      5  C   LIG d   1       8.419   1.461  -6.561  0.00  0.00     0.106 C 
ATOM      6  H   LIG d   1       8.755   0.434  -6.704  0.00  0.00     0.064 H 
ATOM      7  O   LIG d   1       9.517   2.385  -6.814  0.00  0.00    -0.341 OA
ATOM      8  C   LIG d   1       9.187   3.271  -7.861  0.00  0.00     0.191 C 
ATOM      9  H   LIG d   1       8.243   3.764  -7.630  0.00  0.00     0.094 H 
ATOM     10  C   LIG d   1       9.034   2.475  -9.192  0.00  0.00     0.141 C 
ATOM     11  H   LIG d   1       9.942   1.903  -9.380  0.00  0.00     0.068 H 
ATOM     12  C   LIG d   1       7.884   1.542  -9.003  0.00  0.00     0.121 C 
ATOM     13  H   LIG d   1       8.225   0.511  -9.097  0.00  0.00     0.065 H 
ATOM     14  O   LIG d   1       6.689   1.726  -9.757  0.00  0.00    -0.341 OA
ATOM     15  O   LIG d   1       8.940   3.522 -10.145  0.00  0.00    -0.338 OA
ATOM     16  C   LIG d   1       9.688   4.629  -9.589  0.00  0.00     0.168 C 
ATOM     17  O   LIG d   1      10.130   4.263  -8.256  0.00  0.00    -0.318 OA
ENDROOT
BRANCH   5  18
ATOM     18  C   LIG d   1       7.892   1.649  -5.137  0.00  0.00     0.041 C 
ATOM     19  H   LIG d   1       8.731   1.696  -4.442  0.00  0.00     0.049 H 
ATOM     20  H   LIG d   1       7.321   2.575  -5.080  0.00  0.00     0.049 H 
BRANCH  18  21
ATOM     21  N   LIG d   1       7.029   0.519  -4.783  0.00  0.00    -0.306 N 
ATOM     22  C   LIG d   1       6.200   0.610  -3.724  0.00  0.00     0.279 C 
ATOM     23  O   LIG d   1       6.168   1.631  -3.062  0.00  0.00    -0.267 OA
ATOM     24  H   LIG d   1       7.054  -0.294  -5.311  0.00  0.00     0.149 HD
BRANCH  22  25
ATOM     25  C   LIG d   1       5.336  -0.520  -3.371  0.00  0.00     0.189 A 
ATOM     26  O   LIG d   1       5.143  -1.633  -4.109  0.00  0.00    -0.458 OA
ATOM     27  C   LIG d   1       4.293  -2.448  -3.472  0.00  0.00     0.093 A 
ATOM     28  C   LIG d   1       3.918  -1.864  -2.312  0.00  0.00    -0.023 A 
ATOM     29  H   LIG d   1       3.958  -3.411  -3.829  0.00  0.00     0.103 H 
ATOM     30  C   LIG d   1       4.581  -0.629  -2.239  0.00  0.00    -0.011 A 
ATOM     31  H   LIG d   1       3.236  -2.271  -1.580  0.00  0.00     0.065 H 
ATOM     32  H   LIG d   1       4.506   0.095  -1.440  0.00  0.00     0.066 H 
ENDBRANCH  22  25
ENDBRANCH  18  21
ENDBRANCH   5  18
BRANCH   1  33
ATOM     33  C   LIG d   1       4.358   1.816  -9.047  0.00  0.00    -0.011 C 
ATOM     34  H   LIG d   1       4.539   2.883  -8.911  0.00  0.00     0.028 H 
ATOM     35  H   LIG d   1       3.912   1.645 -10.026  0.00  0.00     0.028 H 
ATOM     36  H   LIG d   1       3.680   1.462  -8.271  0.00  0.00     0.028 H 
ENDBRANCH   1  33
BRANCH   1  37
ATOM     37  C   LIG d   1       5.495  -0.376  -9.447  0.00  0.00    -0.011 C 
ATOM     38  H   LIG d   1       5.779  -0.438 -10.497  0.00  0.00     0.028 H 
ATOM     39  H   LIG d   1       6.121  -1.049  -8.861  0.00  0.00     0.028 H 
ATOM     40  H   LIG d   1       4.449  -0.664  -9.336  0.00  0.00     0.028 H 
ENDBRANCH   1  37
BRANCH  16  41
ATOM     41  C   LIG d   1       8.793   5.868  -9.512  0.00  0.00    -0.011 C 
ATOM     42  H   LIG d   1       7.782   5.569  -9.236  0.00  0.00     0.028 H 
ATOM     43  H   LIG d   1       9.188   6.554  -8.762  0.00  0.00     0.028 H 
ATOM     44  H   LIG d   1       8.774   6.363 -10.483  0.00  0.00     0.028 H 
ENDBRANCH  16  41
BRANCH  16  45
ATOM     45  C   LIG d   1      10.902   4.926 -10.471  0.00  0.00    -0.011 C 
ATOM     46  H   LIG d   1      11.580   4.073 -10.457  0.00  0.00     0.028 H 
ATOM     47  H   LIG d   1      10.571   5.110 -11.493  0.00  0.00     0.028 H 
ATOM     48  H   LIG d   1      11.420   5.807 -10.092  0.00  0.00     0.028 H 
ENDBRANCH  16  45
TORSDOF 7
ENDMDL
