MODEL 1
REMARK VINA RESULT:      -8.5      0.000      0.000
REMARK  9 active torsions:
REMARK  status: ('A' for Active; 'I' for Inactive)
REMARK    1  A    between atoms: C_1  and  N_2 
REMARK    2  A    between atoms: C_10  and  C_13 
REMARK    3  A    between atoms: C_13  and  C_15 
REMARK    4  A    between atoms: C_15  and  C_16 
REMARK    5  A    between atoms: C_16  and  C_18 
REMARK    6  A    between atoms: C_16  and  N_29 
REMARK    7  A    between atoms: C_27  and  O_28 
REMARK    8  A    between atoms: N_29  and  C_30 
REMARK    9  A    between atoms: C_33  and  N_36 
ROOT
ATOM      1  C   LIG d   1       7.328  -2.832  -4.432  0.00  0.00     0.057 C 
ATOM      2  H   LIG d   1       6.708  -3.358  -3.706  0.00  0.00     0.055 H 
ENDROOT
BRANCH   1   3
ATOM      3  C   LIG d   1       6.841  -3.156  -5.846  0.00  0.00     0.033 C 
ATOM      4  H   LIG d   1       7.366  -4.036  -6.219  0.00  0.00     0.037 H 
ATOM      5  H   LIG d   1       7.040  -2.309  -6.503  0.00  0.00     0.037 H 
BRANCH   3   6
ATOM      6  C   LIG d   1       5.359  -3.432  -5.817  0.00  0.00     0.170 C 
ATOM      7  O   LIG d   1       4.866  -3.997  -4.862  0.00  0.00    -0.292 OA
BRANCH   6   8
ATOM      8  C   LIG d   1       4.544  -3.032  -6.902  0.00  0.00     0.073 A 
ATOM      9  C   LIG d   1       4.164  -1.622  -7.073  0.00  0.00     0.199 A 
ATOM     10  C   LIG d   1       3.312  -1.287  -8.231  0.00  0.00     0.046 A 
ATOM     11  O   LIG d   1       4.539  -0.766  -6.292  0.00  0.00    -0.286 OA
ATOM     12  C   LIG d   1       2.911  -2.315  -9.097  0.00  0.00     0.052 A 
ATOM     13  C   LIG d   1       2.908   0.026  -8.466  0.00  0.00    -0.049 A 
ATOM     14  N   LIG d   1       3.308  -3.618  -8.870  0.00  0.00    -0.356 N 
ATOM     15  C   LIG d   1       2.107  -2.007 -10.191  0.00  0.00    -0.037 A 
ATOM     16  C   LIG d   1       4.079  -3.972  -7.826  0.00  0.00    -0.022 A 
ATOM     17  O   LIG d   1       4.418  -5.265  -7.672  0.00  0.00    -0.861 OA
ATOM     18  C   LIG d   1       1.714  -0.705 -10.413  0.00  0.00    -0.060 A 
ATOM     19  H   LIG d   1       1.791  -2.788 -10.867  0.00  0.00     0.064 H 
ATOM     20  C   LIG d   1       2.112   0.310  -9.554  0.00  0.00    -0.061 A 
ATOM     21  H   LIG d   1       1.090  -0.472 -11.263  0.00  0.00     0.062 H 
ATOM     22  H   LIG d   1       1.797   1.326  -9.741  0.00  0.00     0.062 H 
ATOM     23  H   LIG d   1       3.217   0.818  -7.799  0.00  0.00     0.062 H 
BRANCH  14  24
ATOM     24  C   LIG d   1       2.865  -4.660  -9.800  0.00  0.00     0.011 C 
ATOM     25  H   LIG d   1       3.006  -5.639  -9.342  0.00  0.00     0.045 H 
ATOM     26  H   LIG d   1       1.810  -4.516 -10.032  0.00  0.00     0.045 H 
ATOM     27  H   LIG d   1       3.451  -4.599 -10.718  0.00  0.00     0.045 H 
ENDBRANCH  14  24
ENDBRANCH   6   8
ENDBRANCH   3   6
ENDBRANCH   1   3
BRANCH   1  28
ATOM     28  C   LIG d   1       7.231  -1.347  -4.197  0.00  0.00     0.022 A 
ATOM     29  C   LIG d   1       8.115  -0.497  -4.796  0.00  0.00     0.122 A 
ATOM     30  C   LIG d   1       8.036   0.883  -4.590  0.00  0.00    -0.019 A 
ATOM     31  C   LIG d   1       7.081   1.416  -3.780  0.00  0.00    -0.051 A 
ATOM     32  H   LIG d   1       8.743   1.537  -5.079  0.00  0.00     0.065 H 
ATOM     33  C   LIG d   1       6.157   0.570  -3.143  0.00  0.00    -0.017 A 
ATOM     34  H   LIG d   1       7.033   2.484  -3.628  0.00  0.00     0.062 H 
ATOM     35  C   LIG d   1       6.233  -0.829  -3.353  0.00  0.00    -0.009 A 
ATOM     36  C   LIG d   1       5.159   1.086  -2.299  0.00  0.00    -0.054 A 
ATOM     37  C   LIG d   1       5.309  -1.674  -2.715  0.00  0.00    -0.054 A 
ATOM     38  C   LIG d   1       4.355  -1.139  -1.905  0.00  0.00    -0.061 A 
ATOM     39  H   LIG d   1       5.354  -2.743  -2.867  0.00  0.00     0.062 H 
ATOM     40  C   LIG d   1       4.280   0.238  -1.699  0.00  0.00    -0.061 A 
ATOM     41  H   LIG d   1       3.646  -1.790  -1.415  0.00  0.00     0.062 H 
ATOM     42  H   LIG d   1       3.514   0.637  -1.050  0.00  0.00     0.062 H 
ATOM     43  H   LIG d   1       5.088   2.150  -2.130  0.00  0.00     0.062 H 
BRANCH  29  44
ATOM     44  O   LIG d   1       9.084  -1.000  -5.606  0.00  0.00    -0.506 OA
ATOM     45  H   LIG d   1       9.983  -0.792  -5.319  0.00  0.00     0.292 HD
ENDBRANCH  29  44
ENDBRANCH   1  28
BRANCH   1  46
ATOM     46  N   LIG d   1       8.721  -3.260  -4.286  0.00  0.00    -0.336 N 
ATOM     47  H   LIG d   1       9.436  -2.727  -4.667  0.00  0.00     0.147 HD
BRANCH  46  48
ATOM     48  C   LIG d   1       9.021  -4.437  -3.595  0.00  0.00     0.028 A 
ATOM     49  C   LIG d   1       9.461  -4.380  -2.280  0.00  0.00    -0.034 A 
ATOM     50  C   LIG d   1       9.753  -5.546  -1.599  0.00  0.00     0.017 A 
ATOM     51  H   LIG d   1       9.572  -3.425  -1.787  0.00  0.00     0.064 H 
ATOM     52  C   LIG d   1       9.616  -6.769  -2.231  0.00  0.00     0.273 A 
ATOM     53  H   LIG d   1      10.091  -5.503  -0.575  0.00  0.00     0.069 H 
ATOM     54  C   LIG d   1       9.182  -6.829  -3.542  0.00  0.00     0.017 A 
ATOM     55  C   LIG d   1       8.885  -5.667  -4.226  0.00  0.00    -0.034 A 
ATOM     56  H   LIG d   1       9.077  -7.786  -4.032  0.00  0.00     0.069 H 
ATOM     57  H   LIG d   1       8.546  -5.715  -5.251  0.00  0.00     0.064 H 
BRANCH  52  58
ATOM     58  N   LIG d   1       9.934  -8.016  -1.499  0.00  0.00     0.080 N 
ATOM     59  O   LIG d   1      10.809  -8.020  -0.664  0.00  0.00     0.041 OA
ATOM     60  O   LIG d   1       9.319  -9.029  -1.735  0.00  0.00    -0.576 OA
ENDBRANCH  52  58
ENDBRANCH  46  48
ENDBRANCH   1  46
TORSDOF 9
ENDMDL
MODEL 2
REMARK VINA RESULT:      -8.4      1.669      2.087
REMARK  9 active torsions:
REMARK  status: ('A' for Active; 'I' for Inactive)
REMARK    1  A    between atoms: C_1  and  N_2 
REMARK    2  A    between atoms: C_10  and  C_13 
REMARK    3  A    between atoms: C_13  and  C_15 
REMARK    4  A    between atoms: C_15  and  C_16 
REMARK    5  A    between atoms: C_16  and  C_18 
REMARK    6  A    between atoms: C_16  and  N_29 
REMARK    7  A    between atoms: C_27  and  O_28 
REMARK    8  A    between atoms: N_29  and  C_30 
REMARK    9  A    between atoms: C_33  and  N_36 
ROOT
ATOM      1  C   LIG d   1       7.635  -2.563  -4.630  0.00  0.00     0.057 C 
ATOM      2  H   LIG d   1       6.885  -3.213  -4.182  0.00  0.00     0.055 H 
ENDROOT
BRANCH   1   3
ATOM      3  C   LIG d   1       7.572  -2.686  -6.153  0.00  0.00     0.033 C 
ATOM      4  H   LIG d   1       8.035  -3.623  -6.462  0.00  0.00     0.037 H 
ATOM      5  H   LIG d   1       8.104  -1.851  -6.609  0.00  0.00     0.037 H 
BRANCH   3   6
ATOM      6  C   LIG d   1       6.132  -2.668  -6.599  0.00  0.00     0.170 C 
ATOM      7  O   LIG d   1       5.354  -3.497  -6.173  0.00  0.00    -0.292 OA
BRANCH   6   8
ATOM      8  C   LIG d   1       5.687  -1.684  -7.514  0.00  0.00     0.073 A 
ATOM      9  C   LIG d   1       4.645  -0.721  -7.128  0.00  0.00     0.199 A 
ATOM     10  C   LIG d   1       4.236   0.274  -8.139  0.00  0.00     0.046 A 
ATOM     11  O   LIG d   1       4.140  -0.742  -6.020  0.00  0.00    -0.286 OA
ATOM     12  C   LIG d   1       4.853   0.252  -9.400  0.00  0.00     0.052 A 
ATOM     13  C   LIG d   1       3.256   1.224  -7.854  0.00  0.00    -0.049 A 
ATOM     14  N   LIG d   1       5.825  -0.685  -9.688  0.00  0.00    -0.356 N 
ATOM     15  C   LIG d   1       4.473   1.188 -10.358  0.00  0.00    -0.037 A 
ATOM     16  C   LIG d   1       6.225  -1.614  -8.801  0.00  0.00    -0.022 A 
ATOM     17  O   LIG d   1       7.175  -2.497  -9.163  0.00  0.00    -0.861 OA
ATOM     18  C   LIG d   1       3.503   2.121 -10.064  0.00  0.00    -0.060 A 
ATOM     19  H   LIG d   1       4.940   1.183 -11.332  0.00  0.00     0.064 H 
ATOM     20  C   LIG d   1       2.895   2.140  -8.817  0.00  0.00    -0.061 A 
ATOM     21  H   LIG d   1       3.212   2.843 -10.812  0.00  0.00     0.062 H 
ATOM     22  H   LIG d   1       2.136   2.879  -8.601  0.00  0.00     0.062 H 
ATOM     23  H   LIG d   1       2.782   1.241  -6.884  0.00  0.00     0.062 H 
BRANCH  14  24
ATOM     24  C   LIG d   1       6.441  -0.672 -11.017  0.00  0.00     0.011 C 
ATOM     25  H   LIG d   1       6.728  -1.687 -11.294  0.00  0.00     0.045 H 
ATOM     26  H   LIG d   1       5.728  -0.285 -11.744  0.00  0.00     0.045 H 
ATOM     27  H   LIG d   1       7.325  -0.035 -11.000  0.00  0.00     0.045 H 
ENDBRANCH  14  24
ENDBRANCH   6   8
ENDBRANCH   3   6
ENDBRANCH   1   3
BRANCH   1  28
ATOM     28  C   LIG d   1       7.367  -1.135  -4.231  0.00  0.00     0.022 A 
ATOM     29  C   LIG d   1       8.184  -0.133  -4.671  0.00  0.00     0.122 A 
ATOM     30  C   LIG d   1       7.946   1.197  -4.313  0.00  0.00    -0.019 A 
ATOM     31  C   LIG d   1       6.900   1.528  -3.508  0.00  0.00    -0.051 A 
ATOM     32  H   LIG d   1       8.602   1.973  -4.678  0.00  0.00     0.065 H 
ATOM     33  C   LIG d   1       6.042   0.522  -3.032  0.00  0.00    -0.017 A 
ATOM     34  H   LIG d   1       6.730   2.559  -3.237  0.00  0.00     0.062 H 
ATOM     35  C   LIG d   1       6.279  -0.827  -3.397  0.00  0.00    -0.009 A 
ATOM     36  C   LIG d   1       4.953   0.828  -2.198  0.00  0.00    -0.054 A 
ATOM     37  C   LIG d   1       5.420  -1.832  -2.920  0.00  0.00    -0.054 A 
ATOM     38  C   LIG d   1       4.375  -1.498  -2.114  0.00  0.00    -0.061 A 
ATOM     39  H   LIG d   1       5.588  -2.864  -3.191  0.00  0.00     0.062 H 
ATOM     40  C   LIG d   1       4.142  -0.171  -1.755  0.00  0.00    -0.061 A 
ATOM     41  H   LIG d   1       3.717  -2.272  -1.748  0.00  0.00     0.062 H 
ATOM     42  H   LIG d   1       3.306   0.067  -1.114  0.00  0.00     0.062 H 
ATOM     43  H   LIG d   1       4.760   1.851  -1.912  0.00  0.00     0.062 H 
BRANCH  29  44
ATOM     44  O   LIG d   1       9.240  -0.433  -5.472  0.00  0.00    -0.506 OA
ATOM     45  H   LIG d   1       9.814  -1.128  -5.122  0.00  0.00     0.292 HD
ENDBRANCH  29  44
ENDBRANCH   1  28
BRANCH   1  46
ATOM     46  N   LIG d   1       8.966  -2.958  -4.164  0.00  0.00    -0.336 N 
ATOM     47  H   LIG d   1       9.720  -2.359  -4.279  0.00  0.00     0.147 HD
BRANCH  46  48
ATOM     48  C   LIG d   1       9.151  -4.201  -3.553  0.00  0.00     0.028 A 
ATOM     49  C   LIG d   1       8.913  -5.369  -4.264  0.00  0.00    -0.034 A 
ATOM     50  C   LIG d   1       9.102  -6.596  -3.659  0.00  0.00     0.017 A 
ATOM     51  H   LIG d   1       8.585  -5.320  -5.292  0.00  0.00     0.064 H 
ATOM     52  C   LIG d   1       9.517  -6.661  -2.341  0.00  0.00     0.273 A 
ATOM     53  H   LIG d   1       8.922  -7.505  -4.212  0.00  0.00     0.069 H 
ATOM     54  C   LIG d   1       9.751  -5.500  -1.628  0.00  0.00     0.017 A 
ATOM     55  C   LIG d   1       9.568  -4.270  -2.229  0.00  0.00    -0.034 A 
ATOM     56  H   LIG d   1      10.075  -5.555  -0.599  0.00  0.00     0.069 H 
ATOM     57  H   LIG d   1       9.751  -3.364  -1.672  0.00  0.00     0.064 H 
BRANCH  52  58
ATOM     58  N   LIG d   1       9.714  -7.978  -1.694  0.00  0.00     0.080 N 
ATOM     59  O   LIG d   1       9.015  -8.914  -2.006  0.00  0.00     0.041 OA
ATOM     60  O   LIG d   1      10.572  -8.117  -0.854  0.00  0.00    -0.576 OA
ENDBRANCH  52  58
ENDBRANCH  46  48
ENDBRANCH   1  46
TORSDOF 9
ENDMDL
MODEL 3
REMARK VINA RESULT:      -8.3      0.882      2.162
REMARK  9 active torsions:
REMARK  status: ('A' for Active; 'I' for Inactive)
REMARK    1  A    between atoms: C_1  and  N_2 
REMARK    2  A    between atoms: C_10  and  C_13 
REMARK    3  A    between atoms: C_13  and  C_15 
REMARK    4  A    between atoms: C_15  and  C_16 
REMARK    5  A    between atoms: C_16  and  C_18 
REMARK    6  A    between atoms: C_16  and  N_29 
REMARK    7  A    between atoms: C_27  and  O_28 
REMARK    8  A    between atoms: N_29  and  C_30 
REMARK    9  A    between atoms: C_33  and  N_36 
ROOT
ATOM      1  C   LIG d   1       7.129  -2.647  -4.916  0.00  0.00     0.057 C 
ATOM      2  H   LIG d   1       6.531  -3.244  -4.228  0.00  0.00     0.055 H 
ENDROOT
BRANCH   1   3
ATOM      3  C   LIG d   1       6.558  -2.777  -6.330  0.00  0.00     0.033 C 
ATOM      4  H   LIG d   1       6.974  -3.662  -6.811  0.00  0.00     0.037 H 
ATOM      5  H   LIG d   1       6.818  -1.891  -6.910  0.00  0.00     0.037 H 
BRANCH   3   6
ATOM      6  C   LIG d   1       5.058  -2.906  -6.256  0.00  0.00     0.170 C 
ATOM      7  O   LIG d   1       4.545  -3.513  -5.338  0.00  0.00    -0.292 OA
BRANCH   6   8
ATOM      8  C   LIG d   1       4.247  -2.319  -7.256  0.00  0.00     0.073 A 
ATOM      9  C   LIG d   1       3.701  -3.134  -8.351  0.00  0.00     0.199 A 
ATOM     10  C   LIG d   1       2.864  -2.447  -9.354  0.00  0.00     0.046 A 
ATOM     11  O   LIG d   1       3.929  -4.329  -8.427  0.00  0.00    -0.286 OA
ATOM     12  C   LIG d   1       2.634  -1.069  -9.215  0.00  0.00     0.052 A 
ATOM     13  C   LIG d   1       2.306  -3.147 -10.423  0.00  0.00    -0.049 A 
ATOM     14  N   LIG d   1       3.183  -0.370  -8.158  0.00  0.00    -0.356 N 
ATOM     15  C   LIG d   1       1.846  -0.414 -10.157  0.00  0.00    -0.037 A 
ATOM     16  C   LIG d   1       3.956  -0.953  -7.224  0.00  0.00    -0.022 A 
ATOM     17  O   LIG d   1       4.457  -0.199  -6.227  0.00  0.00    -0.861 OA
ATOM     18  C   LIG d   1       1.301  -1.117 -11.209  0.00  0.00    -0.060 A 
ATOM     19  H   LIG d   1       1.660   0.646 -10.062  0.00  0.00     0.064 H 
ATOM     20  C   LIG d   1       1.530  -2.479 -11.344  0.00  0.00    -0.061 A 
ATOM     21  H   LIG d   1       0.691  -0.603 -11.937  0.00  0.00     0.062 H 
ATOM     22  H   LIG d   1       1.095  -3.018 -12.174  0.00  0.00     0.062 H 
ATOM     23  H   LIG d   1       2.483  -4.207 -10.529  0.00  0.00     0.062 H 
BRANCH  14  24
ATOM     24  C   LIG d   1       2.917   1.067  -8.053  0.00  0.00     0.011 C 
ATOM     25  H   LIG d   1       3.095   1.395  -7.029  0.00  0.00     0.045 H 
ATOM     26  H   LIG d   1       3.579   1.609  -8.728  0.00  0.00     0.045 H 
ATOM     27  H   LIG d   1       1.880   1.265  -8.324  0.00  0.00     0.045 H 
ENDBRANCH  14  24
ENDBRANCH   6   8
ENDBRANCH   3   6
ENDBRANCH   1   3
BRANCH   1  28
ATOM     28  C   LIG d   1       7.093  -1.202  -4.492  0.00  0.00     0.022 A 
ATOM     29  C   LIG d   1       7.965  -0.304  -5.037  0.00  0.00     0.122 A 
ATOM     30  C   LIG d   1       7.942   1.041  -4.657  0.00  0.00    -0.019 A 
ATOM     31  C   LIG d   1       7.057   1.489  -3.725  0.00  0.00    -0.051 A 
ATOM     32  H   LIG d   1       8.638   1.734  -5.106  0.00  0.00     0.065 H 
ATOM     33  C   LIG d   1       6.148   0.591  -3.139  0.00  0.00    -0.017 A 
ATOM     34  H   LIG d   1       7.053   2.530  -3.439  0.00  0.00     0.062 H 
ATOM     35  C   LIG d   1       6.167  -0.772  -3.526  0.00  0.00    -0.009 A 
ATOM     36  C   LIG d   1       5.222   1.020  -2.174  0.00  0.00    -0.054 A 
ATOM     37  C   LIG d   1       5.259  -1.668  -2.939  0.00  0.00    -0.054 A 
ATOM     38  C   LIG d   1       4.375  -1.217  -2.007  0.00  0.00    -0.061 A 
ATOM     39  H   LIG d   1       5.261  -2.710  -3.225  0.00  0.00     0.062 H 
ATOM     40  C   LIG d   1       4.356   0.123  -1.626  0.00  0.00    -0.061 A 
ATOM     41  H   LIG d   1       3.677  -1.908  -1.557  0.00  0.00     0.062 H 
ATOM     42  H   LIG d   1       3.645   0.456  -0.884  0.00  0.00     0.062 H 
ATOM     43  H   LIG d   1       5.195   2.056  -1.869  0.00  0.00     0.062 H 
BRANCH  29  44
ATOM     44  O   LIG d   1       8.865  -0.723  -5.966  0.00  0.00    -0.506 OA
ATOM     45  H   LIG d   1       9.774  -0.446  -5.786  0.00  0.00     0.292 HD
ENDBRANCH  29  44
ENDBRANCH   1  28
BRANCH   1  46
ATOM     46  N   LIG d   1       8.513  -3.127  -4.903  0.00  0.00    -0.336 N 
ATOM     47  H   LIG d   1       9.180  -2.699  -5.462  0.00  0.00     0.147 HD
BRANCH  46  48
ATOM     48  C   LIG d   1       8.872  -4.201  -4.085  0.00  0.00     0.028 A 
ATOM     49  C   LIG d   1       8.727  -5.503  -4.543  0.00  0.00    -0.034 A 
ATOM     50  C   LIG d   1       9.088  -6.562  -3.733  0.00  0.00     0.017 A 
ATOM     51  H   LIG d   1       8.336  -5.689  -5.532  0.00  0.00     0.064 H 
ATOM     52  C   LIG d   1       9.584  -6.327  -2.464  0.00  0.00     0.273 A 
ATOM     53  H   LIG d   1       8.980  -7.576  -4.090  0.00  0.00     0.069 H 
ATOM     54  C   LIG d   1       9.726  -5.030  -2.003  0.00  0.00     0.017 A 
ATOM     55  C   LIG d   1       9.371  -3.967  -2.810  0.00  0.00    -0.034 A 
ATOM     56  H   LIG d   1      10.113  -4.850  -1.011  0.00  0.00     0.069 H 
ATOM     57  H   LIG d   1       9.481  -2.955  -2.450  0.00  0.00     0.064 H 
BRANCH  52  58
ATOM     58  N   LIG d   1       9.965  -7.464  -1.598  0.00  0.00     0.080 N 
ATOM     59  O   LIG d   1       9.419  -8.535  -1.732  0.00  0.00     0.041 OA
ATOM     60  O   LIG d   1      10.822  -7.324  -0.757  0.00  0.00    -0.576 OA
ENDBRANCH  52  58
ENDBRANCH  46  48
ENDBRANCH   1  46
TORSDOF 9
ENDMDL
MODEL 4
REMARK VINA RESULT:      -8.1      5.742      9.992
REMARK  9 active torsions:
REMARK  status: ('A' for Active; 'I' for Inactive)
REMARK    1  A    between atoms: C_1  and  N_2 
REMARK    2  A    between atoms: C_10  and  C_13 
REMARK    3  A    between atoms: C_13  and  C_15 
REMARK    4  A    between atoms: C_15  and  C_16 
REMARK    5  A    between atoms: C_16  and  C_18 
REMARK    6  A    between atoms: C_16  and  N_29 
REMARK    7  A    between atoms: C_27  and  O_28 
REMARK    8  A    between atoms: N_29  and  C_30 
REMARK    9  A    between atoms: C_33  and  N_36 
ROOT
ATOM      1  C   LIG d   1      10.844   3.312  -4.859  0.00  0.00     0.057 C 
ATOM      2  H   LIG d   1      11.459   3.336  -5.759  0.00  0.00     0.055 H 
ENDROOT
BRANCH   1   3
ATOM      3  C   LIG d   1      10.567   1.858  -4.471  0.00  0.00     0.033 C 
ATOM      4  H   LIG d   1      10.334   1.804  -3.407  0.00  0.00     0.037 H 
ATOM      5  H   LIG d   1      11.448   1.251  -4.681  0.00  0.00     0.037 H 
BRANCH   3   6
ATOM      6  C   LIG d   1       9.397   1.339  -5.267  0.00  0.00     0.170 C 
ATOM      7  O   LIG d   1       9.345   1.531  -6.465  0.00  0.00    -0.292 OA
BRANCH   6   8
ATOM      8  C   LIG d   1       8.359   0.629  -4.618  0.00  0.00     0.073 A 
ATOM      9  C   LIG d   1       7.327   1.345  -3.854  0.00  0.00     0.199 A 
ATOM     10  C   LIG d   1       6.278   0.531  -3.207  0.00  0.00     0.046 A 
ATOM     11  O   LIG d   1       7.337   2.560  -3.757  0.00  0.00    -0.286 OA
ATOM     12  C   LIG d   1       6.317  -0.864  -3.352  0.00  0.00     0.052 A 
ATOM     13  C   LIG d   1       5.262   1.132  -2.464  0.00  0.00    -0.049 A 
ATOM     14  N   LIG d   1       7.320  -1.464  -4.087  0.00  0.00    -0.356 N 
ATOM     15  C   LIG d   1       5.331  -1.638  -2.745  0.00  0.00    -0.037 A 
ATOM     16  C   LIG d   1       8.299  -0.765  -4.688  0.00  0.00    -0.022 A 
ATOM     17  O   LIG d   1       9.244  -1.427  -5.383  0.00  0.00    -0.861 OA
ATOM     18  C   LIG d   1       4.333  -1.032  -2.013  0.00  0.00    -0.060 A 
ATOM     19  H   LIG d   1       5.348  -2.712  -2.849  0.00  0.00     0.064 H 
ATOM     20  C   LIG d   1       4.297   0.347  -1.872  0.00  0.00    -0.061 A 
ATOM     21  H   LIG d   1       3.572  -1.638  -1.545  0.00  0.00     0.062 H 
ATOM     22  H   LIG d   1       3.507   0.808  -1.296  0.00  0.00     0.062 H 
ATOM     23  H   LIG d   1       5.232   2.206  -2.353  0.00  0.00     0.062 H 
BRANCH  14  24
ATOM     24  C   LIG d   1       7.322  -2.924  -4.211  0.00  0.00     0.011 C 
ATOM     25  H   LIG d   1       7.456  -3.199  -5.257  0.00  0.00     0.045 H 
ATOM     26  H   LIG d   1       8.138  -3.338  -3.619  0.00  0.00     0.045 H 
ATOM     27  H   LIG d   1       6.373  -3.320  -3.850  0.00  0.00     0.045 H 
ENDBRANCH  14  24
ENDBRANCH   6   8
ENDBRANCH   3   6
ENDBRANCH   1   3
BRANCH   1  28
ATOM     28  C   LIG d   1      11.571   4.002  -3.734  0.00  0.00     0.022 A 
ATOM     29  C   LIG d   1      10.961   4.173  -2.525  0.00  0.00     0.122 A 
ATOM     30  C   LIG d   1      11.623   4.808  -1.470  0.00  0.00    -0.019 A 
ATOM     31  C   LIG d   1      12.889   5.281  -1.624  0.00  0.00    -0.051 A 
ATOM     32  H   LIG d   1      11.123   4.927  -0.521  0.00  0.00     0.065 H 
ATOM     33  C   LIG d   1      13.546   5.128  -2.857  0.00  0.00    -0.017 A 
ATOM     34  H   LIG d   1      13.388   5.772  -0.802  0.00  0.00     0.062 H 
ATOM     35  C   LIG d   1      12.878   4.480  -3.926  0.00  0.00    -0.009 A 
ATOM     36  C   LIG d   1      14.853   5.605  -3.050  0.00  0.00    -0.054 A 
ATOM     37  C   LIG d   1      13.536   4.328  -5.159  0.00  0.00    -0.054 A 
ATOM     38  C   LIG d   1      14.802   4.803  -5.310  0.00  0.00    -0.061 A 
ATOM     39  H   LIG d   1      13.039   3.835  -5.983  0.00  0.00     0.062 H 
ATOM     40  C   LIG d   1      15.459   5.439  -4.258  0.00  0.00    -0.061 A 
ATOM     41  H   LIG d   1      15.306   4.684  -6.258  0.00  0.00     0.062 H 
ATOM     42  H   LIG d   1      16.464   5.807  -4.404  0.00  0.00     0.062 H 
ATOM     43  H   LIG d   1      15.375   6.100  -2.245  0.00  0.00     0.062 H 
BRANCH  29  44
ATOM     44  O   LIG d   1       9.694   3.716  -2.343  0.00  0.00    -0.506 OA
ATOM     45  H   LIG d   1       9.011   4.291  -2.714  0.00  0.00     0.292 HD
ENDBRANCH  29  44
ENDBRANCH   1  28
BRANCH   1  46
ATOM     46  N   LIG d   1       9.576   3.998  -5.116  0.00  0.00    -0.336 N 
ATOM     47  H   LIG d   1       8.737   3.576  -4.875  0.00  0.00     0.147 HD
BRANCH  46  48
ATOM     48  C   LIG d   1       9.574   5.263  -5.710  0.00  0.00     0.028 A 
ATOM     49  C   LIG d   1       9.223   6.381  -4.965  0.00  0.00    -0.034 A 
ATOM     50  C   LIG d   1       9.227   7.630  -5.554  0.00  0.00     0.017 A 
ATOM     51  H   LIG d   1       8.952   6.276  -3.925  0.00  0.00     0.064 H 
ATOM     52  C   LIG d   1       9.569   7.767  -6.887  0.00  0.00     0.273 A 
ATOM     53  H   LIG d   1       8.959   8.501  -4.974  0.00  0.00     0.069 H 
ATOM     54  C   LIG d   1       9.914   6.655  -7.633  0.00  0.00     0.017 A 
ATOM     55  C   LIG d   1       9.917   5.404  -7.049  0.00  0.00    -0.034 A 
ATOM     56  H   LIG d   1      10.181   6.765  -8.674  0.00  0.00     0.069 H 
ATOM     57  H   LIG d   1      10.187   4.536  -7.631  0.00  0.00     0.064 H 
BRANCH  52  58
ATOM     58  N   LIG d   1       9.567   9.107  -7.516  0.00  0.00     0.080 N 
ATOM     59  O   LIG d   1       9.185   9.239  -8.655  0.00  0.00     0.041 OA
ATOM     60  O   LIG d   1       9.947  10.069  -6.891  0.00  0.00    -0.576 OA
ENDBRANCH  52  58
ENDBRANCH  46  48
ENDBRANCH   1  46
TORSDOF 9
ENDMDL
MODEL 5
REMARK VINA RESULT:      -8.0      3.177      6.159
REMARK  9 active torsions:
REMARK  status: ('A' for Active; 'I' for Inactive)
REMARK    1  A    between atoms: C_1  and  N_2 
REMARK    2  A    between atoms: C_10  and  C_13 
REMARK    3  A    between atoms: C_13  and  C_15 
REMARK    4  A    between atoms: C_15  and  C_16 
REMARK    5  A    between atoms: C_16  and  C_18 
REMARK    6  A    between atoms: C_16  and  N_29 
REMARK    7  A    between atoms: C_27  and  O_28 
REMARK    8  A    between atoms: N_29  and  C_30 
REMARK    9  A    between atoms: C_33  and  N_36 
ROOT
ATOM      1  C   LIG d   1       4.988  -4.113  -6.453  0.00  0.00     0.057 C 
ATOM      2  H   LIG d   1       5.645  -3.290  -6.734  0.00  0.00     0.055 H 
ENDROOT
BRANCH   1   3
ATOM      3  C   LIG d   1       4.179  -4.558  -7.673  0.00  0.00     0.033 C 
ATOM      4  H   LIG d   1       3.129  -4.302  -7.527  0.00  0.00     0.037 H 
ATOM      5  H   LIG d   1       4.275  -5.636  -7.801  0.00  0.00     0.037 H 
BRANCH   3   6
ATOM      6  C   LIG d   1       4.698  -3.858  -8.903  0.00  0.00     0.170 C 
ATOM      7  O   LIG d   1       5.051  -4.507  -9.867  0.00  0.00    -0.292 OA
BRANCH   6   8
ATOM      8  C   LIG d   1       4.773  -2.445  -8.935  0.00  0.00     0.073 A 
ATOM      9  C   LIG d   1       3.551  -1.633  -9.035  0.00  0.00     0.199 A 
ATOM     10  C   LIG d   1       3.715  -0.166  -9.062  0.00  0.00     0.046 A 
ATOM     11  O   LIG d   1       2.449  -2.150  -9.093  0.00  0.00    -0.286 OA
ATOM     12  C   LIG d   1       5.009   0.373  -8.992  0.00  0.00     0.052 A 
ATOM     13  C   LIG d   1       2.608   0.676  -9.154  0.00  0.00    -0.049 A 
ATOM     14  N   LIG d   1       6.109  -0.456  -8.900  0.00  0.00    -0.356 N 
ATOM     15  C   LIG d   1       5.171   1.755  -9.017  0.00  0.00    -0.037 A 
ATOM     16  C   LIG d   1       6.009  -1.797  -8.878  0.00  0.00    -0.022 A 
ATOM     17  O   LIG d   1       7.132  -2.535  -8.792  0.00  0.00    -0.861 OA
ATOM     18  C   LIG d   1       4.068   2.577  -9.109  0.00  0.00    -0.060 A 
ATOM     19  H   LIG d   1       6.161   2.184  -8.963  0.00  0.00     0.064 H 
ATOM     20  C   LIG d   1       2.791   2.041  -9.178  0.00  0.00    -0.061 A 
ATOM     21  H   LIG d   1       4.201   3.648  -9.128  0.00  0.00     0.062 H 
ATOM     22  H   LIG d   1       1.935   2.698  -9.248  0.00  0.00     0.062 H 
ATOM     23  H   LIG d   1       1.612   0.261  -9.208  0.00  0.00     0.062 H 
BRANCH  14  24
ATOM     24  C   LIG d   1       7.441   0.150  -8.830  0.00  0.00     0.011 C 
ATOM     25  H   LIG d   1       8.198  -0.621  -8.975  0.00  0.00     0.045 H 
ATOM     26  H   LIG d   1       7.538   0.906  -9.610  0.00  0.00     0.045 H 
ATOM     27  H   LIG d   1       7.577   0.615  -7.854  0.00  0.00     0.045 H 
ENDBRANCH  14  24
ENDBRANCH   6   8
ENDBRANCH   3   6
ENDBRANCH   1   3
BRANCH   1  28
ATOM     28  C   LIG d   1       5.815  -5.269  -5.952  0.00  0.00     0.022 A 
ATOM     29  C   LIG d   1       5.271  -6.518  -5.869  0.00  0.00     0.122 A 
ATOM     30  C   LIG d   1       6.026  -7.601  -5.409  0.00  0.00    -0.019 A 
ATOM     31  C   LIG d   1       7.321  -7.437  -5.024  0.00  0.00    -0.051 A 
ATOM     32  H   LIG d   1       5.577  -8.581  -5.357  0.00  0.00     0.065 H 
ATOM     33  C   LIG d   1       7.912  -6.163  -5.091  0.00  0.00    -0.017 A 
ATOM     34  H   LIG d   1       7.891  -8.282  -4.668  0.00  0.00     0.062 H 
ATOM     35  C   LIG d   1       7.150  -5.065  -5.561  0.00  0.00    -0.009 A 
ATOM     36  C   LIG d   1       9.246  -5.958  -4.701  0.00  0.00    -0.054 A 
ATOM     37  C   LIG d   1       7.742  -3.792  -5.627  0.00  0.00    -0.054 A 
ATOM     38  C   LIG d   1       9.036  -3.631  -5.241  0.00  0.00    -0.061 A 
ATOM     39  H   LIG d   1       7.172  -2.946  -5.985  0.00  0.00     0.062 H 
ATOM     40  C   LIG d   1       9.787  -4.712  -4.780  0.00  0.00    -0.061 A 
ATOM     41  H   LIG d   1       9.490  -2.652  -5.293  0.00  0.00     0.062 H 
ATOM     42  H   LIG d   1      10.813  -4.557  -4.479  0.00  0.00     0.062 H 
ATOM     43  H   LIG d   1       9.840  -6.786  -4.341  0.00  0.00     0.062 H 
BRANCH  29  44
ATOM     44  O   LIG d   1       3.978  -6.712  -6.241  0.00  0.00    -0.506 OA
ATOM     45  H   LIG d   1       3.723  -7.643  -6.301  0.00  0.00     0.292 HD
ENDBRANCH  29  44
ENDBRANCH   1  28
BRANCH   1  46
ATOM     46  N   LIG d   1       4.075  -3.671  -5.397  0.00  0.00    -0.336 N 
ATOM     47  H   LIG d   1       3.274  -4.181  -5.202  0.00  0.00     0.147 HD
BRANCH  46  48
ATOM     48  C   LIG d   1       4.359  -2.513  -4.668  0.00  0.00     0.028 A 
ATOM     49  C   LIG d   1       4.629  -1.323  -5.330  0.00  0.00    -0.034 A 
ATOM     50  C   LIG d   1       4.904  -0.179  -4.606  0.00  0.00     0.017 A 
ATOM     51  H   LIG d   1       4.620  -1.289  -6.410  0.00  0.00     0.064 H 
ATOM     52  C   LIG d   1       4.922  -0.221  -3.224  0.00  0.00     0.273 A 
ATOM     53  H   LIG d   1       5.110   0.748  -5.120  0.00  0.00     0.069 H 
ATOM     54  C   LIG d   1       4.657  -1.406  -2.562  0.00  0.00     0.017 A 
ATOM     55  C   LIG d   1       4.377  -2.552  -3.280  0.00  0.00    -0.034 A 
ATOM     56  H   LIG d   1       4.672  -1.436  -1.482  0.00  0.00     0.069 H 
ATOM     57  H   LIG d   1       4.171  -3.477  -2.762  0.00  0.00     0.064 H 
BRANCH  52  58
ATOM     58  N   LIG d   1       5.221   1.005  -2.452  0.00  0.00     0.080 N 
ATOM     59  O   LIG d   1       4.769   1.144  -1.339  0.00  0.00     0.041 OA
ATOM     60  O   LIG d   1       5.918   1.867  -2.933  0.00  0.00    -0.576 OA
ENDBRANCH  52  58
ENDBRANCH  46  48
ENDBRANCH   1  46
TORSDOF 9
ENDMDL
MODEL 6
REMARK VINA RESULT:      -7.8      3.171      4.368
REMARK  9 active torsions:
REMARK  status: ('A' for Active; 'I' for Inactive)
REMARK    1  A    between atoms: C_1  and  N_2 
REMARK    2  A    between atoms: C_10  and  C_13 
REMARK    3  A    between atoms: C_13  and  C_15 
REMARK    4  A    between atoms: C_15  and  C_16 
REMARK    5  A    between atoms: C_16  and  C_18 
REMARK    6  A    between atoms: C_16  and  N_29 
REMARK    7  A    between atoms: C_27  and  O_28 
REMARK    8  A    between atoms: N_29  and  C_30 
REMARK    9  A    between atoms: C_33  and  N_36 
ROOT
ATOM      1  C   LIG d   1       6.563  -1.920  -5.336  0.00  0.00     0.057 C 
ATOM      2  H   LIG d   1       6.100  -1.989  -6.320  0.00  0.00     0.055 H 
ENDROOT
BRANCH   1   3
ATOM      3  C   LIG d   1       7.929  -1.243  -5.463  0.00  0.00     0.033 C 
ATOM      4  H   LIG d   1       8.687  -1.858  -4.977  0.00  0.00     0.037 H 
ATOM      5  H   LIG d   1       7.896  -0.264  -4.985  0.00  0.00     0.037 H 
BRANCH   3   6
ATOM      6  C   LIG d   1       8.276  -1.079  -6.921  0.00  0.00     0.170 C 
ATOM      7  O   LIG d   1       9.428  -1.191  -7.287  0.00  0.00    -0.292 OA
BRANCH   6   8
ATOM      8  C   LIG d   1       7.259  -0.795  -7.862  0.00  0.00     0.073 A 
ATOM      9  C   LIG d   1       6.691   0.557  -7.966  0.00  0.00     0.199 A 
ATOM     10  C   LIG d   1       5.634   0.771  -8.974  0.00  0.00     0.046 A 
ATOM     11  O   LIG d   1       7.077   1.464  -7.250  0.00  0.00    -0.286 OA
ATOM     12  C   LIG d   1       5.228  -0.310  -9.771  0.00  0.00     0.052 A 
ATOM     13  C   LIG d   1       5.043   2.024  -9.138  0.00  0.00    -0.049 A 
ATOM     14  N   LIG d   1       5.810  -1.553  -9.614  0.00  0.00    -0.356 N 
ATOM     15  C   LIG d   1       4.232  -0.116 -10.724  0.00  0.00    -0.037 A 
ATOM     16  C   LIG d   1       6.771  -1.797  -8.706  0.00  0.00    -0.022 A 
ATOM     17  O   LIG d   1       7.283  -3.038  -8.613  0.00  0.00    -0.861 OA
ATOM     18  C   LIG d   1       3.656   1.127 -10.876  0.00  0.00    -0.060 A 
ATOM     19  H   LIG d   1       3.911  -0.939 -11.345  0.00  0.00     0.064 H 
ATOM     20  C   LIG d   1       4.059   2.194 -10.086  0.00  0.00    -0.061 A 
ATOM     21  H   LIG d   1       2.884   1.271 -11.616  0.00  0.00     0.062 H 
ATOM     22  H   LIG d   1       3.599   3.163 -10.217  0.00  0.00     0.062 H 
ATOM     23  H   LIG d   1       5.355   2.856  -8.524  0.00  0.00     0.062 H 
BRANCH  14  24
ATOM     24  C   LIG d   1       5.355  -2.653 -10.468  0.00  0.00     0.011 C 
ATOM     25  H   LIG d   1       4.364  -2.424 -10.859  0.00  0.00     0.045 H 
ATOM     26  H   LIG d   1       6.051  -2.781 -11.297  0.00  0.00     0.045 H 
ATOM     27  H   LIG d   1       5.313  -3.572  -9.884  0.00  0.00     0.045 H 
ENDBRANCH  14  24
ENDBRANCH   6   8
ENDBRANCH   3   6
ENDBRANCH   1   3
BRANCH   1  28
ATOM     28  C   LIG d   1       5.684  -1.108  -4.421  0.00  0.00     0.022 A 
ATOM     29  C   LIG d   1       6.028  -0.937  -3.111  0.00  0.00     0.122 A 
ATOM     30  C   LIG d   1       5.225  -0.183  -2.251  0.00  0.00    -0.019 A 
ATOM     31  C   LIG d   1       4.074   0.392  -2.693  0.00  0.00    -0.051 A 
ATOM     32  H   LIG d   1       5.519  -0.057  -1.219  0.00  0.00     0.065 H 
ATOM     33  C   LIG d   1       3.686   0.233  -4.035  0.00  0.00    -0.017 A 
ATOM     34  H   LIG d   1       3.462   0.969  -2.016  0.00  0.00     0.062 H 
ATOM     35  C   LIG d   1       4.501  -0.528  -4.910  0.00  0.00    -0.009 A 
ATOM     36  C   LIG d   1       2.504   0.812  -4.525  0.00  0.00    -0.054 A 
ATOM     37  C   LIG d   1       4.112  -0.687  -6.251  0.00  0.00    -0.054 A 
ATOM     38  C   LIG d   1       2.960  -0.111  -6.690  0.00  0.00    -0.061 A 
ATOM     39  H   LIG d   1       4.724  -1.263  -6.930  0.00  0.00     0.062 H 
ATOM     40  C   LIG d   1       2.158   0.637  -5.829  0.00  0.00    -0.061 A 
ATOM     41  H   LIG d   1       2.663  -0.235  -7.721  0.00  0.00     0.062 H 
ATOM     42  H   LIG d   1       1.249   1.084  -6.204  0.00  0.00     0.062 H 
ATOM     43  H   LIG d   1       1.872   1.394  -3.869  0.00  0.00     0.062 H 
BRANCH  29  44
ATOM     44  O   LIG d   1       7.169  -1.504  -2.638  0.00  0.00    -0.506 OA
ATOM     45  H   LIG d   1       7.072  -1.915  -1.768  0.00  0.00     0.292 HD
ENDBRANCH  29  44
ENDBRANCH   1  28
BRANCH   1  46
ATOM     46  N   LIG d   1       6.735  -3.265  -4.782  0.00  0.00    -0.336 N 
ATOM     47  H   LIG d   1       7.279  -3.399  -3.991  0.00  0.00     0.147 HD
BRANCH  46  48
ATOM     48  C   LIG d   1       6.115  -4.357  -5.395  0.00  0.00     0.028 A 
ATOM     49  C   LIG d   1       4.781  -4.279  -5.771  0.00  0.00    -0.034 A 
ATOM     50  C   LIG d   1       4.173  -5.359  -6.381  0.00  0.00     0.017 A 
ATOM     51  H   LIG d   1       4.219  -3.374  -5.592  0.00  0.00     0.064 H 
ATOM     52  C   LIG d   1       4.888  -6.521  -6.606  0.00  0.00     0.273 A 
ATOM     53  H   LIG d   1       3.137  -5.298  -6.678  0.00  0.00     0.069 H 
ATOM     54  C   LIG d   1       6.216  -6.603  -6.228  0.00  0.00     0.017 A 
ATOM     55  C   LIG d   1       6.831  -5.525  -5.623  0.00  0.00    -0.034 A 
ATOM     56  H   LIG d   1       6.772  -7.512  -6.406  0.00  0.00     0.069 H 
ATOM     57  H   LIG d   1       7.868  -5.590  -5.328  0.00  0.00     0.064 H 
BRANCH  52  58
ATOM     58  N   LIG d   1       4.232  -7.678  -7.256  0.00  0.00     0.080 N 
ATOM     59  O   LIG d   1       3.585  -7.516  -8.265  0.00  0.00     0.041 OA
ATOM     60  O   LIG d   1       4.342  -8.782  -6.778  0.00  0.00    -0.576 OA
ENDBRANCH  52  58
ENDBRANCH  46  48
ENDBRANCH   1  46
TORSDOF 9
ENDMDL
MODEL 7
REMARK VINA RESULT:      -7.8      4.303      8.936
REMARK  9 active torsions:
REMARK  status: ('A' for Active; 'I' for Inactive)
REMARK    1  A    between atoms: C_1  and  N_2 
REMARK    2  A    between atoms: C_10  and  C_13 
REMARK    3  A    between atoms: C_13  and  C_15 
REMARK    4  A    between atoms: C_15  and  C_16 
REMARK    5  A    between atoms: C_16  and  C_18 
REMARK    6  A    between atoms: C_16  and  N_29 
REMARK    7  A    between atoms: C_27  and  O_28 
REMARK    8  A    between atoms: N_29  and  C_30 
REMARK    9  A    between atoms: C_33  and  N_36 
ROOT
ATOM      1  C   LIG d   1       8.089   1.178  -4.859  0.00  0.00     0.057 C 
ATOM      2  H   LIG d   1       7.385   2.004  -4.771  0.00  0.00     0.055 H 
ENDROOT
BRANCH   1   3
ATOM      3  C   LIG d   1       9.363   1.508  -4.079  0.00  0.00     0.033 C 
ATOM      4  H   LIG d   1       9.861   0.584  -3.786  0.00  0.00     0.037 H 
ATOM      5  H   LIG d   1       9.106   2.081  -3.188  0.00  0.00     0.037 H 
BRANCH   3   6
ATOM      6  C   LIG d   1      10.288   2.321  -4.949  0.00  0.00     0.170 C 
ATOM      7  O   LIG d   1      11.227   1.786  -5.503  0.00  0.00    -0.292 OA
BRANCH   6   8
ATOM      8  C   LIG d   1      10.063   3.708  -5.120  0.00  0.00     0.073 A 
ATOM      9  C   LIG d   1       9.994   4.294  -6.467  0.00  0.00     0.199 A 
ATOM     10  C   LIG d   1       9.755   5.748  -6.560  0.00  0.00     0.046 A 
ATOM     11  O   LIG d   1      10.128   3.608  -7.465  0.00  0.00    -0.286 OA
ATOM     12  C   LIG d   1       9.607   6.488  -5.377  0.00  0.00     0.052 A 
ATOM     13  C   LIG d   1       9.674   6.383  -7.799  0.00  0.00    -0.049 A 
ATOM     14  N   LIG d   1       9.685   5.865  -4.147  0.00  0.00    -0.356 N 
ATOM     15  C   LIG d   1       9.381   7.859  -5.456  0.00  0.00    -0.037 A 
ATOM     16  C   LIG d   1       9.907   4.545  -4.012  0.00  0.00    -0.022 A 
ATOM     17  O   LIG d   1       9.974   4.015  -2.777  0.00  0.00    -0.861 OA
ATOM     18  C   LIG d   1       9.304   8.474  -6.687  0.00  0.00    -0.060 A 
ATOM     19  H   LIG d   1       9.265   8.441  -4.554  0.00  0.00     0.064 H 
ATOM     20  C   LIG d   1       9.451   7.741  -7.855  0.00  0.00    -0.061 A 
ATOM     21  H   LIG d   1       9.130   9.538  -6.742  0.00  0.00     0.062 H 
ATOM     22  H   LIG d   1       9.387   8.236  -8.813  0.00  0.00     0.062 H 
ATOM     23  H   LIG d   1       9.788   5.813  -8.709  0.00  0.00     0.062 H 
BRANCH  14  24
ATOM     24  C   LIG d   1       9.525   6.676  -2.937  0.00  0.00     0.011 C 
ATOM     25  H   LIG d   1       9.468   6.023  -2.067  0.00  0.00     0.045 H 
ATOM     26  H   LIG d   1      10.379   7.346  -2.834  0.00  0.00     0.045 H 
ATOM     27  H   LIG d   1       8.610   7.263  -3.012  0.00  0.00     0.045 H 
ENDBRANCH  14  24
ENDBRANCH   6   8
ENDBRANCH   3   6
ENDBRANCH   1   3
BRANCH   1  28
ATOM     28  C   LIG d   1       7.469  -0.075  -4.298  0.00  0.00     0.022 A 
ATOM     29  C   LIG d   1       8.017  -1.295  -4.572  0.00  0.00     0.122 A 
ATOM     30  C   LIG d   1       7.455  -2.467  -4.055  0.00  0.00    -0.019 A 
ATOM     31  C   LIG d   1       6.342  -2.423  -3.275  0.00  0.00    -0.051 A 
ATOM     32  H   LIG d   1       7.909  -3.421  -4.281  0.00  0.00     0.065 H 
ATOM     33  C   LIG d   1       5.748  -1.185  -2.976  0.00  0.00    -0.017 A 
ATOM     34  H   LIG d   1       5.918  -3.336  -2.885  0.00  0.00     0.062 H 
ATOM     35  C   LIG d   1       6.318   0.004  -3.495  0.00  0.00    -0.009 A 
ATOM     36  C   LIG d   1       4.598  -1.103  -2.174  0.00  0.00    -0.054 A 
ATOM     37  C   LIG d   1       5.723   1.242  -3.197  0.00  0.00    -0.054 A 
ATOM     38  C   LIG d   1       4.609   1.283  -2.416  0.00  0.00    -0.061 A 
ATOM     39  H   LIG d   1       6.148   2.157  -3.585  0.00  0.00     0.062 H 
ATOM     40  C   LIG d   1       4.049   0.113  -1.906  0.00  0.00    -0.061 A 
ATOM     41  H   LIG d   1       4.154   2.235  -2.188  0.00  0.00     0.062 H 
ATOM     42  H   LIG d   1       3.164   0.173  -1.288  0.00  0.00     0.062 H 
ATOM     43  H   LIG d   1       4.152  -2.001  -1.771  0.00  0.00     0.062 H 
BRANCH  29  44
ATOM     44  O   LIG d   1       9.126  -1.372  -5.354  0.00  0.00    -0.506 OA
ATOM     45  H   LIG d   1       9.706  -2.115  -5.141  0.00  0.00     0.292 HD
ENDBRANCH  29  44
ENDBRANCH   1  28
BRANCH   1  46
ATOM     46  N   LIG d   1       8.422   0.969  -6.270  0.00  0.00    -0.336 N 
ATOM     47  H   LIG d   1       9.328   0.735  -6.527  0.00  0.00     0.147 HD
BRANCH  46  48
ATOM     48  C   LIG d   1       7.434   1.107  -7.249  0.00  0.00     0.028 A 
ATOM     49  C   LIG d   1       7.493   2.158  -8.154  0.00  0.00    -0.034 A 
ATOM     50  C   LIG d   1       6.518   2.289  -9.122  0.00  0.00     0.017 A 
ATOM     51  H   LIG d   1       8.303   2.871  -8.104  0.00  0.00     0.064 H 
ATOM     52  C   LIG d   1       5.477   1.380  -9.185  0.00  0.00     0.273 A 
ATOM     53  H   LIG d   1       6.565   3.103  -9.829  0.00  0.00     0.069 H 
ATOM     54  C   LIG d   1       5.413   0.334  -8.282  0.00  0.00     0.017 A 
ATOM     55  C   LIG d   1       6.388   0.195  -7.314  0.00  0.00    -0.034 A 
ATOM     56  H   LIG d   1       4.599  -0.374  -8.334  0.00  0.00     0.069 H 
ATOM     57  H   LIG d   1       6.338  -0.621  -6.610  0.00  0.00     0.064 H 
BRANCH  52  58
ATOM     58  N   LIG d   1       4.431   1.526 -10.222  0.00  0.00     0.080 N 
ATOM     59  O   LIG d   1       4.406   0.768 -11.165  0.00  0.00     0.041 OA
ATOM     60  O   LIG d   1       3.603   2.400 -10.127  0.00  0.00    -0.576 OA
ENDBRANCH  52  58
ENDBRANCH  46  48
ENDBRANCH   1  46
TORSDOF 9
ENDMDL
MODEL 8
REMARK VINA RESULT:      -7.8      5.165      9.048
REMARK  9 active torsions:
REMARK  status: ('A' for Active; 'I' for Inactive)
REMARK    1  A    between atoms: C_1  and  N_2 
REMARK    2  A    between atoms: C_10  and  C_13 
REMARK    3  A    between atoms: C_13  and  C_15 
REMARK    4  A    between atoms: C_15  and  C_16 
REMARK    5  A    between atoms: C_16  and  C_18 
REMARK    6  A    between atoms: C_16  and  N_29 
REMARK    7  A    between atoms: C_27  and  O_28 
REMARK    8  A    between atoms: N_29  and  C_30 
REMARK    9  A    between atoms: C_33  and  N_36 
ROOT
ATOM      1  C   LIG d   1       9.707   2.963  -6.234  0.00  0.00     0.057 C 
ATOM      2  H   LIG d   1       8.843   3.623  -6.311  0.00  0.00     0.055 H 
ENDROOT
BRANCH   1   3
ATOM      3  C   LIG d   1       9.274   1.525  -6.526  0.00  0.00     0.033 C 
ATOM      4  H   LIG d   1       9.906   1.106  -7.309  0.00  0.00     0.037 H 
ATOM      5  H   LIG d   1       8.235   1.517  -6.855  0.00  0.00     0.037 H 
BRANCH   3   6
ATOM      6  C   LIG d   1       9.412   0.695  -5.275  0.00  0.00     0.170 C 
ATOM      7  O   LIG d   1      10.505   0.530  -4.773  0.00  0.00    -0.292 OA
BRANCH   6   8
ATOM      8  C   LIG d   1       8.267   0.108  -4.685  0.00  0.00     0.073 A 
ATOM      9  C   LIG d   1       7.390   0.897  -3.807  0.00  0.00     0.199 A 
ATOM     10  C   LIG d   1       6.216   0.211  -3.232  0.00  0.00     0.046 A 
ATOM     11  O   LIG d   1       7.623   2.068  -3.564  0.00  0.00    -0.286 OA
ATOM     12  C   LIG d   1       5.998  -1.139  -3.546  0.00  0.00     0.052 A 
ATOM     13  C   LIG d   1       5.334   0.887  -2.390  0.00  0.00    -0.049 A 
ATOM     14  N   LIG d   1       6.868  -1.813  -4.380  0.00  0.00    -0.356 N 
ATOM     15  C   LIG d   1       4.892  -1.791  -3.008  0.00  0.00    -0.037 A 
ATOM     16  C   LIG d   1       7.953  -1.233  -4.922  0.00  0.00    -0.022 A 
ATOM     17  O   LIG d   1       8.754  -1.962  -5.721  0.00  0.00    -0.861 OA
ATOM     18  C   LIG d   1       4.028  -1.112  -2.177  0.00  0.00    -0.060 A 
ATOM     19  H   LIG d   1       4.711  -2.830  -3.242  0.00  0.00     0.064 H 
ATOM     20  C   LIG d   1       4.246   0.222  -1.867  0.00  0.00    -0.061 A 
ATOM     21  H   LIG d   1       3.173  -1.624  -1.762  0.00  0.00     0.062 H 
ATOM     22  H   LIG d   1       3.559   0.742  -1.215  0.00  0.00     0.062 H 
ATOM     23  H   LIG d   1       5.502   1.927  -2.148  0.00  0.00     0.062 H 
BRANCH  14  24
ATOM     24  C   LIG d   1       6.601  -3.222  -4.681  0.00  0.00     0.011 C 
ATOM     25  H   LIG d   1       5.666  -3.304  -5.235  0.00  0.00     0.045 H 
ATOM     26  H   LIG d   1       7.416  -3.626  -5.281  0.00  0.00     0.045 H 
ATOM     27  H   LIG d   1       6.523  -3.783  -3.750  0.00  0.00     0.045 H 
ENDBRANCH  14  24
ENDBRANCH   6   8
ENDBRANCH   3   6
ENDBRANCH   1   3
BRANCH   1  28
ATOM     28  C   LIG d   1      10.754   3.384  -7.232  0.00  0.00     0.022 A 
ATOM     29  C   LIG d   1      12.052   2.991  -7.072  0.00  0.00     0.122 A 
ATOM     30  C   LIG d   1      13.034   3.370  -7.992  0.00  0.00    -0.019 A 
ATOM     31  C   LIG d   1      12.726   4.148  -9.064  0.00  0.00    -0.051 A 
ATOM     32  H   LIG d   1      14.054   3.043  -7.848  0.00  0.00     0.065 H 
ATOM     33  C   LIG d   1      11.400   4.576  -9.257  0.00  0.00    -0.017 A 
ATOM     34  H   LIG d   1      13.496   4.436  -9.764  0.00  0.00     0.062 H 
ATOM     35  C   LIG d   1      10.402   4.189  -8.329  0.00  0.00    -0.009 A 
ATOM     36  C   LIG d   1      11.047   5.380 -10.353  0.00  0.00    -0.054 A 
ATOM     37  C   LIG d   1       9.077   4.617  -8.522  0.00  0.00    -0.054 A 
ATOM     38  C   LIG d   1       8.772   5.396  -9.595  0.00  0.00    -0.061 A 
ATOM     39  H   LIG d   1       8.306   4.329  -7.823  0.00  0.00     0.062 H 
ATOM     40  C   LIG d   1       9.754   5.776 -10.509  0.00  0.00    -0.061 A 
ATOM     41  H   LIG d   1       7.753   5.724  -9.742  0.00  0.00     0.062 H 
ATOM     42  H   LIG d   1       9.485   6.395 -11.352  0.00  0.00     0.062 H 
ATOM     43  H   LIG d   1      11.797   5.683 -11.069  0.00  0.00     0.062 H 
BRANCH  29  44
ATOM     44  O   LIG d   1      12.392   2.218  -6.008  0.00  0.00    -0.506 OA
ATOM     45  H   LIG d   1      13.154   2.547  -5.511  0.00  0.00     0.292 HD
ENDBRANCH  29  44
ENDBRANCH   1  28
BRANCH   1  46
ATOM     46  N   LIG d   1      10.261   3.040  -4.881  0.00  0.00    -0.336 N 
ATOM     47  H   LIG d   1      10.769   2.297  -4.520  0.00  0.00     0.147 HD
BRANCH  46  48
ATOM     48  C   LIG d   1      10.060   4.187  -4.108  0.00  0.00     0.028 A 
ATOM     49  C   LIG d   1      10.415   4.192  -2.766  0.00  0.00    -0.034 A 
ATOM     50  C   LIG d   1      10.218   5.328  -2.006  0.00  0.00     0.017 A 
ATOM     51  H   LIG d   1      10.848   3.311  -2.316  0.00  0.00     0.064 H 
ATOM     52  C   LIG d   1       9.658   6.457  -2.578  0.00  0.00     0.273 A 
ATOM     53  H   LIG d   1      10.498   5.336  -0.963  0.00  0.00     0.069 H 
ATOM     54  C   LIG d   1       9.300   6.453  -3.914  0.00  0.00     0.017 A 
ATOM     55  C   LIG d   1       9.498   5.321  -4.680  0.00  0.00    -0.034 A 
ATOM     56  H   LIG d   1       8.863   7.336  -4.357  0.00  0.00     0.069 H 
ATOM     57  H   LIG d   1       9.217   5.319  -5.722  0.00  0.00     0.064 H 
BRANCH  52  58
ATOM     58  N   LIG d   1       9.446   7.671  -1.759  0.00  0.00     0.080 N 
ATOM     59  O   LIG d   1      10.132   8.650  -1.941  0.00  0.00     0.041 OA
ATOM     60  O   LIG d   1       8.586   7.685  -0.910  0.00  0.00    -0.576 OA
ENDBRANCH  52  58
ENDBRANCH  46  48
ENDBRANCH   1  46
TORSDOF 9
ENDMDL
MODEL 9
REMARK VINA RESULT:      -7.8      1.839      2.564
REMARK  9 active torsions:
REMARK  status: ('A' for Active; 'I' for Inactive)
REMARK    1  A    between atoms: C_1  and  N_2 
REMARK    2  A    between atoms: C_10  and  C_13 
REMARK    3  A    between atoms: C_13  and  C_15 
REMARK    4  A    between atoms: C_15  and  C_16 
REMARK    5  A    between atoms: C_16  and  C_18 
REMARK    6  A    between atoms: C_16  and  N_29 
REMARK    7  A    between atoms: C_27  and  O_28 
REMARK    8  A    between atoms: N_29  and  C_30 
REMARK    9  A    between atoms: C_33  and  N_36 
ROOT
ATOM      1  C   LIG d   1       8.156  -1.890  -4.868  0.00  0.00     0.057 C 
ATOM      2  H   LIG d   1       7.525  -2.702  -5.229  0.00  0.00     0.055 H 
ENDROOT
BRANCH   1   3
ATOM      3  C   LIG d   1       8.886  -1.248  -6.050  0.00  0.00     0.033 C 
ATOM      4  H   LIG d   1       9.934  -1.548  -6.037  0.00  0.00     0.037 H 
ATOM      5  H   LIG d   1       8.817  -0.163  -5.974  0.00  0.00     0.037 H 
BRANCH   3   6
ATOM      6  C   LIG d   1       8.250  -1.702  -7.340  0.00  0.00     0.170 C 
ATOM      7  O   LIG d   1       8.792  -2.553  -8.016  0.00  0.00    -0.292 OA
BRANCH   6   8
ATOM      8  C   LIG d   1       7.023  -1.138  -7.761  0.00  0.00     0.073 A 
ATOM      9  C   LIG d   1       6.948   0.275  -8.162  0.00  0.00     0.199 A 
ATOM     10  C   LIG d   1       5.631   0.787  -8.589  0.00  0.00     0.046 A 
ATOM     11  O   LIG d   1       7.932   0.993  -8.143  0.00  0.00    -0.286 OA
ATOM     12  C   LIG d   1       4.532  -0.086  -8.591  0.00  0.00     0.052 A 
ATOM     13  C   LIG d   1       5.473   2.114  -8.986  0.00  0.00    -0.049 A 
ATOM     14  N   LIG d   1       4.682  -1.402  -8.200  0.00  0.00    -0.356 N 
ATOM     15  C   LIG d   1       3.287   0.390  -8.993  0.00  0.00    -0.037 A 
ATOM     16  C   LIG d   1       5.860  -1.911  -7.798  0.00  0.00    -0.022 A 
ATOM     17  O   LIG d   1       5.921  -3.204  -7.427  0.00  0.00    -0.861 OA
ATOM     18  C   LIG d   1       3.144   1.704  -9.383  0.00  0.00    -0.060 A 
ATOM     19  H   LIG d   1       2.433  -0.271  -9.001  0.00  0.00     0.064 H 
ATOM     20  C   LIG d   1       4.232   2.565  -9.379  0.00  0.00    -0.061 A 
ATOM     21  H   LIG d   1       2.176   2.067  -9.693  0.00  0.00     0.062 H 
ATOM     22  H   LIG d   1       4.105   3.592  -9.689  0.00  0.00     0.062 H 
ATOM     23  H   LIG d   1       6.319   2.786  -8.984  0.00  0.00     0.062 H 
BRANCH  14  24
ATOM     24  C   LIG d   1       3.508  -2.278  -8.217  0.00  0.00     0.011 C 
ATOM     25  H   LIG d   1       3.831  -3.317  -8.283  0.00  0.00     0.045 H 
ATOM     26  H   LIG d   1       2.933  -2.133  -7.303  0.00  0.00     0.045 H 
ATOM     27  H   LIG d   1       2.887  -2.035  -9.080  0.00  0.00     0.045 H 
ENDBRANCH  14  24
ENDBRANCH   6   8
ENDBRANCH   3   6
ENDBRANCH   1   3
BRANCH   1  28
ATOM     28  C   LIG d   1       7.304  -0.855  -4.183  0.00  0.00     0.022 A 
ATOM     29  C   LIG d   1       7.759   0.424  -4.038  0.00  0.00     0.122 A 
ATOM     30  C   LIG d   1       6.978   1.397  -3.408  0.00  0.00    -0.019 A 
ATOM     31  C   LIG d   1       5.748   1.094  -2.913  0.00  0.00    -0.051 A 
ATOM     32  H   LIG d   1       7.356   2.404  -3.310  0.00  0.00     0.065 H 
ATOM     33  C   LIG d   1       5.249  -0.215  -3.039  0.00  0.00    -0.017 A 
ATOM     34  H   LIG d   1       5.157   1.855  -2.426  0.00  0.00     0.062 H 
ATOM     35  C   LIG d   1       6.037  -1.201  -3.682  0.00  0.00    -0.009 A 
ATOM     36  C   LIG d   1       3.983  -0.563  -2.539  0.00  0.00    -0.054 A 
ATOM     37  C   LIG d   1       5.538  -2.509  -3.806  0.00  0.00    -0.054 A 
ATOM     38  C   LIG d   1       4.307  -2.810  -3.310  0.00  0.00    -0.061 A 
ATOM     39  H   LIG d   1       6.128  -3.272  -4.295  0.00  0.00     0.062 H 
ATOM     40  C   LIG d   1       3.532  -1.839  -2.678  0.00  0.00    -0.061 A 
ATOM     41  H   LIG d   1       3.926  -3.816  -3.407  0.00  0.00     0.062 H 
ATOM     42  H   LIG d   1       2.558  -2.104  -2.293  0.00  0.00     0.062 H 
ATOM     43  H   LIG d   1       3.371   0.179  -2.047  0.00  0.00     0.062 H 
BRANCH  29  44
ATOM     44  O   LIG d   1       8.987   0.757  -4.517  0.00  0.00    -0.506 OA
ATOM     45  H   LIG d   1       9.395   0.070  -5.062  0.00  0.00     0.292 HD
ENDBRANCH  29  44
ENDBRANCH   1  28
BRANCH   1  46
ATOM     46  N   LIG d   1       9.138  -2.421  -3.919  0.00  0.00    -0.336 N 
ATOM     47  H   LIG d   1       9.768  -1.824  -3.486  0.00  0.00     0.147 HD
BRANCH  46  48
ATOM     48  C   LIG d   1       9.168  -3.789  -3.637  0.00  0.00     0.028 A 
ATOM     49  C   LIG d   1       8.678  -4.702  -4.562  0.00  0.00    -0.034 A 
ATOM     50  C   LIG d   1       8.714  -6.053  -4.282  0.00  0.00     0.017 A 
ATOM     51  H   LIG d   1       8.273  -4.356  -5.502  0.00  0.00     0.064 H 
ATOM     52  C   LIG d   1       9.227  -6.498  -3.076  0.00  0.00     0.273 A 
ATOM     53  H   LIG d   1       8.337  -6.764  -5.002  0.00  0.00     0.069 H 
ATOM     54  C   LIG d   1       9.711  -5.591  -2.151  0.00  0.00     0.017 A 
ATOM     55  C   LIG d   1       9.683  -4.239  -2.428  0.00  0.00    -0.034 A 
ATOM     56  H   LIG d   1      10.111  -5.942  -1.211  0.00  0.00     0.069 H 
ATOM     57  H   LIG d   1      10.061  -3.531  -1.705  0.00  0.00     0.064 H 
BRANCH  52  58
ATOM     58  N   LIG d   1       9.259  -7.947  -2.778  0.00  0.00     0.080 N 
ATOM     59  O   LIG d   1       8.709  -8.729  -3.519  0.00  0.00     0.041 OA
ATOM     60  O   LIG d   1       9.835  -8.350  -1.795  0.00  0.00    -0.576 OA
ENDBRANCH  52  58
ENDBRANCH  46  48
ENDBRANCH   1  46
TORSDOF 9
ENDMDL
