MODEL 1
REMARK VINA RESULT:      -5.4      0.000      0.000
REMARK  8 active torsions:
REMARK  status: ('A' for Active; 'I' for Inactive)
REMARK    1  A    between atoms: C_1  and  C_2 
REMARK    2  A    between atoms: C_11  and  C_24 
REMARK    3  A    between atoms: C_16  and  C_17 
REMARK    4  A    between atoms: C_16  and  O_20 
REMARK    5  A    between atoms: C_17  and  C_19 
REMARK    6  A    between atoms: O_20  and  C_21 
REMARK    7  A    between atoms: C_21  and  C_23 
REMARK    8  A    between atoms: C_25  and  C_32 
ROOT
ATOM      1  C   LIG d   1       8.371  -5.129  -4.579  0.00  0.00    -0.021 C 
ATOM      2  H   LIG d   1       8.225  -4.994  -3.507  0.00  0.00     0.034 H 
ATOM      3  C   LIG d   1       7.104  -4.697  -5.319  0.00  0.00    -0.043 C 
ATOM      4  C   LIG d   1       6.984  -3.172  -5.198  0.00  0.00    -0.033 C 
ATOM      5  H   LIG d   1       7.138  -2.879  -4.160  0.00  0.00     0.031 H 
ATOM      6  C   LIG d   1       8.051  -2.527  -6.070  0.00  0.00    -0.029 C 
ATOM      7  H   LIG d   1       7.860  -2.794  -7.109  0.00  0.00     0.031 H 
ATOM      8  C   LIG d   1       7.953  -1.003  -5.929  0.00  0.00    -0.049 C 
ATOM      9  C   LIG d   1       6.588  -0.556  -6.450  0.00  0.00    -0.043 C 
ATOM     10  C   LIG d   1       5.465  -1.212  -5.678  0.00  0.00     0.018 C 
ATOM     11  C   LIG d   1       5.593  -2.745  -5.618  0.00  0.00    -0.028 C 
ATOM     12  H   LIG d   1       5.296  -3.223  -6.552  0.00  0.00     0.031 H 
ATOM     13  C   LIG d   1       4.647  -3.091  -4.429  0.00  0.00    -0.045 C 
ATOM     14  C   LIG d   1       4.910  -1.964  -3.408  0.00  0.00    -0.005 C 
ATOM     15  C   LIG d   1       5.434  -0.780  -4.206  0.00  0.00     0.176 C 
ATOM     16  C   LIG d   1       9.442  -2.992  -5.723  0.00  0.00    -0.007 C 
ATOM     17  C   LIG d   1       9.539  -4.309  -5.028  0.00  0.00    -0.057 C 
ATOM     18  C   LIG d   1      10.797  -4.765  -4.798  0.00  0.00    -0.019 C 
ATOM     19  C   LIG d   1      11.849  -3.829  -5.254  0.00  0.00     0.156 C 
ATOM     20  O   LIG d   1      12.777  -4.199  -5.942  0.00  0.00    -0.293 OA
ATOM     21  C   LIG d   1      11.707  -2.387  -4.820  0.00  0.00     0.011 C 
ATOM     22  C   LIG d   1      10.261  -1.923  -5.016  0.00  0.00    -0.037 C 
ATOM     23  H   LIG d   1       6.232  -5.173  -4.869  0.00  0.00     0.027 H 
ATOM     24  H   LIG d   1       7.175  -4.979  -6.370  0.00  0.00     0.027 H 
ATOM     25  H   LIG d   1       8.741  -0.529  -6.513  0.00  0.00     0.027 H 
ATOM     26  H   LIG d   1       8.053  -0.725  -4.879  0.00  0.00     0.027 H 
ATOM     27  H   LIG d   1       6.502  -0.826  -7.504  0.00  0.00     0.027 H 
ATOM     28  H   LIG d   1       6.505   0.527  -6.351  0.00  0.00     0.027 H 
ATOM     29  H   LIG d   1       3.606  -3.080  -4.752  0.00  0.00     0.027 H 
ATOM     30  H   LIG d   1       4.905  -4.062  -4.006  0.00  0.00     0.027 H 
ATOM     31  H   LIG d   1       3.983  -1.694  -2.900  0.00  0.00     0.031 H 
ATOM     32  H   LIG d   1       5.655  -2.285  -2.679  0.00  0.00     0.031 H 
ATOM     33  H   LIG d   1      11.008  -5.714  -4.328  0.00  0.00     0.065 H 
ATOM     34  H   LIG d   1      11.951  -2.303  -3.854  0.00  0.00     0.035 H 
ATOM     35  H   LIG d   1      12.370  -1.761  -5.418  0.00  0.00     0.035 H 
ATOM     36  H   LIG d   1       9.816  -1.715  -4.042  0.00  0.00     0.028 H 
ATOM     37  H   LIG d   1      10.254  -1.013  -5.614  0.00  0.00     0.028 H 
ENDROOT
BRANCH  15  38
ATOM     38  C   LIG d   1       6.821  -0.421  -3.740  0.00  0.00     0.174 C 
ATOM     39  O   LIG d   1       7.485  -1.232  -3.140  0.00  0.00    -0.293 OA
BRANCH  38  40
ATOM     40  C   LIG d   1       7.380   0.950  -4.023  0.00  0.00    -0.002 C 
ATOM     41  H   LIG d   1       8.050   0.889  -4.763  0.00  0.00     0.031 H 
ATOM     42  H   LIG d   1       6.571   1.618  -4.319  0.00  0.00     0.031 H 
ATOM     43  H   LIG d   1       7.863   1.338  -3.127  0.00  0.00     0.031 H 
ENDBRANCH  38  40
ENDBRANCH  15  38
BRANCH  15  44
ATOM     44  O   LIG d   1       4.539   0.350  -4.035  0.00  0.00    -0.450 OA
BRANCH  44  45
ATOM     45  C   LIG d   1       3.848   0.412  -2.887  0.00  0.00     0.305 C 
ATOM     46  O   LIG d   1       2.720  -0.017  -2.836  0.00  0.00    -0.251 OA
BRANCH  45  47
ATOM     47  C   LIG d   1       4.479   1.017  -1.658  0.00  0.00     0.033 C 
ATOM     48  H   LIG d   1       4.085   2.022  -1.505  0.00  0.00     0.034 H 
ATOM     49  H   LIG d   1       4.248   0.400  -0.790  0.00  0.00     0.034 H 
ATOM     50  H   LIG d   1       5.560   1.067  -1.792  0.00  0.00     0.034 H 
ENDBRANCH  45  47
ENDBRANCH  44  45
ENDBRANCH  15  44
BRANCH  10  51
ATOM     51  C   LIG d   1       4.130  -0.850  -6.332  0.00  0.00    -0.055 C 
ATOM     52  H   LIG d   1       3.633  -1.759  -6.669  0.00  0.00     0.024 H 
ATOM     53  H   LIG d   1       4.310  -0.196  -7.186  0.00  0.00     0.024 H 
ATOM     54  H   LIG d   1       3.499  -0.336  -5.608  0.00  0.00     0.024 H 
ENDBRANCH  10  51
BRANCH  16  55
ATOM     55  C   LIG d   1      10.152  -3.188  -7.063  0.00  0.00    -0.056 C 
ATOM     56  H   LIG d   1      10.014  -2.299  -7.680  0.00  0.00     0.024 H 
ATOM     57  H   LIG d   1      11.216  -3.348  -6.891  0.00  0.00     0.024 H 
ATOM     58  H   LIG d   1       9.732  -4.053  -7.574  0.00  0.00     0.024 H 
ENDBRANCH  16  55
BRANCH   1  59
ATOM     59  C   LIG d   1       8.650  -6.605  -4.871  0.00  0.00    -0.059 C 
ATOM     60  H   LIG d   1       7.917  -6.978  -5.586  0.00  0.00     0.024 H 
ATOM     61  H   LIG d   1       9.652  -6.710  -5.287  0.00  0.00     0.024 H 
ATOM     62  H   LIG d   1       8.579  -7.178  -3.946  0.00  0.00     0.024 H 
ENDBRANCH   1  59
TORSDOF 8
ENDMDL
MODEL 2
REMARK VINA RESULT:      -5.4      1.738      3.272
REMARK  8 active torsions:
REMARK  status: ('A' for Active; 'I' for Inactive)
REMARK    1  A    between atoms: C_1  and  C_2 
REMARK    2  A    between atoms: C_11  and  C_24 
REMARK    3  A    between atoms: C_16  and  C_17 
REMARK    4  A    between atoms: C_16  and  O_20 
REMARK    5  A    between atoms: C_17  and  C_19 
REMARK    6  A    between atoms: O_20  and  C_21 
REMARK    7  A    between atoms: C_21  and  C_23 
REMARK    8  A    between atoms: C_25  and  C_32 
ROOT
ATOM      1  C   LIG d   1       9.570  -2.571  -5.416  0.00  0.00    -0.021 C 
ATOM      2  H   LIG d   1       9.519  -1.561  -5.824  0.00  0.00     0.034 H 
ATOM      3  C   LIG d   1       8.692  -2.657  -4.167  0.00  0.00    -0.043 C 
ATOM      4  C   LIG d   1       7.227  -2.563  -4.614  0.00  0.00    -0.033 C 
ATOM      5  H   LIG d   1       7.113  -1.730  -5.307  0.00  0.00     0.031 H 
ATOM      6  C   LIG d   1       6.845  -3.860  -5.315  0.00  0.00    -0.029 C 
ATOM      7  H   LIG d   1       6.922  -4.677  -4.599  0.00  0.00     0.031 H 
ATOM      8  C   LIG d   1       5.390  -3.758  -5.789  0.00  0.00    -0.049 C 
ATOM      9  C   LIG d   1       4.492  -3.605  -4.562  0.00  0.00    -0.043 C 
ATOM     10  C   LIG d   1       4.855  -2.371  -3.767  0.00  0.00     0.018 C 
ATOM     11  C   LIG d   1       6.351  -2.308  -3.406  0.00  0.00    -0.028 C 
ATOM     12  H   LIG d   1       6.606  -2.974  -2.582  0.00  0.00     0.031 H 
ATOM     13  C   LIG d   1       6.522  -0.801  -3.047  0.00  0.00    -0.045 C 
ATOM     14  C   LIG d   1       5.651  -0.071  -4.092  0.00  0.00    -0.005 C 
ATOM     15  C   LIG d   1       4.602  -1.074  -4.547  0.00  0.00     0.176 C 
ATOM     16  C   LIG d   1       7.749  -4.176  -6.478  0.00  0.00    -0.007 C 
ATOM     17  C   LIG d   1       9.102  -3.548  -6.449  0.00  0.00    -0.057 C 
ATOM     18  C   LIG d   1       9.944  -3.907  -7.451  0.00  0.00    -0.019 C 
ATOM     19  C   LIG d   1       9.329  -4.842  -8.421  0.00  0.00     0.156 C 
ATOM     20  O   LIG d   1       9.886  -5.865  -8.761  0.00  0.00    -0.293 OA
ATOM     21  C   LIG d   1       7.971  -4.458  -8.964  0.00  0.00     0.011 C 
ATOM     22  C   LIG d   1       7.069  -3.980  -7.823  0.00  0.00    -0.037 C 
ATOM     23  H   LIG d   1       8.926  -1.832  -3.493  0.00  0.00     0.027 H 
ATOM     24  H   LIG d   1       8.862  -3.607  -3.660  0.00  0.00     0.027 H 
ATOM     25  H   LIG d   1       5.118  -4.662  -6.332  0.00  0.00     0.027 H 
ATOM     26  H   LIG d   1       5.276  -2.889  -6.437  0.00  0.00     0.027 H 
ATOM     27  H   LIG d   1       4.602  -4.485  -3.927  0.00  0.00     0.027 H 
ATOM     28  H   LIG d   1       3.454  -3.528  -4.887  0.00  0.00     0.027 H 
ATOM     29  H   LIG d   1       6.157  -0.604  -2.039  0.00  0.00     0.027 H 
ATOM     30  H   LIG d   1       7.566  -0.503  -3.139  0.00  0.00     0.027 H 
ATOM     31  H   LIG d   1       5.169   0.796  -3.638  0.00  0.00     0.031 H 
ATOM     32  H   LIG d   1       6.264   0.242  -4.937  0.00  0.00     0.031 H 
ATOM     33  H   LIG d   1      10.958  -3.548  -7.533  0.00  0.00     0.065 H 
ATOM     34  H   LIG d   1       8.075  -3.720  -9.631  0.00  0.00     0.035 H 
ATOM     35  H   LIG d   1       7.515  -5.323  -9.446  0.00  0.00     0.035 H 
ATOM     36  H   LIG d   1       6.845  -2.921  -7.962  0.00  0.00     0.028 H 
ATOM     37  H   LIG d   1       6.139  -4.548  -7.840  0.00  0.00     0.028 H 
ENDROOT
BRANCH  15  38
ATOM     38  C   LIG d   1       4.739  -1.322  -6.027  0.00  0.00     0.174 C 
ATOM     39  O   LIG d   1       3.920  -1.996  -6.604  0.00  0.00    -0.293 OA
BRANCH  38  40
ATOM     40  C   LIG d   1       5.897  -0.728  -6.787  0.00  0.00    -0.002 C 
ATOM     41  H   LIG d   1       6.748  -0.910  -6.292  0.00  0.00     0.031 H 
ATOM     42  H   LIG d   1       5.950  -1.178  -7.778  0.00  0.00     0.031 H 
ATOM     43  H   LIG d   1       5.756   0.348  -6.883  0.00  0.00     0.031 H 
ENDBRANCH  38  40
ENDBRANCH  15  38
BRANCH  15  44
ATOM     44  O   LIG d   1       3.279  -0.558  -4.245  0.00  0.00    -0.450 OA
BRANCH  44  45
ATOM     45  C   LIG d   1       3.172   0.763  -4.039  0.00  0.00     0.305 C 
ATOM     46  O   LIG d   1       2.856   1.493  -4.947  0.00  0.00    -0.251 OA
BRANCH  45  47
ATOM     47  C   LIG d   1       3.446   1.337  -2.672  0.00  0.00     0.033 C 
ATOM     48  H   LIG d   1       3.556   0.526  -1.952  0.00  0.00     0.034 H 
ATOM     49  H   LIG d   1       4.363   1.924  -2.701  0.00  0.00     0.034 H 
ATOM     50  H   LIG d   1       2.614   1.976  -2.373  0.00  0.00     0.034 H 
ENDBRANCH  45  47
ENDBRANCH  44  45
ENDBRANCH  15  44
BRANCH  10  51
ATOM     51  C   LIG d   1       4.031  -2.346  -2.478  0.00  0.00    -0.055 C 
ATOM     52  H   LIG d   1       3.421  -3.247  -2.420  0.00  0.00     0.024 H 
ATOM     53  H   LIG d   1       3.384  -1.468  -2.478  0.00  0.00     0.024 H 
ATOM     54  H   LIG d   1       4.700  -2.304  -1.620  0.00  0.00     0.024 H 
ENDBRANCH  10  51
BRANCH  16  55
ATOM     55  C   LIG d   1       8.001  -5.683  -6.398  0.00  0.00    -0.056 C 
ATOM     56  H   LIG d   1       8.079  -6.092  -7.406  0.00  0.00     0.024 H 
ATOM     57  H   LIG d   1       8.930  -5.868  -5.859  0.00  0.00     0.024 H 
ATOM     58  H   LIG d   1       7.175  -6.163  -5.874  0.00  0.00     0.024 H 
ENDBRANCH  16  55
BRANCH   1  59
ATOM     59  C   LIG d   1      11.019  -2.891  -5.040  0.00  0.00    -0.059 C 
ATOM     60  H   LIG d   1      11.080  -3.916  -4.672  0.00  0.00     0.024 H 
ATOM     61  H   LIG d   1      11.655  -2.781  -5.918  0.00  0.00     0.024 H 
ATOM     62  H   LIG d   1      11.352  -2.205  -4.261  0.00  0.00     0.024 H 
ENDBRANCH   1  59
TORSDOF 8
ENDMDL
MODEL 3
REMARK VINA RESULT:      -5.3      2.795      3.676
REMARK  8 active torsions:
REMARK  status: ('A' for Active; 'I' for Inactive)
REMARK    1  A    between atoms: C_1  and  C_2 
REMARK    2  A    between atoms: C_11  and  C_24 
REMARK    3  A    between atoms: C_16  and  C_17 
REMARK    4  A    between atoms: C_16  and  O_20 
REMARK    5  A    between atoms: C_17  and  C_19 
REMARK    6  A    between atoms: O_20  and  C_21 
REMARK    7  A    between atoms: C_21  and  C_23 
REMARK    8  A    between atoms: C_25  and  C_32 
ROOT
ATOM      1  C   LIG d   1       6.040  -5.471  -5.877  0.00  0.00    -0.021 C 
ATOM      2  H   LIG d   1       6.909  -5.205  -5.274  0.00  0.00     0.034 H 
ATOM      3  C   LIG d   1       4.804  -4.760  -5.324  0.00  0.00    -0.043 C 
ATOM      4  C   LIG d   1       4.953  -3.261  -5.615  0.00  0.00    -0.033 C 
ATOM      5  H   LIG d   1       5.950  -2.933  -5.322  0.00  0.00     0.031 H 
ATOM      6  C   LIG d   1       4.764  -3.032  -7.108  0.00  0.00    -0.029 C 
ATOM      7  H   LIG d   1       3.749  -3.324  -7.379  0.00  0.00     0.031 H 
ATOM      8  C   LIG d   1       4.941  -1.538  -7.406  0.00  0.00    -0.049 C 
ATOM      9  C   LIG d   1       3.847  -0.765  -6.670  0.00  0.00    -0.043 C 
ATOM     10  C   LIG d   1       3.922  -0.997  -5.178  0.00  0.00     0.018 C 
ATOM     11  C   LIG d   1       3.934  -2.491  -4.803  0.00  0.00    -0.028 C 
ATOM     12  H   LIG d   1       2.945  -2.943  -4.873  0.00  0.00     0.031 H 
ATOM     13  C   LIG d   1       4.479  -2.441  -3.343  0.00  0.00    -0.045 C 
ATOM     14  C   LIG d   1       5.570  -1.351  -3.393  0.00  0.00    -0.005 C 
ATOM     15  C   LIG d   1       5.214  -0.444  -4.561  0.00  0.00     0.176 C 
ATOM     16  C   LIG d   1       5.717  -3.845  -7.944  0.00  0.00    -0.007 C 
ATOM     17  C   LIG d   1       6.280  -5.067  -7.297  0.00  0.00    -0.057 C 
ATOM     18  C   LIG d   1       7.067  -5.844  -8.084  0.00  0.00    -0.019 C 
ATOM     19  C   LIG d   1       7.251  -5.296  -9.447  0.00  0.00     0.156 C 
ATOM     20  O   LIG d   1       7.084  -5.978 -10.437  0.00  0.00    -0.293 OA
ATOM     21  C   LIG d   1       7.655  -3.841  -9.543  0.00  0.00     0.011 C 
ATOM     22  C   LIG d   1       6.805  -3.000  -8.587  0.00  0.00    -0.037 C 
ATOM     23  H   LIG d   1       4.735  -4.923  -4.248  0.00  0.00     0.027 H 
ATOM     24  H   LIG d   1       3.908  -5.144  -5.812  0.00  0.00     0.027 H 
ATOM     25  H   LIG d   1       4.852  -1.366  -8.479  0.00  0.00     0.027 H 
ATOM     26  H   LIG d   1       5.920  -1.208  -7.059  0.00  0.00     0.027 H 
ATOM     27  H   LIG d   1       2.872  -1.091  -7.035  0.00  0.00     0.027 H 
ATOM     28  H   LIG d   1       3.966   0.300  -6.873  0.00  0.00     0.027 H 
ATOM     29  H   LIG d   1       3.687  -2.159  -2.649  0.00  0.00     0.027 H 
ATOM     30  H   LIG d   1       4.907  -3.403  -3.063  0.00  0.00     0.027 H 
ATOM     31  H   LIG d   1       5.574  -0.781  -2.464  0.00  0.00     0.031 H 
ATOM     32  H   LIG d   1       6.547  -1.807  -3.555  0.00  0.00     0.031 H 
ATOM     33  H   LIG d   1       7.515  -6.767  -7.750  0.00  0.00     0.065 H 
ATOM     34  H   LIG d   1       8.619  -3.746  -9.297  0.00  0.00     0.035 H 
ATOM     35  H   LIG d   1       7.503  -3.489 -10.564  0.00  0.00     0.035 H 
ATOM     36  H   LIG d   1       7.447  -2.586  -7.807  0.00  0.00     0.028 H 
ATOM     37  H   LIG d   1       6.344  -2.183  -9.141  0.00  0.00     0.028 H 
ENDROOT
BRANCH  15  38
ATOM     38  C   LIG d   1       6.324  -0.461  -5.580  0.00  0.00     0.174 C 
ATOM     39  O   LIG d   1       6.290   0.293  -6.523  0.00  0.00    -0.293 OA
BRANCH  38  40
ATOM     40  C   LIG d   1       7.479  -1.416  -5.421  0.00  0.00    -0.002 C 
ATOM     41  H   LIG d   1       7.354  -1.954  -4.586  0.00  0.00     0.031 H 
ATOM     42  H   LIG d   1       7.518  -2.084  -6.281  0.00  0.00     0.031 H 
ATOM     43  H   LIG d   1       8.410  -0.854  -5.355  0.00  0.00     0.031 H 
ENDBRANCH  38  40
ENDBRANCH  15  38
BRANCH  15  44
ATOM     44  O   LIG d   1       4.999   0.906  -4.076  0.00  0.00    -0.450 OA
BRANCH  44  45
ATOM     45  C   LIG d   1       5.513   1.211  -2.874  0.00  0.00     0.305 C 
ATOM     46  O   LIG d   1       6.659   1.583  -2.785  0.00  0.00    -0.251 OA
BRANCH  45  47
ATOM     47  C   LIG d   1       4.662   1.090  -1.636  0.00  0.00     0.033 C 
ATOM     48  H   LIG d   1       5.303   0.961  -0.765  0.00  0.00     0.034 H 
ATOM     49  H   LIG d   1       4.065   1.994  -1.517  0.00  0.00     0.034 H 
ATOM     50  H   LIG d   1       4.001   0.228  -1.732  0.00  0.00     0.034 H 
ENDBRANCH  45  47
ENDBRANCH  44  45
ENDBRANCH  15  44
BRANCH  10  51
ATOM     51  C   LIG d   1       2.723  -0.325  -4.507  0.00  0.00    -0.055 C 
ATOM     52  H   LIG d   1       1.825  -0.914  -4.693  0.00  0.00     0.024 H 
ATOM     53  H   LIG d   1       2.592   0.677  -4.916  0.00  0.00     0.024 H 
ATOM     54  H   LIG d   1       2.897  -0.259  -3.434  0.00  0.00     0.024 H 
ENDBRANCH  10  51
BRANCH  16  55
ATOM     55  C   LIG d   1       4.889  -4.357  -9.124  0.00  0.00    -0.056 C 
ATOM     56  H   LIG d   1       5.342  -4.021 -10.057  0.00  0.00     0.024 H 
ATOM     57  H   LIG d   1       4.863  -5.446  -9.105  0.00  0.00     0.024 H 
ATOM     58  H   LIG d   1       3.875  -3.967  -9.052  0.00  0.00     0.024 H 
ENDBRANCH  16  55
BRANCH   1  59
ATOM     59  C   LIG d   1       5.825  -6.985  -5.813  0.00  0.00    -0.059 C 
ATOM     60  H   LIG d   1       5.455  -7.258  -4.825  0.00  0.00     0.024 H 
ATOM     61  H   LIG d   1       5.096  -7.281  -6.568  0.00  0.00     0.024 H 
ATOM     62  H   LIG d   1       6.770  -7.495  -6.001  0.00  0.00     0.024 H 
ENDBRANCH   1  59
TORSDOF 8
ENDMDL
MODEL 4
REMARK VINA RESULT:      -5.3      5.953      8.006
REMARK  8 active torsions:
REMARK  status: ('A' for Active; 'I' for Inactive)
REMARK    1  A    between atoms: C_1  and  C_2 
REMARK    2  A    between atoms: C_11  and  C_24 
REMARK    3  A    between atoms: C_16  and  C_17 
REMARK    4  A    between atoms: C_16  and  O_20 
REMARK    5  A    between atoms: C_17  and  C_19 
REMARK    6  A    between atoms: O_20  and  C_21 
REMARK    7  A    between atoms: C_21  and  C_23 
REMARK    8  A    between atoms: C_25  and  C_32 
ROOT
ATOM      1  C   LIG d   1       2.170  -2.574 -12.824  0.00  0.00    -0.021 C 
ATOM      2  H   LIG d   1       2.284  -3.385 -12.104  0.00  0.00     0.034 H 
ATOM      3  C   LIG d   1       1.693  -1.316 -12.096  0.00  0.00    -0.043 C 
ATOM      4  C   LIG d   1       2.848  -0.811 -11.222  0.00  0.00    -0.033 C 
ATOM      5  H   LIG d   1       3.265  -1.645 -10.657  0.00  0.00     0.031 H 
ATOM      6  C   LIG d   1       3.924  -0.223 -12.124  0.00  0.00    -0.029 C 
ATOM      7  H   LIG d   1       3.505   0.635 -12.650  0.00  0.00     0.031 H 
ATOM      8  C   LIG d   1       5.093   0.256 -11.255  0.00  0.00    -0.049 C 
ATOM      9  C   LIG d   1       4.588   1.370 -10.338  0.00  0.00    -0.043 C 
ATOM     10  C   LIG d   1       3.463   0.884  -9.453  0.00  0.00     0.018 C 
ATOM     11  C   LIG d   1       2.322   0.218 -10.244  0.00  0.00    -0.028 C 
ATOM     12  H   LIG d   1       1.682   0.947 -10.741  0.00  0.00     0.031 H 
ATOM     13  C   LIG d   1       1.586  -0.575  -9.122  0.00  0.00    -0.045 C 
ATOM     14  C   LIG d   1       2.731  -1.126  -8.246  0.00  0.00    -0.005 C 
ATOM     15  C   LIG d   1       3.918  -0.200  -8.466  0.00  0.00     0.176 C 
ATOM     16  C   LIG d   1       4.413  -1.204 -13.157  0.00  0.00    -0.007 C 
ATOM     17  C   LIG d   1       3.482  -2.320 -13.496  0.00  0.00    -0.057 C 
ATOM     18  C   LIG d   1       3.888  -3.149 -14.491  0.00  0.00    -0.019 C 
ATOM     19  C   LIG d   1       5.224  -2.802 -15.030  0.00  0.00     0.156 C 
ATOM     20  O   LIG d   1       5.422  -2.695 -16.222  0.00  0.00    -0.293 OA
ATOM     21  C   LIG d   1       6.327  -2.586 -14.017  0.00  0.00     0.011 C 
ATOM     22  C   LIG d   1       5.816  -1.714 -12.867  0.00  0.00    -0.037 C 
ATOM     23  H   LIG d   1       0.832  -1.555 -11.471  0.00  0.00     0.027 H 
ATOM     24  H   LIG d   1       1.419  -0.551 -12.823  0.00  0.00     0.027 H 
ATOM     25  H   LIG d   1       5.890   0.639 -11.892  0.00  0.00     0.027 H 
ATOM     26  H   LIG d   1       5.466  -0.572 -10.653  0.00  0.00     0.027 H 
ATOM     27  H   LIG d   1       4.230   2.200 -10.948  0.00  0.00     0.027 H 
ATOM     28  H   LIG d   1       5.411   1.717  -9.712  0.00  0.00     0.027 H 
ATOM     29  H   LIG d   1       0.945   0.089  -8.542  0.00  0.00     0.027 H 
ATOM     30  H   LIG d   1       1.002  -1.390  -9.551  0.00  0.00     0.027 H 
ATOM     31  H   LIG d   1       2.437  -1.116  -7.196  0.00  0.00     0.031 H 
ATOM     32  H   LIG d   1       2.983  -2.140  -8.555  0.00  0.00     0.031 H 
ATOM     33  H   LIG d   1       3.300  -3.978 -14.852  0.00  0.00     0.065 H 
ATOM     34  H   LIG d   1       6.623  -3.469 -13.654  0.00  0.00     0.035 H 
ATOM     35  H   LIG d   1       7.169  -2.089 -14.499  0.00  0.00     0.035 H 
ATOM     36  H   LIG d   1       5.802  -2.303 -11.949  0.00  0.00     0.028 H 
ATOM     37  H   LIG d   1       6.486  -0.865 -12.737  0.00  0.00     0.028 H 
ENDROOT
BRANCH  15  38
ATOM     38  C   LIG d   1       5.073  -0.976  -9.043  0.00  0.00     0.174 C 
ATOM     39  O   LIG d   1       6.155  -0.452  -9.158  0.00  0.00    -0.293 OA
BRANCH  38  40
ATOM     40  C   LIG d   1       4.879  -2.407  -9.475  0.00  0.00    -0.002 C 
ATOM     41  H   LIG d   1       4.096  -2.464 -10.096  0.00  0.00     0.031 H 
ATOM     42  H   LIG d   1       5.775  -2.757  -9.986  0.00  0.00     0.031 H 
ATOM     43  H   LIG d   1       4.694  -3.030  -8.600  0.00  0.00     0.031 H 
ENDBRANCH  38  40
ENDBRANCH  15  38
BRANCH  15  44
ATOM     44  O   LIG d   1       4.300   0.402  -7.202  0.00  0.00    -0.450 OA
BRANCH  44  45
ATOM     45  C   LIG d   1       3.898  -0.220  -6.084  0.00  0.00     0.305 C 
ATOM     46  O   LIG d   1       4.468  -1.218  -5.710  0.00  0.00    -0.251 OA
BRANCH  45  47
ATOM     47  C   LIG d   1       2.737   0.325  -5.293  0.00  0.00     0.033 C 
ATOM     48  H   LIG d   1       2.066   0.868  -5.959  0.00  0.00     0.034 H 
ATOM     49  H   LIG d   1       2.197  -0.498  -4.826  0.00  0.00     0.034 H 
ATOM     50  H   LIG d   1       3.108   1.001  -4.521  0.00  0.00     0.034 H 
ENDBRANCH  45  47
ENDBRANCH  44  45
ENDBRANCH  15  44
BRANCH  10  51
ATOM     51  C   LIG d   1       2.898   2.068  -8.666  0.00  0.00    -0.055 C 
ATOM     52  H   LIG d   1       3.706   2.569  -8.134  0.00  0.00     0.024 H 
ATOM     53  H   LIG d   1       2.159   1.708  -7.949  0.00  0.00     0.024 H 
ATOM     54  H   LIG d   1       2.426   2.769  -9.353  0.00  0.00     0.024 H 
ENDBRANCH  10  51
BRANCH  16  55
ATOM     55  C   LIG d   1       4.563  -0.396 -14.447  0.00  0.00    -0.056 C 
ATOM     56  H   LIG d   1       4.938  -1.045 -15.239  0.00  0.00     0.024 H 
ATOM     57  H   LIG d   1       3.594   0.009 -14.737  0.00  0.00     0.024 H 
ATOM     58  H   LIG d   1       5.265   0.421 -14.285  0.00  0.00     0.024 H 
ENDBRANCH  16  55
BRANCH   1  59
ATOM     59  C   LIG d   1       1.133  -2.975 -13.876  0.00  0.00    -0.059 C 
ATOM     60  H   LIG d   1       1.321  -3.999 -14.198  0.00  0.00     0.024 H 
ATOM     61  H   LIG d   1       0.133  -2.906 -13.446  0.00  0.00     0.024 H 
ATOM     62  H   LIG d   1       1.207  -2.305 -14.732  0.00  0.00     0.024 H 
ENDBRANCH   1  59
TORSDOF 8
ENDMDL
MODEL 5
REMARK VINA RESULT:      -5.2      2.513      4.169
REMARK  8 active torsions:
REMARK  status: ('A' for Active; 'I' for Inactive)
REMARK    1  A    between atoms: C_1  and  C_2 
REMARK    2  A    between atoms: C_11  and  C_24 
REMARK    3  A    between atoms: C_16  and  C_17 
REMARK    4  A    between atoms: C_16  and  O_20 
REMARK    5  A    between atoms: C_17  and  C_19 
REMARK    6  A    between atoms: O_20  and  C_21 
REMARK    7  A    between atoms: C_21  and  C_23 
REMARK    8  A    between atoms: C_25  and  C_32 
ROOT
ATOM      1  C   LIG d   1       3.763  -4.522  -7.771  0.00  0.00    -0.021 C 
ATOM      2  H   LIG d   1       2.983  -4.423  -7.016  0.00  0.00     0.034 H 
ATOM      3  C   LIG d   1       4.322  -3.138  -8.105  0.00  0.00    -0.043 C 
ATOM      4  C   LIG d   1       5.112  -2.642  -6.887  0.00  0.00    -0.033 C 
ATOM      5  H   LIG d   1       4.517  -2.789  -5.986  0.00  0.00     0.031 H 
ATOM      6  C   LIG d   1       6.400  -3.446  -6.779  0.00  0.00    -0.029 C 
ATOM      7  H   LIG d   1       7.004  -3.256  -7.666  0.00  0.00     0.031 H 
ATOM      8  C   LIG d   1       7.178  -2.972  -5.545  0.00  0.00    -0.049 C 
ATOM      9  C   LIG d   1       7.556  -1.505  -5.746  0.00  0.00    -0.043 C 
ATOM     10  C   LIG d   1       6.328  -0.644  -5.933  0.00  0.00     0.018 C 
ATOM     11  C   LIG d   1       5.394  -1.163  -7.042  0.00  0.00    -0.028 C 
ATOM     12  H   LIG d   1       5.768  -0.933  -8.040  0.00  0.00     0.031 H 
ATOM     13  C   LIG d   1       4.065  -0.422  -6.704  0.00  0.00    -0.045 C 
ATOM     14  C   LIG d   1       4.003  -0.460  -5.163  0.00  0.00    -0.005 C 
ATOM     15  C   LIG d   1       5.439  -0.607  -4.682  0.00  0.00     0.176 C 
ATOM     16  C   LIG d   1       6.151  -4.930  -6.698  0.00  0.00    -0.007 C 
ATOM     17  C   LIG d   1       4.849  -5.409  -7.248  0.00  0.00    -0.057 C 
ATOM     18  C   LIG d   1       4.668  -6.754  -7.254  0.00  0.00    -0.019 C 
ATOM     19  C   LIG d   1       5.805  -7.498  -6.665  0.00  0.00     0.156 C 
ATOM     20  O   LIG d   1       6.315  -8.439  -7.236  0.00  0.00    -0.293 OA
ATOM     21  C   LIG d   1       6.299  -7.023  -5.317  0.00  0.00     0.011 C 
ATOM     22  C   LIG d   1       6.417  -5.497  -5.312  0.00  0.00    -0.037 C 
ATOM     23  H   LIG d   1       3.503  -2.451  -8.320  0.00  0.00     0.027 H 
ATOM     24  H   LIG d   1       4.982  -3.206  -8.971  0.00  0.00     0.027 H 
ATOM     25  H   LIG d   1       8.082  -3.571  -5.430  0.00  0.00     0.027 H 
ATOM     26  H   LIG d   1       6.554  -3.072  -4.657  0.00  0.00     0.027 H 
ATOM     27  H   LIG d   1       8.192  -1.418  -6.627  0.00  0.00     0.027 H 
ATOM     28  H   LIG d   1       8.107  -1.156  -4.872  0.00  0.00     0.027 H 
ATOM     29  H   LIG d   1       4.099   0.607  -7.061  0.00  0.00     0.027 H 
ATOM     30  H   LIG d   1       3.214  -0.948  -7.137  0.00  0.00     0.027 H 
ATOM     31  H   LIG d   1       3.574   0.467  -4.782  0.00  0.00     0.031 H 
ATOM     32  H   LIG d   1       3.408  -1.311  -4.833  0.00  0.00     0.031 H 
ATOM     33  H   LIG d   1       3.785  -7.233  -7.648  0.00  0.00     0.065 H 
ATOM     34  H   LIG d   1       5.653  -7.305  -4.607  0.00  0.00     0.035 H 
ATOM     35  H   LIG d   1       7.276  -7.461  -5.113  0.00  0.00     0.035 H 
ATOM     36  H   LIG d   1       5.692  -5.083  -4.609  0.00  0.00     0.028 H 
ATOM     37  H   LIG d   1       7.422  -5.216  -4.997  0.00  0.00     0.028 H 
ENDROOT
BRANCH  15  38
ATOM     38  C   LIG d   1       5.590  -1.885  -3.900  0.00  0.00     0.174 C 
ATOM     39  O   LIG d   1       6.629  -2.129  -3.336  0.00  0.00    -0.293 OA
BRANCH  38  40
ATOM     40  C   LIG d   1       4.443  -2.859  -3.820  0.00  0.00    -0.002 C 
ATOM     41  H   LIG d   1       3.975  -2.751  -2.942  0.00  0.00     0.031 H 
ATOM     42  H   LIG d   1       3.742  -2.663  -4.632  0.00  0.00     0.031 H 
ATOM     43  H   LIG d   1       4.823  -3.877  -3.906  0.00  0.00     0.031 H 
ENDBRANCH  38  40
ENDBRANCH  15  38
BRANCH  15  44
ATOM     44  O   LIG d   1       5.789   0.532  -3.854  0.00  0.00    -0.450 OA
BRANCH  44  45
ATOM     45  C   LIG d   1       4.833   1.016  -3.047  0.00  0.00     0.305 C 
ATOM     46  O   LIG d   1       4.102   1.896  -3.437  0.00  0.00    -0.251 OA
BRANCH  45  47
ATOM     47  C   LIG d   1       4.668   0.462  -1.655  0.00  0.00     0.033 C 
ATOM     48  H   LIG d   1       3.892  -0.303  -1.658  0.00  0.00     0.034 H 
ATOM     49  H   LIG d   1       5.609   0.024  -1.325  0.00  0.00     0.034 H 
ATOM     50  H   LIG d   1       4.383   1.266  -0.975  0.00  0.00     0.034 H 
ENDBRANCH  45  47
ENDBRANCH  44  45
ENDBRANCH  15  44
BRANCH  10  51
ATOM     51  C   LIG d   1       6.764   0.782  -6.277  0.00  0.00    -0.055 C 
ATOM     52  H   LIG d   1       6.677   1.411  -5.391  0.00  0.00     0.024 H 
ATOM     53  H   LIG d   1       6.124   1.176  -7.067  0.00  0.00     0.024 H 
ATOM     54  H   LIG d   1       7.798   0.773  -6.617  0.00  0.00     0.024 H 
ENDBRANCH  10  51
BRANCH  16  55
ATOM     55  C   LIG d   1       7.224  -5.571  -7.580  0.00  0.00    -0.056 C 
ATOM     56  H   LIG d   1       6.916  -6.582  -7.847  0.00  0.00     0.024 H 
ATOM     57  H   LIG d   1       7.350  -4.979  -8.486  0.00  0.00     0.024 H 
ATOM     58  H   LIG d   1       8.167  -5.610  -7.036  0.00  0.00     0.024 H 
ENDBRANCH  16  55
BRANCH   1  59
ATOM     59  C   LIG d   1       3.168  -5.147  -9.035  0.00  0.00    -0.059 C 
ATOM     60  H   LIG d   1       2.132  -4.827  -9.144  0.00  0.00     0.024 H 
ATOM     61  H   LIG d   1       3.742  -4.826  -9.904  0.00  0.00     0.024 H 
ATOM     62  H   LIG d   1       3.206  -6.234  -8.955  0.00  0.00     0.024 H 
ENDBRANCH   1  59
TORSDOF 8
ENDMDL
MODEL 6
REMARK VINA RESULT:      -5.2      3.747      6.610
REMARK  8 active torsions:
REMARK  status: ('A' for Active; 'I' for Inactive)
REMARK    1  A    between atoms: C_1  and  C_2 
REMARK    2  A    between atoms: C_11  and  C_24 
REMARK    3  A    between atoms: C_16  and  C_17 
REMARK    4  A    between atoms: C_16  and  O_20 
REMARK    5  A    between atoms: C_17  and  C_19 
REMARK    6  A    between atoms: O_20  and  C_21 
REMARK    7  A    between atoms: C_21  and  C_23 
REMARK    8  A    between atoms: C_25  and  C_32 
ROOT
ATOM      1  C   LIG d   1       4.999  -3.521  -5.747  0.00  0.00    -0.021 C 
ATOM      2  H   LIG d   1       4.085  -3.966  -6.140  0.00  0.00     0.034 H 
ATOM      3  C   LIG d   1       5.910  -3.125  -6.910  0.00  0.00    -0.043 C 
ATOM      4  C   LIG d   1       5.260  -1.938  -7.634  0.00  0.00    -0.033 C 
ATOM      5  H   LIG d   1       4.207  -2.156  -7.813  0.00  0.00     0.031 H 
ATOM      6  C   LIG d   1       5.378  -0.703  -6.752  0.00  0.00    -0.029 C 
ATOM      7  H   LIG d   1       6.434  -0.472  -6.617  0.00  0.00     0.031 H 
ATOM      8  C   LIG d   1       4.703   0.478  -7.460  0.00  0.00    -0.049 C 
ATOM      9  C   LIG d   1       5.456   0.756  -8.760  0.00  0.00    -0.043 C 
ATOM     10  C   LIG d   1       5.447  -0.452  -9.668  0.00  0.00     0.018 C 
ATOM     11  C   LIG d   1       5.942  -1.732  -8.969  0.00  0.00    -0.028 C 
ATOM     12  H   LIG d   1       7.028  -1.755  -8.868  0.00  0.00     0.031 H 
ATOM     13  C   LIG d   1       5.396  -2.839  -9.920  0.00  0.00    -0.045 C 
ATOM     14  C   LIG d   1       3.997  -2.324 -10.321  0.00  0.00    -0.005 C 
ATOM     15  C   LIG d   1       4.036  -0.812 -10.153  0.00  0.00     0.176 C 
ATOM     16  C   LIG d   1       4.771  -0.906  -5.388  0.00  0.00    -0.007 C 
ATOM     17  C   LIG d   1       4.653  -2.320  -4.925  0.00  0.00    -0.057 C 
ATOM     18  C   LIG d   1       4.190  -2.493  -3.661  0.00  0.00    -0.019 C 
ATOM     19  C   LIG d   1       3.847  -1.219  -2.987  0.00  0.00     0.156 C 
ATOM     20  O   LIG d   1       4.249  -0.959  -1.872  0.00  0.00    -0.293 OA
ATOM     21  C   LIG d   1       2.970  -0.259  -3.760  0.00  0.00     0.011 C 
ATOM     22  C   LIG d   1       3.467  -0.146  -5.204  0.00  0.00    -0.037 C 
ATOM     23  H   LIG d   1       6.017  -3.964  -7.598  0.00  0.00     0.027 H 
ATOM     24  H   LIG d   1       6.889  -2.833  -6.530  0.00  0.00     0.027 H 
ATOM     25  H   LIG d   1       4.740   1.359  -6.819  0.00  0.00     0.027 H 
ATOM     26  H   LIG d   1       3.666   0.228  -7.683  0.00  0.00     0.027 H 
ATOM     27  H   LIG d   1       6.488   1.020  -8.526  0.00  0.00     0.027 H 
ATOM     28  H   LIG d   1       4.982   1.593  -9.274  0.00  0.00     0.027 H 
ATOM     29  H   LIG d   1       6.034  -2.939 -10.799  0.00  0.00     0.027 H 
ATOM     30  H   LIG d   1       5.320  -3.791  -9.394  0.00  0.00     0.027 H 
ATOM     31  H   LIG d   1       3.787  -2.580 -11.360  0.00  0.00     0.031 H 
ATOM     32  H   LIG d   1       3.238  -2.756  -9.669  0.00  0.00     0.031 H 
ATOM     33  H   LIG d   1       4.082  -3.460  -3.194  0.00  0.00     0.065 H 
ATOM     34  H   LIG d   1       2.028  -0.596  -3.763  0.00  0.00     0.035 H 
ATOM     35  H   LIG d   1       3.004   0.723  -3.289  0.00  0.00     0.035 H 
ATOM     36  H   LIG d   1       2.713  -0.557  -5.876  0.00  0.00     0.028 H 
ATOM     37  H   LIG d   1       3.628   0.904  -5.446  0.00  0.00     0.028 H 
ENDROOT
BRANCH  15  38
ATOM     38  C   LIG d   1       3.011  -0.384  -9.135  0.00  0.00     0.174 C 
ATOM     39  O   LIG d   1       2.549  -1.193  -8.366  0.00  0.00    -0.293 OA
BRANCH  38  40
ATOM     40  C   LIG d   1       2.564   1.054  -9.075  0.00  0.00    -0.002 C 
ATOM     41  H   LIG d   1       3.146   1.609  -9.669  0.00  0.00     0.031 H 
ATOM     42  H   LIG d   1       1.529   1.126  -9.409  0.00  0.00     0.031 H 
ATOM     43  H   LIG d   1       2.640   1.416  -8.050  0.00  0.00     0.031 H 
ENDBRANCH  38  40
ENDBRANCH  15  38
BRANCH  15  44
ATOM     44  O   LIG d   1       3.769  -0.178 -11.431  0.00  0.00    -0.450 OA
BRANCH  44  45
ATOM     45  C   LIG d   1       2.999  -0.853 -12.298  0.00  0.00     0.305 C 
ATOM     46  O   LIG d   1       1.818  -0.985 -12.081  0.00  0.00    -0.251 OA
BRANCH  45  47
ATOM     47  C   LIG d   1       3.607  -1.446 -13.543  0.00  0.00     0.033 C 
ATOM     48  H   LIG d   1       4.693  -1.399 -13.475  0.00  0.00     0.034 H 
ATOM     49  H   LIG d   1       3.293  -2.485 -13.641  0.00  0.00     0.034 H 
ATOM     50  H   LIG d   1       3.273  -0.881 -14.414  0.00  0.00     0.034 H 
ENDBRANCH  45  47
ENDBRANCH  44  45
ENDBRANCH  15  44
BRANCH  10  51
ATOM     51  C   LIG d   1       6.335  -0.173 -10.882  0.00  0.00    -0.055 C 
ATOM     52  H   LIG d   1       7.242  -0.772 -10.814  0.00  0.00     0.024 H 
ATOM     53  H   LIG d   1       6.598   0.885 -10.903  0.00  0.00     0.024 H 
ATOM     54  H   LIG d   1       5.796  -0.432 -11.793  0.00  0.00     0.024 H 
ENDBRANCH  10  51
BRANCH  16  55
ATOM     55  C   LIG d   1       5.739  -0.239  -4.409  0.00  0.00    -0.056 C 
ATOM     56  H   LIG d   1       6.755  -0.575  -4.618  0.00  0.00     0.024 H 
ATOM     57  H   LIG d   1       5.684   0.843  -4.523  0.00  0.00     0.024 H 
ATOM     58  H   LIG d   1       5.470  -0.512  -3.389  0.00  0.00     0.024 H 
ENDBRANCH  16  55
BRANCH   1  59
ATOM     59  C   LIG d   1       5.720  -4.544  -4.866  0.00  0.00    -0.059 C 
ATOM     60  H   LIG d   1       4.987  -5.092  -4.272  0.00  0.00     0.024 H 
ATOM     61  H   LIG d   1       6.271  -5.243  -5.496  0.00  0.00     0.024 H 
ATOM     62  H   LIG d   1       6.413  -4.028  -4.202  0.00  0.00     0.024 H 
ENDBRANCH   1  59
TORSDOF 8
ENDMDL
MODEL 7
REMARK VINA RESULT:      -5.2      2.199      6.598
REMARK  8 active torsions:
REMARK  status: ('A' for Active; 'I' for Inactive)
REMARK    1  A    between atoms: C_1  and  C_2 
REMARK    2  A    between atoms: C_11  and  C_24 
REMARK    3  A    between atoms: C_16  and  C_17 
REMARK    4  A    between atoms: C_16  and  O_20 
REMARK    5  A    between atoms: C_17  and  C_19 
REMARK    6  A    between atoms: O_20  and  C_21 
REMARK    7  A    between atoms: C_21  and  C_23 
REMARK    8  A    between atoms: C_25  and  C_32 
ROOT
ATOM      1  C   LIG d   1       7.330   0.260  -4.234  0.00  0.00    -0.021 C 
ATOM      2  H   LIG d   1       8.037  -0.366  -3.689  0.00  0.00     0.034 H 
ATOM      3  C   LIG d   1       7.450  -0.027  -5.731  0.00  0.00    -0.043 C 
ATOM      4  C   LIG d   1       6.897  -1.435  -5.987  0.00  0.00    -0.033 C 
ATOM      5  H   LIG d   1       7.322  -2.128  -5.261  0.00  0.00     0.031 H 
ATOM      6  C   LIG d   1       5.383  -1.402  -5.828  0.00  0.00    -0.029 C 
ATOM      7  H   LIG d   1       4.968  -0.739  -6.587  0.00  0.00     0.031 H 
ATOM      8  C   LIG d   1       4.830  -2.814  -6.054  0.00  0.00    -0.049 C 
ATOM      9  C   LIG d   1       5.142  -3.232  -7.491  0.00  0.00    -0.043 C 
ATOM     10  C   LIG d   1       6.631  -3.221  -7.753  0.00  0.00     0.018 C 
ATOM     11  C   LIG d   1       7.298  -1.886  -7.375  0.00  0.00    -0.028 C 
ATOM     12  H   LIG d   1       7.113  -1.107  -8.115  0.00  0.00     0.031 H 
ATOM     13  C   LIG d   1       8.798  -2.299  -7.289  0.00  0.00    -0.045 C 
ATOM     14  C   LIG d   1       8.760  -3.691  -6.623  0.00  0.00    -0.005 C 
ATOM     15  C   LIG d   1       7.383  -4.266  -6.916  0.00  0.00     0.176 C 
ATOM     16  C   LIG d   1       4.954  -0.886  -4.479  0.00  0.00    -0.007 C 
ATOM     17  C   LIG d   1       5.942  -0.030  -3.758  0.00  0.00    -0.057 C 
ATOM     18  C   LIG d   1       5.516   0.506  -2.586  0.00  0.00    -0.019 C 
ATOM     19  C   LIG d   1       4.141   0.095  -2.222  0.00  0.00     0.156 C 
ATOM     20  O   LIG d   1       3.299   0.905  -1.893  0.00  0.00    -0.293 OA
ATOM     21  C   LIG d   1       3.838  -1.386  -2.285  0.00  0.00     0.011 C 
ATOM     22  C   LIG d   1       4.398  -1.979  -3.580  0.00  0.00    -0.037 C 
ATOM     23  H   LIG d   1       8.497   0.020  -6.033  0.00  0.00     0.027 H 
ATOM     24  H   LIG d   1       6.871   0.705  -6.295  0.00  0.00     0.027 H 
ATOM     25  H   LIG d   1       3.751  -2.815  -5.899  0.00  0.00     0.027 H 
ATOM     26  H   LIG d   1       5.303  -3.509  -5.359  0.00  0.00     0.027 H 
ATOM     27  H   LIG d   1       4.654  -2.540  -8.178  0.00  0.00     0.027 H 
ATOM     28  H   LIG d   1       4.756  -4.237  -7.662  0.00  0.00     0.027 H 
ATOM     29  H   LIG d   1       9.236  -2.363  -8.285  0.00  0.00     0.027 H 
ATOM     30  H   LIG d   1       9.354  -1.592  -6.673  0.00  0.00     0.027 H 
ATOM     31  H   LIG d   1       9.533  -4.332  -7.049  0.00  0.00     0.031 H 
ATOM     32  H   LIG d   1       8.907  -3.595  -5.547  0.00  0.00     0.031 H 
ATOM     33  H   LIG d   1       6.120   1.163  -1.979  0.00  0.00     0.065 H 
ATOM     34  H   LIG d   1       4.259  -1.845  -1.503  0.00  0.00     0.035 H 
ATOM     35  H   LIG d   1       2.758  -1.536  -2.257  0.00  0.00     0.035 H 
ATOM     36  H   LIG d   1       5.195  -2.684  -3.336  0.00  0.00     0.028 H 
ATOM     37  H   LIG d   1       3.603  -2.506  -4.106  0.00  0.00     0.028 H 
ENDROOT
BRANCH  15  38
ATOM     38  C   LIG d   1       6.650  -4.523  -5.625  0.00  0.00     0.174 C 
ATOM     39  O   LIG d   1       7.007  -3.976  -4.609  0.00  0.00    -0.293 OA
BRANCH  38  40
ATOM     40  C   LIG d   1       5.470  -5.460  -5.602  0.00  0.00    -0.002 C 
ATOM     41  H   LIG d   1       5.575  -6.108  -4.847  0.00  0.00     0.031 H 
ATOM     42  H   LIG d   1       4.553  -4.887  -5.464  0.00  0.00     0.031 H 
ATOM     43  H   LIG d   1       5.419  -6.005  -6.544  0.00  0.00     0.031 H 
ENDBRANCH  38  40
ENDBRANCH  15  38
BRANCH  15  44
ATOM     44  O   LIG d   1       7.525  -5.500  -7.666  0.00  0.00    -0.450 OA
BRANCH  44  45
ATOM     45  C   LIG d   1       8.643  -6.212  -7.461  0.00  0.00     0.305 C 
ATOM     46  O   LIG d   1       8.756  -6.886  -6.466  0.00  0.00    -0.251 OA
BRANCH  45  47
ATOM     47  C   LIG d   1       9.759  -6.173  -8.475  0.00  0.00     0.033 C 
ATOM     48  H   LIG d   1      10.647  -6.647  -8.056  0.00  0.00     0.034 H 
ATOM     49  H   LIG d   1       9.452  -6.706  -9.374  0.00  0.00     0.034 H 
ATOM     50  H   LIG d   1       9.985  -5.137  -8.726  0.00  0.00     0.034 H 
ENDBRANCH  45  47
ENDBRANCH  44  45
ENDBRANCH  15  44
BRANCH  10  51
ATOM     51  C   LIG d   1       6.880  -3.500  -9.236  0.00  0.00    -0.055 C 
ATOM     52  H   LIG d   1       6.495  -2.671  -9.830  0.00  0.00     0.024 H 
ATOM     53  H   LIG d   1       6.371  -4.420  -9.523  0.00  0.00     0.024 H 
ATOM     54  H   LIG d   1       7.950  -3.606  -9.411  0.00  0.00     0.024 H 
ENDBRANCH  10  51
BRANCH  16  55
ATOM     55  C   LIG d   1       3.755   0.023  -4.754  0.00  0.00    -0.056 C 
ATOM     56  H   LIG d   1       3.997   0.704  -5.570  0.00  0.00     0.024 H 
ATOM     57  H   LIG d   1       2.894  -0.585  -5.032  0.00  0.00     0.024 H 
ATOM     58  H   LIG d   1       3.521   0.597  -3.859  0.00  0.00     0.024 H 
ENDBRANCH  16  55
BRANCH   1  59
ATOM     59  C   LIG d   1       7.655   1.733  -3.972  0.00  0.00    -0.059 C 
ATOM     60  H   LIG d   1       6.753   2.251  -3.646  0.00  0.00     0.024 H 
ATOM     61  H   LIG d   1       8.417   1.805  -3.196  0.00  0.00     0.024 H 
ATOM     62  H   LIG d   1       8.026   2.191  -4.889  0.00  0.00     0.024 H 
ENDBRANCH   1  59
TORSDOF 8
ENDMDL
MODEL 8
REMARK VINA RESULT:      -5.1      2.683      4.385
REMARK  8 active torsions:
REMARK  status: ('A' for Active; 'I' for Inactive)
REMARK    1  A    between atoms: C_1  and  C_2 
REMARK    2  A    between atoms: C_11  and  C_24 
REMARK    3  A    between atoms: C_16  and  C_17 
REMARK    4  A    between atoms: C_16  and  O_20 
REMARK    5  A    between atoms: C_17  and  C_19 
REMARK    6  A    between atoms: O_20  and  C_21 
REMARK    7  A    between atoms: C_21  and  C_23 
REMARK    8  A    between atoms: C_25  and  C_32 
ROOT
ATOM      1  C   LIG d   1      10.013   0.363  -5.562  0.00  0.00    -0.021 C 
ATOM      2  H   LIG d   1       9.580   1.001  -4.791  0.00  0.00     0.034 H 
ATOM      3  C   LIG d   1       9.578  -1.084  -5.323  0.00  0.00    -0.043 C 
ATOM      4  C   LIG d   1       8.077  -1.181  -5.627  0.00  0.00    -0.033 C 
ATOM      5  H   LIG d   1       7.554  -0.364  -5.131  0.00  0.00     0.031 H 
ATOM      6  C   LIG d   1       7.875  -1.073  -7.132  0.00  0.00    -0.029 C 
ATOM      7  H   LIG d   1       8.366  -1.919  -7.611  0.00  0.00     0.031 H 
ATOM      8  C   LIG d   1       6.373  -1.140  -7.436  0.00  0.00    -0.049 C 
ATOM      9  C   LIG d   1       5.851  -2.505  -6.989  0.00  0.00    -0.043 C 
ATOM     10  C   LIG d   1       6.080  -2.722  -5.511  0.00  0.00     0.018 C 
ATOM     11  C   LIG d   1       7.543  -2.491  -5.089  0.00  0.00    -0.028 C 
ATOM     12  H   LIG d   1       8.189  -3.326  -5.362  0.00  0.00     0.031 H 
ATOM     13  C   LIG d   1       7.399  -2.311  -3.548  0.00  0.00    -0.045 C 
ATOM     14  C   LIG d   1       6.107  -1.481  -3.392  0.00  0.00    -0.005 C 
ATOM     15  C   LIG d   1       5.280  -1.742  -4.642  0.00  0.00     0.176 C 
ATOM     16  C   LIG d   1       8.464   0.190  -7.705  0.00  0.00    -0.007 C 
ATOM     17  C   LIG d   1       9.551   0.829  -6.907  0.00  0.00    -0.057 C 
ATOM     18  C   LIG d   1      10.140   1.914  -7.471  0.00  0.00    -0.019 C 
ATOM     19  C   LIG d   1       9.550   2.285  -8.777  0.00  0.00     0.156 C 
ATOM     20  O   LIG d   1      10.240   2.487  -9.754  0.00  0.00    -0.293 OA
ATOM     21  C   LIG d   1       8.042   2.395  -8.832  0.00  0.00     0.011 C 
ATOM     22  C   LIG d   1       7.405   1.199  -8.119  0.00  0.00    -0.037 C 
ATOM     23  H   LIG d   1       9.764  -1.358  -4.285  0.00  0.00     0.027 H 
ATOM     24  H   LIG d   1      10.133  -1.750  -5.985  0.00  0.00     0.027 H 
ATOM     25  H   LIG d   1       6.210  -1.018  -8.506  0.00  0.00     0.027 H 
ATOM     26  H   LIG d   1       5.853  -0.352  -6.891  0.00  0.00     0.027 H 
ATOM     27  H   LIG d   1       6.366  -3.286  -7.550  0.00  0.00     0.027 H 
ATOM     28  H   LIG d   1       4.782  -2.563  -7.198  0.00  0.00     0.027 H 
ATOM     29  H   LIG d   1       7.294  -3.279  -3.057  0.00  0.00     0.027 H 
ATOM     30  H   LIG d   1       8.255  -1.770  -3.145  0.00  0.00     0.027 H 
ATOM     31  H   LIG d   1       5.559  -1.803  -2.506  0.00  0.00     0.031 H 
ATOM     32  H   LIG d   1       6.350  -0.421  -3.317  0.00  0.00     0.031 H 
ATOM     33  H   LIG d   1      10.955   2.453  -7.013  0.00  0.00     0.065 H 
ATOM     34  H   LIG d   1       7.753   3.239  -8.381  0.00  0.00     0.035 H 
ATOM     35  H   LIG d   1       7.717   2.409  -9.873  0.00  0.00     0.035 H 
ATOM     36  H   LIG d   1       6.877   1.551  -7.232  0.00  0.00     0.028 H 
ATOM     37  H   LIG d   1       6.695   0.718  -8.791  0.00  0.00     0.028 H 
ENDROOT
BRANCH  15  38
ATOM     38  C   LIG d   1       5.055  -0.452  -5.386  0.00  0.00     0.174 C 
ATOM     39  O   LIG d   1       5.754   0.506  -5.158  0.00  0.00    -0.293 OA
BRANCH  38  40
ATOM     40  C   LIG d   1       3.959  -0.357  -6.416  0.00  0.00    -0.002 C 
ATOM     41  H   LIG d   1       3.696   0.601  -6.535  0.00  0.00     0.031 H 
ATOM     42  H   LIG d   1       4.318  -0.756  -7.365  0.00  0.00     0.031 H 
ATOM     43  H   LIG d   1       3.096  -0.932  -6.084  0.00  0.00     0.031 H 
ENDBRANCH  38  40
ENDBRANCH  15  38
BRANCH  15  44
ATOM     44  O   LIG d   1       4.008  -2.331  -4.264  0.00  0.00    -0.450 OA
BRANCH  44  45
ATOM     45  C   LIG d   1       3.483  -1.946  -3.091  0.00  0.00     0.305 C 
ATOM     46  O   LIG d   1       3.594  -2.653  -2.118  0.00  0.00    -0.251 OA
BRANCH  45  47
ATOM     47  C   LIG d   1       2.754  -0.631  -2.986  0.00  0.00     0.033 C 
ATOM     48  H   LIG d   1       1.698  -0.815  -2.788  0.00  0.00     0.034 H 
ATOM     49  H   LIG d   1       3.179  -0.044  -2.173  0.00  0.00     0.034 H 
ATOM     50  H   LIG d   1       2.857  -0.083  -3.924  0.00  0.00     0.034 H 
ENDBRANCH  45  47
ENDBRANCH  44  45
ENDBRANCH  15  44
BRANCH  10  51
ATOM     51  C   LIG d   1       5.677  -4.153  -5.147  0.00  0.00    -0.055 C 
ATOM     52  H   LIG d   1       4.648  -4.160  -4.788  0.00  0.00     0.024 H 
ATOM     53  H   LIG d   1       6.338  -4.528  -4.365  0.00  0.00     0.024 H 
ATOM     54  H   LIG d   1       5.759  -4.789  -6.028  0.00  0.00     0.024 H 
ENDBRANCH  10  51
BRANCH  16  55
ATOM     55  C   LIG d   1       9.122  -0.230  -9.021  0.00  0.00    -0.056 C 
ATOM     56  H   LIG d   1       8.539  -1.030  -9.478  0.00  0.00     0.024 H 
ATOM     57  H   LIG d   1       9.158   0.624  -9.698  0.00  0.00     0.024 H 
ATOM     58  H   LIG d   1      10.133  -0.583  -8.826  0.00  0.00     0.024 H 
ENDBRANCH  16  55
BRANCH   1  59
ATOM     59  C   LIG d   1      11.539   0.452  -5.495  0.00  0.00    -0.059 C 
ATOM     60  H   LIG d   1      11.972  -0.501  -5.800  0.00  0.00     0.024 H 
ATOM     61  H   LIG d   1      11.887   1.240  -6.163  0.00  0.00     0.024 H 
ATOM     62  H   LIG d   1      11.845   0.680  -4.474  0.00  0.00     0.024 H 
ENDBRANCH   1  59
TORSDOF 8
ENDMDL
MODEL 9
REMARK VINA RESULT:      -5.0     10.630     13.463
REMARK  8 active torsions:
REMARK  status: ('A' for Active; 'I' for Inactive)
REMARK    1  A    between atoms: C_1  and  C_2 
REMARK    2  A    between atoms: C_11  and  C_24 
REMARK    3  A    between atoms: C_16  and  C_17 
REMARK    4  A    between atoms: C_16  and  O_20 
REMARK    5  A    between atoms: C_17  and  C_19 
REMARK    6  A    between atoms: O_20  and  C_21 
REMARK    7  A    between atoms: C_21  and  C_23 
REMARK    8  A    between atoms: C_25  and  C_32 
ROOT
ATOM      1  C   LIG d   1       9.582   7.258  -4.695  0.00  0.00    -0.021 C 
ATOM      2  H   LIG d   1       8.616   7.736  -4.862  0.00  0.00     0.034 H 
ATOM      3  C   LIG d   1      10.616   7.862  -5.648  0.00  0.00    -0.043 C 
ATOM      4  C   LIG d   1      10.886   9.304  -5.198  0.00  0.00    -0.033 C 
ATOM      5  H   LIG d   1       9.938   9.812  -5.026  0.00  0.00     0.031 H 
ATOM      6  C   LIG d   1      11.685   9.270  -3.902  0.00  0.00    -0.029 C 
ATOM      7  H   LIG d   1      12.647   8.797  -4.099  0.00  0.00     0.031 H 
ATOM      8  C   LIG d   1      11.931  10.709  -3.434  0.00  0.00    -0.049 C 
ATOM      9  C   LIG d   1      12.777  11.422  -4.489  0.00  0.00    -0.043 C 
ATOM     10  C   LIG d   1      12.081  11.436  -5.831  0.00  0.00     0.018 C 
ATOM     11  C   LIG d   1      11.634  10.036  -6.290  0.00  0.00    -0.028 C 
ATOM     12  H   LIG d   1      12.464   9.441  -6.672  0.00  0.00     0.031 H 
ATOM     13  C   LIG d   1      10.583  10.388  -7.386  0.00  0.00    -0.045 C 
ATOM     14  C   LIG d   1       9.831  11.602  -6.801  0.00  0.00    -0.005 C 
ATOM     15  C   LIG d   1      10.784  12.257  -5.812  0.00  0.00     0.176 C 
ATOM     16  C   LIG d   1      10.996   8.482  -2.818  0.00  0.00    -0.007 C 
ATOM     17  C   LIG d   1      10.000   7.468  -3.274  0.00  0.00    -0.057 C 
ATOM     18  C   LIG d   1       9.449   6.700  -2.300  0.00  0.00    -0.019 C 
ATOM     19  C   LIG d   1       9.923   7.052  -0.942  0.00  0.00     0.156 C 
ATOM     20  O   LIG d   1      10.328   6.208  -0.169  0.00  0.00    -0.293 OA
ATOM     21  C   LIG d   1       9.879   8.517  -0.568  0.00  0.00     0.011 C 
ATOM     22  C   LIG d   1      10.432   9.366  -1.716  0.00  0.00    -0.037 C 
ATOM     23  H   LIG d   1      10.226   7.859  -6.666  0.00  0.00     0.027 H 
ATOM     24  H   LIG d   1      11.539   7.283  -5.606  0.00  0.00     0.027 H 
ATOM     25  H   LIG d   1      12.464  10.700  -2.483  0.00  0.00     0.027 H 
ATOM     26  H   LIG d   1      10.978  11.226  -3.319  0.00  0.00     0.027 H 
ATOM     27  H   LIG d   1      13.733  10.908  -4.587  0.00  0.00     0.027 H 
ATOM     28  H   LIG d   1      12.956  12.449  -4.168  0.00  0.00     0.027 H 
ATOM     29  H   LIG d   1      11.078  10.658  -8.319  0.00  0.00     0.027 H 
ATOM     30  H   LIG d   1       9.902   9.552  -7.544  0.00  0.00     0.027 H 
ATOM     31  H   LIG d   1       9.575  12.303  -7.595  0.00  0.00     0.031 H 
ATOM     32  H   LIG d   1       8.928  11.271  -6.289  0.00  0.00     0.031 H 
ATOM     33  H   LIG d   1       8.737   5.913  -2.495  0.00  0.00     0.065 H 
ATOM     34  H   LIG d   1       8.934   8.786  -0.386  0.00  0.00     0.035 H 
ATOM     35  H   LIG d   1      10.482   8.682   0.325  0.00  0.00     0.035 H 
ATOM     36  H   LIG d   1       9.630   9.982  -2.125  0.00  0.00     0.028 H 
ATOM     37  H   LIG d   1      11.222  10.012  -1.335  0.00  0.00     0.028 H 
ENDROOT
BRANCH  15  38
ATOM     38  C   LIG d   1      10.180  12.243  -4.432  0.00  0.00     0.174 C 
ATOM     39  O   LIG d   1      10.716  12.845  -3.532  0.00  0.00    -0.293 OA
BRANCH  38  40
ATOM     40  C   LIG d   1       8.907  11.479  -4.174  0.00  0.00    -0.002 C 
ATOM     41  H   LIG d   1       8.360  11.964  -3.491  0.00  0.00     0.031 H 
ATOM     42  H   LIG d   1       8.340  11.395  -5.101  0.00  0.00     0.031 H 
ATOM     43  H   LIG d   1       9.149  10.483  -3.805  0.00  0.00     0.031 H 
ENDBRANCH  38  40
ENDBRANCH  15  38
BRANCH  15  44
ATOM     44  O   LIG d   1      11.049  13.622  -6.230  0.00  0.00    -0.450 OA
BRANCH  44  45
ATOM     45  C   LIG d   1      10.058  14.269  -6.861  0.00  0.00     0.305 C 
ATOM     46  O   LIG d   1       9.142  14.735  -6.228  0.00  0.00    -0.251 OA
BRANCH  45  47
ATOM     47  C   LIG d   1      10.089  14.416  -8.361  0.00  0.00     0.033 C 
ATOM     48  H   LIG d   1       9.209  13.938  -8.791  0.00  0.00     0.034 H 
ATOM     49  H   LIG d   1      10.092  15.474  -8.622  0.00  0.00     0.034 H 
ATOM     50  H   LIG d   1      10.988  13.942  -8.754  0.00  0.00     0.034 H 
ENDBRANCH  45  47
ENDBRANCH  44  45
ENDBRANCH  15  44
BRANCH  10  51
ATOM     51  C   LIG d   1      13.028  12.025  -6.879  0.00  0.00    -0.055 C 
ATOM     52  H   LIG d   1      13.181  11.300  -7.678  0.00  0.00     0.024 H 
ATOM     53  H   LIG d   1      13.985  12.259  -6.412  0.00  0.00     0.024 H 
ATOM     54  H   LIG d   1      12.593  12.935  -7.291  0.00  0.00     0.024 H 
ENDBRANCH  10  51
BRANCH  16  55
ATOM     55  C   LIG d   1      12.104   7.681  -2.131  0.00  0.00    -0.056 C 
ATOM     56  H   LIG d   1      12.103   7.904  -1.064  0.00  0.00     0.024 H 
ATOM     57  H   LIG d   1      11.928   6.616  -2.279  0.00  0.00     0.024 H 
ATOM     58  H   LIG d   1      13.068   7.954  -2.558  0.00  0.00     0.024 H 
ENDBRANCH  16  55
BRANCH   1  59
ATOM     59  C   LIG d   1       9.458   5.757  -4.967  0.00  0.00    -0.059 C 
ATOM     60  H   LIG d   1       8.710   5.590  -5.742  0.00  0.00     0.024 H 
ATOM     61  H   LIG d   1      10.421   5.367  -5.300  0.00  0.00     0.024 H 
ATOM     62  H   LIG d   1       9.155   5.246  -4.053  0.00  0.00     0.024 H 
ENDBRANCH   1  59
TORSDOF 8
ENDMDL
