MODEL 1
REMARK VINA RESULT:      -7.2      0.000      0.000
REMARK  9 active torsions:
REMARK  status: ('A' for Active; 'I' for Inactive)
REMARK    1  A    between atoms: CB_1  and  CA_2 
REMARK       I    between atoms: CA_2  and  C_4 
REMARK       I    between atoms: CA_2  and  N_7 
REMARK       I    between atoms: N_7  and  C_8 
REMARK       I    between atoms: C_8  and  CA_10 
REMARK    2  A    between atoms: CA_10  and  CB_12 
REMARK       I    between atoms: CA_10  and  N_16 
REMARK    3  A    between atoms: CB_12  and  CG_13 
REMARK    4  A    between atoms: CG_13  and  SD_14 
REMARK    5  A    between atoms: SD_14  and  CE_15 
REMARK       I    between atoms: N_16  and  C_17 
REMARK    6  A    between atoms: C_17  and  C_19 
REMARK    7  A    between atoms: C_19  and  C_21 
REMARK    8  A    between atoms: C_19  and  N_28 
REMARK    9  A    between atoms: C_21  and  C_22 
ROOT
ATOM      1  C   UNK d   0       5.810  -1.730  -5.520  0.00  0.00     0.122 C 
ATOM      2  H   UNK d   0       6.545  -1.172  -4.921  0.00  0.00     0.063 H 
ENDROOT
BRANCH   1   3
ATOM      3  C   UNK d   0       6.400  -3.047  -5.954  0.00  0.00     0.237 C 
ATOM      4  N   MET d   1       5.893  -4.202  -5.481  0.00  0.00    -0.302 N 
ATOM      5  CA  MET d   1       6.468  -5.483  -5.903  0.00  0.00     0.100 C 
ATOM      6  H   MET d   1       5.048  -4.185  -4.778  0.00  0.00     0.149 HD
ATOM      7  C   MET d   1       5.429  -6.566  -5.772  0.00  0.00     0.234 C 
ATOM      8  HA  MET d   1       6.769  -5.379  -6.956  0.00  0.00     0.059 H 
ATOM      9  N   MET d   1       5.735  -7.836  -6.106  0.00  0.00    -0.306 N 
ATOM     10  O   MET d   1       4.319  -6.297  -5.367  0.00  0.00    -0.274 OA
ATOM     11  CA  MET d   1       4.725  -8.890  -5.980  0.00  0.00     0.060 C 
ATOM     12  H   MET d   1       6.742  -8.081  -6.474  0.00  0.00     0.149 HD
ATOM     13  HA  MET d   1       3.752  -8.449  -6.240  0.00  0.00     0.056 H 
ATOM     14  C   MET d   1       5.049 -10.012  -6.933  0.00  0.00     0.062 C 
ATOM     15  O   MET d   1       6.022  -9.939  -7.644  0.00  0.00    -0.548 OA
ATOM     16  OXT MET d   1       4.254 -11.093  -6.990  0.00  0.00    -0.548 OA
ATOM     17  O   UNK d   0       7.333  -3.067  -6.729  0.00  0.00    -0.274 OA
BRANCH   5  18
ATOM     18  CB  MET d   1       7.670  -5.819  -5.018  0.00  0.00    -0.017 C 
ATOM     19  HB1 MET d   1       7.811  -5.022  -4.273  0.00  0.00     0.030 H 
ATOM     20  HB2 MET d   1       7.490  -6.774  -4.503  0.00  0.00     0.030 H 
BRANCH  18  21
ATOM     21  CG  MET d   1       8.925  -5.935  -5.885  0.00  0.00    -0.004 C 
ATOM     22  HG1 MET d   1       9.281  -6.976  -5.878  0.00  0.00     0.038 H 
ATOM     23  HG2 MET d   1       8.687  -5.636  -6.916  0.00  0.00     0.038 H 
BRANCH  21  24
ATOM     24  SD  MET d   1      10.220  -4.849  -5.224  0.00  0.00    -0.164 SA
BRANCH  24  25
ATOM     25  CE  MET d   1       9.399  -3.962  -3.872  0.00  0.00    -0.018 C 
ATOM     26  HE1 MET d   1      10.006  -3.091  -3.583  0.00  0.00     0.034 H 
ATOM     27  HE2 MET d   1       9.286  -4.633  -3.007  0.00  0.00     0.034 H 
ATOM     28  HE3 MET d   1       8.407  -3.623  -4.204  0.00  0.00     0.034 H 
ENDBRANCH  24  25
ENDBRANCH  21  24
ENDBRANCH  18  21
ENDBRANCH   5  18
BRANCH  11  29
ATOM     29  CB  MET d   1       4.722  -9.424  -4.545  0.00  0.00    -0.041 C 
ATOM     30  HB1 MET d   1       5.756  -9.475  -4.172  0.00  0.00     0.025 H 
ATOM     31  HB2 MET d   1       4.276 -10.428  -4.529  0.00  0.00     0.025 H 
ATOM     32  HB3 MET d   1       4.134  -8.750  -3.906  0.00  0.00     0.025 H 
ENDBRANCH  11  29
ENDBRANCH   1   3
BRANCH   1  33
ATOM     33  C   UNK d   0       4.530  -1.985  -4.720  0.00  0.00     0.002 C 
ATOM     34  H   UNK d   0       3.682  -2.096  -5.412  0.00  0.00     0.034 H 
ATOM     35  H   UNK d   0       4.644  -2.905  -4.129  0.00  0.00     0.034 H 
BRANCH  33  36
ATOM     36  C   UNK d   0       4.276  -0.823  -3.795  0.00  0.00    -0.045 A 
ATOM     37  C   UNK d   0       3.468   0.222  -4.204  0.00  0.00    -0.059 A 
ATOM     38  C   UNK d   0       3.235   1.288  -3.355  0.00  0.00    -0.061 A 
ATOM     39  H   UNK d   0       3.020   0.206  -5.186  0.00  0.00     0.062 H 
ATOM     40  C   UNK d   0       3.809   1.310  -2.099  0.00  0.00    -0.062 A 
ATOM     41  H   UNK d   0       2.604   2.105  -3.675  0.00  0.00     0.062 H 
ATOM     42  C   UNK d   0       4.617   0.265  -1.690  0.00  0.00    -0.061 A 
ATOM     43  H   UNK d   0       3.628   2.142  -1.435  0.00  0.00     0.062 H 
ATOM     44  C   UNK d   0       4.847  -0.804  -2.537  0.00  0.00    -0.059 A 
ATOM     45  H   UNK d   0       5.066   0.282  -0.708  0.00  0.00     0.062 H 
ATOM     46  H   UNK d   0       5.474  -1.622  -2.215  0.00  0.00     0.062 H 
ENDBRANCH  33  36
ENDBRANCH   1  33
BRANCH   1  47
ATOM     47  N   UNK d   0       5.496  -0.923  -6.700  0.00  0.00    -0.248 N 
ATOM     48  C   UNK d   0       6.103   0.263  -6.867  0.00  0.00     0.331 A 
ATOM     49  N   UNK d   0       5.872   1.057  -7.926  0.00  0.00    -0.307 N 
ATOM     50  O   UNK d   0       6.902   0.631  -6.028  0.00  0.00    -0.246 OA
ATOM     51  C   UNK d   0       4.965   0.681  -8.907  0.00  0.00     0.056 A 
ATOM     52  H   UNK d   0       6.409   2.013  -8.012  0.00  0.00     0.170 HD
ATOM     53  C   UNK d   0       4.297  -0.549  -8.775  0.00  0.00     0.063 A 
ATOM     54  C   UNK d   0       4.706   1.488 -10.005  0.00  0.00    -0.037 A 
ATOM     55  C   UNK d   0       4.595  -1.381  -7.596  0.00  0.00     0.265 A 
ATOM     56  C   UNK d   0       3.380  -0.952  -9.743  0.00  0.00    -0.047 A 
ATOM     57  O   UNK d   0       4.046  -2.454  -7.434  0.00  0.00    -0.267 OA
ATOM     58  C   UNK d   0       3.136  -0.136 -10.829  0.00  0.00    -0.061 A 
ATOM     59  H   UNK d   0       2.866  -1.896  -9.646  0.00  0.00     0.063 H 
ATOM     60  C   UNK d   0       3.795   1.076 -10.958  0.00  0.00    -0.060 A 
ATOM     61  H   UNK d   0       2.426  -0.444 -11.582  0.00  0.00     0.062 H 
ATOM     62  H   UNK d   0       3.595   1.706 -11.812  0.00  0.00     0.062 H 
ATOM     63  H   UNK d   0       5.215   2.434 -10.114  0.00  0.00     0.064 H 
ENDBRANCH   1  47
TORSDOF 13
ENDMDL
MODEL 2
REMARK VINA RESULT:      -6.9      0.858      1.698
REMARK  9 active torsions:
REMARK  status: ('A' for Active; 'I' for Inactive)
REMARK    1  A    between atoms: CB_1  and  CA_2 
REMARK       I    between atoms: CA_2  and  C_4 
REMARK       I    between atoms: CA_2  and  N_7 
REMARK       I    between atoms: N_7  and  C_8 
REMARK       I    between atoms: C_8  and  CA_10 
REMARK    2  A    between atoms: CA_10  and  CB_12 
REMARK       I    between atoms: CA_10  and  N_16 
REMARK    3  A    between atoms: CB_12  and  CG_13 
REMARK    4  A    between atoms: CG_13  and  SD_14 
REMARK    5  A    between atoms: SD_14  and  CE_15 
REMARK       I    between atoms: N_16  and  C_17 
REMARK    6  A    between atoms: C_17  and  C_19 
REMARK    7  A    between atoms: C_19  and  C_21 
REMARK    8  A    between atoms: C_19  and  N_28 
REMARK    9  A    between atoms: C_21  and  C_22 
ROOT
ATOM      1  C   UNK d   0       5.707  -2.188  -5.605  0.00  0.00     0.122 C 
ATOM      2  H   UNK d   0       6.471  -1.487  -5.237  0.00  0.00     0.063 H 
ENDROOT
BRANCH   1   3
ATOM      3  C   UNK d   0       6.356  -3.494  -5.987  0.00  0.00     0.237 C 
ATOM      4  N   MET d   1       5.896  -4.651  -5.472  0.00  0.00    -0.302 N 
ATOM      5  CA  MET d   1       6.527  -5.921  -5.843  0.00  0.00     0.100 C 
ATOM      6  H   MET d   1       5.047  -4.643  -4.773  0.00  0.00     0.149 HD
ATOM      7  C   MET d   1       5.536  -7.042  -5.674  0.00  0.00     0.234 C 
ATOM      8  HA  MET d   1       6.829  -5.844  -6.898  0.00  0.00     0.059 H 
ATOM      9  N   MET d   1       5.897  -8.309  -5.959  0.00  0.00    -0.306 N 
ATOM     10  O   MET d   1       4.413  -6.805  -5.283  0.00  0.00    -0.274 OA
ATOM     11  CA  MET d   1       4.933  -9.400  -5.796  0.00  0.00     0.060 C 
ATOM     12  H   MET d   1       6.916  -8.524  -6.314  0.00  0.00     0.149 HD
ATOM     13  HA  MET d   1       3.943  -9.012  -6.076  0.00  0.00     0.056 H 
ATOM     14  C   MET d   1       5.309 -10.543  -6.704  0.00  0.00     0.062 C 
ATOM     15  O   MET d   1       6.282 -10.455  -7.415  0.00  0.00    -0.548 OA
ATOM     16  OXT MET d   1       4.562 -11.658  -6.723  0.00  0.00    -0.548 OA
ATOM     17  O   UNK d   0       7.292  -3.502  -6.758  0.00  0.00    -0.274 OA
BRANCH   5  18
ATOM     18  CB  MET d   1       7.738  -6.170  -4.941  0.00  0.00    -0.017 C 
ATOM     19  HB1 MET d   1       7.821  -5.358  -4.204  0.00  0.00     0.030 H 
ATOM     20  HB2 MET d   1       7.614  -7.130  -4.418  0.00  0.00     0.030 H 
BRANCH  18  21
ATOM     21  CG  MET d   1       9.008  -6.216  -5.795  0.00  0.00    -0.004 C 
ATOM     22  HG1 MET d   1       9.446  -7.224  -5.747  0.00  0.00     0.038 H 
ATOM     23  HG2 MET d   1       8.757  -5.974  -6.838  0.00  0.00     0.038 H 
BRANCH  21  24
ATOM     24  SD  MET d   1      10.204  -5.007  -5.164  0.00  0.00    -0.164 SA
BRANCH  24  25
ATOM     25  CE  MET d   1       9.341  -4.218  -3.778  0.00  0.00    -0.018 C 
ATOM     26  HE1 MET d   1       8.316  -3.962  -4.082  0.00  0.00     0.034 H 
ATOM     27  HE2 MET d   1       9.876  -3.302  -3.486  0.00  0.00     0.034 H 
ATOM     28  HE3 MET d   1       9.307  -4.911  -2.924  0.00  0.00     0.034 H 
ENDBRANCH  24  25
ENDBRANCH  21  24
ENDBRANCH  18  21
ENDBRANCH   5  18
BRANCH  11  29
ATOM     29  CB  MET d   1       4.946  -9.879  -4.342  0.00  0.00    -0.041 C 
ATOM     30  HB1 MET d   1       5.720  -9.332  -3.784  0.00  0.00     0.025 H 
ATOM     31  HB2 MET d   1       5.164 -10.956  -4.312  0.00  0.00     0.025 H 
ATOM     32  HB3 MET d   1       3.964  -9.691  -3.886  0.00  0.00     0.025 H 
ENDBRANCH  11  29
ENDBRANCH   1   3
BRANCH   1  33
ATOM     33  C   UNK d   0       4.637  -2.443  -4.541  0.00  0.00     0.002 C 
ATOM     34  H   UNK d   0       3.677  -2.661  -5.032  0.00  0.00     0.034 H 
ATOM     35  H   UNK d   0       4.935  -3.300  -3.920  0.00  0.00     0.034 H 
BRANCH  33  36
ATOM     36  C   UNK d   0       4.491  -1.220  -3.673  0.00  0.00    -0.045 A 
ATOM     37  C   UNK d   0       3.233  -0.784  -3.299  0.00  0.00    -0.059 A 
ATOM     38  C   UNK d   0       3.099   0.338  -2.502  0.00  0.00    -0.061 A 
ATOM     39  H   UNK d   0       2.356  -1.320  -3.629  0.00  0.00     0.062 H 
ATOM     40  C   UNK d   0       4.221   1.024  -2.080  0.00  0.00    -0.062 A 
ATOM     41  H   UNK d   0       2.116   0.678  -2.210  0.00  0.00     0.062 H 
ATOM     42  C   UNK d   0       5.479   0.588  -2.454  0.00  0.00    -0.061 A 
ATOM     43  H   UNK d   0       4.117   1.900  -1.458  0.00  0.00     0.062 H 
ATOM     44  C   UNK d   0       5.614  -0.537  -3.247  0.00  0.00    -0.059 A 
ATOM     45  H   UNK d   0       6.357   1.124  -2.124  0.00  0.00     0.062 H 
ATOM     46  H   UNK d   0       6.597  -0.879  -3.535  0.00  0.00     0.062 H 
ENDBRANCH  33  36
ENDBRANCH   1  33
BRANCH   1  47
ATOM     47  N   UNK d   0       5.087  -1.586  -6.787  0.00  0.00    -0.248 N 
ATOM     48  C   UNK d   0       4.223  -2.309  -7.517  0.00  0.00     0.331 A 
ATOM     49  N   UNK d   0       3.609  -1.824  -8.610  0.00  0.00    -0.307 N 
ATOM     50  O   UNK d   0       3.979  -3.448  -7.171  0.00  0.00    -0.246 OA
ATOM     51  C   UNK d   0       3.860  -0.531  -9.047  0.00  0.00     0.056 A 
ATOM     52  H   UNK d   0       2.903  -2.463  -9.160  0.00  0.00     0.170 HD
ATOM     53  C   UNK d   0       4.763   0.265  -8.321  0.00  0.00     0.063 A 
ATOM     54  C   UNK d   0       3.243  -0.012 -10.176  0.00  0.00    -0.037 A 
ATOM     55  C   UNK d   0       5.401  -0.317  -7.126  0.00  0.00     0.265 A 
ATOM     56  C   UNK d   0       5.035   1.567  -8.735  0.00  0.00    -0.047 A 
ATOM     57  O   UNK d   0       6.189   0.329  -6.463  0.00  0.00    -0.267 OA
ATOM     58  C   UNK d   0       4.411   2.065  -9.861  0.00  0.00    -0.061 A 
ATOM     59  H   UNK d   0       5.727   2.181  -8.180  0.00  0.00     0.063 H 
ATOM     60  C   UNK d   0       3.521   1.279 -10.576  0.00  0.00    -0.060 A 
ATOM     61  H   UNK d   0       4.619   3.073 -10.187  0.00  0.00     0.062 H 
ATOM     62  H   UNK d   0       3.040   1.680 -11.455  0.00  0.00     0.062 H 
ATOM     63  H   UNK d   0       2.548  -0.618 -10.739  0.00  0.00     0.064 H 
ENDBRANCH   1  47
TORSDOF 13
ENDMDL
MODEL 3
REMARK VINA RESULT:      -6.8      5.689     10.327
REMARK  9 active torsions:
REMARK  status: ('A' for Active; 'I' for Inactive)
REMARK    1  A    between atoms: CB_1  and  CA_2 
REMARK       I    between atoms: CA_2  and  C_4 
REMARK       I    between atoms: CA_2  and  N_7 
REMARK       I    between atoms: N_7  and  C_8 
REMARK       I    between atoms: C_8  and  CA_10 
REMARK    2  A    between atoms: CA_10  and  CB_12 
REMARK       I    between atoms: CA_10  and  N_16 
REMARK    3  A    between atoms: CB_12  and  CG_13 
REMARK    4  A    between atoms: CG_13  and  SD_14 
REMARK    5  A    between atoms: SD_14  and  CE_15 
REMARK       I    between atoms: N_16  and  C_17 
REMARK    6  A    between atoms: C_17  and  C_19 
REMARK    7  A    between atoms: C_19  and  C_21 
REMARK    8  A    between atoms: C_19  and  N_28 
REMARK    9  A    between atoms: C_21  and  C_22 
ROOT
ATOM      1  C   UNK d   0       9.297   0.871  -5.580  0.00  0.00     0.122 C 
ATOM      2  H   UNK d   0       9.764   0.068  -6.170  0.00  0.00     0.063 H 
ENDROOT
BRANCH   1   3
ATOM      3  C   UNK d   0      10.318   1.483  -4.655  0.00  0.00     0.237 C 
ATOM      4  N   MET d   1      10.227   2.784  -4.317  0.00  0.00    -0.302 N 
ATOM      5  CA  MET d   1      11.220   3.379  -3.417  0.00  0.00     0.100 C 
ATOM      6  H   MET d   1       9.408   3.400  -4.716  0.00  0.00     0.149 HD
ATOM      7  C   MET d   1      10.616   4.570  -2.721  0.00  0.00     0.234 C 
ATOM      8  HA  MET d   1      11.496   2.613  -2.677  0.00  0.00     0.059 H 
ATOM      9  N   MET d   1      11.350   5.278  -1.840  0.00  0.00    -0.306 N 
ATOM     10  O   MET d   1       9.470   4.891  -2.951  0.00  0.00    -0.274 OA
ATOM     11  CA  MET d   1      10.764   6.437  -1.161  0.00  0.00     0.060 C 
ATOM     12  H   MET d   1      12.390   4.987  -1.630  0.00  0.00     0.149 HD
ATOM     13  HA  MET d   1       9.705   6.207  -0.969  0.00  0.00     0.056 H 
ATOM     14  C   MET d   1      11.481   6.671   0.144  0.00  0.00     0.062 C 
ATOM     15  O   MET d   1      12.388   5.945   0.473  0.00  0.00    -0.548 OA
ATOM     16  OXT MET d   1      11.110   7.687   0.939  0.00  0.00    -0.548 OA
ATOM     17  O   UNK d   0      11.221   0.803  -4.215  0.00  0.00    -0.274 OA
BRANCH   5  18
ATOM     18  CB  MET d   1      12.439   3.825  -4.227  0.00  0.00    -0.017 C 
ATOM     19  HB1 MET d   1      12.327   3.495  -5.271  0.00  0.00     0.030 H 
ATOM     20  HB2 MET d   1      12.518   4.921  -4.196  0.00  0.00     0.030 H 
BRANCH  18  21
ATOM     21  CG  MET d   1      13.704   3.205  -3.629  0.00  0.00    -0.004 C 
ATOM     22  HG1 MET d   1      14.386   4.004  -3.304  0.00  0.00     0.038 H 
ATOM     23  HG2 MET d   1      13.432   2.580  -2.765  0.00  0.00     0.038 H 
BRANCH  21  24
ATOM     24  SD  MET d   1      14.525   2.180  -4.881  0.00  0.00    -0.164 SA
BRANCH  24  25
ATOM     25  CE  MET d   1      13.551   2.460  -6.385  0.00  0.00    -0.018 C 
ATOM     26  HE1 MET d   1      14.185   2.930  -7.151  0.00  0.00     0.034 H 
ATOM     27  HE2 MET d   1      12.702   3.121  -6.155  0.00  0.00     0.034 H 
ATOM     28  HE3 MET d   1      13.174   1.498  -6.762  0.00  0.00     0.034 H 
ENDBRANCH  24  25
ENDBRANCH  21  24
ENDBRANCH  18  21
ENDBRANCH   5  18
BRANCH  11  29
ATOM     29  CB  MET d   1      10.905   7.674  -2.051  0.00  0.00    -0.041 C 
ATOM     30  HB1 MET d   1      11.945   7.759  -2.398  0.00  0.00     0.025 H 
ATOM     31  HB2 MET d   1      10.636   8.572  -1.476  0.00  0.00     0.025 H 
ATOM     32  HB3 MET d   1      10.236   7.580  -2.918  0.00  0.00     0.025 H 
ENDBRANCH  11  29
ENDBRANCH   1   3
BRANCH   1  33
ATOM     33  C   UNK d   0       8.718   1.957  -6.489  0.00  0.00     0.002 C 
ATOM     34  H   UNK d   0       7.891   2.465  -5.973  0.00  0.00     0.034 H 
ATOM     35  H   UNK d   0       9.503   2.688  -6.732  0.00  0.00     0.034 H 
BRANCH  33  36
ATOM     36  C   UNK d   0       8.207   1.328  -7.760  0.00  0.00    -0.045 A 
ATOM     37  C   UNK d   0       7.002   1.740  -8.298  0.00  0.00    -0.059 A 
ATOM     38  C   UNK d   0       6.533   1.163  -9.464  0.00  0.00    -0.061 A 
ATOM     39  H   UNK d   0       6.427   2.511  -7.808  0.00  0.00     0.062 H 
ATOM     40  C   UNK d   0       7.269   0.176 -10.091  0.00  0.00    -0.062 A 
ATOM     41  H   UNK d   0       5.591   1.484  -9.884  0.00  0.00     0.062 H 
ATOM     42  C   UNK d   0       8.475  -0.235  -9.553  0.00  0.00    -0.061 A 
ATOM     43  H   UNK d   0       6.904  -0.275 -11.002  0.00  0.00     0.062 H 
ATOM     44  C   UNK d   0       8.946   0.345  -8.390  0.00  0.00    -0.059 A 
ATOM     45  H   UNK d   0       9.050  -1.006 -10.044  0.00  0.00     0.062 H 
ATOM     46  H   UNK d   0       9.890   0.027  -7.972  0.00  0.00     0.062 H 
ENDBRANCH  33  36
ENDBRANCH   1  33
BRANCH   1  47
ATOM     47  N   UNK d   0       8.220   0.270  -4.791  0.00  0.00    -0.248 N 
ATOM     48  C   UNK d   0       8.102  -1.066  -4.747  0.00  0.00     0.331 A 
ATOM     49  N   UNK d   0       7.144  -1.691  -4.041  0.00  0.00    -0.307 N 
ATOM     50  O   UNK d   0       8.900  -1.741  -5.368  0.00  0.00    -0.246 OA
ATOM     51  C   UNK d   0       6.208  -0.962  -3.321  0.00  0.00     0.056 A 
ATOM     52  H   UNK d   0       7.106  -2.790  -4.037  0.00  0.00     0.170 HD
ATOM     53  C   UNK d   0       6.283   0.442  -3.339  0.00  0.00     0.063 A 
ATOM     54  C   UNK d   0       5.207  -1.585  -2.590  0.00  0.00    -0.037 A 
ATOM     55  C   UNK d   0       7.359   1.072  -4.126  0.00  0.00     0.265 A 
ATOM     56  C   UNK d   0       5.357   1.200  -2.627  0.00  0.00    -0.047 A 
ATOM     57  O   UNK d   0       7.470   2.282  -4.175  0.00  0.00    -0.267 OA
ATOM     58  C   UNK d   0       4.368   0.562  -1.906  0.00  0.00    -0.061 A 
ATOM     59  H   UNK d   0       5.413   2.277  -2.638  0.00  0.00     0.063 H 
ATOM     60  C   UNK d   0       4.295  -0.822  -1.889  0.00  0.00    -0.060 A 
ATOM     61  H   UNK d   0       3.647   1.145  -1.352  0.00  0.00     0.062 H 
ATOM     62  H   UNK d   0       3.517  -1.310  -1.321  0.00  0.00     0.062 H 
ATOM     63  H   UNK d   0       5.142  -2.663  -2.571  0.00  0.00     0.064 H 
ENDBRANCH   1  47
TORSDOF 13
ENDMDL
MODEL 4
REMARK VINA RESULT:      -6.8      1.735      2.329
REMARK  9 active torsions:
REMARK  status: ('A' for Active; 'I' for Inactive)
REMARK    1  A    between atoms: CB_1  and  CA_2 
REMARK       I    between atoms: CA_2  and  C_4 
REMARK       I    between atoms: CA_2  and  N_7 
REMARK       I    between atoms: N_7  and  C_8 
REMARK       I    between atoms: C_8  and  CA_10 
REMARK    2  A    between atoms: CA_10  and  CB_12 
REMARK       I    between atoms: CA_10  and  N_16 
REMARK    3  A    between atoms: CB_12  and  CG_13 
REMARK    4  A    between atoms: CG_13  and  SD_14 
REMARK    5  A    between atoms: SD_14  and  CE_15 
REMARK       I    between atoms: N_16  and  C_17 
REMARK    6  A    between atoms: C_17  and  C_19 
REMARK    7  A    between atoms: C_19  and  C_21 
REMARK    8  A    between atoms: C_19  and  N_28 
REMARK    9  A    between atoms: C_21  and  C_22 
ROOT
ATOM      1  C   UNK d   0       6.480  -1.990  -5.352  0.00  0.00     0.122 C 
ATOM      2  H   UNK d   0       7.075  -1.083  -5.168  0.00  0.00     0.063 H 
ENDROOT
BRANCH   1   3
ATOM      3  C   UNK d   0       7.368  -3.081  -5.894  0.00  0.00     0.237 C 
ATOM      4  N   MET d   1       7.257  -4.338  -5.421  0.00  0.00    -0.302 N 
ATOM      5  CA  MET d   1       8.121  -5.398  -5.948  0.00  0.00     0.100 C 
ATOM      6  H   MET d   1       6.519  -4.568  -4.639  0.00  0.00     0.149 HD
ATOM      7  C   MET d   1       7.448  -6.733  -5.760  0.00  0.00     0.234 C 
ATOM      8  HA  MET d   1       8.269  -5.201  -7.020  0.00  0.00     0.059 H 
ATOM      9  N   MET d   1       8.061  -7.860  -6.174  0.00  0.00    -0.306 N 
ATOM     10  O   MET d   1       6.355  -6.793  -5.239  0.00  0.00    -0.274 OA
ATOM     11  CA  MET d   1       7.407  -9.159  -5.992  0.00  0.00     0.060 C 
ATOM     12  H   MET d   1       9.052  -7.806  -6.647  0.00  0.00     0.149 HD
ATOM     13  HA  MET d   1       6.327  -9.009  -6.139  0.00  0.00     0.056 H 
ATOM     14  C   MET d   1       7.930 -10.132  -7.017  0.00  0.00     0.062 C 
ATOM     15  O   MET d   1       8.764  -9.778  -7.816  0.00  0.00    -0.548 OA
ATOM     16  OXT MET d   1       7.470 -11.393  -7.040  0.00  0.00    -0.548 OA
ATOM     17  O   UNK d   0       8.182  -2.827  -6.756  0.00  0.00    -0.274 OA
BRANCH   5  18
ATOM     18  CB  MET d   1       9.454  -5.390  -5.198  0.00  0.00    -0.017 C 
ATOM     19  HB1 MET d   1      10.075  -6.230  -5.542  0.00  0.00     0.030 H 
ATOM     20  HB2 MET d   1       9.978  -4.443  -5.393  0.00  0.00     0.030 H 
BRANCH  18  21
ATOM     21  CG  MET d   1       9.195  -5.528  -3.695  0.00  0.00    -0.004 C 
ATOM     22  HG1 MET d   1       8.116  -5.442  -3.500  0.00  0.00     0.038 H 
ATOM     23  HG2 MET d   1       9.554  -6.509  -3.351  0.00  0.00     0.038 H 
BRANCH  21  24
ATOM     24  SD  MET d   1      10.078  -4.215  -2.807  0.00  0.00    -0.164 SA
BRANCH  24  25
ATOM     25  CE  MET d   1      10.939  -3.302  -4.115  0.00  0.00    -0.018 C 
ATOM     26  HE1 MET d   1      10.740  -2.226  -4.004  0.00  0.00     0.034 H 
ATOM     27  HE2 MET d   1      10.580  -3.642  -5.098  0.00  0.00     0.034 H 
ATOM     28  HE3 MET d   1      12.021  -3.483  -4.038  0.00  0.00     0.034 H 
ENDBRANCH  24  25
ENDBRANCH  21  24
ENDBRANCH  18  21
ENDBRANCH   5  18
BRANCH  11  29
ATOM     29  CB  MET d   1       7.703  -9.687  -4.587  0.00  0.00    -0.041 C 
ATOM     30  HB1 MET d   1       7.024  -9.210  -3.866  0.00  0.00     0.025 H 
ATOM     31  HB2 MET d   1       8.744  -9.454  -4.320  0.00  0.00     0.025 H 
ATOM     32  HB3 MET d   1       7.555 -10.776  -4.566  0.00  0.00     0.025 H 
ENDBRANCH  11  29
ENDBRANCH   1   3
BRANCH   1  33
ATOM     33  C   UNK d   0       5.805  -2.475  -4.067  0.00  0.00     0.002 C 
ATOM     34  H   UNK d   0       5.074  -3.260  -4.310  0.00  0.00     0.034 H 
ATOM     35  H   UNK d   0       6.565  -2.880  -3.384  0.00  0.00     0.034 H 
BRANCH  33  36
ATOM     36  C   UNK d   0       5.099  -1.319  -3.404  0.00  0.00    -0.045 A 
ATOM     37  C   UNK d   0       3.728  -1.356  -3.229  0.00  0.00    -0.059 A 
ATOM     38  C   UNK d   0       3.081  -0.296  -2.621  0.00  0.00    -0.061 A 
ATOM     39  H   UNK d   0       3.163  -2.211  -3.568  0.00  0.00     0.062 H 
ATOM     40  C   UNK d   0       3.804   0.799  -2.188  0.00  0.00    -0.062 A 
ATOM     41  H   UNK d   0       2.010  -0.324  -2.485  0.00  0.00     0.062 H 
ATOM     42  C   UNK d   0       5.175   0.835  -2.363  0.00  0.00    -0.061 A 
ATOM     43  H   UNK d   0       3.300   1.626  -1.713  0.00  0.00     0.062 H 
ATOM     44  C   UNK d   0       5.823  -0.227  -2.967  0.00  0.00    -0.059 A 
ATOM     45  H   UNK d   0       5.741   1.691  -2.024  0.00  0.00     0.062 H 
ATOM     46  H   UNK d   0       6.895  -0.200  -3.099  0.00  0.00     0.062 H 
ENDBRANCH  33  36
ENDBRANCH   1  33
BRANCH   1  47
ATOM     47  N   UNK d   0       5.457  -1.654  -6.344  0.00  0.00    -0.248 N 
ATOM     48  C   UNK d   0       4.578  -2.593  -6.727  0.00  0.00     0.331 A 
ATOM     49  N   UNK d   0       3.608  -2.359  -7.628  0.00  0.00    -0.307 N 
ATOM     50  O   UNK d   0       4.658  -3.702  -6.234  0.00  0.00    -0.246 OA
ATOM     51  C   UNK d   0       3.480  -1.111  -8.221  0.00  0.00     0.056 A 
ATOM     52  H   UNK d   0       2.911  -3.168  -7.893  0.00  0.00     0.170 HD
ATOM     53  C   UNK d   0       4.381  -0.095  -7.859  0.00  0.00     0.063 A 
ATOM     54  C   UNK d   0       2.490  -0.849  -9.157  0.00  0.00    -0.037 A 
ATOM     55  C   UNK d   0       5.421  -0.407  -6.861  0.00  0.00     0.265 A 
ATOM     56  C   UNK d   0       4.278   1.168  -8.438  0.00  0.00    -0.047 A 
ATOM     57  O   UNK d   0       6.224   0.437  -6.513  0.00  0.00    -0.267 OA
ATOM     58  C   UNK d   0       3.287   1.410  -9.367  0.00  0.00    -0.061 A 
ATOM     59  H   UNK d   0       4.967   1.951  -8.162  0.00  0.00     0.063 H 
ATOM     60  C   UNK d   0       2.399   0.406  -9.723  0.00  0.00    -0.060 A 
ATOM     61  H   UNK d   0       3.203   2.387  -9.820  0.00  0.00     0.062 H 
ATOM     62  H   UNK d   0       1.628   0.608 -10.452  0.00  0.00     0.062 H 
ATOM     63  H   UNK d   0       1.795  -1.625  -9.440  0.00  0.00     0.064 H 
ENDBRANCH   1  47
TORSDOF 13
ENDMDL
MODEL 5
REMARK VINA RESULT:      -6.5      3.634      4.841
REMARK  9 active torsions:
REMARK  status: ('A' for Active; 'I' for Inactive)
REMARK    1  A    between atoms: CB_1  and  CA_2 
REMARK       I    between atoms: CA_2  and  C_4 
REMARK       I    between atoms: CA_2  and  N_7 
REMARK       I    between atoms: N_7  and  C_8 
REMARK       I    between atoms: C_8  and  CA_10 
REMARK    2  A    between atoms: CA_10  and  CB_12 
REMARK       I    between atoms: CA_10  and  N_16 
REMARK    3  A    between atoms: CB_12  and  CG_13 
REMARK    4  A    between atoms: CG_13  and  SD_14 
REMARK    5  A    between atoms: SD_14  and  CE_15 
REMARK       I    between atoms: N_16  and  C_17 
REMARK    6  A    between atoms: C_17  and  C_19 
REMARK    7  A    between atoms: C_19  and  C_21 
REMARK    8  A    between atoms: C_19  and  N_28 
REMARK    9  A    between atoms: C_21  and  C_22 
ROOT
ATOM      1  C   UNK d   0       4.534  -0.858  -6.390  0.00  0.00     0.122 C 
ATOM      2  H   UNK d   0       4.243   0.201  -6.334  0.00  0.00     0.063 H 
ENDROOT
BRANCH   1   3
ATOM      3  C   UNK d   0       6.025  -0.967  -6.586  0.00  0.00     0.237 C 
ATOM      4  N   MET d   1       6.776  -1.634  -5.688  0.00  0.00    -0.302 N 
ATOM      5  CA  MET d   1       8.225  -1.740  -5.879  0.00  0.00     0.100 C 
ATOM      6  H   MET d   1       6.301  -2.100  -4.812  0.00  0.00     0.149 HD
ATOM      7  C   MET d   1       8.737  -2.966  -5.168  0.00  0.00     0.234 C 
ATOM      8  HA  MET d   1       8.411  -1.830  -6.959  0.00  0.00     0.059 H 
ATOM      9  N   MET d   1      10.050  -3.268  -5.207  0.00  0.00    -0.306 N 
ATOM     10  O   MET d   1       7.968  -3.681  -4.563  0.00  0.00    -0.274 OA
ATOM     11  CA  MET d   1      10.549  -4.460  -4.517  0.00  0.00     0.060 C 
ATOM     12  H   MET d   1      10.748  -2.618  -5.756  0.00  0.00     0.149 HD
ATOM     13  HA  MET d   1       9.780  -5.241  -4.608  0.00  0.00     0.056 H 
ATOM     14  C   MET d   1      11.826  -4.921  -5.170  0.00  0.00     0.062 C 
ATOM     15  O   MET d   1      12.274  -4.317  -6.115  0.00  0.00    -0.548 OA
ATOM     16  OXT MET d   1      12.465  -6.005  -4.701  0.00  0.00    -0.548 OA
ATOM     17  O   UNK d   0       6.548  -0.453  -7.552  0.00  0.00    -0.274 OA
BRANCH   5  18
ATOM     18  CB  MET d   1       8.907  -0.496  -5.305  0.00  0.00    -0.017 C 
ATOM     19  HB1 MET d   1       9.935  -0.746  -5.004  0.00  0.00     0.030 H 
ATOM     20  HB2 MET d   1       8.930   0.294  -6.069  0.00  0.00     0.030 H 
BRANCH  18  21
ATOM     21  CG  MET d   1       8.124  -0.002  -4.086  0.00  0.00    -0.004 C 
ATOM     22  HG1 MET d   1       7.134  -0.482  -4.066  0.00  0.00     0.038 H 
ATOM     23  HG2 MET d   1       8.675  -0.259  -3.169  0.00  0.00     0.038 H 
BRANCH  21  24
ATOM     24  SD  MET d   1       7.922   1.798  -4.185  0.00  0.00    -0.164 SA
BRANCH  24  25
ATOM     25  CE  MET d   1       9.472   2.451  -3.508  0.00  0.00    -0.018 C 
ATOM     26  HE1 MET d   1       9.425   2.442  -2.409  0.00  0.00     0.034 H 
ATOM     27  HE2 MET d   1       9.620   3.483  -3.860  0.00  0.00     0.034 H 
ATOM     28  HE3 MET d   1      10.312   1.825  -3.843  0.00  0.00     0.034 H 
ENDBRANCH  24  25
ENDBRANCH  21  24
ENDBRANCH  18  21
ENDBRANCH   5  18
BRANCH  11  29
ATOM     29  CB  MET d   1      10.819  -4.123  -3.048  0.00  0.00    -0.041 C 
ATOM     30  HB1 MET d   1      11.365  -3.171  -2.986  0.00  0.00     0.025 H 
ATOM     31  HB2 MET d   1      11.421  -4.923  -2.594  0.00  0.00     0.025 H 
ATOM     32  HB3 MET d   1       9.863  -4.034  -2.511  0.00  0.00     0.025 H 
ENDBRANCH  11  29
ENDBRANCH   1   3
BRANCH   1  33
ATOM     33  C   UNK d   0       4.132  -1.607  -5.117  0.00  0.00     0.002 C 
ATOM     34  H   UNK d   0       3.134  -2.049  -5.253  0.00  0.00     0.034 H 
ATOM     35  H   UNK d   0       4.862  -2.404  -4.915  0.00  0.00     0.034 H 
BRANCH  33  36
ATOM     36  C   UNK d   0       4.103  -0.646  -3.957  0.00  0.00    -0.045 A 
ATOM     37  C   UNK d   0       4.666  -1.007  -2.747  0.00  0.00    -0.059 A 
ATOM     38  C   UNK d   0       4.640  -0.125  -1.682  0.00  0.00    -0.061 A 
ATOM     39  H   UNK d   0       5.125  -1.978  -2.633  0.00  0.00     0.062 H 
ATOM     40  C   UNK d   0       4.053   1.116  -1.827  0.00  0.00    -0.062 A 
ATOM     41  H   UNK d   0       5.079  -0.408  -0.737  0.00  0.00     0.062 H 
ATOM     42  C   UNK d   0       3.490   1.478  -3.038  0.00  0.00    -0.061 A 
ATOM     43  H   UNK d   0       4.032   1.805  -0.996  0.00  0.00     0.062 H 
ATOM     44  C   UNK d   0       3.520   0.598  -4.104  0.00  0.00    -0.059 A 
ATOM     45  H   UNK d   0       3.031   2.449  -3.151  0.00  0.00     0.062 H 
ATOM     46  H   UNK d   0       3.085   0.882  -5.051  0.00  0.00     0.062 H 
ENDBRANCH  33  36
ENDBRANCH   1  33
BRANCH   1  47
ATOM     47  N   UNK d   0       3.846  -1.446  -7.541  0.00  0.00    -0.248 N 
ATOM     48  C   UNK d   0       4.025  -2.746  -7.822  0.00  0.00     0.331 A 
ATOM     49  N   UNK d   0       3.424  -3.358  -8.856  0.00  0.00    -0.307 N 
ATOM     50  O   UNK d   0       4.759  -3.400  -7.107  0.00  0.00    -0.246 OA
ATOM     51  C   UNK d   0       2.582  -2.651  -9.703  0.00  0.00     0.056 A 
ATOM     52  H   UNK d   0       3.603  -4.429  -9.028  0.00  0.00     0.170 HD
ATOM     53  C   UNK d   0       2.365  -1.284  -9.456  0.00  0.00     0.063 A 
ATOM     54  C   UNK d   0       1.955  -3.260 -10.780  0.00  0.00    -0.037 A 
ATOM     55  C   UNK d   0       3.047  -0.668  -8.303  0.00  0.00     0.265 A 
ATOM     56  C   UNK d   0       1.526  -0.548 -10.289  0.00  0.00    -0.047 A 
ATOM     57  O   UNK d   0       2.893   0.511  -8.044  0.00  0.00    -0.267 OA
ATOM     58  C   UNK d   0       0.912  -1.172 -11.356  0.00  0.00    -0.061 A 
ATOM     59  H   UNK d   0       1.357   0.501 -10.102  0.00  0.00     0.063 H 
ATOM     60  C   UNK d   0       1.126  -2.520 -11.598  0.00  0.00    -0.060 A 
ATOM     61  H   UNK d   0       0.260  -0.606 -12.005  0.00  0.00     0.062 H 
ATOM     62  H   UNK d   0       0.639  -2.997 -12.436  0.00  0.00     0.062 H 
ATOM     63  H   UNK d   0       2.116  -4.310 -10.977  0.00  0.00     0.064 H 
ENDBRANCH   1  47
TORSDOF 13
ENDMDL
MODEL 6
REMARK VINA RESULT:      -6.4      4.017      8.625
REMARK  9 active torsions:
REMARK  status: ('A' for Active; 'I' for Inactive)
REMARK    1  A    between atoms: CB_1  and  CA_2 
REMARK       I    between atoms: CA_2  and  C_4 
REMARK       I    between atoms: CA_2  and  N_7 
REMARK       I    between atoms: N_7  and  C_8 
REMARK       I    between atoms: C_8  and  CA_10 
REMARK    2  A    between atoms: CA_10  and  CB_12 
REMARK       I    between atoms: CA_10  and  N_16 
REMARK    3  A    between atoms: CB_12  and  CG_13 
REMARK    4  A    between atoms: CG_13  and  SD_14 
REMARK    5  A    between atoms: SD_14  and  CE_15 
REMARK       I    between atoms: N_16  and  C_17 
REMARK    6  A    between atoms: C_17  and  C_19 
REMARK    7  A    between atoms: C_19  and  C_21 
REMARK    8  A    between atoms: C_19  and  N_28 
REMARK    9  A    between atoms: C_21  and  C_22 
ROOT
ATOM      1  C   UNK d   0       4.496  -0.229  -8.658  0.00  0.00     0.122 C 
ATOM      2  H   UNK d   0       4.804  -1.038  -9.337  0.00  0.00     0.063 H 
ENDROOT
BRANCH   1   3
ATOM      3  C   UNK d   0       5.490   0.902  -8.730  0.00  0.00     0.237 C 
ATOM      4  N   MET d   1       6.796   0.640  -8.930  0.00  0.00    -0.302 N 
ATOM      5  CA  MET d   1       7.762   1.740  -8.999  0.00  0.00     0.100 C 
ATOM      6  H   MET d   1       7.138  -0.399  -9.042  0.00  0.00     0.149 HD
ATOM      7  C   MET d   1       8.961   1.306  -9.802  0.00  0.00     0.234 C 
ATOM      8  HA  MET d   1       7.265   2.586  -9.497  0.00  0.00     0.059 H 
ATOM      9  N   MET d   1       9.984   2.160  -9.999  0.00  0.00    -0.306 N 
ATOM     10  O   MET d   1       9.004   0.189 -10.271  0.00  0.00    -0.274 OA
ATOM     11  CA  MET d   1      11.150   1.739 -10.780  0.00  0.00     0.060 C 
ATOM     12  H   MET d   1       9.945   3.174  -9.574  0.00  0.00     0.149 HD
ATOM     13  HA  MET d   1      10.789   1.083 -11.587  0.00  0.00     0.056 H 
ATOM     14  C   MET d   1      11.824   2.951 -11.371  0.00  0.00     0.062 C 
ATOM     15  O   MET d   1      11.377   4.053 -11.161  0.00  0.00    -0.548 OA
ATOM     16  OXT MET d   1      12.921   2.804 -12.130  0.00  0.00    -0.548 OA
ATOM     17  O   UNK d   0       5.112   2.048  -8.606  0.00  0.00    -0.274 OA
BRANCH   5  18
ATOM     18  CB  MET d   1       8.206   2.118  -7.584  0.00  0.00    -0.017 C 
ATOM     19  HB1 MET d   1       9.108   2.745  -7.637  0.00  0.00     0.030 H 
ATOM     20  HB2 MET d   1       7.400   2.676  -7.084  0.00  0.00     0.030 H 
BRANCH  18  21
ATOM     21  CG  MET d   1       8.513   0.847  -6.789  0.00  0.00    -0.004 C 
ATOM     22  HG1 MET d   1       7.879   0.025  -7.152  0.00  0.00     0.038 H 
ATOM     23  HG2 MET d   1       9.572   0.580  -6.922  0.00  0.00     0.038 H 
BRANCH  21  24
ATOM     24  SD  MET d   1       8.178   1.138  -5.030  0.00  0.00    -0.164 SA
BRANCH  24  25
ATOM     25  CE  MET d   1       8.658   2.867  -4.772  0.00  0.00    -0.018 C 
ATOM     26  HE1 MET d   1       9.164   3.246  -5.672  0.00  0.00     0.034 H 
ATOM     27  HE2 MET d   1       9.341   2.935  -3.912  0.00  0.00     0.034 H 
ATOM     28  HE3 MET d   1       7.761   3.472  -4.576  0.00  0.00     0.034 H 
ENDBRANCH  24  25
ENDBRANCH  21  24
ENDBRANCH  18  21
ENDBRANCH   5  18
BRANCH  11  29
ATOM     29  CB  MET d   1      12.134   1.001  -9.870  0.00  0.00    -0.041 C 
ATOM     30  HB1 MET d   1      13.007   0.681 -10.457  0.00  0.00     0.025 H 
ATOM     31  HB2 MET d   1      11.641   0.119  -9.436  0.00  0.00     0.025 H 
ATOM     32  HB3 MET d   1      12.461   1.672  -9.063  0.00  0.00     0.025 H 
ENDBRANCH  11  29
ENDBRANCH   1   3
BRANCH   1  33
ATOM     33  C   UNK d   0       3.104   0.293  -9.021  0.00  0.00     0.002 C 
ATOM     34  H   UNK d   0       2.400   0.054  -8.209  0.00  0.00     0.034 H 
ATOM     35  H   UNK d   0       3.146   1.383  -9.160  0.00  0.00     0.034 H 
BRANCH  33  36
ATOM     36  C   UNK d   0       2.639  -0.359 -10.297  0.00  0.00    -0.045 A 
ATOM     37  C   UNK d   0       3.519  -0.514 -11.353  0.00  0.00    -0.059 A 
ATOM     38  C   UNK d   0       3.092  -1.113 -12.525  0.00  0.00    -0.061 A 
ATOM     39  H   UNK d   0       4.537  -0.168 -11.263  0.00  0.00     0.062 H 
ATOM     40  C   UNK d   0       1.789  -1.556 -12.640  0.00  0.00    -0.062 A 
ATOM     41  H   UNK d   0       3.779  -1.234 -13.349  0.00  0.00     0.062 H 
ATOM     42  C   UNK d   0       0.910  -1.401 -11.584  0.00  0.00    -0.061 A 
ATOM     43  H   UNK d   0       1.456  -2.024 -13.554  0.00  0.00     0.062 H 
ATOM     44  C   UNK d   0       1.337  -0.807 -10.411  0.00  0.00    -0.059 A 
ATOM     45  H   UNK d   0      -0.109  -1.747 -11.674  0.00  0.00     0.062 H 
ATOM     46  H   UNK d   0       0.652  -0.690  -9.585  0.00  0.00     0.062 H 
ENDBRANCH  33  36
ENDBRANCH   1  33
BRANCH   1  47
ATOM     47  N   UNK d   0       4.474  -0.776  -7.300  0.00  0.00    -0.248 N 
ATOM     48  C   UNK d   0       5.221  -1.854  -7.012  0.00  0.00     0.331 A 
ATOM     49  N   UNK d   0       5.257  -2.409  -5.789  0.00  0.00    -0.307 N 
ATOM     50  O   UNK d   0       5.898  -2.345  -7.894  0.00  0.00    -0.246 OA
ATOM     51  C   UNK d   0       4.498  -1.886  -4.752  0.00  0.00     0.056 A 
ATOM     52  H   UNK d   0       5.898  -3.285  -5.613  0.00  0.00     0.170 HD
ATOM     53  C   UNK d   0       3.693  -0.761  -5.004  0.00  0.00     0.063 A 
ATOM     54  C   UNK d   0       4.515  -2.446  -3.483  0.00  0.00    -0.037 A 
ATOM     55  C   UNK d   0       3.697  -0.191  -6.363  0.00  0.00     0.265 A 
ATOM     56  C   UNK d   0       2.919  -0.215  -3.983  0.00  0.00    -0.047 A 
ATOM     57  O   UNK d   0       3.019   0.782  -6.633  0.00  0.00    -0.267 OA
ATOM     58  C   UNK d   0       2.949  -0.786  -2.727  0.00  0.00    -0.061 A 
ATOM     59  H   UNK d   0       2.300   0.649  -4.172  0.00  0.00     0.063 H 
ATOM     60  C   UNK d   0       3.744  -1.895  -2.480  0.00  0.00    -0.060 A 
ATOM     61  H   UNK d   0       2.350  -0.367  -1.932  0.00  0.00     0.062 H 
ATOM     62  H   UNK d   0       3.759  -2.334  -1.494  0.00  0.00     0.062 H 
ATOM     63  H   UNK d   0       5.131  -3.310  -3.282  0.00  0.00     0.064 H 
ENDBRANCH   1  47
TORSDOF 13
ENDMDL
MODEL 7
REMARK VINA RESULT:      -6.4      2.857      3.697
REMARK  9 active torsions:
REMARK  status: ('A' for Active; 'I' for Inactive)
REMARK    1  A    between atoms: CB_1  and  CA_2 
REMARK       I    between atoms: CA_2  and  C_4 
REMARK       I    between atoms: CA_2  and  N_7 
REMARK       I    between atoms: N_7  and  C_8 
REMARK       I    between atoms: C_8  and  CA_10 
REMARK    2  A    between atoms: CA_10  and  CB_12 
REMARK       I    between atoms: CA_10  and  N_16 
REMARK    3  A    between atoms: CB_12  and  CG_13 
REMARK    4  A    between atoms: CG_13  and  SD_14 
REMARK    5  A    between atoms: SD_14  and  CE_15 
REMARK       I    between atoms: N_16  and  C_17 
REMARK    6  A    between atoms: C_17  and  C_19 
REMARK    7  A    between atoms: C_19  and  C_21 
REMARK    8  A    between atoms: C_19  and  N_28 
REMARK    9  A    between atoms: C_21  and  C_22 
ROOT
ATOM      1  C   UNK d   0       4.507  -0.507  -6.407  0.00  0.00     0.122 C 
ATOM      2  H   UNK d   0       4.585   0.565  -6.173  0.00  0.00     0.063 H 
ENDROOT
BRANCH   1   3
ATOM      3  C   UNK d   0       5.879  -1.072  -6.673  0.00  0.00     0.237 C 
ATOM      4  N   MET d   1       6.337  -2.104  -5.939  0.00  0.00    -0.302 N 
ATOM      5  CA  MET d   1       7.671  -2.653  -6.198  0.00  0.00     0.100 C 
ATOM      6  H   MET d   1       5.710  -2.536  -5.145  0.00  0.00     0.149 HD
ATOM      7  C   MET d   1       7.721  -4.088  -5.740  0.00  0.00     0.234 C 
ATOM      8  HA  MET d   1       7.845  -2.601  -7.283  0.00  0.00     0.059 H 
ATOM      9  N   MET d   1       8.857  -4.800  -5.880  0.00  0.00    -0.306 N 
ATOM     10  O   MET d   1       6.740  -4.602  -5.247  0.00  0.00    -0.274 OA
ATOM     11  CA  MET d   1       8.907  -6.195  -5.435  0.00  0.00     0.060 C 
ATOM     12  H   MET d   1       9.748  -4.334  -6.327  0.00  0.00     0.149 HD
ATOM     13  HA  MET d   1       7.923  -6.643  -5.639  0.00  0.00     0.056 H 
ATOM     14  C   MET d   1       9.972  -6.931  -6.207  0.00  0.00     0.062 C 
ATOM     15  O   MET d   1      10.623  -6.349  -7.042  0.00  0.00    -0.548 OA
ATOM     16  OXT MET d   1      10.197  -8.232  -5.965  0.00  0.00    -0.548 OA
ATOM     17  O   UNK d   0       6.570  -0.596  -7.549  0.00  0.00    -0.274 OA
BRANCH   5  18
ATOM     18  CB  MET d   1       8.715  -1.837  -5.433  0.00  0.00    -0.017 C 
ATOM     19  HB1 MET d   1       8.226  -0.982  -4.943  0.00  0.00     0.030 H 
ATOM     20  HB2 MET d   1       9.192  -2.472  -4.673  0.00  0.00     0.030 H 
BRANCH  18  21
ATOM     21  CG  MET d   1       9.778  -1.326  -6.409  0.00  0.00    -0.004 C 
ATOM     22  HG1 MET d   1      10.760  -1.732  -6.127  0.00  0.00     0.038 H 
ATOM     23  HG2 MET d   1       9.525  -1.651  -7.429  0.00  0.00     0.038 H 
BRANCH  21  24
ATOM     24  SD  MET d   1       9.832   0.487  -6.348  0.00  0.00    -0.164 SA
BRANCH  24  25
ATOM     25  CE  MET d   1      10.111   0.975  -8.072  0.00  0.00    -0.018 C 
ATOM     26  HE1 MET d   1      10.163   2.072  -8.139  0.00  0.00     0.034 H 
ATOM     27  HE2 MET d   1       9.283   0.609  -8.696  0.00  0.00     0.034 H 
ATOM     28  HE3 MET d   1      11.058   0.542  -8.428  0.00  0.00     0.034 H 
ENDBRANCH  24  25
ENDBRANCH  21  24
ENDBRANCH  18  21
ENDBRANCH   5  18
BRANCH  11  29
ATOM     29  CB  MET d   1       9.234  -6.242  -3.941  0.00  0.00    -0.041 C 
ATOM     30  HB1 MET d   1      10.265  -5.894  -3.780  0.00  0.00     0.025 H 
ATOM     31  HB2 MET d   1       9.135  -7.275  -3.576  0.00  0.00     0.025 H 
ATOM     32  HB3 MET d   1       8.537  -5.592  -3.393  0.00  0.00     0.025 H 
ENDBRANCH  11  29
ENDBRANCH   1   3
BRANCH   1  33
ATOM     33  C   UNK d   0       3.854  -1.276  -5.256  0.00  0.00     0.002 C 
ATOM     34  H   UNK d   0       2.788  -1.430  -5.477  0.00  0.00     0.034 H 
ATOM     35  H   UNK d   0       4.350  -2.251  -5.139  0.00  0.00     0.034 H 
BRANCH  33  36
ATOM     36  C   UNK d   0       3.995  -0.485  -3.981  0.00  0.00    -0.045 A 
ATOM     37  C   UNK d   0       4.558  -1.071  -2.863  0.00  0.00    -0.059 A 
ATOM     38  C   UNK d   0       4.687  -0.346  -1.693  0.00  0.00    -0.061 A 
ATOM     39  H   UNK d   0       4.896  -2.096  -2.903  0.00  0.00     0.062 H 
ATOM     40  C   UNK d   0       4.253   0.965  -1.641  0.00  0.00    -0.062 A 
ATOM     41  H   UNK d   0       5.126  -0.804  -0.819  0.00  0.00     0.062 H 
ATOM     42  C   UNK d   0       3.690   1.552  -2.760  0.00  0.00    -0.061 A 
ATOM     43  H   UNK d   0       4.354   1.533  -0.728  0.00  0.00     0.062 H 
ATOM     44  C   UNK d   0       3.566   0.828  -3.931  0.00  0.00    -0.059 A 
ATOM     45  H   UNK d   0       3.352   2.576  -2.720  0.00  0.00     0.062 H 
ATOM     46  H   UNK d   0       3.130   1.287  -4.806  0.00  0.00     0.062 H 
ENDBRANCH  33  36
ENDBRANCH   1  33
BRANCH   1  47
ATOM     47  N   UNK d   0       3.683  -0.638  -7.610  0.00  0.00    -0.248 N 
ATOM     48  C   UNK d   0       3.097   0.454  -8.129  0.00  0.00     0.331 A 
ATOM     49  N   UNK d   0       2.332   0.414  -9.233  0.00  0.00    -0.307 N 
ATOM     50  O   UNK d   0       3.272   1.524  -7.581  0.00  0.00    -0.246 OA
ATOM     51  C   UNK d   0       2.100  -0.785  -9.891  0.00  0.00     0.056 A 
ATOM     52  H   UNK d   0       1.889   1.346  -9.616  0.00  0.00     0.170 HD
ATOM     53  C   UNK d   0       2.685  -1.959  -9.383  0.00  0.00     0.063 A 
ATOM     54  C   UNK d   0       1.309  -0.850 -11.028  0.00  0.00    -0.037 A 
ATOM     55  C   UNK d   0       3.520  -1.855  -8.173  0.00  0.00     0.265 A 
ATOM     56  C   UNK d   0       2.469  -3.178 -10.021  0.00  0.00    -0.047 A 
ATOM     57  O   UNK d   0       4.049  -2.839  -7.694  0.00  0.00    -0.267 OA
ATOM     58  C   UNK d   0       1.678  -3.222 -11.152  0.00  0.00    -0.061 A 
ATOM     59  H   UNK d   0       2.917  -4.081  -9.635  0.00  0.00     0.063 H 
ATOM     60  C   UNK d   0       1.103  -2.064 -11.651  0.00  0.00    -0.060 A 
ATOM     61  H   UNK d   0       1.507  -4.165 -11.650  0.00  0.00     0.062 H 
ATOM     62  H   UNK d   0       0.486  -2.112 -12.536  0.00  0.00     0.062 H 
ATOM     63  H   UNK d   0       0.856   0.047 -11.424  0.00  0.00     0.064 H 
ENDBRANCH   1  47
TORSDOF 13
ENDMDL
MODEL 8
REMARK VINA RESULT:      -6.3      2.807      3.420
REMARK  9 active torsions:
REMARK  status: ('A' for Active; 'I' for Inactive)
REMARK    1  A    between atoms: CB_1  and  CA_2 
REMARK       I    between atoms: CA_2  and  C_4 
REMARK       I    between atoms: CA_2  and  N_7 
REMARK       I    between atoms: N_7  and  C_8 
REMARK       I    between atoms: C_8  and  CA_10 
REMARK    2  A    between atoms: CA_10  and  CB_12 
REMARK       I    between atoms: CA_10  and  N_16 
REMARK    3  A    between atoms: CB_12  and  CG_13 
REMARK    4  A    between atoms: CG_13  and  SD_14 
REMARK    5  A    between atoms: SD_14  and  CE_15 
REMARK       I    between atoms: N_16  and  C_17 
REMARK    6  A    between atoms: C_17  and  C_19 
REMARK    7  A    between atoms: C_19  and  C_21 
REMARK    8  A    between atoms: C_19  and  N_28 
REMARK    9  A    between atoms: C_21  and  C_22 
ROOT
ATOM      1  C   UNK d   0       6.871  -1.636  -5.560  0.00  0.00     0.122 C 
ATOM      2  H   UNK d   0       7.295  -0.631  -5.416  0.00  0.00     0.063 H 
ENDROOT
BRANCH   1   3
ATOM      3  C   UNK d   0       7.901  -2.539  -6.187  0.00  0.00     0.237 C 
ATOM      4  N   MET d   1       8.366  -3.606  -5.508  0.00  0.00    -0.302 N 
ATOM      5  CA  MET d   1       9.368  -4.484  -6.119  0.00  0.00     0.100 C 
ATOM      6  H   MET d   1       7.993  -3.818  -4.495  0.00  0.00     0.149 HD
ATOM      7  C   MET d   1       9.278  -5.854  -5.500  0.00  0.00     0.234 C 
ATOM      8  HA  MET d   1       9.144  -4.543  -7.194  0.00  0.00     0.059 H 
ATOM      9  N   MET d   1      10.109  -6.834  -5.909  0.00  0.00    -0.306 N 
ATOM     10  O   MET d   1       8.458  -6.077  -4.636  0.00  0.00    -0.274 OA
ATOM     11  CA  MET d   1      10.021  -8.167  -5.309  0.00  0.00     0.060 C 
ATOM     12  H   MET d   1      10.853  -6.632  -6.694  0.00  0.00     0.149 HD
ATOM     13  HA  MET d   1       8.960  -8.368  -5.101  0.00  0.00     0.056 H 
ATOM     14  C   MET d   1      10.554  -9.191  -6.278  0.00  0.00     0.062 C 
ATOM     15  O   MET d   1      10.965  -8.842  -7.360  0.00  0.00    -0.548 OA
ATOM     16  OXT MET d   1      10.572 -10.490  -5.939  0.00  0.00    -0.548 OA
ATOM     17  O   UNK d   0       8.311  -2.305  -7.305  0.00  0.00    -0.274 OA
BRANCH   5  18
ATOM     18  CB  MET d   1      10.765  -3.907  -5.879  0.00  0.00    -0.017 C 
ATOM     19  HB1 MET d   1      11.521  -4.674  -6.099  0.00  0.00     0.030 H 
ATOM     20  HB2 MET d   1      10.920  -3.039  -6.537  0.00  0.00     0.030 H 
BRANCH  18  21
ATOM     21  CG  MET d   1      10.892  -3.469  -4.418  0.00  0.00    -0.004 C 
ATOM     22  HG1 MET d   1      10.290  -2.563  -4.253  0.00  0.00     0.038 H 
ATOM     23  HG2 MET d   1      10.530  -4.274  -3.762  0.00  0.00     0.038 H 
BRANCH  21  24
ATOM     24  SD  MET d   1      12.631  -3.117  -4.042  0.00  0.00    -0.164 SA
BRANCH  24  25
ATOM     25  CE  MET d   1      12.724  -1.306  -4.047  0.00  0.00    -0.018 C 
ATOM     26  HE1 MET d   1      12.695  -0.934  -3.013  0.00  0.00     0.034 H 
ATOM     27  HE2 MET d   1      11.871  -0.896  -4.609  0.00  0.00     0.034 H 
ATOM     28  HE3 MET d   1      13.663  -0.987  -4.524  0.00  0.00     0.034 H 
ENDBRANCH  24  25
ENDBRANCH  21  24
ENDBRANCH  18  21
ENDBRANCH   5  18
BRANCH  11  29
ATOM     29  CB  MET d   1      10.850  -8.202  -4.023  0.00  0.00    -0.041 C 
ATOM     30  HB1 MET d   1      11.415  -9.145  -3.977  0.00  0.00     0.025 H 
ATOM     31  HB2 MET d   1      10.181  -8.133  -3.153  0.00  0.00     0.025 H 
ATOM     32  HB3 MET d   1      11.550  -7.355  -4.015  0.00  0.00     0.025 H 
ENDBRANCH  11  29
ENDBRANCH   1   3
BRANCH   1  33
ATOM     33  C   UNK d   0       6.413  -2.234  -4.228  0.00  0.00     0.002 C 
ATOM     34  H   UNK d   0       5.691  -3.042  -4.418  0.00  0.00     0.034 H 
ATOM     35  H   UNK d   0       7.282  -2.638  -3.689  0.00  0.00     0.034 H 
BRANCH  33  36
ATOM     36  C   UNK d   0       5.759  -1.162  -3.394  0.00  0.00    -0.045 A 
ATOM     37  C   UNK d   0       6.253   0.129  -3.418  0.00  0.00    -0.059 A 
ATOM     38  C   UNK d   0       5.654   1.113  -2.653  0.00  0.00    -0.061 A 
ATOM     39  H   UNK d   0       7.108   0.369  -4.033  0.00  0.00     0.062 H 
ATOM     40  C   UNK d   0       4.561   0.805  -1.865  0.00  0.00    -0.062 A 
ATOM     41  H   UNK d   0       6.040   2.121  -2.671  0.00  0.00     0.062 H 
ATOM     42  C   UNK d   0       4.067  -0.486  -1.841  0.00  0.00    -0.061 A 
ATOM     43  H   UNK d   0       4.092   1.573  -1.268  0.00  0.00     0.062 H 
ATOM     44  C   UNK d   0       4.663  -1.468  -2.610  0.00  0.00    -0.059 A 
ATOM     45  H   UNK d   0       3.213  -0.726  -1.226  0.00  0.00     0.062 H 
ATOM     46  H   UNK d   0       4.274  -2.476  -2.595  0.00  0.00     0.062 H 
ENDBRANCH  33  36
ENDBRANCH   1  33
BRANCH   1  47
ATOM     47  N   UNK d   0       5.721  -1.507  -6.457  0.00  0.00    -0.248 N 
ATOM     48  C   UNK d   0       4.962  -2.584  -6.715  0.00  0.00     0.331 A 
ATOM     49  N   UNK d   0       3.889  -2.543  -7.522  0.00  0.00    -0.307 N 
ATOM     50  O   UNK d   0       5.255  -3.640  -6.189  0.00  0.00    -0.246 OA
ATOM     51  C   UNK d   0       3.520  -1.361  -8.148  0.00  0.00     0.056 A 
ATOM     52  H   UNK d   0       3.301  -3.458  -7.685  0.00  0.00     0.170 HD
ATOM     53  C   UNK d   0       4.286  -0.205  -7.917  0.00  0.00     0.063 A 
ATOM     54  C   UNK d   0       2.420  -1.297  -8.990  0.00  0.00    -0.037 A 
ATOM     55  C   UNK d   0       5.449  -0.308  -7.017  0.00  0.00     0.265 A 
ATOM     56  C   UNK d   0       3.940   0.996  -8.532  0.00  0.00    -0.047 A 
ATOM     57  O   UNK d   0       6.144   0.662  -6.783  0.00  0.00    -0.267 OA
ATOM     58  C   UNK d   0       2.842   1.040  -9.367  0.00  0.00    -0.061 A 
ATOM     59  H   UNK d   0       4.525   1.886  -8.356  0.00  0.00     0.063 H 
ATOM     60  C   UNK d   0       2.088  -0.101  -9.594  0.00  0.00    -0.060 A 
ATOM     61  H   UNK d   0       2.570   1.968  -9.847  0.00  0.00     0.062 H 
ATOM     62  H   UNK d   0       1.231  -0.054 -10.249  0.00  0.00     0.062 H 
ATOM     63  H   UNK d   0       1.826  -2.180  -9.173  0.00  0.00     0.064 H 
ENDBRANCH   1  47
TORSDOF 13
ENDMDL
MODEL 9
REMARK VINA RESULT:      -6.2      3.306      4.162
REMARK  9 active torsions:
REMARK  status: ('A' for Active; 'I' for Inactive)
REMARK    1  A    between atoms: CB_1  and  CA_2 
REMARK       I    between atoms: CA_2  and  C_4 
REMARK       I    between atoms: CA_2  and  N_7 
REMARK       I    between atoms: N_7  and  C_8 
REMARK       I    between atoms: C_8  and  CA_10 
REMARK    2  A    between atoms: CA_10  and  CB_12 
REMARK       I    between atoms: CA_10  and  N_16 
REMARK    3  A    between atoms: CB_12  and  CG_13 
REMARK    4  A    between atoms: CG_13  and  SD_14 
REMARK    5  A    between atoms: SD_14  and  CE_15 
REMARK       I    between atoms: N_16  and  C_17 
REMARK    6  A    between atoms: C_17  and  C_19 
REMARK    7  A    between atoms: C_19  and  C_21 
REMARK    8  A    between atoms: C_19  and  N_28 
REMARK    9  A    between atoms: C_21  and  C_22 
ROOT
ATOM      1  C   UNK d   0       4.349  -0.211  -6.477  0.00  0.00     0.122 C 
ATOM      2  H   UNK d   0       4.140   0.806  -6.115  0.00  0.00     0.063 H 
ENDROOT
BRANCH   1   3
ATOM      3  C   UNK d   0       5.814  -0.346  -6.802  0.00  0.00     0.237 C 
ATOM      4  N   MET d   1       6.408  -1.555  -6.751  0.00  0.00    -0.302 N 
ATOM      5  CA  MET d   1       7.833  -1.685  -7.067  0.00  0.00     0.100 C 
ATOM      6  H   MET d   1       5.823  -2.443  -6.472  0.00  0.00     0.149 HD
ATOM      7  C   MET d   1       8.117  -3.089  -7.536  0.00  0.00     0.234 C 
ATOM      8  HA  MET d   1       8.060  -0.969  -7.871  0.00  0.00     0.059 H 
ATOM      9  N   MET d   1       9.370  -3.442  -7.885  0.00  0.00    -0.306 N 
ATOM     10  O   MET d   1       7.218  -3.900  -7.601  0.00  0.00    -0.274 OA
ATOM     11  CA  MET d   1       9.647  -4.806  -8.341  0.00  0.00     0.060 C 
ATOM     12  H   MET d   1      10.186  -2.706  -7.826  0.00  0.00     0.149 HD
ATOM     13  HA  MET d   1       8.775  -5.144  -8.922  0.00  0.00     0.056 H 
ATOM     14  C   MET d   1      10.873  -4.804  -9.217  0.00  0.00     0.062 C 
ATOM     15  O   MET d   1      11.457  -3.769  -9.437  0.00  0.00    -0.548 OA
ATOM     16  OXT MET d   1      11.317  -5.952  -9.752  0.00  0.00    -0.548 OA
ATOM     17  O   UNK d   0       6.459   0.635  -7.109  0.00  0.00    -0.274 OA
BRANCH   5  18
ATOM     18  CB  MET d   1       8.662  -1.388  -5.816  0.00  0.00    -0.017 C 
ATOM     19  HB1 MET d   1       9.665  -1.826  -5.927  0.00  0.00     0.030 H 
ATOM     20  HB2 MET d   1       8.749  -0.300  -5.683  0.00  0.00     0.030 H 
BRANCH  18  21
ATOM     21  CG  MET d   1       7.973  -1.997  -4.592  0.00  0.00    -0.004 C 
ATOM     22  HG1 MET d   1       7.941  -1.254  -3.781  0.00  0.00     0.038 H 
ATOM     23  HG2 MET d   1       6.948  -2.293  -4.858  0.00  0.00     0.038 H 
BRANCH  21  24
ATOM     24  SD  MET d   1       8.901  -3.455  -4.039  0.00  0.00    -0.164 SA
BRANCH  24  25
ATOM     25  CE  MET d   1      10.619  -3.073  -4.474  0.00  0.00    -0.018 C 
ATOM     26  HE1 MET d   1      11.112  -3.980  -4.852  0.00  0.00     0.034 H 
ATOM     27  HE2 MET d   1      11.152  -2.710  -3.582  0.00  0.00     0.034 H 
ATOM     28  HE3 MET d   1      10.636  -2.296  -5.253  0.00  0.00     0.034 H 
ENDBRANCH  24  25
ENDBRANCH  21  24
ENDBRANCH  18  21
ENDBRANCH   5  18
BRANCH  11  29
ATOM     29  CB  MET d   1       9.886  -5.710  -7.130  0.00  0.00    -0.041 C 
ATOM     30  HB1 MET d   1       9.011  -5.670  -6.465  0.00  0.00     0.025 H 
ATOM     31  HB2 MET d   1      10.777  -5.366  -6.585  0.00  0.00     0.025 H 
ATOM     32  HB3 MET d   1      10.040  -6.744  -7.470  0.00  0.00     0.025 H 
ENDBRANCH  11  29
ENDBRANCH   1   3
BRANCH   1  33
ATOM     33  C   UNK d   0       3.961  -1.258  -5.429  0.00  0.00     0.002 C 
ATOM     34  H   UNK d   0       2.924  -1.580  -5.600  0.00  0.00     0.034 H 
ATOM     35  H   UNK d   0       4.633  -2.125  -5.512  0.00  0.00     0.034 H 
BRANCH  33  36
ATOM     36  C   UNK d   0       4.082  -0.659  -4.052  0.00  0.00    -0.045 A 
ATOM     37  C   UNK d   0       3.689   0.649  -3.831  0.00  0.00    -0.059 A 
ATOM     38  C   UNK d   0       3.800   1.198  -2.567  0.00  0.00    -0.061 A 
ATOM     39  H   UNK d   0       3.297   1.240  -4.645  0.00  0.00     0.062 H 
ATOM     40  C   UNK d   0       4.302   0.442  -1.525  0.00  0.00    -0.062 A 
ATOM     41  H   UNK d   0       3.493   2.220  -2.394  0.00  0.00     0.062 H 
ATOM     42  C   UNK d   0       4.695  -0.865  -1.747  0.00  0.00    -0.061 A 
ATOM     43  H   UNK d   0       4.388   0.871  -0.538  0.00  0.00     0.062 H 
ATOM     44  C   UNK d   0       4.580  -1.417  -3.009  0.00  0.00    -0.059 A 
ATOM     45  H   UNK d   0       5.087  -1.456  -0.933  0.00  0.00     0.062 H 
ATOM     46  H   UNK d   0       4.882  -2.439  -3.181  0.00  0.00     0.062 H 
ENDBRANCH  33  36
ENDBRANCH   1  33
BRANCH   1  47
ATOM     47  N   UNK d   0       3.558  -0.420  -7.691  0.00  0.00    -0.248 N 
ATOM     48  C   UNK d   0       2.961   0.631  -8.276  0.00  0.00     0.331 A 
ATOM     49  N   UNK d   0       2.224   0.520  -9.395  0.00  0.00    -0.307 N 
ATOM     50  O   UNK d   0       3.098   1.730  -7.777  0.00  0.00    -0.246 OA
ATOM     51  C   UNK d   0       2.035  -0.716  -9.997  0.00  0.00     0.056 A 
ATOM     52  H   UNK d   0       1.769   1.420  -9.833  0.00  0.00     0.170 HD
ATOM     53  C   UNK d   0       2.633  -1.849  -9.420  0.00  0.00     0.063 A 
ATOM     54  C   UNK d   0       1.274  -0.854 -11.148  0.00  0.00    -0.037 A 
ATOM     55  C   UNK d   0       3.436  -1.666  -8.196  0.00  0.00     0.265 A 
ATOM     56  C   UNK d   0       2.461  -3.102 -10.002  0.00  0.00    -0.047 A 
ATOM     57  O   UNK d   0       3.975  -2.614  -7.657  0.00  0.00    -0.267 OA
ATOM     58  C   UNK d   0       1.699  -3.220 -11.147  0.00  0.00    -0.061 A 
ATOM     59  H   UNK d   0       2.920  -3.975  -9.562  0.00  0.00     0.063 H 
ATOM     60  C   UNK d   0       1.110  -2.102 -11.715  0.00  0.00    -0.060 A 
ATOM     61  H   UNK d   0       1.562  -4.190 -11.602  0.00  0.00     0.062 H 
ATOM     62  H   UNK d   0       0.517  -2.207 -12.611  0.00  0.00     0.062 H 
ATOM     63  H   UNK d   0       0.810   0.011 -11.598  0.00  0.00     0.064 H 
ENDBRANCH   1  47
TORSDOF 13
ENDMDL
