MODEL 1
REMARK VINA RESULT:      -5.6      0.000      0.000
REMARK  11 active torsions:
REMARK  status: ('A' for Active; 'I' for Inactive)
REMARK    1  A    between atoms: C_1  and  C_2 
REMARK    2  A    between atoms: C_2  and  C_4 
REMARK    3  A    between atoms: C_8  and  C_38 
REMARK    4  A    between atoms: C_17  and  C_37 
REMARK    5  A    between atoms: C_18  and  C_21 
REMARK    6  A    between atoms: C_26  and  C_36 
REMARK    7  A    between atoms: C_28  and  C_34 
REMARK    8  A    between atoms: C_30  and  C_31 
REMARK    9  A    between atoms: C_30  and  C_32 
REMARK   10  A    between atoms: C_38  and  O_40 
REMARK   11  A    between atoms: O_40  and  C_41 
ROOT
ATOM      1  C   LIG d   1       4.411  -2.328  -7.207  0.00  0.00    -0.016 C 
ATOM      2  H   LIG d   1       3.349  -2.052  -7.033  0.00  0.00     0.035 H 
ATOM      3  C   LIG d   1       5.213  -1.002  -7.267  0.00  0.00    -0.045 C 
ATOM      4  C   LIG d   1       5.593  -0.730  -5.796  0.00  0.00    -0.036 C 
ATOM      5  C   LIG d   1       5.890  -2.150  -5.232  0.00  0.00     0.071 C 
ATOM      6  C   LIG d   1       4.917  -3.072  -5.993  0.00  0.00    -0.015 C 
ATOM      7  H   LIG d   1       4.014  -3.102  -5.303  0.00  0.00     0.032 H 
ATOM      8  C   LIG d   1       5.349  -4.497  -6.044  0.00  0.00    -0.031 C 
ATOM      9  H   LIG d   1       5.208  -4.845  -4.975  0.00  0.00     0.031 H 
ATOM     10  C   LIG d   1       4.441  -5.426  -6.835  0.00  0.00    -0.049 C 
ATOM     11  C   LIG d   1       4.612  -6.845  -6.295  0.00  0.00    -0.049 C 
ATOM     12  C   LIG d   1       5.870  -6.986  -5.432  0.00  0.00    -0.029 C 
ATOM     13  H   LIG d   1       5.670  -6.529  -4.453  0.00  0.00     0.031 H 
ATOM     14  C   LIG d   1       7.078  -6.303  -6.052  0.00  0.00    -0.023 C 
ATOM     15  C   LIG d   1       6.811  -4.808  -6.319  0.00  0.00    -0.023 C 
ATOM     16  C   LIG d   1       7.668  -3.940  -5.388  0.00  0.00    -0.046 C 
ATOM     17  C   LIG d   1       7.338  -2.463  -5.599  0.00  0.00    -0.036 C 
ATOM     18  C   LIG d   1       7.477  -7.024  -7.342  0.00  0.00    -0.047 C 
ATOM     19  C   LIG d   1       7.789  -8.498  -7.029  0.00  0.00    -0.048 C 
ATOM     20  C   LIG d   1       6.535  -9.167  -6.486  0.00  0.00    -0.027 C 
ATOM     21  H   LIG d   1       5.735  -9.007  -7.252  0.00  0.00     0.031 H 
ATOM     22  C   LIG d   1       6.049  -8.496  -5.206  0.00  0.00    -0.021 C 
ATOM     23  C   LIG d   1       4.640  -9.080  -4.929  0.00  0.00    -0.019 C 
ATOM     24  C   LIG d   1       4.785 -10.565  -4.744  0.00  0.00    -0.019 C 
ATOM     25  C   LIG d   1       5.727 -11.271  -5.379  0.00  0.00    -0.120 C 
ATOM     26  C   LIG d   1       6.700 -10.672  -6.352  0.00  0.00    -0.020 C 
ATOM     27  O   LIG d   1       5.808 -12.592  -5.130  0.00  0.00    -0.876 OA
ATOM     28  H   LIG d   1       6.103  -1.134  -7.875  0.00  0.00     0.027 H 
ATOM     29  H   LIG d   1       4.586  -0.205  -7.655  0.00  0.00     0.027 H 
ATOM     30  H   LIG d   1       6.483  -0.102  -5.740  0.00  0.00     0.028 H 
ATOM     31  H   LIG d   1       4.763  -0.269  -5.262  0.00  0.00     0.028 H 
ATOM     32  H   LIG d   1       3.400  -5.119  -6.712  0.00  0.00     0.027 H 
ATOM     33  H   LIG d   1       4.695  -5.439  -7.892  0.00  0.00     0.027 H 
ATOM     34  H   LIG d   1       3.736  -7.087  -5.683  0.00  0.00     0.027 H 
ATOM     35  H   LIG d   1       4.661  -7.542  -7.131  0.00  0.00     0.027 H 
ATOM     36  H   LIG d   1       7.472  -4.183  -4.346  0.00  0.00     0.027 H 
ATOM     37  H   LIG d   1       8.728  -4.055  -5.631  0.00  0.00     0.027 H 
ATOM     38  H   LIG d   1       7.538  -2.166  -6.623  0.00  0.00     0.028 H 
ATOM     39  H   LIG d   1       7.995  -1.873  -4.944  0.00  0.00     0.028 H 
ATOM     40  H   LIG d   1       6.667  -6.994  -8.065  0.00  0.00     0.027 H 
ATOM     41  H   LIG d   1       8.394  -6.600  -7.755  0.00  0.00     0.027 H 
ATOM     42  H   LIG d   1       8.079  -8.976  -7.973  0.00  0.00     0.027 H 
ATOM     43  H   LIG d   1       8.620  -8.562  -6.341  0.00  0.00     0.027 H 
ATOM     44  H   LIG d   1       4.240  -8.631  -4.030  0.00  0.00     0.032 H 
ATOM     45  H   LIG d   1       4.001  -8.897  -5.786  0.00  0.00     0.032 H 
ENDROOT
BRANCH   1  46
ATOM     46  C   LIG d   1       4.493  -3.020  -8.528  0.00  0.00    -0.076 C 
ATOM     47  C   LIG d   1       5.545  -2.853  -9.291  0.00  0.00    -0.099 C 
ATOM     48  H   LIG d   1       5.567  -3.283 -10.281  0.00  0.00     0.053 H 
ATOM     49  H   LIG d   1       6.390  -2.286  -8.929  0.00  0.00     0.053 H 
BRANCH  46  50
ATOM     50  C   LIG d   1       3.366  -3.912  -8.982  0.00  0.00    -0.044 C 
ATOM     51  H   LIG d   1       3.417  -4.037 -10.064  0.00  0.00     0.027 H 
ATOM     52  H   LIG d   1       3.455  -4.884  -8.499  0.00  0.00     0.027 H 
ATOM     53  H   LIG d   1       2.413  -3.457  -8.714  0.00  0.00     0.027 H 
ENDBRANCH  46  50
ENDBRANCH   1  46
BRANCH   5  54
ATOM     54  C   LIG d   1       5.660  -2.207  -3.738  0.00  0.00     0.313 C 
ATOM     55  O   LIG d   1       6.512  -1.807  -2.980  0.00  0.00    -0.250 OA
BRANCH  54  56
ATOM     56  O   LIG d   1       4.510  -2.701  -3.254  0.00  0.00    -0.468 OA
BRANCH  56  57
ATOM     57  C   LIG d   1       3.670  -1.799  -2.529  0.00  0.00     0.082 C 
ATOM     58  H   LIG d   1       4.253  -1.305  -1.752  0.00  0.00     0.066 H 
ATOM     59  H   LIG d   1       3.266  -1.052  -3.211  0.00  0.00     0.066 H 
ATOM     60  H   LIG d   1       2.851  -2.354  -2.071  0.00  0.00     0.066 H 
ENDBRANCH  56  57
ENDBRANCH  54  56
ENDBRANCH   5  54
BRANCH  15  61
ATOM     61  C   LIG d   1       7.189  -4.470  -7.764  0.00  0.00    -0.059 C 
ATOM     62  H   LIG d   1       8.272  -4.364  -7.840  0.00  0.00     0.024 H 
ATOM     63  H   LIG d   1       6.855  -5.272  -8.422  0.00  0.00     0.024 H 
ATOM     64  H   LIG d   1       6.711  -3.536  -8.055  0.00  0.00     0.024 H 
ENDBRANCH  15  61
BRANCH  14  65
ATOM     65  C   LIG d   1       8.287  -6.380  -5.097  0.00  0.00    -0.059 C 
ATOM     66  H   LIG d   1       8.000  -6.914  -4.191  0.00  0.00     0.024 H 
ATOM     67  H   LIG d   1       9.103  -6.909  -5.587  0.00  0.00     0.024 H 
ATOM     68  H   LIG d   1       8.610  -5.372  -4.838  0.00  0.00     0.024 H 
ENDBRANCH  14  65
BRANCH  22  69
ATOM     69  C   LIG d   1       6.907  -8.800  -3.984  0.00  0.00    -0.059 C 
ATOM     70  H   LIG d   1       7.952  -8.591  -4.213  0.00  0.00     0.024 H 
ATOM     71  H   LIG d   1       6.587  -8.176  -3.151  0.00  0.00     0.024 H 
ATOM     72  H   LIG d   1       6.797  -9.851  -3.715  0.00  0.00     0.024 H 
ENDBRANCH  22  69
BRANCH  26  73
ATOM     73  C   LIG d   1       6.416 -11.313  -7.727  0.00  0.00    -0.057 C 
ATOM     74  H   LIG d   1       5.609 -12.039  -7.631  0.00  0.00     0.024 H 
ATOM     75  H   LIG d   1       6.127 -10.538  -8.436  0.00  0.00     0.024 H 
ATOM     76  H   LIG d   1       7.316 -11.815  -8.087  0.00  0.00     0.024 H 
ENDBRANCH  26  73
BRANCH  26  77
ATOM     77  C   LIG d   1       8.121 -11.065  -5.948  0.00  0.00    -0.057 C 
ATOM     78  H   LIG d   1       8.763 -10.185  -5.979  0.00  0.00     0.024 H 
ATOM     79  H   LIG d   1       8.112 -11.474  -4.938  0.00  0.00     0.024 H 
ATOM     80  H   LIG d   1       8.501 -11.817  -6.640  0.00  0.00     0.024 H 
ENDBRANCH  26  77
BRANCH  24  81
ATOM     81  C   LIG d   1       3.899 -11.226  -3.881  0.00  0.00     0.145 C 
ATOM     82  O   LIG d   1       2.705 -11.017  -3.960  0.00  0.00    -0.296 OA
ATOM     83  H   LIG d   1       4.278 -11.921  -3.147  0.00  0.00     0.108 H 
ENDBRANCH  24  81
TORSDOF 11
ENDMDL
MODEL 2
REMARK VINA RESULT:      -5.5      3.154      7.937
REMARK  11 active torsions:
REMARK  status: ('A' for Active; 'I' for Inactive)
REMARK    1  A    between atoms: C_1  and  C_2 
REMARK    2  A    between atoms: C_2  and  C_4 
REMARK    3  A    between atoms: C_8  and  C_38 
REMARK    4  A    between atoms: C_17  and  C_37 
REMARK    5  A    between atoms: C_18  and  C_21 
REMARK    6  A    between atoms: C_26  and  C_36 
REMARK    7  A    between atoms: C_28  and  C_34 
REMARK    8  A    between atoms: C_30  and  C_31 
REMARK    9  A    between atoms: C_30  and  C_32 
REMARK   10  A    between atoms: C_38  and  O_40 
REMARK   11  A    between atoms: O_40  and  C_41 
ROOT
ATOM      1  C   LIG d   1       7.863  -7.744  -6.669  0.00  0.00    -0.016 C 
ATOM      2  H   LIG d   1       7.184  -8.308  -7.344  0.00  0.00     0.035 H 
ATOM      3  C   LIG d   1       9.267  -8.390  -6.803  0.00  0.00    -0.045 C 
ATOM      4  C   LIG d   1       9.913  -7.630  -7.981  0.00  0.00    -0.036 C 
ATOM      5  C   LIG d   1       9.408  -6.170  -7.791  0.00  0.00     0.071 C 
ATOM      6  C   LIG d   1       7.996  -6.333  -7.194  0.00  0.00    -0.015 C 
ATOM      7  H   LIG d   1       7.335  -6.330  -8.119  0.00  0.00     0.032 H 
ATOM      8  C   LIG d   1       7.520  -5.143  -6.435  0.00  0.00    -0.031 C 
ATOM      9  H   LIG d   1       7.339  -4.376  -7.250  0.00  0.00     0.031 H 
ATOM     10  C   LIG d   1       6.153  -5.287  -5.785  0.00  0.00    -0.049 C 
ATOM     11  C   LIG d   1       5.542  -3.896  -5.626  0.00  0.00    -0.049 C 
ATOM     12  C   LIG d   1       6.587  -2.787  -5.788  0.00  0.00    -0.029 C 
ATOM     13  H   LIG d   1       6.810  -2.677  -6.858  0.00  0.00     0.031 H 
ATOM     14  C   LIG d   1       7.879  -3.094  -5.048  0.00  0.00    -0.023 C 
ATOM     15  C   LIG d   1       8.489  -4.435  -5.502  0.00  0.00    -0.023 C 
ATOM     16  C   LIG d   1       9.797  -4.193  -6.267  0.00  0.00    -0.046 C 
ATOM     17  C   LIG d   1      10.353  -5.517  -6.786  0.00  0.00    -0.036 C 
ATOM     18  C   LIG d   1       7.625  -3.095  -3.539  0.00  0.00    -0.047 C 
ATOM     19  C   LIG d   1       7.070  -1.725  -3.112  0.00  0.00    -0.048 C 
ATOM     20  C   LIG d   1       5.738  -1.489  -3.811  0.00  0.00    -0.027 C 
ATOM     21  H   LIG d   1       5.088  -2.362  -3.553  0.00  0.00     0.031 H 
ATOM     22  C   LIG d   1       5.892  -1.495  -5.328  0.00  0.00    -0.021 C 
ATOM     23  C   LIG d   1       4.451  -1.531  -5.899  0.00  0.00    -0.019 C 
ATOM     24  C   LIG d   1       3.738  -0.294  -5.429  0.00  0.00    -0.019 C 
ATOM     25  C   LIG d   1       4.014   0.282  -4.254  0.00  0.00    -0.120 C 
ATOM     26  C   LIG d   1       5.024  -0.256  -3.282  0.00  0.00    -0.020 C 
ATOM     27  O   LIG d   1       3.351   1.406  -3.925  0.00  0.00    -0.876 OA
ATOM     28  H   LIG d   1       9.834  -8.238  -5.891  0.00  0.00     0.027 H 
ATOM     29  H   LIG d   1       9.169  -9.446  -7.035  0.00  0.00     0.027 H 
ATOM     30  H   LIG d   1      11.001  -7.671  -7.911  0.00  0.00     0.028 H 
ATOM     31  H   LIG d   1       9.574  -8.035  -8.934  0.00  0.00     0.028 H 
ATOM     32  H   LIG d   1       5.503  -5.893  -6.420  0.00  0.00     0.027 H 
ATOM     33  H   LIG d   1       6.219  -5.738  -4.798  0.00  0.00     0.027 H 
ATOM     34  H   LIG d   1       4.772  -3.770  -6.393  0.00  0.00     0.027 H 
ATOM     35  H   LIG d   1       5.077  -3.821  -4.643  0.00  0.00     0.027 H 
ATOM     36  H   LIG d   1       9.629  -3.540  -7.121  0.00  0.00     0.027 H 
ATOM     37  H   LIG d   1      10.558  -3.783  -5.596  0.00  0.00     0.027 H 
ATOM     38  H   LIG d   1      10.558  -6.197  -5.967  0.00  0.00     0.028 H 
ATOM     39  H   LIG d   1      11.305  -5.309  -7.294  0.00  0.00     0.028 H 
ATOM     40  H   LIG d   1       6.897  -3.855  -3.271  0.00  0.00     0.027 H 
ATOM     41  H   LIG d   1       8.559  -3.228  -2.990  0.00  0.00     0.027 H 
ATOM     42  H   LIG d   1       6.911  -1.761  -2.027  0.00  0.00     0.027 H 
ATOM     43  H   LIG d   1       7.790  -0.950  -3.328  0.00  0.00     0.027 H 
ATOM     44  H   LIG d   1       4.498  -1.545  -6.980  0.00  0.00     0.032 H 
ATOM     45  H   LIG d   1       3.932  -2.400  -5.511  0.00  0.00     0.032 H 
ENDROOT
BRANCH   1  46
ATOM     46  C   LIG d   1       7.366  -7.919  -5.271  0.00  0.00    -0.076 C 
ATOM     47  C   LIG d   1       8.214  -7.944  -4.273  0.00  0.00    -0.099 C 
ATOM     48  H   LIG d   1       7.866  -8.156  -3.273  0.00  0.00     0.053 H 
ATOM     49  H   LIG d   1       9.262  -7.751  -4.450  0.00  0.00     0.053 H 
BRANCH  46  50
ATOM     50  C   LIG d   1       5.889  -8.065  -5.009  0.00  0.00    -0.044 C 
ATOM     51  H   LIG d   1       5.595  -9.104  -5.160  0.00  0.00     0.027 H 
ATOM     52  H   LIG d   1       5.671  -7.770  -3.983  0.00  0.00     0.027 H 
ATOM     53  H   LIG d   1       5.334  -7.427  -5.696  0.00  0.00     0.027 H 
ENDBRANCH  46  50
ENDBRANCH   1  46
BRANCH   5  54
ATOM     54  C   LIG d   1       9.376  -5.425  -9.106  0.00  0.00     0.313 C 
ATOM     55  O   LIG d   1      10.406  -5.045  -9.610  0.00  0.00    -0.250 OA
BRANCH  54  56
ATOM     56  O   LIG d   1       8.203  -5.185  -9.714  0.00  0.00    -0.468 OA
BRANCH  56  57
ATOM     57  C   LIG d   1       7.869  -3.817  -9.963  0.00  0.00     0.082 C 
ATOM     58  H   LIG d   1       7.518  -3.711 -10.989  0.00  0.00     0.066 H 
ATOM     59  H   LIG d   1       7.085  -3.504  -9.275  0.00  0.00     0.066 H 
ATOM     60  H   LIG d   1       8.752  -3.195  -9.816  0.00  0.00     0.066 H 
ENDBRANCH  56  57
ENDBRANCH  54  56
ENDBRANCH   5  54
BRANCH  15  61
ATOM     61  C   LIG d   1       8.808  -5.294  -4.276  0.00  0.00    -0.059 C 
ATOM     62  H   LIG d   1       8.434  -4.799  -3.380  0.00  0.00     0.024 H 
ATOM     63  H   LIG d   1       8.329  -6.268  -4.381  0.00  0.00     0.024 H 
ATOM     64  H   LIG d   1       9.887  -5.426  -4.196  0.00  0.00     0.024 H 
ENDBRANCH  15  61
BRANCH  14  65
ATOM     65  C   LIG d   1       8.931  -2.003  -5.331  0.00  0.00    -0.059 C 
ATOM     66  H   LIG d   1       9.619  -1.936  -4.488  0.00  0.00     0.024 H 
ATOM     67  H   LIG d   1       9.484  -2.257  -6.233  0.00  0.00     0.024 H 
ATOM     68  H   LIG d   1       8.431  -1.044  -5.469  0.00  0.00     0.024 H 
ENDBRANCH  14  65
BRANCH  22  69
ATOM     69  C   LIG d   1       6.563  -0.247  -5.887  0.00  0.00    -0.059 C 
ATOM     70  H   LIG d   1       7.169   0.219  -5.109  0.00  0.00     0.024 H 
ATOM     71  H   LIG d   1       7.201  -0.523  -6.726  0.00  0.00     0.024 H 
ATOM     72  H   LIG d   1       5.801   0.456  -6.224  0.00  0.00     0.024 H 
ENDBRANCH  22  69
BRANCH  26  73
ATOM     73  C   LIG d   1       4.254  -0.655  -2.005  0.00  0.00    -0.057 C 
ATOM     74  H   LIG d   1       3.195  -0.431  -2.134  0.00  0.00     0.024 H 
ATOM     75  H   LIG d   1       4.381  -1.722  -1.823  0.00  0.00     0.024 H 
ATOM     76  H   LIG d   1       4.644  -0.093  -1.155  0.00  0.00     0.024 H 
ENDBRANCH  26  73
BRANCH  26  77
ATOM     77  C   LIG d   1       5.997   0.859  -2.901  0.00  0.00    -0.057 C 
ATOM     78  H   LIG d   1       5.578   1.442  -2.080  0.00  0.00     0.024 H 
ATOM     79  H   LIG d   1       6.946   0.423  -2.591  0.00  0.00     0.024 H 
ATOM     80  H   LIG d   1       6.160   1.508  -3.761  0.00  0.00     0.024 H 
ENDBRANCH  26  77
BRANCH  24  81
ATOM     81  C   LIG d   1       2.749   0.267  -6.250  0.00  0.00     0.145 C 
ATOM     82  O   LIG d   1       3.063   1.021  -7.150  0.00  0.00    -0.296 OA
ATOM     83  H   LIG d   1       1.709   0.031  -6.082  0.00  0.00     0.108 H 
ENDBRANCH  24  81
TORSDOF 11
ENDMDL
MODEL 3
REMARK VINA RESULT:      -5.5      5.210      9.680
REMARK  11 active torsions:
REMARK  status: ('A' for Active; 'I' for Inactive)
REMARK    1  A    between atoms: C_1  and  C_2 
REMARK    2  A    between atoms: C_2  and  C_4 
REMARK    3  A    between atoms: C_8  and  C_38 
REMARK    4  A    between atoms: C_17  and  C_37 
REMARK    5  A    between atoms: C_18  and  C_21 
REMARK    6  A    between atoms: C_26  and  C_36 
REMARK    7  A    between atoms: C_28  and  C_34 
REMARK    8  A    between atoms: C_30  and  C_31 
REMARK    9  A    between atoms: C_30  and  C_32 
REMARK   10  A    between atoms: C_38  and  O_40 
REMARK   11  A    between atoms: O_40  and  C_41 
ROOT
ATOM      1  C   LIG d   1       1.149  -8.091 -10.611  0.00  0.00    -0.016 C 
ATOM      2  H   LIG d   1       1.184  -8.715  -9.692  0.00  0.00     0.035 H 
ATOM      3  C   LIG d   1       0.189  -8.803 -11.600  0.00  0.00    -0.045 C 
ATOM      4  C   LIG d   1      -1.200  -8.235 -11.241  0.00  0.00    -0.036 C 
ATOM      5  C   LIG d   1      -0.905  -6.744 -10.902  0.00  0.00     0.071 C 
ATOM      6  C   LIG d   1       0.500  -6.770 -10.268  0.00  0.00    -0.015 C 
ATOM      7  H   LIG d   1       0.269  -6.868  -9.160  0.00  0.00     0.032 H 
ATOM      8  C   LIG d   1       1.224  -5.472 -10.350  0.00  0.00    -0.031 C 
ATOM      9  H   LIG d   1       0.655  -4.816  -9.623  0.00  0.00     0.031 H 
ATOM     10  C   LIG d   1       2.636  -5.474  -9.784  0.00  0.00    -0.049 C 
ATOM     11  C   LIG d   1       2.987  -4.052  -9.352  0.00  0.00    -0.049 C 
ATOM     12  C   LIG d   1       2.028  -3.016  -9.946  0.00  0.00    -0.029 C 
ATOM     13  H   LIG d   1       1.083  -3.060  -9.387  0.00  0.00     0.031 H 
ATOM     14  C   LIG d   1       1.738  -3.269 -11.417  0.00  0.00    -0.023 C 
ATOM     15  C   LIG d   1       1.165  -4.682 -11.648  0.00  0.00    -0.023 C 
ATOM     16  C   LIG d   1      -0.303  -4.595 -12.087  0.00  0.00    -0.046 C 
ATOM     17  C   LIG d   1      -0.889  -5.998 -12.234  0.00  0.00    -0.036 C 
ATOM     18  C   LIG d   1       3.010  -3.056 -12.240  0.00  0.00    -0.047 C 
ATOM     19  C   LIG d   1       3.522  -1.621 -12.029  0.00  0.00    -0.048 C 
ATOM     20  C   LIG d   1       3.878  -1.431 -10.562  0.00  0.00    -0.027 C 
ATOM     21  H   LIG d   1       4.612  -2.236 -10.309  0.00  0.00     0.031 H 
ATOM     22  C   LIG d   1       2.668  -1.648  -9.659  0.00  0.00    -0.021 C 
ATOM     23  C   LIG d   1       3.224  -1.706  -8.213  0.00  0.00    -0.019 C 
ATOM     24  C   LIG d   1       3.891  -0.390  -7.923  0.00  0.00    -0.019 C 
ATOM     25  C   LIG d   1       4.491   0.328  -8.878  0.00  0.00    -0.120 C 
ATOM     26  C   LIG d   1       4.589  -0.111 -10.310  0.00  0.00    -0.020 C 
ATOM     27  O   LIG d   1       5.035   1.511  -8.538  0.00  0.00    -0.876 OA
ATOM     28  H   LIG d   1       0.454  -8.551 -12.621  0.00  0.00     0.027 H 
ATOM     29  H   LIG d   1       0.218  -9.876 -11.438  0.00  0.00     0.027 H 
ATOM     30  H   LIG d   1      -1.875  -8.307 -12.094  0.00  0.00     0.028 H 
ATOM     31  H   LIG d   1      -1.617  -8.752 -10.377  0.00  0.00     0.028 H 
ATOM     32  H   LIG d   1       2.685  -6.135  -8.916  0.00  0.00     0.027 H 
ATOM     33  H   LIG d   1       3.368  -5.790 -10.523  0.00  0.00     0.027 H 
ATOM     34  H   LIG d   1       2.930  -4.001  -8.260  0.00  0.00     0.027 H 
ATOM     35  H   LIG d   1       4.008  -3.827  -9.662  0.00  0.00     0.027 H 
ATOM     36  H   LIG d   1      -0.895  -4.058 -11.349  0.00  0.00     0.027 H 
ATOM     37  H   LIG d   1      -0.376  -4.128 -13.073  0.00  0.00     0.027 H 
ATOM     38  H   LIG d   1      -0.343  -6.569 -12.977  0.00  0.00     0.028 H 
ATOM     39  H   LIG d   1      -1.926  -5.897 -12.584  0.00  0.00     0.028 H 
ATOM     40  H   LIG d   1       3.790  -3.745 -11.930  0.00  0.00     0.027 H 
ATOM     41  H   LIG d   1       2.800  -3.150 -13.308  0.00  0.00     0.027 H 
ATOM     42  H   LIG d   1       4.425  -1.505 -12.642  0.00  0.00     0.027 H 
ATOM     43  H   LIG d   1       2.783  -0.910 -12.369  0.00  0.00     0.027 H 
ATOM     44  H   LIG d   1       2.406  -1.867  -7.524  0.00  0.00     0.032 H 
ATOM     45  H   LIG d   1       3.966  -2.494  -8.144  0.00  0.00     0.032 H 
ENDROOT
BRANCH   1  46
ATOM     46  C   LIG d   1       2.526  -8.057 -11.192  0.00  0.00    -0.076 C 
ATOM     47  C   LIG d   1       2.688  -8.033 -12.491  0.00  0.00    -0.099 C 
ATOM     48  H   LIG d   1       3.680  -8.095 -12.913  0.00  0.00     0.053 H 
ATOM     49  H   LIG d   1       1.829  -7.950 -13.141  0.00  0.00     0.053 H 
BRANCH  46  50
ATOM     50  C   LIG d   1       3.727  -8.048 -10.282  0.00  0.00    -0.044 C 
ATOM     51  H   LIG d   1       3.402  -8.189  -9.251  0.00  0.00     0.027 H 
ATOM     52  H   LIG d   1       4.403  -8.855 -10.564  0.00  0.00     0.027 H 
ATOM     53  H   LIG d   1       4.244  -7.093 -10.372  0.00  0.00     0.027 H 
ENDBRANCH  46  50
ENDBRANCH   1  46
BRANCH   5  54
ATOM     54  C   LIG d   1      -1.937  -6.183  -9.950  0.00  0.00     0.313 C 
ATOM     55  O   LIG d   1      -1.696  -6.118  -8.768  0.00  0.00    -0.250 OA
BRANCH  54  56
ATOM     56  O   LIG d   1      -3.121  -5.756 -10.418  0.00  0.00    -0.468 OA
BRANCH  56  57
ATOM     57  C   LIG d   1      -3.868  -4.870  -9.582  0.00  0.00     0.082 C 
ATOM     58  H   LIG d   1      -3.683  -3.840  -9.888  0.00  0.00     0.066 H 
ATOM     59  H   LIG d   1      -4.930  -5.092  -9.675  0.00  0.00     0.066 H 
ATOM     60  H   LIG d   1      -3.558  -5.001  -8.545  0.00  0.00     0.066 H 
ENDBRANCH  56  57
ENDBRANCH  54  56
ENDBRANCH   5  54
BRANCH  15  61
ATOM     61  C   LIG d   1       1.953  -5.379 -12.759  0.00  0.00    -0.059 C 
ATOM     62  H   LIG d   1       2.159  -4.667 -13.559  0.00  0.00     0.024 H 
ATOM     63  H   LIG d   1       2.893  -5.755 -12.356  0.00  0.00     0.024 H 
ATOM     64  H   LIG d   1       1.367  -6.209 -13.154  0.00  0.00     0.024 H 
ENDBRANCH  15  61
BRANCH  14  65
ATOM     65  C   LIG d   1       0.688  -2.267 -11.936  0.00  0.00    -0.059 C 
ATOM     66  H   LIG d   1       0.241  -2.652 -12.853  0.00  0.00     0.024 H 
ATOM     67  H   LIG d   1      -0.088  -2.131 -11.184  0.00  0.00     0.024 H 
ATOM     68  H   LIG d   1       1.168  -1.311 -12.140  0.00  0.00     0.024 H 
ENDBRANCH  14  65
BRANCH  22  69
ATOM     69  C   LIG d   1       1.652  -0.514  -9.703  0.00  0.00    -0.059 C 
ATOM     70  H   LIG d   1       1.354  -0.333 -10.735  0.00  0.00     0.024 H 
ATOM     71  H   LIG d   1       0.777  -0.787  -9.115  0.00  0.00     0.024 H 
ATOM     72  H   LIG d   1       2.099   0.391  -9.290  0.00  0.00     0.024 H 
ENDBRANCH  22  69
BRANCH  26  73
ATOM     73  C   LIG d   1       6.088  -0.305 -10.622  0.00  0.00    -0.057 C 
ATOM     74  H   LIG d   1       6.303   0.069 -11.623  0.00  0.00     0.024 H 
ATOM     75  H   LIG d   1       6.685   0.242  -9.893  0.00  0.00     0.024 H 
ATOM     76  H   LIG d   1       6.336  -1.366 -10.570  0.00  0.00     0.024 H 
ENDBRANCH  26  73
BRANCH  26  77
ATOM     77  C   LIG d   1       4.073   1.007 -11.215  0.00  0.00    -0.057 C 
ATOM     78  H   LIG d   1       4.413   0.833 -12.237  0.00  0.00     0.024 H 
ATOM     79  H   LIG d   1       2.984   1.020 -11.192  0.00  0.00     0.024 H 
ATOM     80  H   LIG d   1       4.455   1.965 -10.863  0.00  0.00     0.024 H 
ENDBRANCH  26  77
BRANCH  24  81
ATOM     81  C   LIG d   1       3.886   0.093  -6.606  0.00  0.00     0.145 C 
ATOM     82  O   LIG d   1       2.894   0.636  -6.163  0.00  0.00    -0.296 OA
ATOM     83  H   LIG d   1       4.763  -0.018  -5.986  0.00  0.00     0.108 H 
ENDBRANCH  24  81
TORSDOF 11
ENDMDL
MODEL 4
REMARK VINA RESULT:      -5.5      4.755      6.919
REMARK  11 active torsions:
REMARK  status: ('A' for Active; 'I' for Inactive)
REMARK    1  A    between atoms: C_1  and  C_2 
REMARK    2  A    between atoms: C_2  and  C_4 
REMARK    3  A    between atoms: C_8  and  C_38 
REMARK    4  A    between atoms: C_17  and  C_37 
REMARK    5  A    between atoms: C_18  and  C_21 
REMARK    6  A    between atoms: C_26  and  C_36 
REMARK    7  A    between atoms: C_28  and  C_34 
REMARK    8  A    between atoms: C_30  and  C_31 
REMARK    9  A    between atoms: C_30  and  C_32 
REMARK   10  A    between atoms: C_38  and  O_40 
REMARK   11  A    between atoms: O_40  and  C_41 
ROOT
ATOM      1  C   LIG d   1       3.853   0.300  -4.418  0.00  0.00    -0.016 C 
ATOM      2  H   LIG d   1       3.969   1.367  -4.130  0.00  0.00     0.035 H 
ATOM      3  C   LIG d   1       2.434   0.153  -5.027  0.00  0.00    -0.045 C 
ATOM      4  C   LIG d   1       2.639   0.465  -6.524  0.00  0.00    -0.036 C 
ATOM      5  C   LIG d   1       4.024  -0.171  -6.840  0.00  0.00     0.071 C 
ATOM      6  C   LIG d   1       4.826  -0.004  -5.534  0.00  0.00    -0.015 C 
ATOM      7  H   LIG d   1       5.360   0.986  -5.697  0.00  0.00     0.032 H 
ATOM      8  C   LIG d   1       5.947  -0.973  -5.383  0.00  0.00    -0.031 C 
ATOM      9  H   LIG d   1       6.694  -0.620  -6.159  0.00  0.00     0.031 H 
ATOM     10  C   LIG d   1       6.725  -0.873  -4.081  0.00  0.00    -0.049 C 
ATOM     11  C   LIG d   1       8.135  -1.411  -4.317  0.00  0.00    -0.049 C 
ATOM     12  C   LIG d   1       8.233  -2.221  -5.614  0.00  0.00    -0.029 C 
ATOM     13  H   LIG d   1       8.251  -1.519  -6.458  0.00  0.00     0.031 H 
ATOM     14  C   LIG d   1       7.061  -3.173  -5.793  0.00  0.00    -0.023 C 
ATOM     15  C   LIG d   1       5.712  -2.426  -5.762  0.00  0.00    -0.023 C 
ATOM     16  C   LIG d   1       5.055  -2.458  -7.149  0.00  0.00    -0.046 C 
ATOM     17  C   LIG d   1       3.761  -1.646  -7.133  0.00  0.00    -0.036 C 
ATOM     18  C   LIG d   1       7.106  -4.260  -4.717  0.00  0.00    -0.047 C 
ATOM     19  C   LIG d   1       8.441  -5.020  -4.812  0.00  0.00    -0.048 C 
ATOM     20  C   LIG d   1       9.585  -4.052  -4.548  0.00  0.00    -0.027 C 
ATOM     21  H   LIG d   1       9.378  -3.585  -3.552  0.00  0.00     0.031 H 
ATOM     22  C   LIG d   1       9.604  -2.915  -5.564  0.00  0.00    -0.021 C 
ATOM     23  C   LIG d   1      10.616  -1.875  -5.018  0.00  0.00    -0.019 C 
ATOM     24  C   LIG d   1      11.959  -2.545  -4.923  0.00  0.00    -0.019 C 
ATOM     25  C   LIG d   1      12.085  -3.851  -4.666  0.00  0.00    -0.120 C 
ATOM     26  C   LIG d   1      10.920  -4.765  -4.415  0.00  0.00    -0.020 C 
ATOM     27  O   LIG d   1      13.324  -4.377  -4.631  0.00  0.00    -0.876 OA
ATOM     28  H   LIG d   1       2.077  -0.863  -4.892  0.00  0.00     0.027 H 
ATOM     29  H   LIG d   1       1.758   0.872  -4.574  0.00  0.00     0.027 H 
ATOM     30  H   LIG d   1       1.857  -0.003  -7.123  0.00  0.00     0.028 H 
ATOM     31  H   LIG d   1       2.661   1.541  -6.694  0.00  0.00     0.028 H 
ATOM     32  H   LIG d   1       6.789   0.171  -3.766  0.00  0.00     0.027 H 
ATOM     33  H   LIG d   1       6.270  -1.464  -3.290  0.00  0.00     0.027 H 
ATOM     34  H   LIG d   1       8.821  -0.560  -4.380  0.00  0.00     0.027 H 
ATOM     35  H   LIG d   1       8.426  -2.035  -3.472  0.00  0.00     0.027 H 
ATOM     36  H   LIG d   1       5.715  -2.026  -7.898  0.00  0.00     0.027 H 
ATOM     37  H   LIG d   1       4.772  -3.482  -7.410  0.00  0.00     0.027 H 
ATOM     38  H   LIG d   1       3.060  -2.052  -6.413  0.00  0.00     0.028 H 
ATOM     39  H   LIG d   1       3.302  -1.723  -8.129  0.00  0.00     0.028 H 
ATOM     40  H   LIG d   1       7.034  -3.823  -3.725  0.00  0.00     0.027 H 
ATOM     41  H   LIG d   1       6.322  -5.001  -4.883  0.00  0.00     0.027 H 
ATOM     42  H   LIG d   1       8.430  -5.795  -4.035  0.00  0.00     0.027 H 
ATOM     43  H   LIG d   1       8.524  -5.502  -5.776  0.00  0.00     0.027 H 
ATOM     44  H   LIG d   1      10.666  -1.037  -5.699  0.00  0.00     0.032 H 
ATOM     45  H   LIG d   1      10.311  -1.566  -4.024  0.00  0.00     0.032 H 
ENDROOT
BRANCH   1  46
ATOM     46  C   LIG d   1       3.948  -0.521  -3.173  0.00  0.00    -0.076 C 
ATOM     47  C   LIG d   1       3.284  -1.646  -3.078  0.00  0.00    -0.099 C 
ATOM     48  H   LIG d   1       3.283  -2.196  -2.148  0.00  0.00     0.053 H 
ATOM     49  H   LIG d   1       2.738  -2.024  -3.929  0.00  0.00     0.053 H 
BRANCH  46  50
ATOM     50  C   LIG d   1       4.810  -0.055  -2.028  0.00  0.00    -0.044 C 
ATOM     51  H   LIG d   1       4.864   1.034  -2.034  0.00  0.00     0.027 H 
ATOM     52  H   LIG d   1       4.376  -0.392  -1.086  0.00  0.00     0.027 H 
ATOM     53  H   LIG d   1       5.812  -0.469  -2.135  0.00  0.00     0.027 H 
ENDBRANCH  46  50
ENDBRANCH   1  46
BRANCH   5  54
ATOM     54  C   LIG d   1       4.697   0.526  -8.001  0.00  0.00     0.313 C 
ATOM     55  O   LIG d   1       5.730   1.128  -7.828  0.00  0.00    -0.250 OA
BRANCH  54  56
ATOM     56  O   LIG d   1       4.147   0.476  -9.224  0.00  0.00    -0.468 OA
BRANCH  56  57
ATOM     57  C   LIG d   1       3.977   1.719  -9.911  0.00  0.00     0.082 C 
ATOM     58  H   LIG d   1       4.355   2.531  -9.290  0.00  0.00     0.066 H 
ATOM     59  H   LIG d   1       4.528   1.692 -10.850  0.00  0.00     0.066 H 
ATOM     60  H   LIG d   1       2.919   1.879 -10.114  0.00  0.00     0.066 H 
ENDBRANCH  56  57
ENDBRANCH  54  56
ENDBRANCH   5  54
BRANCH  15  61
ATOM     61  C   LIG d   1       4.769  -3.113  -4.773  0.00  0.00    -0.059 C 
ATOM     62  H   LIG d   1       3.738  -2.979  -5.102  0.00  0.00     0.024 H 
ATOM     63  H   LIG d   1       5.001  -4.177  -4.730  0.00  0.00     0.024 H 
ATOM     64  H   LIG d   1       4.895  -2.672  -3.785  0.00  0.00     0.024 H 
ENDBRANCH  15  61
BRANCH  14  65
ATOM     65  C   LIG d   1       7.152  -3.882  -7.159  0.00  0.00    -0.059 C 
ATOM     66  H   LIG d   1       7.683  -4.827  -7.043  0.00  0.00     0.024 H 
ATOM     67  H   LIG d   1       6.148  -4.074  -7.536  0.00  0.00     0.024 H 
ATOM     68  H   LIG d   1       7.689  -3.248  -7.863  0.00  0.00     0.024 H 
ENDBRANCH  14  65
BRANCH  22  69
ATOM     69  C   LIG d   1      10.092  -3.330  -6.947  0.00  0.00    -0.059 C 
ATOM     70  H   LIG d   1       9.395  -4.050  -7.377  0.00  0.00     0.024 H 
ATOM     71  H   LIG d   1      10.150  -2.453  -7.590  0.00  0.00     0.024 H 
ATOM     72  H   LIG d   1      11.079  -3.785  -6.863  0.00  0.00     0.024 H 
ENDBRANCH  22  69
BRANCH  26  73
ATOM     73  C   LIG d   1      11.051  -5.276  -2.964  0.00  0.00    -0.057 C 
ATOM     74  H   LIG d   1      11.330  -6.330  -2.974  0.00  0.00     0.024 H 
ATOM     75  H   LIG d   1      11.817  -4.701  -2.444  0.00  0.00     0.024 H 
ATOM     76  H   LIG d   1      10.096  -5.157  -2.450  0.00  0.00     0.024 H 
ENDBRANCH  26  73
BRANCH  26  77
ATOM     77  C   LIG d   1      11.024  -5.977  -5.339  0.00  0.00    -0.057 C 
ATOM     78  H   LIG d   1      11.364  -6.841  -4.768  0.00  0.00     0.024 H 
ATOM     79  H   LIG d   1      10.048  -6.189  -5.773  0.00  0.00     0.024 H 
ATOM     80  H   LIG d   1      11.737  -5.765  -6.137  0.00  0.00     0.024 H 
ENDBRANCH  26  77
BRANCH  24  81
ATOM     81  C   LIG d   1      13.113  -1.770  -5.107  0.00  0.00     0.145 C 
ATOM     82  O   LIG d   1      13.422  -0.935  -4.279  0.00  0.00    -0.296 OA
ATOM     83  H   LIG d   1      13.726  -1.914  -5.983  0.00  0.00     0.108 H 
ENDBRANCH  24  81
TORSDOF 11
ENDMDL
MODEL 5
REMARK VINA RESULT:      -5.4     13.708     16.611
REMARK  11 active torsions:
REMARK  status: ('A' for Active; 'I' for Inactive)
REMARK    1  A    between atoms: C_1  and  C_2 
REMARK    2  A    between atoms: C_2  and  C_4 
REMARK    3  A    between atoms: C_8  and  C_38 
REMARK    4  A    between atoms: C_17  and  C_37 
REMARK    5  A    between atoms: C_18  and  C_21 
REMARK    6  A    between atoms: C_26  and  C_36 
REMARK    7  A    between atoms: C_28  and  C_34 
REMARK    8  A    between atoms: C_30  and  C_31 
REMARK    9  A    between atoms: C_30  and  C_32 
REMARK   10  A    between atoms: C_38  and  O_40 
REMARK   11  A    between atoms: O_40  and  C_41 
ROOT
ATOM      1  C   LIG d   1      12.964   6.883  -1.056  0.00  0.00    -0.016 C 
ATOM      2  H   LIG d   1      13.463   7.660  -0.437  0.00  0.00     0.035 H 
ATOM      3  C   LIG d   1      12.371   5.840  -0.073  0.00  0.00    -0.045 C 
ATOM      4  C   LIG d   1      10.966   6.391   0.249  0.00  0.00    -0.036 C 
ATOM      5  C   LIG d   1      10.493   6.992  -1.106  0.00  0.00     0.071 C 
ATOM      6  C   LIG d   1      11.786   7.517  -1.761  0.00  0.00    -0.015 C 
ATOM      7  H   LIG d   1      11.818   8.598  -1.412  0.00  0.00     0.032 H 
ATOM      8  C   LIG d   1      11.706   7.641  -3.243  0.00  0.00    -0.031 C 
ATOM      9  H   LIG d   1      11.003   8.518  -3.388  0.00  0.00     0.031 H 
ATOM     10  C   LIG d   1      12.983   8.104  -3.929  0.00  0.00    -0.049 C 
ATOM     11  C   LIG d   1      12.607   8.780  -5.246  0.00  0.00    -0.049 C 
ATOM     12  C   LIG d   1      11.169   8.461  -5.667  0.00  0.00    -0.029 C 
ATOM     13  H   LIG d   1      10.488   9.061  -5.049  0.00  0.00     0.031 H 
ATOM     14  C   LIG d   1      10.825   6.991  -5.490  0.00  0.00    -0.023 C 
ATOM     15  C   LIG d   1      11.041   6.528  -4.035  0.00  0.00    -0.023 C 
ATOM     16  C   LIG d   1       9.694   6.210  -3.373  0.00  0.00    -0.046 C 
ATOM     17  C   LIG d   1       9.908   5.832  -1.908  0.00  0.00    -0.036 C 
ATOM     18  C   LIG d   1      11.652   6.144  -6.460  0.00  0.00    -0.047 C 
ATOM     19  C   LIG d   1      11.370   6.595  -7.903  0.00  0.00    -0.048 C 
ATOM     20  C   LIG d   1      11.801   8.046  -8.064  0.00  0.00    -0.027 C 
ATOM     21  H   LIG d   1      12.876   8.090  -7.757  0.00  0.00     0.031 H 
ATOM     22  C   LIG d   1      11.041   8.966  -7.114  0.00  0.00    -0.021 C 
ATOM     23  C   LIG d   1      11.767  10.335  -7.179  0.00  0.00    -0.019 C 
ATOM     24  C   LIG d   1      11.689  10.830  -8.596  0.00  0.00    -0.019 C 
ATOM     25  C   LIG d   1      11.668   9.995  -9.640  0.00  0.00    -0.120 C 
ATOM     26  C   LIG d   1      11.752   8.502  -9.513  0.00  0.00    -0.020 C 
ATOM     27  O   LIG d   1      11.564  10.522 -10.875  0.00  0.00    -0.876 OA
ATOM     28  H   LIG d   1      12.301   4.872  -0.559  0.00  0.00     0.027 H 
ATOM     29  H   LIG d   1      12.979   5.788   0.825  0.00  0.00     0.027 H 
ATOM     30  H   LIG d   1      10.302   5.585   0.563  0.00  0.00     0.028 H 
ATOM     31  H   LIG d   1      11.021   7.163   1.016  0.00  0.00     0.028 H 
ATOM     32  H   LIG d   1      13.505   8.823  -3.293  0.00  0.00     0.027 H 
ATOM     33  H   LIG d   1      13.645   7.272  -4.157  0.00  0.00     0.027 H 
ATOM     34  H   LIG d   1      12.705   9.863  -5.116  0.00  0.00     0.027 H 
ATOM     35  H   LIG d   1      13.298   8.455  -6.024  0.00  0.00     0.027 H 
ATOM     36  H   LIG d   1       9.035   7.074  -3.405  0.00  0.00     0.027 H 
ATOM     37  H   LIG d   1       9.234   5.339  -3.849  0.00  0.00     0.027 H 
ATOM     38  H   LIG d   1      10.545   4.959  -1.824  0.00  0.00     0.028 H 
ATOM     39  H   LIG d   1       8.929   5.575  -1.478  0.00  0.00     0.028 H 
ATOM     40  H   LIG d   1      12.713   6.264  -6.267  0.00  0.00     0.027 H 
ATOM     41  H   LIG d   1      11.355   5.094  -6.406  0.00  0.00     0.027 H 
ATOM     42  H   LIG d   1      11.970   5.960  -8.566  0.00  0.00     0.027 H 
ATOM     43  H   LIG d   1      10.326   6.448  -8.139  0.00  0.00     0.027 H 
ATOM     44  H   LIG d   1      11.273  11.030  -6.514  0.00  0.00     0.032 H 
ATOM     45  H   LIG d   1      12.810  10.201  -6.914  0.00  0.00     0.032 H 
ENDROOT
BRANCH   1  46
ATOM     46  C   LIG d   1      14.010   6.233  -1.902  0.00  0.00    -0.076 C 
ATOM     47  C   LIG d   1      13.933   4.953  -2.170  0.00  0.00    -0.099 C 
ATOM     48  H   LIG d   1      14.732   4.465  -2.708  0.00  0.00     0.053 H 
ATOM     49  H   LIG d   1      13.070   4.386  -1.853  0.00  0.00     0.053 H 
BRANCH  46  50
ATOM     50  C   LIG d   1      15.152   7.050  -2.449  0.00  0.00    -0.044 C 
ATOM     51  H   LIG d   1      15.839   7.299  -1.640  0.00  0.00     0.027 H 
ATOM     52  H   LIG d   1      15.678   6.475  -3.210  0.00  0.00     0.027 H 
ATOM     53  H   LIG d   1      14.763   7.968  -2.890  0.00  0.00     0.027 H 
ENDBRANCH  46  50
ENDBRANCH   1  46
BRANCH   5  54
ATOM     54  C   LIG d   1       9.485   8.099  -0.894  0.00  0.00     0.313 C 
ATOM     55  O   LIG d   1       8.307   7.838  -0.825  0.00  0.00    -0.250 OA
BRANCH  54  56
ATOM     56  O   LIG d   1       9.898   9.371  -0.783  0.00  0.00    -0.468 OA
BRANCH  56  57
ATOM     57  C   LIG d   1       9.281  10.332  -1.642  0.00  0.00     0.082 C 
ATOM     58  H   LIG d   1       8.945  11.184  -1.052  0.00  0.00     0.066 H 
ATOM     59  H   LIG d   1      10.000  10.667  -2.388  0.00  0.00     0.066 H 
ATOM     60  H   LIG d   1       8.426   9.876  -2.141  0.00  0.00     0.066 H 
ENDBRANCH  56  57
ENDBRANCH  54  56
ENDBRANCH   5  54
BRANCH  15  61
ATOM     61  C   LIG d   1      11.889   5.254  -4.024  0.00  0.00    -0.059 C 
ATOM     62  H   LIG d   1      11.714   4.710  -3.095  0.00  0.00     0.024 H 
ATOM     63  H   LIG d   1      11.613   4.627  -4.871  0.00  0.00     0.024 H 
ATOM     64  H   LIG d   1      12.944   5.519  -4.096  0.00  0.00     0.024 H 
ENDBRANCH  15  61
BRANCH  14  65
ATOM     65  C   LIG d   1       9.340   6.744  -5.825  0.00  0.00    -0.059 C 
ATOM     66  H   LIG d   1       8.756   6.742  -4.904  0.00  0.00     0.024 H 
ATOM     67  H   LIG d   1       8.980   7.535  -6.482  0.00  0.00     0.024 H 
ATOM     68  H   LIG d   1       9.236   5.781  -6.324  0.00  0.00     0.024 H 
ENDBRANCH  14  65
BRANCH  22  69
ATOM     69  C   LIG d   1       9.592   9.208  -7.516  0.00  0.00    -0.059 C 
ATOM     70  H   LIG d   1       9.215   8.341  -8.057  0.00  0.00     0.024 H 
ATOM     71  H   LIG d   1       8.989   9.368  -6.622  0.00  0.00     0.024 H 
ATOM     72  H   LIG d   1       9.534  10.089  -8.156  0.00  0.00     0.024 H 
ENDBRANCH  22  69
BRANCH  26  73
ATOM     73  C   LIG d   1      13.063   8.063 -10.201  0.00  0.00    -0.057 C 
ATOM     74  H   LIG d   1      12.837   7.655 -11.186  0.00  0.00     0.024 H 
ATOM     75  H   LIG d   1      13.725   8.922 -10.305  0.00  0.00     0.024 H 
ATOM     76  H   LIG d   1      13.552   7.298  -9.595  0.00  0.00     0.024 H 
ENDBRANCH  26  73
BRANCH  26  77
ATOM     77  C   LIG d   1      10.595   7.866 -10.282  0.00  0.00    -0.057 C 
ATOM     78  H   LIG d   1      10.918   7.634 -11.297  0.00  0.00     0.024 H 
ATOM     79  H   LIG d   1      10.285   6.950  -9.780  0.00  0.00     0.024 H 
ATOM     80  H   LIG d   1       9.756   8.562 -10.317  0.00  0.00     0.024 H 
ENDBRANCH  26  77
BRANCH  24  81
ATOM     81  C   LIG d   1      11.642  12.213  -8.825  0.00  0.00     0.145 C 
ATOM     82  O   LIG d   1      10.615  12.828  -8.620  0.00  0.00    -0.296 OA
ATOM     83  H   LIG d   1      12.519  12.731  -9.184  0.00  0.00     0.108 H 
ENDBRANCH  24  81
TORSDOF 11
ENDMDL
MODEL 6
REMARK VINA RESULT:      -5.4     12.935     16.036
REMARK  11 active torsions:
REMARK  status: ('A' for Active; 'I' for Inactive)
REMARK    1  A    between atoms: C_1  and  C_2 
REMARK    2  A    between atoms: C_2  and  C_4 
REMARK    3  A    between atoms: C_8  and  C_38 
REMARK    4  A    between atoms: C_17  and  C_37 
REMARK    5  A    between atoms: C_18  and  C_21 
REMARK    6  A    between atoms: C_26  and  C_36 
REMARK    7  A    between atoms: C_28  and  C_34 
REMARK    8  A    between atoms: C_30  and  C_31 
REMARK    9  A    between atoms: C_30  and  C_32 
REMARK   10  A    between atoms: C_38  and  O_40 
REMARK   11  A    between atoms: O_40  and  C_41 
ROOT
ATOM      1  C   LIG d   1       9.551  10.418  -1.601  0.00  0.00    -0.016 C 
ATOM      2  H   LIG d   1       8.478  10.465  -1.316  0.00  0.00     0.035 H 
ATOM      3  C   LIG d   1      10.368  10.532  -0.288  0.00  0.00    -0.045 C 
ATOM      4  C   LIG d   1      10.500   9.071   0.195  0.00  0.00    -0.036 C 
ATOM      5  C   LIG d   1      10.681   8.269  -1.127  0.00  0.00     0.071 C 
ATOM      6  C   LIG d   1       9.838   9.043  -2.159  0.00  0.00    -0.015 C 
ATOM      7  H   LIG d   1       8.832   8.517  -2.101  0.00  0.00     0.032 H 
ATOM      8  C   LIG d   1      10.255   8.818  -3.571  0.00  0.00    -0.031 C 
ATOM      9  H   LIG d   1       9.933   7.749  -3.765  0.00  0.00     0.031 H 
ATOM     10  C   LIG d   1       9.481   9.608  -4.614  0.00  0.00    -0.049 C 
ATOM     11  C   LIG d   1       9.541   8.851  -5.940  0.00  0.00    -0.049 C 
ATOM     12  C   LIG d   1      10.636   7.779  -5.941  0.00  0.00    -0.029 C 
ATOM     13  H   LIG d   1      10.281   6.923  -5.352  0.00  0.00     0.031 H 
ATOM     14  C   LIG d   1      11.939   8.280  -5.339  0.00  0.00    -0.023 C 
ATOM     15  C   LIG d   1      11.739   8.798  -3.900  0.00  0.00    -0.023 C 
ATOM     16  C   LIG d   1      12.438   7.870  -2.899  0.00  0.00    -0.046 C 
ATOM     17  C   LIG d   1      12.167   8.341  -1.471  0.00  0.00    -0.036 C 
ATOM     18  C   LIG d   1      12.539   9.369  -6.231  0.00  0.00    -0.047 C 
ATOM     19  C   LIG d   1      12.777   8.802  -7.642  0.00  0.00    -0.048 C 
ATOM     20  C   LIG d   1      11.441   8.386  -8.242  0.00  0.00    -0.027 C 
ATOM     21  H   LIG d   1      10.783   9.290  -8.202  0.00  0.00     0.031 H 
ATOM     22  C   LIG d   1      10.757   7.314  -7.402  0.00  0.00    -0.021 C 
ATOM     23  C   LIG d   1       9.314   7.196  -7.957  0.00  0.00    -0.019 C 
ATOM     24  C   LIG d   1       9.408   6.780  -9.399  0.00  0.00    -0.019 C 
ATOM     25  C   LIG d   1      10.434   7.141 -10.176  0.00  0.00    -0.120 C 
ATOM     26  C   LIG d   1      11.564   8.014  -9.711  0.00  0.00    -0.020 C 
ATOM     27  O   LIG d   1      10.457   6.698 -11.447  0.00  0.00    -0.876 OA
ATOM     28  H   LIG d   1      11.345  10.957  -0.494  0.00  0.00     0.027 H 
ATOM     29  H   LIG d   1       9.824  11.128   0.438  0.00  0.00     0.027 H 
ATOM     30  H   LIG d   1      11.375   8.958   0.835  0.00  0.00     0.028 H 
ATOM     31  H   LIG d   1       9.598   8.755   0.718  0.00  0.00     0.028 H 
ATOM     32  H   LIG d   1       8.438   9.707  -4.306  0.00  0.00     0.027 H 
ATOM     33  H   LIG d   1       9.908  10.596  -4.774  0.00  0.00     0.027 H 
ATOM     34  H   LIG d   1       8.573   8.367  -6.102  0.00  0.00     0.027 H 
ATOM     35  H   LIG d   1       9.721   9.560  -6.748  0.00  0.00     0.027 H 
ATOM     36  H   LIG d   1      12.068   6.851  -2.993  0.00  0.00     0.027 H 
ATOM     37  H   LIG d   1      13.523   7.913  -3.035  0.00  0.00     0.027 H 
ATOM     38  H   LIG d   1      12.538   9.349  -1.320  0.00  0.00     0.028 H 
ATOM     39  H   LIG d   1      12.712   7.677  -0.786  0.00  0.00     0.028 H 
ATOM     40  H   LIG d   1      11.862  10.214  -6.315  0.00  0.00     0.027 H 
ATOM     41  H   LIG d   1      13.517   9.679  -5.859  0.00  0.00     0.027 H 
ATOM     42  H   LIG d   1      13.215   9.606  -8.246  0.00  0.00     0.027 H 
ATOM     43  H   LIG d   1      13.480   7.983  -7.598  0.00  0.00     0.027 H 
ATOM     44  H   LIG d   1       8.775   6.450  -7.389  0.00  0.00     0.032 H 
ATOM     45  H   LIG d   1       8.829   8.165  -7.906  0.00  0.00     0.032 H 
ENDROOT
BRANCH   1  46
ATOM     46  C   LIG d   1       9.844  11.595  -2.474  0.00  0.00    -0.076 C 
ATOM     47  C   LIG d   1      11.010  12.187  -2.404  0.00  0.00    -0.099 C 
ATOM     48  H   LIG d   1      11.193  13.088  -2.970  0.00  0.00     0.053 H 
ATOM     49  H   LIG d   1      11.790  11.773  -1.781  0.00  0.00     0.053 H 
BRANCH  46  50
ATOM     50  C   LIG d   1       8.798  12.099  -3.434  0.00  0.00    -0.044 C 
ATOM     51  H   LIG d   1       8.240  11.255  -3.839  0.00  0.00     0.027 H 
ATOM     52  H   LIG d   1       8.116  12.769  -2.910  0.00  0.00     0.027 H 
ATOM     53  H   LIG d   1       9.283  12.638  -4.248  0.00  0.00     0.027 H 
ENDBRANCH  46  50
ENDBRANCH   1  46
BRANCH   5  54
ATOM     54  C   LIG d   1      10.204   6.842  -0.973  0.00  0.00     0.313 C 
ATOM     55  O   LIG d   1      10.311   6.281   0.093  0.00  0.00    -0.250 OA
BRANCH  54  56
ATOM     56  O   LIG d   1       9.662   6.198  -2.018  0.00  0.00    -0.468 OA
BRANCH  56  57
ATOM     57  C   LIG d   1      10.244   4.945  -2.382  0.00  0.00     0.082 C 
ATOM     58  H   LIG d   1       9.465   4.272  -2.738  0.00  0.00     0.066 H 
ATOM     59  H   LIG d   1      10.978   5.101  -3.171  0.00  0.00     0.066 H 
ATOM     60  H   LIG d   1      10.733   4.506  -1.512  0.00  0.00     0.066 H 
ENDBRANCH  56  57
ENDBRANCH  54  56
ENDBRANCH   5  54
BRANCH  15  61
ATOM     61  C   LIG d   1      12.356  10.192  -3.768  0.00  0.00    -0.059 C 
ATOM     62  H   LIG d   1      12.801  10.299  -2.777  0.00  0.00     0.024 H 
ATOM     63  H   LIG d   1      13.127  10.321  -4.528  0.00  0.00     0.024 H 
ATOM     64  H   LIG d   1      11.582  10.946  -3.902  0.00  0.00     0.024 H 
ENDBRANCH  15  61
BRANCH  14  65
ATOM     65  C   LIG d   1      12.970   7.135  -5.265  0.00  0.00    -0.059 C 
ATOM     66  H   LIG d   1      12.643   6.399  -4.531  0.00  0.00     0.024 H 
ATOM     67  H   LIG d   1      13.057   6.661  -6.242  0.00  0.00     0.024 H 
ATOM     68  H   LIG d   1      13.938   7.538  -4.970  0.00  0.00     0.024 H 
ENDBRANCH  14  65
BRANCH  22  69
ATOM     69  C   LIG d   1      11.395   5.935  -7.518  0.00  0.00    -0.059 C 
ATOM     70  H   LIG d   1      10.632   5.203  -7.784  0.00  0.00     0.024 H 
ATOM     71  H   LIG d   1      12.164   5.955  -8.289  0.00  0.00     0.024 H 
ATOM     72  H   LIG d   1      11.845   5.661  -6.563  0.00  0.00     0.024 H 
ENDBRANCH  22  69
BRANCH  26  73
ATOM     73  C   LIG d   1      11.506   9.312 -10.544  0.00  0.00    -0.057 C 
ATOM     74  H   LIG d   1      10.687   9.248 -11.260  0.00  0.00     0.024 H 
ATOM     75  H   LIG d   1      11.345  10.162  -9.882  0.00  0.00     0.024 H 
ATOM     76  H   LIG d   1      12.447   9.442 -11.080  0.00  0.00     0.024 H 
ENDBRANCH  26  73
BRANCH  26  77
ATOM     77  C   LIG d   1      12.892   7.326 -10.025  0.00  0.00    -0.057 C 
ATOM     78  H   LIG d   1      13.230   6.772  -9.149  0.00  0.00     0.024 H 
ATOM     79  H   LIG d   1      12.758   6.639 -10.860  0.00  0.00     0.024 H 
ATOM     80  H   LIG d   1      13.636   8.077 -10.290  0.00  0.00     0.024 H 
ENDBRANCH  26  77
BRANCH  24  81
ATOM     81  C   LIG d   1       8.383   5.992  -9.941  0.00  0.00     0.145 C 
ATOM     82  O   LIG d   1       8.321   4.808  -9.674  0.00  0.00    -0.296 OA
ATOM     83  H   LIG d   1       7.649   6.436 -10.597  0.00  0.00     0.108 H 
ENDBRANCH  24  81
TORSDOF 11
ENDMDL
MODEL 7
REMARK VINA RESULT:      -5.3      9.328     13.113
REMARK  11 active torsions:
REMARK  status: ('A' for Active; 'I' for Inactive)
REMARK    1  A    between atoms: C_1  and  C_2 
REMARK    2  A    between atoms: C_2  and  C_4 
REMARK    3  A    between atoms: C_8  and  C_38 
REMARK    4  A    between atoms: C_17  and  C_37 
REMARK    5  A    between atoms: C_18  and  C_21 
REMARK    6  A    between atoms: C_26  and  C_36 
REMARK    7  A    between atoms: C_28  and  C_34 
REMARK    8  A    between atoms: C_30  and  C_31 
REMARK    9  A    between atoms: C_30  and  C_32 
REMARK   10  A    between atoms: C_38  and  O_40 
REMARK   11  A    between atoms: O_40  and  C_41 
ROOT
ATOM      1  C   LIG d   1      10.102  10.085  -4.196  0.00  0.00    -0.016 C 
ATOM      2  H   LIG d   1       9.090  10.542  -4.177  0.00  0.00     0.035 H 
ATOM      3  C   LIG d   1      11.086  11.151  -3.647  0.00  0.00    -0.045 C 
ATOM      4  C   LIG d   1      11.078  10.911  -2.122  0.00  0.00    -0.036 C 
ATOM      5  C   LIG d   1      10.982   9.362  -2.000  0.00  0.00     0.071 C 
ATOM      6  C   LIG d   1      10.128   8.939  -3.211  0.00  0.00    -0.015 C 
ATOM      7  H   LIG d   1       9.076   8.933  -2.782  0.00  0.00     0.032 H 
ATOM      8  C   LIG d   1      10.330   7.523  -3.628  0.00  0.00    -0.031 C 
ATOM      9  H   LIG d   1       9.845   6.938  -2.788  0.00  0.00     0.031 H 
ATOM     10  C   LIG d   1       9.545   7.085  -4.855  0.00  0.00    -0.049 C 
ATOM     11  C   LIG d   1       9.336   5.574  -4.783  0.00  0.00    -0.049 C 
ATOM     12  C   LIG d   1      10.266   4.912  -3.761  0.00  0.00    -0.029 C 
ATOM     13  H   LIG d   1       9.875   5.116  -2.755  0.00  0.00     0.031 H 
ATOM     14  C   LIG d   1      11.690   5.437  -3.848  0.00  0.00    -0.023 C 
ATOM     15  C   LIG d   1      11.744   6.967  -3.666  0.00  0.00    -0.023 C 
ATOM     16  C   LIG d   1      12.432   7.321  -2.341  0.00  0.00    -0.046 C 
ATOM     17  C   LIG d   1      12.409   8.833  -2.126  0.00  0.00    -0.036 C 
ATOM     18  C   LIG d   1      12.314   5.025  -5.184  0.00  0.00    -0.047 C 
ATOM     19  C   LIG d   1      12.294   3.492  -5.308  0.00  0.00    -0.048 C 
ATOM     20  C   LIG d   1      10.850   3.011  -5.297  0.00  0.00    -0.027 C 
ATOM     21  H   LIG d   1      10.331   3.558  -6.124  0.00  0.00     0.031 H 
ATOM     22  C   LIG d   1      10.139   3.399  -4.006  0.00  0.00    -0.021 C 
ATOM     23  C   LIG d   1       8.635   3.108  -4.247  0.00  0.00    -0.019 C 
ATOM     24  C   LIG d   1       8.490   1.638  -4.528  0.00  0.00    -0.019 C 
ATOM     25  C   LIG d   1       9.449   0.934  -5.137  0.00  0.00    -0.120 C 
ATOM     26  C   LIG d   1      10.736   1.532  -5.628  0.00  0.00    -0.020 C 
ATOM     27  O   LIG d   1       9.251  -0.385  -5.321  0.00  0.00    -0.876 OA
ATOM     28  H   LIG d   1      12.077  10.986  -4.056  0.00  0.00     0.027 H 
ATOM     29  H   LIG d   1      10.723  12.147  -3.881  0.00  0.00     0.027 H 
ATOM     30  H   LIG d   1      12.004  11.274  -1.674  0.00  0.00     0.028 H 
ATOM     31  H   LIG d   1      10.215  11.389  -1.661  0.00  0.00     0.028 H 
ATOM     32  H   LIG d   1       8.572   7.582  -4.868  0.00  0.00     0.027 H 
ATOM     33  H   LIG d   1      10.078   7.305  -5.777  0.00  0.00     0.027 H 
ATOM     34  H   LIG d   1       8.298   5.385  -4.488  0.00  0.00     0.027 H 
ATOM     35  H   LIG d   1       9.506   5.142  -5.769  0.00  0.00     0.027 H 
ATOM     36  H   LIG d   1      11.919   6.854  -1.503  0.00  0.00     0.027 H 
ATOM     37  H   LIG d   1      13.487   7.032  -2.372  0.00  0.00     0.027 H 
ATOM     38  H   LIG d   1      12.929   9.345  -2.928  0.00  0.00     0.028 H 
ATOM     39  H   LIG d   1      12.940   9.051  -1.189  0.00  0.00     0.028 H 
ATOM     40  H   LIG d   1      11.753   5.441  -6.015  0.00  0.00     0.027 H 
ATOM     41  H   LIG d   1      13.365   5.320  -5.227  0.00  0.00     0.027 H 
ATOM     42  H   LIG d   1      12.758   3.237  -6.269  0.00  0.00     0.027 H 
ATOM     43  H   LIG d   1      12.881   3.049  -4.515  0.00  0.00     0.027 H 
ATOM     44  H   LIG d   1       8.076   3.374  -3.360  0.00  0.00     0.032 H 
ATOM     45  H   LIG d   1       8.296   3.663  -5.114  0.00  0.00     0.032 H 
ENDROOT
BRANCH   1  46
ATOM     46  C   LIG d   1      10.439   9.783  -5.620  0.00  0.00    -0.076 C 
ATOM     47  C   LIG d   1      11.665   9.947  -6.051  0.00  0.00    -0.099 C 
ATOM     48  H   LIG d   1      11.892   9.812  -7.099  0.00  0.00     0.053 H 
ATOM     49  H   LIG d   1      12.450  10.217  -5.360  0.00  0.00     0.053 H 
BRANCH  46  50
ATOM     50  C   LIG d   1       9.370   9.288  -6.559  0.00  0.00    -0.044 C 
ATOM     51  H   LIG d   1       8.939  10.133  -7.096  0.00  0.00     0.027 H 
ATOM     52  H   LIG d   1       9.807   8.588  -7.271  0.00  0.00     0.027 H 
ATOM     53  H   LIG d   1       8.589   8.785  -5.988  0.00  0.00     0.027 H 
ENDBRANCH  46  50
ENDBRANCH   1  46
BRANCH   5  54
ATOM     54  C   LIG d   1      10.340   8.953  -0.694  0.00  0.00     0.313 C 
ATOM     55  O   LIG d   1       9.322   8.302  -0.699  0.00  0.00    -0.250 OA
BRANCH  54  56
ATOM     56  O   LIG d   1      10.899   9.314   0.472  0.00  0.00    -0.468 OA
BRANCH  56  57
ATOM     57  C   LIG d   1      11.340   8.262   1.333  0.00  0.00     0.082 C 
ATOM     58  H   LIG d   1      11.139   8.532   2.369  0.00  0.00     0.066 H 
ATOM     59  H   LIG d   1      10.808   7.344   1.086  0.00  0.00     0.066 H 
ATOM     60  H   LIG d   1      12.411   8.108   1.200  0.00  0.00     0.066 H 
ENDBRANCH  56  57
ENDBRANCH  54  56
ENDBRANCH   5  54
BRANCH  15  61
ATOM     61  C   LIG d   1      12.557   7.590  -4.804  0.00  0.00    -0.059 C 
ATOM     62  H   LIG d   1      12.021   8.453  -5.202  0.00  0.00     0.024 H 
ATOM     63  H   LIG d   1      13.527   7.908  -4.425  0.00  0.00     0.024 H 
ATOM     64  H   LIG d   1      12.698   6.854  -5.595  0.00  0.00     0.024 H 
ENDBRANCH  15  61
BRANCH  14  65
ATOM     65  C   LIG d   1      12.558   4.820  -2.733  0.00  0.00    -0.059 C 
ATOM     66  H   LIG d   1      13.498   4.468  -3.158  0.00  0.00     0.024 H 
ATOM     67  H   LIG d   1      12.762   5.573  -1.973  0.00  0.00     0.024 H 
ATOM     68  H   LIG d   1      12.027   3.983  -2.281  0.00  0.00     0.024 H 
ENDBRANCH  14  65
BRANCH  22  69
ATOM     69  C   LIG d   1      10.565   2.580  -2.794  0.00  0.00    -0.059 C 
ATOM     70  H   LIG d   1      10.230   3.077  -1.884  0.00  0.00     0.024 H 
ATOM     71  H   LIG d   1      10.118   1.588  -2.851  0.00  0.00     0.024 H 
ATOM     72  H   LIG d   1      11.651   2.490  -2.781  0.00  0.00     0.024 H 
ENDBRANCH  22  69
BRANCH  26  73
ATOM     73  C   LIG d   1      10.749   1.379  -7.164  0.00  0.00    -0.057 C 
ATOM     74  H   LIG d   1      11.300   2.208  -7.607  0.00  0.00     0.024 H 
ATOM     75  H   LIG d   1      11.231   0.438  -7.431  0.00  0.00     0.024 H 
ATOM     76  H   LIG d   1       9.725   1.381  -7.538  0.00  0.00     0.024 H 
ENDBRANCH  26  73
BRANCH  26  77
ATOM     77  C   LIG d   1      11.909   0.723  -5.076  0.00  0.00    -0.057 C 
ATOM     78  H   LIG d   1      12.711   1.400  -4.781  0.00  0.00     0.024 H 
ATOM     79  H   LIG d   1      11.580   0.150  -4.209  0.00  0.00     0.024 H 
ATOM     80  H   LIG d   1      12.273   0.041  -5.844  0.00  0.00     0.024 H 
ENDBRANCH  26  77
BRANCH  24  81
ATOM     81  C   LIG d   1       7.308   0.991  -4.141  0.00  0.00     0.145 C 
ATOM     82  O   LIG d   1       6.566   1.515  -3.333  0.00  0.00    -0.296 OA
ATOM     83  H   LIG d   1       7.057   0.028  -4.559  0.00  0.00     0.108 H 
ENDBRANCH  24  81
TORSDOF 11
ENDMDL
MODEL 8
REMARK VINA RESULT:      -5.3      9.805     13.689
REMARK  11 active torsions:
REMARK  status: ('A' for Active; 'I' for Inactive)
REMARK    1  A    between atoms: C_1  and  C_2 
REMARK    2  A    between atoms: C_2  and  C_4 
REMARK    3  A    between atoms: C_8  and  C_38 
REMARK    4  A    between atoms: C_17  and  C_37 
REMARK    5  A    between atoms: C_18  and  C_21 
REMARK    6  A    between atoms: C_26  and  C_36 
REMARK    7  A    between atoms: C_28  and  C_34 
REMARK    8  A    between atoms: C_30  and  C_31 
REMARK    9  A    between atoms: C_30  and  C_32 
REMARK   10  A    between atoms: C_38  and  O_40 
REMARK   11  A    between atoms: O_40  and  C_41 
ROOT
ATOM      1  C   LIG d   1      10.662  10.092  -1.792  0.00  0.00    -0.016 C 
ATOM      2  H   LIG d   1       9.676  10.495  -1.474  0.00  0.00     0.035 H 
ATOM      3  C   LIG d   1      11.745  10.933  -1.068  0.00  0.00    -0.045 C 
ATOM      4  C   LIG d   1      11.951  10.196   0.273  0.00  0.00    -0.036 C 
ATOM      5  C   LIG d   1      11.828   8.694  -0.118  0.00  0.00     0.071 C 
ATOM      6  C   LIG d   1      10.796   8.683  -1.262  0.00  0.00    -0.015 C 
ATOM      7  H   LIG d   1       9.817   8.512  -0.711  0.00  0.00     0.032 H 
ATOM      8  C   LIG d   1      10.895   7.493  -2.153  0.00  0.00    -0.031 C 
ATOM      9  H   LIG d   1      10.520   6.650  -1.496  0.00  0.00     0.031 H 
ATOM     10  C   LIG d   1       9.928   7.475  -3.328  0.00  0.00    -0.049 C 
ATOM     11  C   LIG d   1       9.688   6.023  -3.735  0.00  0.00    -0.049 C 
ATOM     12  C   LIG d   1      10.737   5.077  -3.141  0.00  0.00    -0.029 C 
ATOM     13  H   LIG d   1      10.501   4.924  -2.079  0.00  0.00     0.031 H 
ATOM     14  C   LIG d   1      12.148   5.631  -3.254  0.00  0.00    -0.023 C 
ATOM     15  C   LIG d   1      12.272   7.012  -2.581  0.00  0.00    -0.023 C 
ATOM     16  C   LIG d   1      13.154   6.916  -1.329  0.00  0.00    -0.046 C 
ATOM     17  C   LIG d   1      13.206   8.269  -0.620  0.00  0.00    -0.036 C 
ATOM     18  C   LIG d   1      12.560   5.704  -4.726  0.00  0.00    -0.047 C 
ATOM     19  C   LIG d   1      12.478   4.300  -5.351  0.00  0.00    -0.048 C 
ATOM     20  C   LIG d   1      11.037   3.813  -5.292  0.00  0.00    -0.027 C 
ATOM     21  H   LIG d   1      10.420   4.594  -5.803  0.00  0.00     0.031 H 
ATOM     22  C   LIG d   1      10.531   3.731  -3.856  0.00  0.00    -0.021 C 
ATOM     23  C   LIG d   1       9.001   3.505  -3.958  0.00  0.00    -0.019 C 
ATOM     24  C   LIG d   1       8.774   2.212  -4.691  0.00  0.00    -0.019 C 
ATOM     25  C   LIG d   1       9.614   1.773  -5.633  0.00  0.00    -0.120 C 
ATOM     26  C   LIG d   1      10.833   2.528  -6.078  0.00  0.00    -0.020 C 
ATOM     27  O   LIG d   1       9.354   0.588  -6.217  0.00  0.00    -0.876 OA
ATOM     28  H   LIG d   1      12.662  10.936  -1.649  0.00  0.00     0.027 H 
ATOM     29  H   LIG d   1      11.381  11.942  -0.899  0.00  0.00     0.027 H 
ATOM     30  H   LIG d   1      12.942  10.407   0.676  0.00  0.00     0.028 H 
ATOM     31  H   LIG d   1      11.178  10.474   0.988  0.00  0.00     0.028 H 
ATOM     32  H   LIG d   1       8.979   7.926  -3.032  0.00  0.00     0.027 H 
ATOM     33  H   LIG d   1      10.329   8.002  -4.190  0.00  0.00     0.027 H 
ATOM     34  H   LIG d   1       8.698   5.724  -3.373  0.00  0.00     0.027 H 
ATOM     35  H   LIG d   1       9.702   5.950  -4.822  0.00  0.00     0.027 H 
ATOM     36  H   LIG d   1      12.754   6.185  -0.630  0.00  0.00     0.027 H 
ATOM     37  H   LIG d   1      14.184   6.677  -1.608  0.00  0.00     0.027 H 
ATOM     38  H   LIG d   1      13.619   9.030  -1.272  0.00  0.00     0.028 H 
ATOM     39  H   LIG d   1      13.874   8.171   0.248  0.00  0.00     0.028 H 
ATOM     40  H   LIG d   1      11.897   6.361  -5.280  0.00  0.00     0.027 H 
ATOM     41  H   LIG d   1      13.601   6.018  -4.821  0.00  0.00     0.027 H 
ATOM     42  H   LIG d   1      12.790   4.392  -6.400  0.00  0.00     0.027 H 
ATOM     43  H   LIG d   1      13.159   3.630  -4.847  0.00  0.00     0.027 H 
ATOM     44  H   LIG d   1       8.583   3.447  -2.962  0.00  0.00     0.032 H 
ATOM     45  H   LIG d   1       8.556   4.311  -4.531  0.00  0.00     0.032 H 
ENDROOT
BRANCH   1  46
ATOM     46  C   LIG d   1      10.781  10.291  -3.268  0.00  0.00    -0.076 C 
ATOM     47  C   LIG d   1      11.949  10.551  -3.802  0.00  0.00    -0.099 C 
ATOM     48  H   LIG d   1      12.023  10.780  -4.854  0.00  0.00     0.053 H 
ATOM     49  H   LIG d   1      12.838  10.535  -3.189  0.00  0.00     0.053 H 
BRANCH  46  50
ATOM     50  C   LIG d   1       9.558  10.192  -4.143  0.00  0.00    -0.044 C 
ATOM     51  H   LIG d   1       9.511  11.061  -4.800  0.00  0.00     0.027 H 
ATOM     52  H   LIG d   1       9.612   9.284  -4.743  0.00  0.00     0.027 H 
ATOM     53  H   LIG d   1       8.666  10.162  -3.518  0.00  0.00     0.027 H 
ENDBRANCH  46  50
ENDBRANCH   1  46
BRANCH   5  54
ATOM     54  C   LIG d   1      11.370   7.858   1.056  0.00  0.00     0.313 C 
ATOM     55  O   LIG d   1      11.697   8.162   2.179  0.00  0.00    -0.250 OA
BRANCH  54  56
ATOM     56  O   LIG d   1      10.600   6.777   0.851  0.00  0.00    -0.468 OA
BRANCH  56  57
ATOM     57  C   LIG d   1      10.991   5.568   1.506  0.00  0.00     0.082 C 
ATOM     58  H   LIG d   1      12.054   5.609   1.739  0.00  0.00     0.066 H 
ATOM     59  H   LIG d   1      10.421   5.455   2.427  0.00  0.00     0.066 H 
ATOM     60  H   LIG d   1      10.795   4.721   0.850  0.00  0.00     0.066 H 
ENDBRANCH  56  57
ENDBRANCH  54  56
ENDBRANCH   5  54
BRANCH  15  61
ATOM     61  C   LIG d   1      12.929   7.998  -3.550  0.00  0.00    -0.059 C 
ATOM     62  H   LIG d   1      13.379   7.447  -4.377  0.00  0.00     0.024 H 
ATOM     63  H   LIG d   1      12.175   8.683  -3.937  0.00  0.00     0.024 H 
ATOM     64  H   LIG d   1      13.701   8.562  -3.027  0.00  0.00     0.024 H 
ENDBRANCH  15  61
BRANCH  14  65
ATOM     65  C   LIG d   1      13.150   4.695  -2.549  0.00  0.00    -0.059 C 
ATOM     66  H   LIG d   1      13.736   4.160  -3.296  0.00  0.00     0.024 H 
ATOM     67  H   LIG d   1      13.815   5.283  -1.918  0.00  0.00     0.024 H 
ATOM     68  H   LIG d   1      12.605   3.979  -1.933  0.00  0.00     0.024 H 
ENDBRANCH  14  65
BRANCH  22  69
ATOM     69  C   LIG d   1      11.104   2.563  -3.064  0.00  0.00    -0.059 C 
ATOM     70  H   LIG d   1      10.951   1.637  -3.620  0.00  0.00     0.024 H 
ATOM     71  H   LIG d   1      12.171   2.719  -2.906  0.00  0.00     0.024 H 
ATOM     72  H   LIG d   1      10.600   2.495  -2.100  0.00  0.00     0.024 H 
ENDBRANCH  22  69
BRANCH  26  73
ATOM     73  C   LIG d   1      10.620   2.898  -7.561  0.00  0.00    -0.057 C 
ATOM     74  H   LIG d   1      11.544   3.308  -7.969  0.00  0.00     0.024 H 
ATOM     75  H   LIG d   1      10.338   2.008  -8.121  0.00  0.00     0.024 H 
ATOM     76  H   LIG d   1       9.827   3.643  -7.639  0.00  0.00     0.024 H 
ENDBRANCH  26  73
BRANCH  26  77
ATOM     77  C   LIG d   1      12.050   1.606  -6.005  0.00  0.00    -0.057 C 
ATOM     78  H   LIG d   1      12.248   1.188  -6.993  0.00  0.00     0.024 H 
ATOM     79  H   LIG d   1      12.917   2.173  -5.669  0.00  0.00     0.024 H 
ATOM     80  H   LIG d   1      11.851   0.797  -5.302  0.00  0.00     0.024 H 
ENDBRANCH  26  77
BRANCH  24  81
ATOM     81  C   LIG d   1       7.642   1.448  -4.374  0.00  0.00     0.145 C 
ATOM     82  O   LIG d   1       6.880   1.822  -3.504  0.00  0.00    -0.296 OA
ATOM     83  H   LIG d   1       7.447   0.526  -4.902  0.00  0.00     0.108 H 
ENDBRANCH  24  81
TORSDOF 11
ENDMDL
MODEL 9
REMARK VINA RESULT:      -5.3      9.564     14.123
REMARK  11 active torsions:
REMARK  status: ('A' for Active; 'I' for Inactive)
REMARK    1  A    between atoms: C_1  and  C_2 
REMARK    2  A    between atoms: C_2  and  C_4 
REMARK    3  A    between atoms: C_8  and  C_38 
REMARK    4  A    between atoms: C_17  and  C_37 
REMARK    5  A    between atoms: C_18  and  C_21 
REMARK    6  A    between atoms: C_26  and  C_36 
REMARK    7  A    between atoms: C_28  and  C_34 
REMARK    8  A    between atoms: C_30  and  C_31 
REMARK    9  A    between atoms: C_30  and  C_32 
REMARK   10  A    between atoms: C_38  and  O_40 
REMARK   11  A    between atoms: O_40  and  C_41 
ROOT
ATOM      1  C   LIG d   1       9.063   2.265  -7.127  0.00  0.00    -0.016 C 
ATOM      2  H   LIG d   1       7.999   2.333  -7.443  0.00  0.00     0.035 H 
ATOM      3  C   LIG d   1       9.827   1.559  -8.276  0.00  0.00    -0.045 C 
ATOM      4  C   LIG d   1      10.248   2.717  -9.207  0.00  0.00    -0.036 C 
ATOM      5  C   LIG d   1      10.600   3.866  -8.218  0.00  0.00     0.071 C 
ATOM      6  C   LIG d   1       9.627   3.664  -7.040  0.00  0.00    -0.015 C 
ATOM      7  H   LIG d   1       8.747   4.324  -7.329  0.00  0.00     0.032 H 
ATOM      8  C   LIG d   1      10.094   4.266  -5.760  0.00  0.00    -0.031 C 
ATOM      9  H   LIG d   1       9.996   5.379  -5.951  0.00  0.00     0.031 H 
ATOM     10  C   LIG d   1       9.185   4.039  -4.562  0.00  0.00    -0.049 C 
ATOM     11  C   LIG d   1       9.409   5.172  -3.562  0.00  0.00    -0.049 C 
ATOM     12  C   LIG d   1      10.698   5.948  -3.851  0.00  0.00    -0.029 C 
ATOM     13  H   LIG d   1      10.518   6.607  -4.711  0.00  0.00     0.031 H 
ATOM     14  C   LIG d   1      11.867   5.032  -4.173  0.00  0.00    -0.023 C 
ATOM     15  C   LIG d   1      11.553   4.108  -5.368  0.00  0.00    -0.023 C 
ATOM     16  C   LIG d   1      12.417   4.491  -6.577  0.00  0.00    -0.046 C 
ATOM     17  C   LIG d   1      12.043   3.628  -7.781  0.00  0.00    -0.036 C 
ATOM     18  C   LIG d   1      12.242   4.213  -2.936  0.00  0.00    -0.047 C 
ATOM     19  C   LIG d   1      12.603   5.165  -1.782  0.00  0.00    -0.048 C 
ATOM     20  C   LIG d   1      11.384   6.009  -1.434  0.00  0.00    -0.027 C 
ATOM     21  H   LIG d   1      10.557   5.289  -1.211  0.00  0.00     0.031 H 
ATOM     22  C   LIG d   1      10.924   6.845  -2.622  0.00  0.00    -0.021 C 
ATOM     23  C   LIG d   1       9.540   7.420  -2.225  0.00  0.00    -0.019 C 
ATOM     24  C   LIG d   1       9.729   8.271  -1.000  0.00  0.00    -0.019 C 
ATOM     25  C   LIG d   1      10.668   8.002  -0.086  0.00  0.00    -0.120 C 
ATOM     26  C   LIG d   1      11.593   6.823  -0.168  0.00  0.00    -0.020 C 
ATOM     27  O   LIG d   1      10.791   8.834   0.964  0.00  0.00    -0.876 OA
ATOM     28  H   LIG d   1      10.700   1.048  -7.882  0.00  0.00     0.027 H 
ATOM     29  H   LIG d   1       9.167   0.871  -8.795  0.00  0.00     0.027 H 
ATOM     30  H   LIG d   1      11.122   2.436  -9.795  0.00  0.00     0.028 H 
ATOM     31  H   LIG d   1       9.424   3.007  -9.858  0.00  0.00     0.028 H 
ATOM     32  H   LIG d   1       8.141   4.047  -4.883  0.00  0.00     0.027 H 
ATOM     33  H   LIG d   1       9.404   3.101  -4.058  0.00  0.00     0.027 H 
ATOM     34  H   LIG d   1       8.560   5.860  -3.627  0.00  0.00     0.027 H 
ATOM     35  H   LIG d   1       9.449   4.756  -2.555  0.00  0.00     0.027 H 
ATOM     36  H   LIG d   1      12.261   5.533  -6.848  0.00  0.00     0.027 H 
ATOM     37  H   LIG d   1      13.471   4.287  -6.370  0.00  0.00     0.027 H 
ATOM     38  H   LIG d   1      12.201   2.577  -7.567  0.00  0.00     0.028 H 
ATOM     39  H   LIG d   1      12.705   3.904  -8.614  0.00  0.00     0.028 H 
ATOM     40  H   LIG d   1      11.409   3.593  -2.618  0.00  0.00     0.027 H 
ATOM     41  H   LIG d   1      13.134   3.612  -3.125  0.00  0.00     0.027 H 
ATOM     42  H   LIG d   1      12.874   4.542  -0.920  0.00  0.00     0.027 H 
ATOM     43  H   LIG d   1      13.457   5.768  -2.053  0.00  0.00     0.027 H 
ATOM     44  H   LIG d   1       9.158   8.021  -3.039  0.00  0.00     0.032 H 
ATOM     45  H   LIG d   1       8.869   6.604  -1.981  0.00  0.00     0.032 H 
ENDROOT
BRANCH   1  46
ATOM     46  C   LIG d   1       9.119   1.418  -5.897  0.00  0.00    -0.076 C 
ATOM     47  C   LIG d   1      10.123   0.596  -5.714  0.00  0.00    -0.099 C 
ATOM     48  H   LIG d   1      10.122  -0.078  -4.870  0.00  0.00     0.053 H 
ATOM     49  H   LIG d   1      10.952   0.594  -6.406  0.00  0.00     0.053 H 
BRANCH  46  50
ATOM     50  C   LIG d   1       8.022   1.509  -4.868  0.00  0.00    -0.044 C 
ATOM     51  H   LIG d   1       7.053   1.491  -5.368  0.00  0.00     0.027 H 
ATOM     52  H   LIG d   1       8.094   0.664  -4.184  0.00  0.00     0.027 H 
ATOM     53  H   LIG d   1       8.125   2.439  -4.309  0.00  0.00     0.027 H 
ENDBRANCH  46  50
ENDBRANCH   1  46
BRANCH   5  54
ATOM     54  C   LIG d   1      10.420   5.221  -8.865  0.00  0.00     0.313 C 
ATOM     55  O   LIG d   1      11.312   5.697  -9.527  0.00  0.00    -0.250 OA
BRANCH  54  56
ATOM     56  O   LIG d   1       9.270   5.895  -8.704  0.00  0.00    -0.468 OA
BRANCH  56  57
ATOM     57  C   LIG d   1       8.368   5.915  -9.812  0.00  0.00     0.082 C 
ATOM     58  H   LIG d   1       8.595   6.768 -10.450  0.00  0.00     0.066 H 
ATOM     59  H   LIG d   1       8.476   4.994 -10.384  0.00  0.00     0.066 H 
ATOM     60  H   LIG d   1       7.345   5.997  -9.446  0.00  0.00     0.066 H 
ENDBRANCH  56  57
ENDBRANCH  54  56
ENDBRANCH   5  54
BRANCH  15  61
ATOM     61  C   LIG d   1      11.875   2.660  -4.994  0.00  0.00    -0.059 C 
ATOM     62  H   LIG d   1      10.952   2.138  -4.736  0.00  0.00     0.024 H 
ATOM     63  H   LIG d   1      12.350   2.163  -5.840  0.00  0.00     0.024 H 
ATOM     64  H   LIG d   1      12.550   2.647  -4.138  0.00  0.00     0.024 H 
ENDBRANCH  15  61
BRANCH  14  65
ATOM     65  C   LIG d   1      13.108   5.862  -4.560  0.00  0.00    -0.059 C 
ATOM     66  H   LIG d   1      12.863   6.511  -5.401  0.00  0.00     0.024 H 
ATOM     67  H   LIG d   1      13.418   6.469  -3.711  0.00  0.00     0.024 H 
ATOM     68  H   LIG d   1      13.919   5.192  -4.843  0.00  0.00     0.024 H 
ENDBRANCH  14  65
BRANCH  22  69
ATOM     69  C   LIG d   1      11.829   8.031  -2.932  0.00  0.00    -0.059 C 
ATOM     70  H   LIG d   1      11.218   8.901  -3.172  0.00  0.00     0.024 H 
ATOM     71  H   LIG d   1      12.449   8.251  -2.064  0.00  0.00     0.024 H 
ATOM     72  H   LIG d   1      12.467   7.789  -3.783  0.00  0.00     0.024 H 
ENDBRANCH  22  69
BRANCH  26  73
ATOM     73  C   LIG d   1      11.281   5.918   1.044  0.00  0.00    -0.057 C 
ATOM     74  H   LIG d   1      12.112   5.954   1.748  0.00  0.00     0.024 H 
ATOM     75  H   LIG d   1      10.373   6.268   1.534  0.00  0.00     0.024 H 
ATOM     76  H   LIG d   1      11.138   4.892   0.703  0.00  0.00     0.024 H 
ENDBRANCH  26  73
BRANCH  26  77
ATOM     77  C   LIG d   1      13.036   7.305  -0.021  0.00  0.00    -0.057 C 
ATOM     78  H   LIG d   1      13.151   8.264  -0.526  0.00  0.00     0.024 H 
ATOM     79  H   LIG d   1      13.275   7.419   1.036  0.00  0.00     0.024 H 
ATOM     80  H   LIG d   1      13.711   6.575  -0.469  0.00  0.00     0.024 H 
ENDBRANCH  26  77
BRANCH  24  81
ATOM     81  C   LIG d   1       8.890   9.378  -0.812  0.00  0.00     0.145 C 
ATOM     82  O   LIG d   1       8.979  10.340  -1.550  0.00  0.00    -0.296 OA
ATOM     83  H   LIG d   1       8.165   9.377  -0.012  0.00  0.00     0.108 H 
ENDBRANCH  24  81
TORSDOF 11
ENDMDL
