MODEL 1
REMARK VINA RESULT:      -5.9      0.000      0.000
REMARK  8 active torsions:
REMARK  status: ('A' for Active; 'I' for Inactive)
REMARK    1  A    between atoms: C_1  and  C_2 
REMARK    2  A    between atoms: C_11  and  C_24 
REMARK    3  A    between atoms: C_16  and  C_17 
REMARK    4  A    between atoms: C_16  and  O_20 
REMARK    5  A    between atoms: C_17  and  C_19 
REMARK    6  A    between atoms: O_20  and  C_21 
REMARK    7  A    between atoms: C_21  and  C_23 
REMARK    8  A    between atoms: C_25  and  C_32 
ROOT
ATOM      1  C   LIG d   1       4.717  -0.054  -3.322  0.00  0.00    -0.021 C 
ATOM      2  H   LIG d   1       4.705  -1.004  -2.788  0.00  0.00     0.034 H 
ATOM      3  C   LIG d   1       3.821  -0.150  -4.547  0.00  0.00    -0.043 C 
ATOM      4  C   LIG d   1       4.586  -0.534  -5.811  0.00  0.00    -0.033 C 
ATOM      5  H   LIG d   1       4.964   0.378  -6.275  0.00  0.00     0.031 H 
ATOM      6  C   LIG d   1       5.770  -1.440  -5.524  0.00  0.00    -0.029 C 
ATOM      7  H   LIG d   1       5.428  -2.334  -5.002  0.00  0.00     0.031 H 
ATOM      8  C   LIG d   1       6.458  -1.828  -6.841  0.00  0.00    -0.049 C 
ATOM      9  C   LIG d   1       5.468  -2.597  -7.714  0.00  0.00    -0.043 C 
ATOM     10  C   LIG d   1       4.268  -1.733  -8.032  0.00  0.00     0.018 C 
ATOM     11  C   LIG d   1       3.584  -1.185  -6.770  0.00  0.00    -0.028 C 
ATOM     12  H   LIG d   1       2.973  -1.937  -6.271  0.00  0.00     0.031 H 
ATOM     13  C   LIG d   1       2.723  -0.027  -7.358  0.00  0.00    -0.045 C 
ATOM     14  C   LIG d   1       3.638   0.605  -8.430  0.00  0.00    -0.005 C 
ATOM     15  C   LIG d   1       4.634  -0.492  -8.856  0.00  0.00     0.176 C 
ATOM     16  C   LIG d   1       6.819  -0.714  -4.671  0.00  0.00    -0.007 C 
ATOM     17  C   LIG d   1       6.127   0.260  -3.756  0.00  0.00    -0.057 C 
ATOM     18  C   LIG d   1       6.731   1.369  -3.342  0.00  0.00    -0.019 C 
ATOM     19  C   LIG d   1       8.091   1.692  -3.772  0.00  0.00     0.156 C 
ATOM     20  O   LIG d   1       8.635   2.697  -3.365  0.00  0.00    -0.293 OA
ATOM     21  C   LIG d   1       8.818   0.773  -4.722  0.00  0.00     0.011 C 
ATOM     22  C   LIG d   1       7.787   0.037  -5.586  0.00  0.00    -0.037 C 
ATOM     23  H   LIG d   1       3.050  -0.897  -4.362  0.00  0.00     0.027 H 
ATOM     24  H   LIG d   1       3.341   0.816  -4.708  0.00  0.00     0.027 H 
ATOM     25  H   LIG d   1       7.321  -2.458  -6.630  0.00  0.00     0.027 H 
ATOM     26  H   LIG d   1       6.782  -0.928  -7.363  0.00  0.00     0.027 H 
ATOM     27  H   LIG d   1       5.139  -3.490  -7.184  0.00  0.00     0.027 H 
ATOM     28  H   LIG d   1       5.958  -2.889  -8.642  0.00  0.00     0.027 H 
ATOM     29  H   LIG d   1       1.814  -0.418  -7.814  0.00  0.00     0.027 H 
ATOM     30  H   LIG d   1       2.481   0.701  -6.583  0.00  0.00     0.027 H 
ATOM     31  H   LIG d   1       3.045   0.926  -9.286  0.00  0.00     0.031 H 
ATOM     32  H   LIG d   1       4.175   1.456  -8.008  0.00  0.00     0.031 H 
ATOM     33  H   LIG d   1       6.210   2.044  -2.679  0.00  0.00     0.065 H 
ATOM     34  H   LIG d   1       9.427   1.311  -5.306  0.00  0.00     0.035 H 
ATOM     35  H   LIG d   1       9.404   0.050  -4.155  0.00  0.00     0.035 H 
ATOM     36  H   LIG d   1       8.298  -0.672  -6.238  0.00  0.00     0.028 H 
ATOM     37  H   LIG d   1       7.235   0.758  -6.189  0.00  0.00     0.028 H 
ENDROOT
BRANCH  15  38
ATOM     38  C   LIG d   1       6.045  -0.061  -8.550  0.00  0.00     0.174 C 
ATOM     39  O   LIG d   1       6.244   0.881  -7.818  0.00  0.00    -0.293 OA
BRANCH  38  40
ATOM     40  C   LIG d   1       7.209  -0.801  -9.156  0.00  0.00    -0.002 C 
ATOM     41  H   LIG d   1       7.031  -0.966 -10.126  0.00  0.00     0.031 H 
ATOM     42  H   LIG d   1       8.115  -0.206  -9.048  0.00  0.00     0.031 H 
ATOM     43  H   LIG d   1       7.339  -1.755  -8.643  0.00  0.00     0.031 H 
ENDBRANCH  38  40
ENDBRANCH  15  38
BRANCH  15  44
ATOM     44  O   LIG d   1       4.494  -0.772 -10.274  0.00  0.00    -0.450 OA
BRANCH  44  45
ATOM     45  C   LIG d   1       3.693   0.041 -10.980  0.00  0.00     0.305 C 
ATOM     46  O   LIG d   1       4.079   1.140 -11.302  0.00  0.00    -0.251 OA
BRANCH  45  47
ATOM     47  C   LIG d   1       2.312  -0.416 -11.372  0.00  0.00     0.033 C 
ATOM     48  H   LIG d   1       2.226  -1.491 -11.213  0.00  0.00     0.034 H 
ATOM     49  H   LIG d   1       1.571   0.101 -10.763  0.00  0.00     0.034 H 
ATOM     50  H   LIG d   1       2.139  -0.190 -12.425  0.00  0.00     0.034 H 
ENDBRANCH  45  47
ENDBRANCH  44  45
ENDBRANCH  15  44
BRANCH  10  51
ATOM     51  C   LIG d   1       3.262  -2.575  -8.820  0.00  0.00    -0.055 C 
ATOM     52  H   LIG d   1       3.593  -2.660  -9.855  0.00  0.00     0.024 H 
ATOM     53  H   LIG d   1       3.195  -3.569  -8.376  0.00  0.00     0.024 H 
ATOM     54  H   LIG d   1       2.284  -2.096  -8.789  0.00  0.00     0.024 H 
ENDBRANCH  10  51
BRANCH  16  55
ATOM     55  C   LIG d   1       7.594  -1.736  -3.836  0.00  0.00    -0.056 C 
ATOM     56  H   LIG d   1       7.165  -1.787  -2.836  0.00  0.00     0.024 H 
ATOM     57  H   LIG d   1       7.530  -2.715  -4.311  0.00  0.00     0.024 H 
ATOM     58  H   LIG d   1       8.639  -1.433  -3.769  0.00  0.00     0.024 H 
ENDBRANCH  16  55
BRANCH   1  59
ATOM     59  C   LIG d   1       4.208   1.056  -2.400  0.00  0.00    -0.059 C 
ATOM     60  H   LIG d   1       3.608   0.618  -1.601  0.00  0.00     0.024 H 
ATOM     61  H   LIG d   1       5.056   1.586  -1.967  0.00  0.00     0.024 H 
ATOM     62  H   LIG d   1       3.597   1.753  -2.973  0.00  0.00     0.024 H 
ENDBRANCH   1  59
TORSDOF 8
ENDMDL
MODEL 2
REMARK VINA RESULT:      -5.6      3.566      5.847
REMARK  8 active torsions:
REMARK  status: ('A' for Active; 'I' for Inactive)
REMARK    1  A    between atoms: C_1  and  C_2 
REMARK    2  A    between atoms: C_11  and  C_24 
REMARK    3  A    between atoms: C_16  and  C_17 
REMARK    4  A    between atoms: C_16  and  O_20 
REMARK    5  A    between atoms: C_17  and  C_19 
REMARK    6  A    between atoms: O_20  and  C_21 
REMARK    7  A    between atoms: C_21  and  C_23 
REMARK    8  A    between atoms: C_25  and  C_32 
ROOT
ATOM      1  C   LIG d   1       7.492  -6.036  -5.663  0.00  0.00    -0.021 C 
ATOM      2  H   LIG d   1       7.790  -6.150  -6.705  0.00  0.00     0.034 H 
ATOM      3  C   LIG d   1       6.239  -5.176  -5.585  0.00  0.00    -0.043 C 
ATOM      4  C   LIG d   1       6.550  -3.700  -5.350  0.00  0.00    -0.033 C 
ATOM      5  H   LIG d   1       6.620  -3.529  -4.275  0.00  0.00     0.031 H 
ATOM      6  C   LIG d   1       7.863  -3.272  -5.980  0.00  0.00    -0.029 C 
ATOM      7  H   LIG d   1       7.844  -3.490  -7.049  0.00  0.00     0.031 H 
ATOM      8  C   LIG d   1       8.083  -1.769  -5.752  0.00  0.00    -0.049 C 
ATOM      9  C   LIG d   1       6.954  -0.992  -6.425  0.00  0.00    -0.043 C 
ATOM     10  C   LIG d   1       5.620  -1.381  -5.828  0.00  0.00     0.018 C 
ATOM     11  C   LIG d   1       5.364  -2.894  -5.892  0.00  0.00    -0.028 C 
ATOM     12  H   LIG d   1       5.070  -3.223  -6.888  0.00  0.00     0.031 H 
ATOM     13  C   LIG d   1       4.211  -3.060  -4.856  0.00  0.00    -0.045 C 
ATOM     14  C   LIG d   1       4.599  -2.096  -3.714  0.00  0.00    -0.005 C 
ATOM     15  C   LIG d   1       5.510  -1.021  -4.340  0.00  0.00     0.176 C 
ATOM     16  C   LIG d   1       9.045  -3.999  -5.326  0.00  0.00    -0.007 C 
ATOM     17  C   LIG d   1       8.605  -5.372  -4.892  0.00  0.00    -0.057 C 
ATOM     18  C   LIG d   1       9.171  -5.984  -3.856  0.00  0.00    -0.019 C 
ATOM     19  C   LIG d   1      10.237  -5.340  -3.091  0.00  0.00     0.156 C 
ATOM     20  O   LIG d   1      10.758  -5.925  -2.165  0.00  0.00    -0.293 OA
ATOM     21  C   LIG d   1      10.690  -3.949  -3.456  0.00  0.00     0.011 C 
ATOM     22  C   LIG d   1       9.523  -3.203  -4.111  0.00  0.00    -0.037 C 
ATOM     23  H   LIG d   1       5.686  -5.275  -6.518  0.00  0.00     0.027 H 
ATOM     24  H   LIG d   1       5.615  -5.537  -4.766  0.00  0.00     0.027 H 
ATOM     25  H   LIG d   1       9.038  -1.471  -6.184  0.00  0.00     0.027 H 
ATOM     26  H   LIG d   1       8.085  -1.558  -4.683  0.00  0.00     0.027 H 
ATOM     27  H   LIG d   1       6.950  -1.213  -7.492  0.00  0.00     0.027 H 
ATOM     28  H   LIG d   1       7.116   0.076  -6.281  0.00  0.00     0.027 H 
ATOM     29  H   LIG d   1       3.257  -2.770  -5.295  0.00  0.00     0.027 H 
ATOM     30  H   LIG d   1       4.169  -4.087  -4.493  0.00  0.00     0.027 H 
ATOM     31  H   LIG d   1       3.706  -1.632  -3.296  0.00  0.00     0.031 H 
ATOM     32  H   LIG d   1       5.138  -2.637  -2.935  0.00  0.00     0.031 H 
ATOM     33  H   LIG d   1       8.837  -6.972  -3.576  0.00  0.00     0.065 H 
ATOM     34  H   LIG d   1      10.980  -3.465  -2.629  0.00  0.00     0.035 H 
ATOM     35  H   LIG d   1      11.526  -4.008  -4.153  0.00  0.00     0.035 H 
ATOM     36  H   LIG d   1       9.855  -2.214  -4.430  0.00  0.00     0.028 H 
ATOM     37  H   LIG d   1       8.707  -3.102  -3.396  0.00  0.00     0.028 H 
ENDROOT
BRANCH  15  38
ATOM     38  C   LIG d   1       6.872  -1.052  -3.695  0.00  0.00     0.174 C 
ATOM     39  O   LIG d   1       7.201  -2.004  -3.027  0.00  0.00    -0.293 OA
BRANCH  38  40
ATOM     40  C   LIG d   1       7.821   0.102  -3.881  0.00  0.00    -0.002 C 
ATOM     41  H   LIG d   1       8.297   0.286  -3.022  0.00  0.00     0.031 H 
ATOM     42  H   LIG d   1       8.549  -0.146  -4.654  0.00  0.00     0.031 H 
ATOM     43  H   LIG d   1       7.261   0.988  -4.183  0.00  0.00     0.031 H 
ENDBRANCH  38  40
ENDBRANCH  15  38
BRANCH  15  44
ATOM     44  O   LIG d   1       4.914   0.294  -4.185  0.00  0.00    -0.450 OA
BRANCH  44  45
ATOM     45  C   LIG d   1       4.060   0.459  -3.163  0.00  0.00     0.305 C 
ATOM     46  O   LIG d   1       2.874   0.300  -3.335  0.00  0.00    -0.251 OA
BRANCH  45  47
ATOM     47  C   LIG d   1       4.578   0.843  -1.802  0.00  0.00     0.033 C 
ATOM     48  H   LIG d   1       3.738   1.016  -1.129  0.00  0.00     0.034 H 
ATOM     49  H   LIG d   1       5.198   0.038  -1.408  0.00  0.00     0.034 H 
ATOM     50  H   LIG d   1       5.171   1.754  -1.882  0.00  0.00     0.034 H 
ENDBRANCH  45  47
ENDBRANCH  44  45
ENDBRANCH  15  44
BRANCH  10  51
ATOM     51  C   LIG d   1       4.516  -0.654  -6.599  0.00  0.00    -0.055 C 
ATOM     52  H   LIG d   1       4.590   0.418  -6.416  0.00  0.00     0.024 H 
ATOM     53  H   LIG d   1       4.628  -0.850  -7.665  0.00  0.00     0.024 H 
ATOM     54  H   LIG d   1       3.543  -1.013  -6.264  0.00  0.00     0.024 H 
ENDBRANCH  10  51
BRANCH  16  55
ATOM     55  C   LIG d   1      10.188  -4.127  -6.335  0.00  0.00    -0.056 C 
ATOM     56  H   LIG d   1      11.123  -3.822  -5.866  0.00  0.00     0.024 H 
ATOM     57  H   LIG d   1      10.267  -5.163  -6.664  0.00  0.00     0.024 H 
ATOM     58  H   LIG d   1       9.987  -3.487  -7.194  0.00  0.00     0.024 H 
ENDBRANCH  16  55
BRANCH   1  59
ATOM     59  C   LIG d   1       7.206  -7.413  -5.061  0.00  0.00    -0.059 C 
ATOM     60  H   LIG d   1       6.341  -7.348  -4.399  0.00  0.00     0.024 H 
ATOM     61  H   LIG d   1       6.996  -8.123  -5.861  0.00  0.00     0.024 H 
ATOM     62  H   LIG d   1       8.073  -7.750  -4.494  0.00  0.00     0.024 H 
ENDBRANCH   1  59
TORSDOF 8
ENDMDL
MODEL 3
REMARK VINA RESULT:      -5.5      2.103      3.693
REMARK  8 active torsions:
REMARK  status: ('A' for Active; 'I' for Inactive)
REMARK    1  A    between atoms: C_1  and  C_2 
REMARK    2  A    between atoms: C_11  and  C_24 
REMARK    3  A    between atoms: C_16  and  C_17 
REMARK    4  A    between atoms: C_16  and  O_20 
REMARK    5  A    between atoms: C_17  and  C_19 
REMARK    6  A    between atoms: O_20  and  C_21 
REMARK    7  A    between atoms: C_21  and  C_23 
REMARK    8  A    between atoms: C_25  and  C_32 
ROOT
ATOM      1  C   LIG d   1       5.697  -4.669  -5.772  0.00  0.00    -0.021 C 
ATOM      2  H   LIG d   1       6.693  -5.096  -5.648  0.00  0.00     0.034 H 
ATOM      3  C   LIG d   1       5.501  -4.253  -7.222  0.00  0.00    -0.043 C 
ATOM      4  C   LIG d   1       5.839  -2.785  -7.466  0.00  0.00    -0.033 C 
ATOM      5  H   LIG d   1       4.947  -2.188  -7.273  0.00  0.00     0.031 H 
ATOM      6  C   LIG d   1       6.946  -2.281  -6.557  0.00  0.00    -0.029 C 
ATOM      7  H   LIG d   1       7.834  -2.901  -6.684  0.00  0.00     0.031 H 
ATOM      8  C   LIG d   1       7.270  -0.818  -6.895  0.00  0.00    -0.049 C 
ATOM      9  C   LIG d   1       7.763  -0.736  -8.337  0.00  0.00    -0.043 C 
ATOM     10  C   LIG d   1       6.691  -1.225  -9.287  0.00  0.00     0.018 C 
ATOM     11  C   LIG d   1       6.205  -2.642  -8.948  0.00  0.00    -0.028 C 
ATOM     12  H   LIG d   1       6.909  -3.410  -9.269  0.00  0.00     0.031 H 
ATOM     13  C   LIG d   1       4.863  -2.710  -9.739  0.00  0.00    -0.045 C 
ATOM     14  C   LIG d   1       4.253  -1.304  -9.551  0.00  0.00    -0.005 C 
ATOM     15  C   LIG d   1       5.429  -0.353  -9.254  0.00  0.00     0.176 C 
ATOM     16  C   LIG d   1       6.502  -2.311  -5.088  0.00  0.00    -0.007 C 
ATOM     17  C   LIG d   1       5.554  -3.461  -4.880  0.00  0.00    -0.057 C 
ATOM     18  C   LIG d   1       4.611  -3.419  -3.944  0.00  0.00    -0.019 C 
ATOM     19  C   LIG d   1       4.452  -2.245  -3.087  0.00  0.00     0.156 C 
ATOM     20  O   LIG d   1       3.601  -2.235  -2.222  0.00  0.00    -0.293 OA
ATOM     21  C   LIG d   1       5.348  -1.047  -3.279  0.00  0.00     0.011 C 
ATOM     22  C   LIG d   1       5.803  -0.996  -4.741  0.00  0.00    -0.037 C 
ATOM     23  H   LIG d   1       6.138  -4.871  -7.854  0.00  0.00     0.027 H 
ATOM     24  H   LIG d   1       4.460  -4.423  -7.498  0.00  0.00     0.027 H 
ATOM     25  H   LIG d   1       8.048  -0.453  -6.224  0.00  0.00     0.027 H 
ATOM     26  H   LIG d   1       6.374  -0.209  -6.780  0.00  0.00     0.027 H 
ATOM     27  H   LIG d   1       8.653  -1.354  -8.450  0.00  0.00     0.027 H 
ATOM     28  H   LIG d   1       8.011   0.298  -8.576  0.00  0.00     0.027 H 
ATOM     29  H   LIG d   1       5.050  -2.908 -10.793  0.00  0.00     0.027 H 
ATOM     30  H   LIG d   1       4.208  -3.472  -9.316  0.00  0.00     0.027 H 
ATOM     31  H   LIG d   1       3.741  -0.994 -10.462  0.00  0.00     0.031 H 
ATOM     32  H   LIG d   1       3.554  -1.309  -8.713  0.00  0.00     0.031 H 
ATOM     33  H   LIG d   1       3.952  -4.264  -3.814  0.00  0.00     0.065 H 
ATOM     34  H   LIG d   1       4.842  -0.213  -3.053  0.00  0.00     0.035 H 
ATOM     35  H   LIG d   1       6.217  -1.132  -2.627  0.00  0.00     0.035 H 
ATOM     36  H   LIG d   1       6.496  -0.166  -4.880  0.00  0.00     0.028 H 
ATOM     37  H   LIG d   1       4.936  -0.861  -5.389  0.00  0.00     0.028 H 
ENDROOT
BRANCH  15  38
ATOM     38  C   LIG d   1       5.263   0.272  -7.892  0.00  0.00     0.174 C 
ATOM     39  O   LIG d   1       6.064   1.087  -7.500  0.00  0.00    -0.293 OA
BRANCH  38  40
ATOM     40  C   LIG d   1       4.099  -0.121  -7.020  0.00  0.00    -0.002 C 
ATOM     41  H   LIG d   1       3.389  -0.545  -7.581  0.00  0.00     0.031 H 
ATOM     42  H   LIG d   1       4.435  -0.830  -6.262  0.00  0.00     0.031 H 
ATOM     43  H   LIG d   1       3.695   0.766  -6.532  0.00  0.00     0.031 H 
ENDBRANCH  38  40
ENDBRANCH  15  38
BRANCH  15  44
ATOM     44  O   LIG d   1       5.507   0.681 -10.271  0.00  0.00    -0.450 OA
BRANCH  44  45
ATOM     45  C   LIG d   1       4.346   1.164 -10.740  0.00  0.00     0.305 C 
ATOM     46  O   LIG d   1       3.878   0.725 -11.764  0.00  0.00    -0.251 OA
BRANCH  45  47
ATOM     47  C   LIG d   1       3.625   2.254  -9.990  0.00  0.00     0.033 C 
ATOM     48  H   LIG d   1       2.891   1.808  -9.319  0.00  0.00     0.034 H 
ATOM     49  H   LIG d   1       4.343   2.832  -9.409  0.00  0.00     0.034 H 
ATOM     50  H   LIG d   1       3.118   2.909 -10.698  0.00  0.00     0.034 H 
ENDBRANCH  45  47
ENDBRANCH  44  45
ENDBRANCH  15  44
BRANCH  10  51
ATOM     51  C   LIG d   1       7.264  -1.219 -10.706  0.00  0.00    -0.055 C 
ATOM     52  H   LIG d   1       6.957  -0.307 -11.217  0.00  0.00     0.024 H 
ATOM     53  H   LIG d   1       8.352  -1.262 -10.658  0.00  0.00     0.024 H 
ATOM     54  H   LIG d   1       6.889  -2.084 -11.252  0.00  0.00     0.024 H 
ENDBRANCH  10  51
BRANCH  16  55
ATOM     55  C   LIG d   1       7.727  -2.491  -4.189  0.00  0.00    -0.056 C 
ATOM     56  H   LIG d   1       8.326  -1.581  -4.204  0.00  0.00     0.024 H 
ATOM     57  H   LIG d   1       7.401  -2.694  -3.169  0.00  0.00     0.024 H 
ATOM     58  H   LIG d   1       8.325  -3.326  -4.552  0.00  0.00     0.024 H 
ENDBRANCH  16  55
BRANCH   1  59
ATOM     59  C   LIG d   1       4.645  -5.712  -5.391  0.00  0.00    -0.059 C 
ATOM     60  H   LIG d   1       4.244  -6.170  -6.297  0.00  0.00     0.024 H 
ATOM     61  H   LIG d   1       5.103  -6.481  -4.769  0.00  0.00     0.024 H 
ATOM     62  H   LIG d   1       3.838  -5.231  -4.839  0.00  0.00     0.024 H 
ENDBRANCH   1  59
TORSDOF 8
ENDMDL
MODEL 4
REMARK VINA RESULT:      -5.5      2.875      5.442
REMARK  8 active torsions:
REMARK  status: ('A' for Active; 'I' for Inactive)
REMARK    1  A    between atoms: C_1  and  C_2 
REMARK    2  A    between atoms: C_11  and  C_24 
REMARK    3  A    between atoms: C_16  and  C_17 
REMARK    4  A    between atoms: C_16  and  O_20 
REMARK    5  A    between atoms: C_17  and  C_19 
REMARK    6  A    between atoms: O_20  and  C_21 
REMARK    7  A    between atoms: C_21  and  C_23 
REMARK    8  A    between atoms: C_25  and  C_32 
ROOT
ATOM      1  C   LIG d   1       9.735  -3.018  -5.542  0.00  0.00    -0.021 C 
ATOM      2  H   LIG d   1       9.830  -4.081  -5.321  0.00  0.00     0.034 H 
ATOM      3  C   LIG d   1       8.832  -2.364  -4.508  0.00  0.00    -0.043 C 
ATOM      4  C   LIG d   1       7.376  -2.286  -4.960  0.00  0.00    -0.033 C 
ATOM      5  H   LIG d   1       7.239  -1.364  -5.525  0.00  0.00     0.031 H 
ATOM      6  C   LIG d   1       6.978  -3.448  -5.853  0.00  0.00    -0.029 C 
ATOM      7  H   LIG d   1       7.165  -4.389  -5.334  0.00  0.00     0.031 H 
ATOM      8  C   LIG d   1       5.492  -3.334  -6.223  0.00  0.00    -0.049 C 
ATOM      9  C   LIG d   1       4.654  -3.403  -4.949  0.00  0.00    -0.043 C 
ATOM     10  C   LIG d   1       5.010  -2.261  -4.023  0.00  0.00     0.018 C 
ATOM     11  C   LIG d   1       6.510  -2.212  -3.696  0.00  0.00    -0.028 C 
ATOM     12  H   LIG d   1       6.799  -2.963  -2.961  0.00  0.00     0.031 H 
ATOM     13  C   LIG d   1       6.664  -0.762  -3.145  0.00  0.00    -0.045 C 
ATOM     14  C   LIG d   1       5.748   0.079  -4.059  0.00  0.00    -0.005 C 
ATOM     15  C   LIG d   1       4.690  -0.888  -4.628  0.00  0.00     0.176 C 
ATOM     16  C   LIG d   1       7.768  -3.420  -7.169  0.00  0.00    -0.007 C 
ATOM     17  C   LIG d   1       9.135  -2.843  -6.915  0.00  0.00    -0.057 C 
ATOM     18  C   LIG d   1       9.798  -2.191  -7.865  0.00  0.00    -0.019 C 
ATOM     19  C   LIG d   1       9.217  -1.999  -9.193  0.00  0.00     0.156 C 
ATOM     20  O   LIG d   1       9.847  -1.423 -10.054  0.00  0.00    -0.293 OA
ATOM     21  C   LIG d   1       7.833  -2.520  -9.491  0.00  0.00     0.011 C 
ATOM     22  C   LIG d   1       7.025  -2.556  -8.189  0.00  0.00    -0.037 C 
ATOM     23  H   LIG d   1       8.883  -2.936  -3.583  0.00  0.00     0.027 H 
ATOM     24  H   LIG d   1       9.193  -1.353  -4.316  0.00  0.00     0.027 H 
ATOM     25  H   LIG d   1       5.217  -4.156  -6.884  0.00  0.00     0.027 H 
ATOM     26  H   LIG d   1       5.312  -2.385  -6.727  0.00  0.00     0.027 H 
ATOM     27  H   LIG d   1       4.844  -4.349  -4.443  0.00  0.00     0.027 H 
ATOM     28  H   LIG d   1       3.598  -3.341  -5.208  0.00  0.00     0.027 H 
ATOM     29  H   LIG d   1       6.325  -0.709  -2.110  0.00  0.00     0.027 H 
ATOM     30  H   LIG d   1       7.699  -0.430  -3.227  0.00  0.00     0.027 H 
ATOM     31  H   LIG d   1       5.264   0.867  -3.482  0.00  0.00     0.031 H 
ATOM     32  H   LIG d   1       6.331   0.517  -4.871  0.00  0.00     0.031 H 
ATOM     33  H   LIG d   1      10.781  -1.797  -7.653  0.00  0.00     0.065 H 
ATOM     34  H   LIG d   1       7.384  -1.916 -10.151  0.00  0.00     0.035 H 
ATOM     35  H   LIG d   1       7.902  -3.525  -9.907  0.00  0.00     0.035 H 
ATOM     36  H   LIG d   1       6.041  -2.984  -8.382  0.00  0.00     0.028 H 
ATOM     37  H   LIG d   1       6.915  -1.544  -7.800  0.00  0.00     0.028 H 
ENDROOT
BRANCH  15  38
ATOM     38  C   LIG d   1       4.791  -0.944  -6.131  0.00  0.00     0.174 C 
ATOM     39  O   LIG d   1       4.012  -1.618  -6.763  0.00  0.00    -0.293 OA
BRANCH  38  40
ATOM     40  C   LIG d   1       5.863  -0.163  -6.845  0.00  0.00    -0.002 C 
ATOM     41  H   LIG d   1       5.439   0.498  -7.463  0.00  0.00     0.031 H 
ATOM     42  H   LIG d   1       6.476   0.365  -6.114  0.00  0.00     0.031 H 
ATOM     43  H   LIG d   1       6.490  -0.847  -7.417  0.00  0.00     0.031 H 
ENDBRANCH  38  40
ENDBRANCH  15  38
BRANCH  15  44
ATOM     44  O   LIG d   1       3.359  -0.464  -4.232  0.00  0.00    -0.450 OA
BRANCH  44  45
ATOM     45  C   LIG d   1       3.206   0.826  -3.894  0.00  0.00     0.305 C 
ATOM     46  O   LIG d   1       2.845   1.630  -4.722  0.00  0.00    -0.251 OA
BRANCH  45  47
ATOM     47  C   LIG d   1       3.483   1.273  -2.482  0.00  0.00     0.033 C 
ATOM     48  H   LIG d   1       2.919   2.182  -2.271  0.00  0.00     0.034 H 
ATOM     49  H   LIG d   1       3.184   0.490  -1.787  0.00  0.00     0.034 H 
ATOM     50  H   LIG d   1       4.549   1.474  -2.368  0.00  0.00     0.034 H 
ENDBRANCH  45  47
ENDBRANCH  44  45
ENDBRANCH  15  44
BRANCH  10  51
ATOM     51  C   LIG d   1       4.221  -2.429  -2.723  0.00  0.00    -0.055 C 
ATOM     52  H   LIG d   1       4.678  -1.823  -1.941  0.00  0.00     0.024 H 
ATOM     53  H   LIG d   1       3.192  -2.106  -2.879  0.00  0.00     0.024 H 
ATOM     54  H   LIG d   1       4.232  -3.476  -2.424  0.00  0.00     0.024 H 
ENDBRANCH  10  51
BRANCH  16  55
ATOM     55  C   LIG d   1       7.908  -4.844  -7.710  0.00  0.00    -0.056 C 
ATOM     56  H   LIG d   1       8.963  -5.073  -7.859  0.00  0.00     0.024 H 
ATOM     57  H   LIG d   1       7.480  -5.547  -6.996  0.00  0.00     0.024 H 
ATOM     58  H   LIG d   1       7.381  -4.925  -8.661  0.00  0.00     0.024 H 
ENDBRANCH  16  55
BRANCH   1  59
ATOM     59  C   LIG d   1      11.118  -2.364  -5.502  0.00  0.00    -0.059 C 
ATOM     60  H   LIG d   1      11.749  -2.804  -6.275  0.00  0.00     0.024 H 
ATOM     61  H   LIG d   1      11.018  -1.294  -5.682  0.00  0.00     0.024 H 
ATOM     62  H   LIG d   1      11.570  -2.528  -4.525  0.00  0.00     0.024 H 
ENDBRANCH   1  59
TORSDOF 8
ENDMDL
MODEL 5
REMARK VINA RESULT:      -5.4      3.021      5.346
REMARK  8 active torsions:
REMARK  status: ('A' for Active; 'I' for Inactive)
REMARK    1  A    between atoms: C_1  and  C_2 
REMARK    2  A    between atoms: C_11  and  C_24 
REMARK    3  A    between atoms: C_16  and  C_17 
REMARK    4  A    between atoms: C_16  and  O_20 
REMARK    5  A    between atoms: C_17  and  C_19 
REMARK    6  A    between atoms: O_20  and  C_21 
REMARK    7  A    between atoms: C_21  and  C_23 
REMARK    8  A    between atoms: C_25  and  C_32 
ROOT
ATOM      1  C   LIG d   1      11.533   0.001  -5.163  0.00  0.00    -0.021 C 
ATOM      2  H   LIG d   1      11.932   0.156  -6.166  0.00  0.00     0.034 H 
ATOM      3  C   LIG d   1      10.621  -1.216  -5.162  0.00  0.00    -0.043 C 
ATOM      4  C   LIG d   1       9.153  -0.856  -5.371  0.00  0.00    -0.033 C 
ATOM      5  H   LIG d   1       8.709  -0.639  -4.399  0.00  0.00     0.031 H 
ATOM      6  C   LIG d   1       8.972   0.367  -6.252  0.00  0.00    -0.029 C 
ATOM      7  H   LIG d   1       9.463   0.203  -7.212  0.00  0.00     0.031 H 
ATOM      8  C   LIG d   1       7.475   0.638  -6.464  0.00  0.00    -0.049 C 
ATOM      9  C   LIG d   1       6.847  -0.558  -7.173  0.00  0.00    -0.043 C 
ATOM     10  C   LIG d   1       6.998  -1.807  -6.332  0.00  0.00     0.018 C 
ATOM     11  C   LIG d   1       8.459  -2.091  -5.956  0.00  0.00    -0.028 C 
ATOM     12  H   LIG d   1       9.024  -2.521  -6.783  0.00  0.00     0.031 H 
ATOM     13  C   LIG d   1       8.290  -3.097  -4.777  0.00  0.00    -0.045 C 
ATOM     14  C   LIG d   1       7.080  -2.545  -3.993  0.00  0.00    -0.005 C 
ATOM     15  C   LIG d   1       6.254  -1.710  -4.993  0.00  0.00     0.176 C 
ATOM     16  C   LIG d   1       9.560   1.616  -5.581  0.00  0.00    -0.007 C 
ATOM     17  C   LIG d   1      10.745   1.218  -4.744  0.00  0.00    -0.057 C 
ATOM     18  C   LIG d   1      11.091   1.908  -3.662  0.00  0.00    -0.019 C 
ATOM     19  C   LIG d   1      10.323   3.077  -3.236  0.00  0.00     0.156 C 
ATOM     20  O   LIG d   1      10.669   3.708  -2.260  0.00  0.00    -0.293 OA
ATOM     21  C   LIG d   1       9.101   3.498  -4.013  0.00  0.00     0.011 C 
ATOM     22  C   LIG d   1       8.497   2.264  -4.693  0.00  0.00    -0.037 C 
ATOM     23  H   LIG d   1      10.935  -1.891  -5.957  0.00  0.00     0.027 H 
ATOM     24  H   LIG d   1      10.723  -1.730  -4.205  0.00  0.00     0.027 H 
ATOM     25  H   LIG d   1       7.349   1.531  -7.076  0.00  0.00     0.027 H 
ATOM     26  H   LIG d   1       6.990   0.787  -5.499  0.00  0.00     0.027 H 
ATOM     27  H   LIG d   1       7.341  -0.709  -8.133  0.00  0.00     0.027 H 
ATOM     28  H   LIG d   1       5.788  -0.363  -7.341  0.00  0.00     0.027 H 
ATOM     29  H   LIG d   1       8.078  -4.097  -5.155  0.00  0.00     0.027 H 
ATOM     30  H   LIG d   1       9.182  -3.106  -4.151  0.00  0.00     0.027 H 
ATOM     31  H   LIG d   1       6.478  -3.368  -3.606  0.00  0.00     0.031 H 
ATOM     32  H   LIG d   1       7.423  -1.915  -3.172  0.00  0.00     0.031 H 
ATOM     33  H   LIG d   1      11.953   1.601  -3.087  0.00  0.00     0.065 H 
ATOM     34  H   LIG d   1       8.432   3.902  -3.389  0.00  0.00     0.035 H 
ATOM     35  H   LIG d   1       9.383   4.231  -4.768  0.00  0.00     0.035 H 
ATOM     36  H   LIG d   1       7.645   2.565  -5.304  0.00  0.00     0.028 H 
ATOM     37  H   LIG d   1       8.170   1.552  -3.934  0.00  0.00     0.028 H 
ENDROOT
BRANCH  15  38
ATOM     38  C   LIG d   1       6.183  -0.275  -4.539  0.00  0.00     0.174 C 
ATOM     39  O   LIG d   1       5.534   0.526  -5.169  0.00  0.00    -0.293 OA
BRANCH  38  40
ATOM     40  C   LIG d   1       6.921   0.161  -3.300  0.00  0.00    -0.002 C 
ATOM     41  H   LIG d   1       6.281   0.588  -2.663  0.00  0.00     0.031 H 
ATOM     42  H   LIG d   1       7.381  -0.706  -2.826  0.00  0.00     0.031 H 
ATOM     43  H   LIG d   1       7.696   0.878  -3.573  0.00  0.00     0.031 H 
ENDBRANCH  38  40
ENDBRANCH  15  38
BRANCH  15  44
ATOM     44  O   LIG d   1       4.917  -2.261  -5.122  0.00  0.00    -0.450 OA
BRANCH  44  45
ATOM     45  C   LIG d   1       4.441  -2.957  -4.078  0.00  0.00     0.305 C 
ATOM     46  O   LIG d   1       4.373  -4.163  -4.135  0.00  0.00    -0.251 OA
BRANCH  45  47
ATOM     47  C   LIG d   1       3.991  -2.237  -2.833  0.00  0.00     0.033 C 
ATOM     48  H   LIG d   1       4.778  -1.560  -2.501  0.00  0.00     0.034 H 
ATOM     49  H   LIG d   1       3.088  -1.667  -3.049  0.00  0.00     0.034 H 
ATOM     50  H   LIG d   1       3.783  -2.964  -2.048  0.00  0.00     0.034 H 
ENDBRANCH  45  47
ENDBRANCH  44  45
ENDBRANCH  15  44
BRANCH  10  51
ATOM     51  C   LIG d   1       6.445  -2.993  -7.124  0.00  0.00    -0.055 C 
ATOM     52  H   LIG d   1       6.271  -2.690  -8.157  0.00  0.00     0.024 H 
ATOM     53  H   LIG d   1       7.165  -3.812  -7.102  0.00  0.00     0.024 H 
ATOM     54  H   LIG d   1       5.507  -3.322  -6.679  0.00  0.00     0.024 H 
ENDBRANCH  10  51
BRANCH  16  55
ATOM     55  C   LIG d   1      10.005   2.611  -6.654  0.00  0.00    -0.056 C 
ATOM     56  H   LIG d   1       9.564   3.586  -6.451  0.00  0.00     0.024 H 
ATOM     57  H   LIG d   1      11.092   2.695  -6.643  0.00  0.00     0.024 H 
ATOM     58  H   LIG d   1       9.678   2.261  -7.633  0.00  0.00     0.024 H 
ENDBRANCH  16  55
BRANCH   1  59
ATOM     59  C   LIG d   1      12.687  -0.222  -4.184  0.00  0.00    -0.059 C 
ATOM     60  H   LIG d   1      12.590   0.469  -3.345  0.00  0.00     0.024 H 
ATOM     61  H   LIG d   1      12.657  -1.247  -3.815  0.00  0.00     0.024 H 
ATOM     62  H   LIG d   1      13.635  -0.046  -4.692  0.00  0.00     0.024 H 
ENDBRANCH   1  59
TORSDOF 8
ENDMDL
MODEL 6
REMARK VINA RESULT:      -5.4      1.474      2.072
REMARK  8 active torsions:
REMARK  status: ('A' for Active; 'I' for Inactive)
REMARK    1  A    between atoms: C_1  and  C_2 
REMARK    2  A    between atoms: C_11  and  C_24 
REMARK    3  A    between atoms: C_16  and  C_17 
REMARK    4  A    between atoms: C_16  and  O_20 
REMARK    5  A    between atoms: C_17  and  C_19 
REMARK    6  A    between atoms: O_20  and  C_21 
REMARK    7  A    between atoms: C_21  and  C_23 
REMARK    8  A    between atoms: C_25  and  C_32 
ROOT
ATOM      1  C   LIG d   1       5.048  -2.898  -4.084  0.00  0.00    -0.021 C 
ATOM      2  H   LIG d   1       5.800  -3.668  -3.909  0.00  0.00     0.034 H 
ATOM      3  C   LIG d   1       4.488  -3.047  -5.490  0.00  0.00    -0.043 C 
ATOM      4  C   LIG d   1       5.204  -2.163  -6.508  0.00  0.00    -0.033 C 
ATOM      5  H   LIG d   1       4.718  -1.187  -6.519  0.00  0.00     0.031 H 
ATOM      6  C   LIG d   1       6.669  -1.953  -6.172  0.00  0.00    -0.029 C 
ATOM      7  H   LIG d   1       7.168  -2.920  -6.092  0.00  0.00     0.031 H 
ATOM      8  C   LIG d   1       7.337  -1.103  -7.263  0.00  0.00    -0.049 C 
ATOM      9  C   LIG d   1       7.254  -1.845  -8.594  0.00  0.00    -0.043 C 
ATOM     10  C   LIG d   1       5.808  -2.076  -8.978  0.00  0.00     0.018 C 
ATOM     11  C   LIG d   1       5.018  -2.811  -7.885  0.00  0.00    -0.028 C 
ATOM     12  H   LIG d   1       5.235  -3.879  -7.864  0.00  0.00     0.031 H 
ATOM     13  C   LIG d   1       3.548  -2.520  -8.312  0.00  0.00    -0.045 C 
ATOM     14  C   LIG d   1       3.586  -1.052  -8.790  0.00  0.00    -0.005 C 
ATOM     15  C   LIG d   1       5.042  -0.767  -9.211  0.00  0.00     0.176 C 
ATOM     16  C   LIG d   1       6.822  -1.184  -4.852  0.00  0.00    -0.007 C 
ATOM     17  C   LIG d   1       5.680  -1.537  -3.938  0.00  0.00    -0.057 C 
ATOM     18  C   LIG d   1       5.232  -0.676  -3.029  0.00  0.00    -0.019 C 
ATOM     19  C   LIG d   1       5.825   0.653  -2.892  0.00  0.00     0.156 C 
ATOM     20  O   LIG d   1       5.418   1.415  -2.040  0.00  0.00    -0.293 OA
ATOM     21  C   LIG d   1       6.945   1.075  -3.809  0.00  0.00     0.011 C 
ATOM     22  C   LIG d   1       6.811   0.318  -5.136  0.00  0.00    -0.037 C 
ATOM     23  H   LIG d   1       4.584  -4.087  -5.799  0.00  0.00     0.027 H 
ATOM     24  H   LIG d   1       3.430  -2.780  -5.477  0.00  0.00     0.027 H 
ATOM     25  H   LIG d   1       8.382  -0.935  -7.005  0.00  0.00     0.027 H 
ATOM     26  H   LIG d   1       6.823  -0.146  -7.346  0.00  0.00     0.027 H 
ATOM     27  H   LIG d   1       7.760  -2.806  -8.504  0.00  0.00     0.027 H 
ATOM     28  H   LIG d   1       7.741  -1.254  -9.368  0.00  0.00     0.027 H 
ATOM     29  H   LIG d   1       3.248  -3.180  -9.125  0.00  0.00     0.027 H 
ATOM     30  H   LIG d   1       2.874  -2.629  -7.462  0.00  0.00     0.027 H 
ATOM     31  H   LIG d   1       2.917  -0.918  -9.640  0.00  0.00     0.031 H 
ATOM     32  H   LIG d   1       3.294  -0.386  -7.976  0.00  0.00     0.031 H 
ATOM     33  H   LIG d   1       4.416  -0.963  -2.382  0.00  0.00     0.065 H 
ATOM     34  H   LIG d   1       6.887   2.061  -3.975  0.00  0.00     0.035 H 
ATOM     35  H   LIG d   1       7.904   0.840  -3.348  0.00  0.00     0.035 H 
ATOM     36  H   LIG d   1       7.648   0.573  -5.787  0.00  0.00     0.028 H 
ATOM     37  H   LIG d   1       5.873   0.593  -5.619  0.00  0.00     0.028 H 
ENDROOT
BRANCH  15  38
ATOM     38  C   LIG d   1       5.623   0.335  -8.363  0.00  0.00     0.174 C 
ATOM     39  O   LIG d   1       5.071   0.665  -7.340  0.00  0.00    -0.293 OA
BRANCH  38  40
ATOM     40  C   LIG d   1       6.892   1.026  -8.791  0.00  0.00    -0.002 C 
ATOM     41  H   LIG d   1       7.679   0.555  -8.394  0.00  0.00     0.031 H 
ATOM     42  H   LIG d   1       6.967   1.007  -9.878  0.00  0.00     0.031 H 
ATOM     43  H   LIG d   1       6.875   2.060  -8.447  0.00  0.00     0.031 H 
ENDBRANCH  38  40
ENDBRANCH  15  38
BRANCH  15  44
ATOM     44  O   LIG d   1       5.095  -0.399 -10.614  0.00  0.00    -0.450 OA
BRANCH  44  45
ATOM     45  C   LIG d   1       4.034   0.254 -11.114  0.00  0.00     0.305 C 
ATOM     46  O   LIG d   1       3.917   1.444 -10.937  0.00  0.00    -0.251 OA
BRANCH  45  47
ATOM     47  C   LIG d   1       2.986  -0.497 -11.894  0.00  0.00     0.033 C 
ATOM     48  H   LIG d   1       2.324   0.213 -12.389  0.00  0.00     0.034 H 
ATOM     49  H   LIG d   1       3.470  -1.124 -12.642  0.00  0.00     0.034 H 
ATOM     50  H   LIG d   1       2.405  -1.122 -11.215  0.00  0.00     0.034 H 
ENDBRANCH  45  47
ENDBRANCH  44  45
ENDBRANCH  15  44
BRANCH  10  51
ATOM     51  C   LIG d   1       5.777  -2.907 -10.262  0.00  0.00    -0.055 C 
ATOM     52  H   LIG d   1       5.152  -2.408 -11.002  0.00  0.00     0.024 H 
ATOM     53  H   LIG d   1       6.789  -3.013 -10.652  0.00  0.00     0.024 H 
ATOM     54  H   LIG d   1       5.366  -3.893 -10.046  0.00  0.00     0.024 H 
ENDBRANCH  10  51
BRANCH  16  55
ATOM     55  C   LIG d   1       8.145  -1.569  -4.188  0.00  0.00    -0.056 C 
ATOM     56  H   LIG d   1       8.107  -2.613  -3.881  0.00  0.00     0.024 H 
ATOM     57  H   LIG d   1       8.962  -1.428  -4.896  0.00  0.00     0.024 H 
ATOM     58  H   LIG d   1       8.310  -0.939  -3.314  0.00  0.00     0.024 H 
ENDBRANCH  16  55
BRANCH   1  59
ATOM     59  C   LIG d   1       3.918  -3.049  -3.064  0.00  0.00    -0.059 C 
ATOM     60  H   LIG d   1       2.990  -2.668  -3.492  0.00  0.00     0.024 H 
ATOM     61  H   LIG d   1       3.795  -4.102  -2.811  0.00  0.00     0.024 H 
ATOM     62  H   LIG d   1       4.162  -2.485  -2.164  0.00  0.00     0.024 H 
ENDBRANCH   1  59
TORSDOF 8
ENDMDL
MODEL 7
REMARK VINA RESULT:      -5.4      2.740      6.675
REMARK  8 active torsions:
REMARK  status: ('A' for Active; 'I' for Inactive)
REMARK    1  A    between atoms: C_1  and  C_2 
REMARK    2  A    between atoms: C_11  and  C_24 
REMARK    3  A    between atoms: C_16  and  C_17 
REMARK    4  A    between atoms: C_16  and  O_20 
REMARK    5  A    between atoms: C_17  and  C_19 
REMARK    6  A    between atoms: O_20  and  C_21 
REMARK    7  A    between atoms: C_21  and  C_23 
REMARK    8  A    between atoms: C_25  and  C_32 
ROOT
ATOM      1  C   LIG d   1       3.164  -2.055  -9.689  0.00  0.00    -0.021 C 
ATOM      2  H   LIG d   1       3.817  -1.670 -10.472  0.00  0.00     0.034 H 
ATOM      3  C   LIG d   1       3.224  -1.134  -8.480  0.00  0.00    -0.043 C 
ATOM      4  C   LIG d   1       4.247  -1.588  -7.442  0.00  0.00    -0.033 C 
ATOM      5  H   LIG d   1       3.761  -2.291  -6.764  0.00  0.00     0.031 H 
ATOM      6  C   LIG d   1       5.442  -2.287  -8.065  0.00  0.00    -0.029 C 
ATOM      7  H   LIG d   1       5.911  -1.628  -8.796  0.00  0.00     0.031 H 
ATOM      8  C   LIG d   1       6.451  -2.667  -6.972  0.00  0.00    -0.049 C 
ATOM      9  C   LIG d   1       6.946  -1.395  -6.286  0.00  0.00    -0.043 C 
ATOM     10  C   LIG d   1       5.790  -0.661  -5.643  0.00  0.00     0.018 C 
ATOM     11  C   LIG d   1       4.662  -0.350  -6.638  0.00  0.00    -0.028 C 
ATOM     12  H   LIG d   1       4.902   0.493  -7.287  0.00  0.00     0.031 H 
ATOM     13  C   LIG d   1       3.476  -0.033  -5.678  0.00  0.00    -0.045 C 
ATOM     14  C   LIG d   1       3.635  -1.066  -4.542  0.00  0.00    -0.005 C 
ATOM     15  C   LIG d   1       5.122  -1.473  -4.526  0.00  0.00     0.176 C 
ATOM     16  C   LIG d   1       5.014  -3.593  -8.749  0.00  0.00    -0.007 C 
ATOM     17  C   LIG d   1       3.619  -3.437  -9.290  0.00  0.00    -0.057 C 
ATOM     18  C   LIG d   1       2.802  -4.479  -9.410  0.00  0.00    -0.019 C 
ATOM     19  C   LIG d   1       3.228  -5.819  -9.008  0.00  0.00     0.156 C 
ATOM     20  O   LIG d   1       2.477  -6.762  -9.148  0.00  0.00    -0.293 OA
ATOM     21  C   LIG d   1       4.601  -6.028  -8.421  0.00  0.00     0.011 C 
ATOM     22  C   LIG d   1       5.048  -4.734  -7.732  0.00  0.00    -0.037 C 
ATOM     23  H   LIG d   1       3.485  -0.130  -8.814  0.00  0.00     0.027 H 
ATOM     24  H   LIG d   1       2.240  -1.103  -8.011  0.00  0.00     0.027 H 
ATOM     25  H   LIG d   1       7.295  -3.190  -7.420  0.00  0.00     0.027 H 
ATOM     26  H   LIG d   1       5.970  -3.313  -6.238  0.00  0.00     0.027 H 
ATOM     27  H   LIG d   1       7.417  -0.748  -7.025  0.00  0.00     0.027 H 
ATOM     28  H   LIG d   1       7.676  -1.658  -5.521  0.00  0.00     0.027 H 
ATOM     29  H   LIG d   1       3.560   0.981  -5.289  0.00  0.00     0.027 H 
ATOM     30  H   LIG d   1       2.523  -0.169  -6.190  0.00  0.00     0.027 H 
ATOM     31  H   LIG d   1       3.359  -0.618  -3.588  0.00  0.00     0.031 H 
ATOM     32  H   LIG d   1       3.009  -1.938  -4.739  0.00  0.00     0.031 H 
ATOM     33  H   LIG d   1       1.810  -4.334  -9.810  0.00  0.00     0.065 H 
ATOM     34  H   LIG d   1       4.568  -6.774  -7.754  0.00  0.00     0.035 H 
ATOM     35  H   LIG d   1       5.303  -6.282  -9.215  0.00  0.00     0.035 H 
ATOM     36  H   LIG d   1       6.063  -4.855  -7.352  0.00  0.00     0.028 H 
ATOM     37  H   LIG d   1       4.372  -4.509  -6.906  0.00  0.00     0.028 H 
ENDROOT
BRANCH  15  38
ATOM     38  C   LIG d   1       5.260  -2.949  -4.800  0.00  0.00     0.174 C 
ATOM     39  O   LIG d   1       4.304  -3.586  -5.174  0.00  0.00    -0.293 OA
BRANCH  38  40
ATOM     40  C   LIG d   1       6.590  -3.630  -4.607  0.00  0.00    -0.002 C 
ATOM     41  H   LIG d   1       6.869  -3.553  -3.650  0.00  0.00     0.031 H 
ATOM     42  H   LIG d   1       6.502  -4.682  -4.877  0.00  0.00     0.031 H 
ATOM     43  H   LIG d   1       7.338  -3.154  -5.243  0.00  0.00     0.031 H 
ENDBRANCH  38  40
ENDBRANCH  15  38
BRANCH  15  44
ATOM     44  O   LIG d   1       5.718  -1.145  -3.243  0.00  0.00    -0.450 OA
BRANCH  44  45
ATOM     45  C   LIG d   1       4.878  -0.904  -2.225  0.00  0.00     0.305 C 
ATOM     46  O   LIG d   1       4.324  -1.823  -1.667  0.00  0.00    -0.251 OA
BRANCH  45  47
ATOM     47  C   LIG d   1       4.623   0.511  -1.776  0.00  0.00     0.033 C 
ATOM     48  H   LIG d   1       3.704   0.878  -2.234  0.00  0.00     0.034 H 
ATOM     49  H   LIG d   1       4.523   0.537  -0.692  0.00  0.00     0.034 H 
ATOM     50  H   LIG d   1       5.457   1.145  -2.080  0.00  0.00     0.034 H 
ENDBRANCH  45  47
ENDBRANCH  44  45
ENDBRANCH  15  44
BRANCH  10  51
ATOM     51  C   LIG d   1       6.316   0.651  -5.059  0.00  0.00    -0.055 C 
ATOM     52  H   LIG d   1       6.101   0.686  -3.991  0.00  0.00     0.024 H 
ATOM     53  H   LIG d   1       7.394   0.712  -5.214  0.00  0.00     0.024 H 
ATOM     54  H   LIG d   1       5.830   1.490  -5.555  0.00  0.00     0.024 H 
ENDBRANCH  10  51
BRANCH  16  55
ATOM     55  C   LIG d   1       5.974  -3.906  -9.899  0.00  0.00    -0.056 C 
ATOM     56  H   LIG d   1       6.204  -4.970  -9.901  0.00  0.00     0.024 H 
ATOM     57  H   LIG d   1       5.508  -3.632 -10.845  0.00  0.00     0.024 H 
ATOM     58  H   LIG d   1       6.894  -3.335  -9.769  0.00  0.00     0.024 H 
ENDBRANCH  16  55
BRANCH   1  59
ATOM     59  C   LIG d   1       1.727  -2.122 -10.210  0.00  0.00    -0.059 C 
ATOM     60  H   LIG d   1       1.329  -3.125 -10.051  0.00  0.00     0.024 H 
ATOM     61  H   LIG d   1       1.112  -1.399  -9.674  0.00  0.00     0.024 H 
ATOM     62  H   LIG d   1       1.714  -1.891 -11.275  0.00  0.00     0.024 H 
ENDBRANCH   1  59
TORSDOF 8
ENDMDL
MODEL 8
REMARK VINA RESULT:      -5.4      2.882      5.257
REMARK  8 active torsions:
REMARK  status: ('A' for Active; 'I' for Inactive)
REMARK    1  A    between atoms: C_1  and  C_2 
REMARK    2  A    between atoms: C_11  and  C_24 
REMARK    3  A    between atoms: C_16  and  C_17 
REMARK    4  A    between atoms: C_16  and  O_20 
REMARK    5  A    between atoms: C_17  and  C_19 
REMARK    6  A    between atoms: O_20  and  C_21 
REMARK    7  A    between atoms: C_21  and  C_23 
REMARK    8  A    between atoms: C_25  and  C_32 
ROOT
ATOM      1  C   LIG d   1      10.281  -3.697  -4.309  0.00  0.00    -0.021 C 
ATOM      2  H   LIG d   1      10.332  -4.441  -5.104  0.00  0.00     0.034 H 
ATOM      3  C   LIG d   1       8.835  -3.519  -3.872  0.00  0.00    -0.043 C 
ATOM      4  C   LIG d   1       8.138  -2.368  -4.592  0.00  0.00    -0.033 C 
ATOM      5  H   LIG d   1       8.321  -1.450  -4.032  0.00  0.00     0.031 H 
ATOM      6  C   LIG d   1       8.652  -2.165  -6.005  0.00  0.00    -0.029 C 
ATOM      7  H   LIG d   1       8.539  -3.091  -6.572  0.00  0.00     0.031 H 
ATOM      8  C   LIG d   1       7.871  -1.031  -6.685  0.00  0.00    -0.049 C 
ATOM      9  C   LIG d   1       6.396  -1.418  -6.764  0.00  0.00    -0.043 C 
ATOM     10  C   LIG d   1       5.833  -1.628  -5.376  0.00  0.00     0.018 C 
ATOM     11  C   LIG d   1       6.633  -2.659  -4.565  0.00  0.00    -0.028 C 
ATOM     12  H   LIG d   1       6.412  -3.684  -4.864  0.00  0.00     0.031 H 
ATOM     13  C   LIG d   1       6.154  -2.355  -3.113  0.00  0.00    -0.045 C 
ATOM     14  C   LIG d   1       6.057  -0.815  -3.072  0.00  0.00    -0.005 C 
ATOM     15  C   LIG d   1       5.858  -0.350  -4.528  0.00  0.00     0.176 C 
ATOM     16  C   LIG d   1      10.128  -1.745  -5.995  0.00  0.00    -0.007 C 
ATOM     17  C   LIG d   1      10.817  -2.382  -4.817  0.00  0.00    -0.057 C 
ATOM     18  C   LIG d   1      11.862  -1.805  -4.233  0.00  0.00    -0.019 C 
ATOM     19  C   LIG d   1      12.376  -0.521  -4.706  0.00  0.00     0.156 C 
ATOM     20  O   LIG d   1      13.347  -0.023  -4.176  0.00  0.00    -0.293 OA
ATOM     21  C   LIG d   1      11.701   0.182  -5.856  0.00  0.00     0.011 C 
ATOM     22  C   LIG d   1      10.223  -0.223  -5.886  0.00  0.00    -0.037 C 
ATOM     23  H   LIG d   1       8.291  -4.442  -4.074  0.00  0.00     0.027 H 
ATOM     24  H   LIG d   1       8.814  -3.327  -2.799  0.00  0.00     0.027 H 
ATOM     25  H   LIG d   1       8.260  -0.873  -7.691  0.00  0.00     0.027 H 
ATOM     26  H   LIG d   1       7.977  -0.115  -6.104  0.00  0.00     0.027 H 
ATOM     27  H   LIG d   1       6.296  -2.340  -7.337  0.00  0.00     0.027 H 
ATOM     28  H   LIG d   1       5.841  -0.624  -7.262  0.00  0.00     0.027 H 
ATOM     29  H   LIG d   1       5.179  -2.806  -2.930  0.00  0.00     0.027 H 
ATOM     30  H   LIG d   1       6.884  -2.714  -2.387  0.00  0.00     0.027 H 
ATOM     31  H   LIG d   1       5.206  -0.510  -2.461  0.00  0.00     0.031 H 
ATOM     32  H   LIG d   1       6.977  -0.393  -2.666  0.00  0.00     0.031 H 
ATOM     33  H   LIG d   1      12.339  -2.292  -3.395  0.00  0.00     0.065 H 
ATOM     34  H   LIG d   1      11.778   1.173  -5.733  0.00  0.00     0.035 H 
ATOM     35  H   LIG d   1      12.179  -0.105  -6.793  0.00  0.00     0.035 H 
ATOM     36  H   LIG d   1       9.736   0.236  -6.747  0.00  0.00     0.028 H 
ATOM     37  H   LIG d   1       9.735   0.109  -4.969  0.00  0.00     0.028 H 
ENDROOT
BRANCH  15  38
ATOM     38  C   LIG d   1       7.001   0.535  -4.953  0.00  0.00     0.174 C 
ATOM     39  O   LIG d   1       7.022   1.000  -6.068  0.00  0.00    -0.293 OA
BRANCH  38  40
ATOM     40  C   LIG d   1       8.117   0.840  -3.988  0.00  0.00    -0.002 C 
ATOM     41  H   LIG d   1       8.762   1.474  -4.413  0.00  0.00     0.031 H 
ATOM     42  H   LIG d   1       7.705   1.292  -3.086  0.00  0.00     0.031 H 
ATOM     43  H   LIG d   1       8.634  -0.084  -3.727  0.00  0.00     0.031 H 
ENDBRANCH  38  40
ENDBRANCH  15  38
BRANCH  15  44
ATOM     44  O   LIG d   1       4.599   0.362  -4.659  0.00  0.00    -0.450 OA
BRANCH  44  45
ATOM     45  C   LIG d   1       4.048   0.840  -3.532  0.00  0.00     0.305 C 
ATOM     46  O   LIG d   1       4.345   1.941  -3.134  0.00  0.00    -0.251 OA
BRANCH  45  47
ATOM     47  C   LIG d   1       3.060   0.002  -2.763  0.00  0.00     0.033 C 
ATOM     48  H   LIG d   1       3.101   0.271  -1.707  0.00  0.00     0.034 H 
ATOM     49  H   LIG d   1       2.056   0.182  -3.144  0.00  0.00     0.034 H 
ATOM     50  H   LIG d   1       3.310  -1.053  -2.878  0.00  0.00     0.034 H 
ENDBRANCH  45  47
ENDBRANCH  44  45
ENDBRANCH  15  44
BRANCH  10  51
ATOM     51  C   LIG d   1       4.388  -2.111  -5.509  0.00  0.00    -0.055 C 
ATOM     52  H   LIG d   1       4.211  -2.927  -4.809  0.00  0.00     0.024 H 
ATOM     53  H   LIG d   1       3.708  -1.288  -5.287  0.00  0.00     0.024 H 
ATOM     54  H   LIG d   1       4.214  -2.460  -6.526  0.00  0.00     0.024 H 
ENDBRANCH  10  51
BRANCH  16  55
ATOM     55  C   LIG d   1      10.800  -2.208  -7.289  0.00  0.00    -0.056 C 
ATOM     56  H   LIG d   1      11.719  -2.743  -7.050  0.00  0.00     0.024 H 
ATOM     57  H   LIG d   1      10.125  -2.869  -7.832  0.00  0.00     0.024 H 
ATOM     58  H   LIG d   1      11.034  -1.341  -7.907  0.00  0.00     0.024 H 
ENDBRANCH  16  55
BRANCH   1  59
ATOM     59  C   LIG d   1      11.122  -4.165  -3.119  0.00  0.00    -0.059 C 
ATOM     60  H   LIG d   1      10.933  -3.514  -2.264  0.00  0.00     0.024 H 
ATOM     61  H   LIG d   1      10.851  -5.189  -2.863  0.00  0.00     0.024 H 
ATOM     62  H   LIG d   1      12.179  -4.123  -3.381  0.00  0.00     0.024 H 
ENDBRANCH   1  59
TORSDOF 8
ENDMDL
MODEL 9
REMARK VINA RESULT:      -5.4      2.725      5.080
REMARK  8 active torsions:
REMARK  status: ('A' for Active; 'I' for Inactive)
REMARK    1  A    between atoms: C_1  and  C_2 
REMARK    2  A    between atoms: C_11  and  C_24 
REMARK    3  A    between atoms: C_16  and  C_17 
REMARK    4  A    between atoms: C_16  and  O_20 
REMARK    5  A    between atoms: C_17  and  C_19 
REMARK    6  A    between atoms: O_20  and  C_21 
REMARK    7  A    between atoms: C_21  and  C_23 
REMARK    8  A    between atoms: C_25  and  C_32 
ROOT
ATOM      1  C   LIG d   1       4.116  -0.697  -6.296  0.00  0.00    -0.021 C 
ATOM      2  H   LIG d   1       4.107  -1.786  -6.345  0.00  0.00     0.034 H 
ATOM      3  C   LIG d   1       5.159  -0.155  -7.261  0.00  0.00    -0.043 C 
ATOM      4  C   LIG d   1       6.508   0.096  -6.593  0.00  0.00    -0.033 C 
ATOM      5  H   LIG d   1       6.505   1.105  -6.179  0.00  0.00     0.031 H 
ATOM      6  C   LIG d   1       6.791  -0.875  -5.461  0.00  0.00    -0.029 C 
ATOM      7  H   LIG d   1       6.738  -1.898  -5.836  0.00  0.00     0.031 H 
ATOM      8  C   LIG d   1       8.183  -0.599  -4.874  0.00  0.00    -0.049 C 
ATOM      9  C   LIG d   1       9.234  -0.813  -5.960  0.00  0.00    -0.043 C 
ATOM     10  C   LIG d   1       8.999   0.138  -7.113  0.00  0.00     0.018 C 
ATOM     11  C   LIG d   1       7.579   0.027  -7.689  0.00  0.00    -0.028 C 
ATOM     12  H   LIG d   1       7.456  -0.851  -8.322  0.00  0.00     0.031 H 
ATOM     13  C   LIG d   1       7.465   1.355  -8.497  0.00  0.00    -0.045 C 
ATOM     14  C   LIG d   1       8.169   2.395  -7.600  0.00  0.00    -0.005 C 
ATOM     15  C   LIG d   1       9.150   1.609  -6.706  0.00  0.00     0.176 C 
ATOM     16  C   LIG d   1       5.781  -0.692  -4.320  0.00  0.00    -0.007 C 
ATOM     17  C   LIG d   1       4.458  -0.261  -4.892  0.00  0.00    -0.057 C 
ATOM     18  C   LIG d   1       3.611   0.486  -4.191  0.00  0.00    -0.019 C 
ATOM     19  C   LIG d   1       3.941   0.930  -2.838  0.00  0.00     0.156 C 
ATOM     20  O   LIG d   1       3.145   1.591  -2.205  0.00  0.00    -0.293 OA
ATOM     21  C   LIG d   1       5.271   0.563  -2.229  0.00  0.00     0.011 C 
ATOM     22  C   LIG d   1       6.296   0.375  -3.353  0.00  0.00    -0.037 C 
ATOM     23  H   LIG d   1       5.296  -0.872  -8.071  0.00  0.00     0.027 H 
ATOM     24  H   LIG d   1       4.796   0.783  -7.681  0.00  0.00     0.027 H 
ATOM     25  H   LIG d   1       8.371  -1.282  -4.046  0.00  0.00     0.027 H 
ATOM     26  H   LIG d   1       8.231   0.429  -4.516  0.00  0.00     0.027 H 
ATOM     27  H   LIG d   1       9.175  -1.839  -6.321  0.00  0.00     0.027 H 
ATOM     28  H   LIG d   1      10.225  -0.635  -5.543  0.00  0.00     0.027 H 
ATOM     29  H   LIG d   1       7.977   1.265  -9.454  0.00  0.00     0.027 H 
ATOM     30  H   LIG d   1       6.418   1.622  -8.647  0.00  0.00     0.027 H 
ATOM     31  H   LIG d   1       8.714   3.112  -8.215  0.00  0.00     0.031 H 
ATOM     32  H   LIG d   1       7.434   2.915  -6.983  0.00  0.00     0.031 H 
ATOM     33  H   LIG d   1       2.665   0.771  -4.628  0.00  0.00     0.065 H 
ATOM     34  H   LIG d   1       5.571   1.296  -1.616  0.00  0.00     0.035 H 
ATOM     35  H   LIG d   1       5.171  -0.364  -1.664  0.00  0.00     0.035 H 
ATOM     36  H   LIG d   1       7.248   0.054  -2.928  0.00  0.00     0.028 H 
ATOM     37  H   LIG d   1       6.431   1.317  -3.885  0.00  0.00     0.028 H 
ENDROOT
BRANCH  15  38
ATOM     38  C   LIG d   1       8.789   1.789  -5.254  0.00  0.00     0.174 C 
ATOM     39  O   LIG d   1       7.699   2.213  -4.951  0.00  0.00    -0.293 OA
BRANCH  38  40
ATOM     40  C   LIG d   1       9.786   1.440  -4.181  0.00  0.00    -0.002 C 
ATOM     41  H   LIG d   1      10.671   1.850  -4.401  0.00  0.00     0.031 H 
ATOM     42  H   LIG d   1       9.437   1.822  -3.222  0.00  0.00     0.031 H 
ATOM     43  H   LIG d   1       9.893   0.356  -4.122  0.00  0.00     0.031 H 
ENDBRANCH  38  40
ENDBRANCH  15  38
BRANCH  15  44
ATOM     44  O   LIG d   1      10.511   2.057  -6.942  0.00  0.00    -0.450 OA
BRANCH  44  45
ATOM     45  C   LIG d   1      10.676   3.338  -7.309  0.00  0.00     0.305 C 
ATOM     46  O   LIG d   1      10.593   4.219  -6.485  0.00  0.00    -0.251 OA
BRANCH  45  47
ATOM     47  C   LIG d   1      10.966   3.678  -8.748  0.00  0.00     0.033 C 
ATOM     48  H   LIG d   1      11.775   3.047  -9.114  0.00  0.00     0.034 H 
ATOM     49  H   LIG d   1      10.073   3.508  -9.348  0.00  0.00     0.034 H 
ATOM     50  H   LIG d   1      11.260   4.725  -8.821  0.00  0.00     0.034 H 
ENDBRANCH  45  47
ENDBRANCH  44  45
ENDBRANCH  15  44
BRANCH  10  51
ATOM     51  C   LIG d   1      10.011  -0.181  -8.215  0.00  0.00    -0.055 C 
ATOM     52  H   LIG d   1      10.720  -0.925  -7.854  0.00  0.00     0.024 H 
ATOM     53  H   LIG d   1       9.487  -0.572  -9.088  0.00  0.00     0.024 H 
ATOM     54  H   LIG d   1      10.546   0.728  -8.490  0.00  0.00     0.024 H 
ENDBRANCH  10  51
BRANCH  16  55
ATOM     55  C   LIG d   1       5.607  -2.016  -3.574  0.00  0.00    -0.056 C 
ATOM     56  H   LIG d   1       6.172  -2.796  -4.083  0.00  0.00     0.024 H 
ATOM     57  H   LIG d   1       5.975  -1.909  -2.554  0.00  0.00     0.024 H 
ATOM     58  H   LIG d   1       4.552  -2.286  -3.553  0.00  0.00     0.024 H 
ENDBRANCH  16  55
BRANCH   1  59
ATOM     59  C   LIG d   1       2.736  -0.157  -6.676  0.00  0.00    -0.059 C 
ATOM     60  H   LIG d   1       2.665   0.892  -6.388  0.00  0.00     0.024 H 
ATOM     61  H   LIG d   1       2.596  -0.248  -7.753  0.00  0.00     0.024 H 
ATOM     62  H   LIG d   1       1.966  -0.729  -6.159  0.00  0.00     0.024 H 
ENDBRANCH   1  59
TORSDOF 8
ENDMDL
