MODEL 1
REMARK VINA RESULT:      -7.4      0.000      0.000
REMARK  16 active torsions:
REMARK  status: ('A' for Active; 'I' for Inactive)
REMARK    1  A    between atoms: C_1  and  C_2 
REMARK    2  A    between atoms: C_2  and  C_4 
REMARK    3  A    between atoms: C_4  and  O_49 
REMARK    4  A    between atoms: C_9  and  C_48 
REMARK    5  A    between atoms: N_21  and  O_22 
REMARK    6  A    between atoms: O_22  and  C_23 
REMARK    7  A    between atoms: C_23  and  C_24 
REMARK       I    between atoms: C_24  and  N_26 
REMARK    8  A    between atoms: N_26  and  C_27 
REMARK    9  A    between atoms: C_27  and  C_29 
REMARK   10  A    between atoms: C_27  and  C_40 
REMARK   11  A    between atoms: C_29  and  C_30 
REMARK   12  A    between atoms: C_33  and  O_39 
REMARK   13  A    between atoms: C_34  and  N_36 
REMARK   14  A    between atoms: C_40  and  O_42 
REMARK   15  A    between atoms: O_42  and  C_43 
REMARK   16  A    between atoms: C_46  and  C_47 
ROOT
ATOM      1  C   LIG d   1      11.480   7.946   0.330  0.00  0.00     0.129 C 
ATOM      2  C   LIG d   1      10.111   8.634   0.099  0.00  0.00    -0.016 C 
ATOM      3  C   LIG d   1       9.511   7.989  -1.182  0.00  0.00    -0.046 C 
ATOM      4  C   LIG d   1      10.258   6.646  -1.244  0.00  0.00    -0.029 C 
ATOM      5  H   LIG d   1       9.894   6.013  -0.414  0.00  0.00     0.031 H 
ATOM      6  C   LIG d   1      11.705   7.094  -0.938  0.00  0.00     0.007 C 
ATOM      7  C   LIG d   1      12.590   5.890  -0.739  0.00  0.00    -0.044 C 
ATOM      8  C   LIG d   1      12.295   4.802  -1.778  0.00  0.00    -0.049 C 
ATOM      9  C   LIG d   1      11.498   5.314  -2.968  0.00  0.00    -0.029 C 
ATOM     10  H   LIG d   1      12.068   6.070  -3.508  0.00  0.00     0.031 H 
ATOM     11  C   LIG d   1      10.151   5.882  -2.531  0.00  0.00    -0.034 C 
ATOM     12  H   LIG d   1       9.488   5.013  -2.341  0.00  0.00     0.031 H 
ATOM     13  C   LIG d   1       9.495   6.684  -3.646  0.00  0.00    -0.046 C 
ATOM     14  C   LIG d   1       9.751   6.018  -5.001  0.00  0.00    -0.031 C 
ATOM     15  C   LIG d   1      10.031   4.549  -4.782  0.00  0.00    -0.062 C 
ATOM     16  C   LIG d   1       9.234   3.628  -5.298  0.00  0.00    -0.037 C 
ATOM     17  C   LIG d   1       9.487   2.198  -5.084  0.00  0.00     0.080 C 
ATOM     18  N   LIG d   1       8.728   1.316  -5.658  0.00  0.00    -0.089 NA
ATOM     19  C   LIG d   1      10.622   1.751  -4.198  0.00  0.00    -0.006 C 
ATOM     20  C   LIG d   1      10.986   2.867  -3.218  0.00  0.00    -0.038 C 
ATOM     21  C   LIG d   1      11.242   4.169  -3.964  0.00  0.00    -0.007 C 
ATOM     22  H   LIG d   1       9.455   8.454   0.948  0.00  0.00     0.030 H 
ATOM     23  H   LIG d   1      10.252   9.704  -0.053  0.00  0.00     0.030 H 
ATOM     24  H   LIG d   1       8.441   7.819  -1.050  0.00  0.00     0.027 H 
ATOM     25  H   LIG d   1       9.695   8.603  -2.055  0.00  0.00     0.027 H 
ATOM     26  H   LIG d   1      13.644   6.191  -0.821  0.00  0.00     0.027 H 
ATOM     27  H   LIG d   1      12.441   5.475   0.266  0.00  0.00     0.027 H 
ATOM     28  H   LIG d   1      13.245   4.381  -2.126  0.00  0.00     0.027 H 
ATOM     29  H   LIG d   1      11.735   3.996  -1.287  0.00  0.00     0.027 H 
ATOM     30  H   LIG d   1       8.421   6.728  -3.473  0.00  0.00     0.027 H 
ATOM     31  H   LIG d   1       9.905   7.689  -3.669  0.00  0.00     0.027 H 
ATOM     32  H   LIG d   1       8.868   6.129  -5.628  0.00  0.00     0.031 H 
ATOM     33  H   LIG d   1      10.606   6.489  -5.481  0.00  0.00     0.031 H 
ATOM     34  H   LIG d   1       8.381   3.933  -5.888  0.00  0.00     0.064 H 
ATOM     35  H   LIG d   1      10.303   0.868  -3.633  0.00  0.00     0.033 H 
ATOM     36  H   LIG d   1      11.483   1.479  -4.804  0.00  0.00     0.033 H 
ATOM     37  H   LIG d   1      10.166   3.005  -2.508  0.00  0.00     0.028 H 
ATOM     38  H   LIG d   1      11.883   2.577  -2.665  0.00  0.00     0.028 H 
ENDROOT
BRANCH  18  39
ATOM     39  O   LIG d   1       7.659   1.734  -6.486  0.00  0.00    -0.384 OA
BRANCH  39  40
ATOM     40  C   LIG d   1       7.049   0.675  -7.227  0.00  0.00     0.193 C 
ATOM     41  H   LIG d   1       6.571   1.084  -8.118  0.00  0.00     0.082 H 
ATOM     42  H   LIG d   1       7.812  -0.046  -7.524  0.00  0.00     0.082 H 
BRANCH  40  43
ATOM     43  C   LIG d   1       6.017  -0.009  -6.370  0.00  0.00     0.254 C 
ATOM     44  O   LIG d   1       5.190  -0.734  -6.879  0.00  0.00    -0.272 OA
ATOM     45  N   LIG d   1       6.012   0.185  -5.036  0.00  0.00    -0.299 N 
ATOM     46  H   LIG d   1       6.674   0.766  -4.627  0.00  0.00     0.150 HD
BRANCH  45  47
ATOM     47  C   LIG d   1       5.008  -0.480  -4.202  0.00  0.00     0.124 C 
ATOM     48  H   LIG d   1       4.287  -0.991  -4.840  0.00  0.00     0.062 H 
BRANCH  47  49
ATOM     49  C   LIG d   1       5.696  -1.500  -3.293  0.00  0.00     0.001 C 
ATOM     50  H   LIG d   1       6.602  -1.062  -2.874  0.00  0.00     0.034 H 
ATOM     51  H   LIG d   1       5.022  -1.780  -2.483  0.00  0.00     0.034 H 
BRANCH  49  52
ATOM     52  C   LIG d   1       6.055  -2.727  -4.092  0.00  0.00    -0.038 A 
ATOM     53  C   LIG d   1       5.064  -3.605  -4.491  0.00  0.00     0.023 A 
ATOM     54  C   LIG d   1       5.391  -4.727  -5.227  0.00  0.00     0.314 A 
ATOM     55  H   LIG d   1       4.034  -3.411  -4.230  0.00  0.00     0.069 H 
ATOM     56  C   LIG d   1       6.714  -4.978  -5.558  0.00  0.00     0.195 A 
ATOM     57  C   LIG d   1       7.707  -4.098  -5.152  0.00  0.00    -0.013 A 
ATOM     58  C   LIG d   1       7.376  -2.975  -4.420  0.00  0.00    -0.055 A 
ATOM     59  H   LIG d   1       8.738  -4.292  -5.408  0.00  0.00     0.066 H 
ATOM     60  H   LIG d   1       8.148  -2.289  -4.104  0.00  0.00     0.062 H 
BRANCH  54  61
ATOM     61  N   LIG d   1       4.329  -5.664  -5.659  0.00  0.00     0.083 N 
ATOM     62  O   LIG d   1       3.422  -5.271  -6.356  0.00  0.00     0.042 OA
ATOM     63  O   LIG d   1       4.368  -6.822  -5.314  0.00  0.00    -0.576 OA
ENDBRANCH  54  61
BRANCH  56  64
ATOM     64  O   LIG d   1       7.038  -6.084  -6.278  0.00  0.00    -0.501 OA
ATOM     65  H   LIG d   1       7.541  -6.743  -5.782  0.00  0.00     0.292 HD
ENDBRANCH  56  64
ENDBRANCH  49  52
ENDBRANCH  47  49
BRANCH  47  66
ATOM     66  C   LIG d   1       4.296   0.545  -3.359  0.00  0.00     0.328 C 
ATOM     67  O   LIG d   1       4.693   0.793  -2.245  0.00  0.00    -0.249 OA
BRANCH  66  68
ATOM     68  O   LIG d   1       3.221   1.184  -3.845  0.00  0.00    -0.467 OA
BRANCH  68  69
ATOM     69  C   LIG d   1       2.453   0.500  -4.838  0.00  0.00     0.082 C 
ATOM     70  H   LIG d   1       3.063  -0.277  -5.297  0.00  0.00     0.066 H 
ATOM     71  H   LIG d   1       1.577   0.048  -4.373  0.00  0.00     0.066 H 
ATOM     72  H   LIG d   1       2.133   1.209  -5.603  0.00  0.00     0.066 H 
ENDBRANCH  68  69
ENDBRANCH  66  68
ENDBRANCH  47  66
ENDBRANCH  45  47
ENDBRANCH  40  43
ENDBRANCH  39  40
ENDBRANCH  18  39
BRANCH  21  73
ATOM     73  C   LIG d   1      12.458   4.027  -4.884  0.00  0.00    -0.056 C 
ATOM     74  H   LIG d   1      13.296   3.622  -4.318  0.00  0.00     0.024 H 
ATOM     75  H   LIG d   1      12.215   3.354  -5.706  0.00  0.00     0.024 H 
ATOM     76  H   LIG d   1      12.728   5.005  -5.283  0.00  0.00     0.024 H 
ENDBRANCH  21  73
BRANCH   6  77
ATOM     77  C   LIG d   1      12.275   8.029  -2.005  0.00  0.00    -0.056 C 
ATOM     78  H   LIG d   1      13.258   8.381  -1.691  0.00  0.00     0.024 H 
ATOM     79  H   LIG d   1      12.368   7.490  -2.949  0.00  0.00     0.024 H 
ATOM     80  H   LIG d   1      11.609   8.881  -2.137  0.00  0.00     0.024 H 
ENDBRANCH   6  77
BRANCH   1  81
ATOM     81  C   LIG d   1      12.572   8.972   0.457  0.00  0.00     0.162 C 
ATOM     82  O   LIG d   1      13.692   8.628   0.750  0.00  0.00    -0.295 OA
BRANCH  81  83
ATOM     83  C   LIG d   1      12.269  10.429   0.219  0.00  0.00    -0.003 C 
ATOM     84  H   LIG d   1      11.828  10.859   1.119  0.00  0.00     0.031 H 
ATOM     85  H   LIG d   1      13.191  10.957  -0.021  0.00  0.00     0.031 H 
ATOM     86  H   LIG d   1      11.569  10.524  -0.611  0.00  0.00     0.031 H 
ENDBRANCH  81  83
ENDBRANCH   1  81
BRANCH   1  87
ATOM     87  O   LIG d   1      11.429   7.112   1.484  0.00  0.00    -0.381 OA
ATOM     88  H   LIG d   1      10.834   7.433   2.175  0.00  0.00     0.211 HD
ENDBRANCH   1  87
TORSDOF 16
ENDMDL
MODEL 2
REMARK VINA RESULT:      -7.3      2.371      3.887
REMARK  16 active torsions:
REMARK  status: ('A' for Active; 'I' for Inactive)
REMARK    1  A    between atoms: C_1  and  C_2 
REMARK    2  A    between atoms: C_2  and  C_4 
REMARK    3  A    between atoms: C_4  and  O_49 
REMARK    4  A    between atoms: C_9  and  C_48 
REMARK    5  A    between atoms: N_21  and  O_22 
REMARK    6  A    between atoms: O_22  and  C_23 
REMARK    7  A    between atoms: C_23  and  C_24 
REMARK       I    between atoms: C_24  and  N_26 
REMARK    8  A    between atoms: N_26  and  C_27 
REMARK    9  A    between atoms: C_27  and  C_29 
REMARK   10  A    between atoms: C_27  and  C_40 
REMARK   11  A    between atoms: C_29  and  C_30 
REMARK   12  A    between atoms: C_33  and  O_39 
REMARK   13  A    between atoms: C_34  and  N_36 
REMARK   14  A    between atoms: C_40  and  O_42 
REMARK   15  A    between atoms: O_42  and  C_43 
REMARK   16  A    between atoms: C_46  and  C_47 
ROOT
ATOM      1  C   LIG d   1      10.409   7.821  -1.929  0.00  0.00     0.129 C 
ATOM      2  C   LIG d   1      10.076   8.838  -3.048  0.00  0.00    -0.016 C 
ATOM      3  C   LIG d   1       9.892   8.009  -4.350  0.00  0.00    -0.046 C 
ATOM      4  C   LIG d   1       9.563   6.612  -3.795  0.00  0.00    -0.029 C 
ATOM      5  H   LIG d   1       8.555   6.652  -3.343  0.00  0.00     0.031 H 
ATOM      6  C   LIG d   1      10.614   6.482  -2.671  0.00  0.00     0.007 C 
ATOM      7  C   LIG d   1      10.337   5.254  -1.841  0.00  0.00    -0.044 C 
ATOM      8  C   LIG d   1       9.960   4.058  -2.723  0.00  0.00    -0.049 C 
ATOM      9  C   LIG d   1      10.325   4.256  -4.186  0.00  0.00    -0.029 C 
ATOM     10  H   LIG d   1      11.405   4.357  -4.297  0.00  0.00     0.031 H 
ATOM     11  C   LIG d   1       9.620   5.476  -4.773  0.00  0.00    -0.034 C 
ATOM     12  H   LIG d   1       8.575   5.168  -4.979  0.00  0.00     0.031 H 
ATOM     13  C   LIG d   1      10.220   5.875  -6.114  0.00  0.00    -0.046 C 
ATOM     14  C   LIG d   1      10.600   4.628  -6.918  0.00  0.00    -0.031 C 
ATOM     15  C   LIG d   1       9.766   3.462  -6.441  0.00  0.00    -0.062 C 
ATOM     16  C   LIG d   1       8.932   2.849  -7.264  0.00  0.00    -0.037 C 
ATOM     17  C   LIG d   1       8.108   1.722  -6.811  0.00  0.00     0.080 C 
ATOM     18  N   LIG d   1       7.348   1.097  -7.657  0.00  0.00    -0.089 NA
ATOM     19  C   LIG d   1       8.138   1.291  -5.367  0.00  0.00    -0.006 C 
ATOM     20  C   LIG d   1       8.603   2.452  -4.487  0.00  0.00    -0.038 C 
ATOM     21  C   LIG d   1       9.918   3.019  -5.005  0.00  0.00    -0.007 C 
ATOM     22  H   LIG d   1       9.154   9.366  -2.810  0.00  0.00     0.030 H 
ATOM     23  H   LIG d   1      10.897   9.544  -3.168  0.00  0.00     0.030 H 
ATOM     24  H   LIG d   1       9.047   8.394  -4.925  0.00  0.00     0.027 H 
ATOM     25  H   LIG d   1      10.794   8.011  -4.948  0.00  0.00     0.027 H 
ATOM     26  H   LIG d   1      11.228   5.000  -1.251  0.00  0.00     0.027 H 
ATOM     27  H   LIG d   1       9.519   5.451  -1.137  0.00  0.00     0.027 H 
ATOM     28  H   LIG d   1      10.463   3.164  -2.338  0.00  0.00     0.027 H 
ATOM     29  H   LIG d   1       8.879   3.892  -2.639  0.00  0.00     0.027 H 
ATOM     30  H   LIG d   1       9.487   6.448  -6.679  0.00  0.00     0.027 H 
ATOM     31  H   LIG d   1      11.112   6.474  -5.957  0.00  0.00     0.027 H 
ATOM     32  H   LIG d   1      10.401   4.808  -7.974  0.00  0.00     0.031 H 
ATOM     33  H   LIG d   1      11.655   4.411  -6.774  0.00  0.00     0.031 H 
ATOM     34  H   LIG d   1       8.854   3.184  -8.289  0.00  0.00     0.064 H 
ATOM     35  H   LIG d   1       7.127   0.996  -5.064  0.00  0.00     0.033 H 
ATOM     36  H   LIG d   1       8.797   0.434  -5.247  0.00  0.00     0.033 H 
ATOM     37  H   LIG d   1       7.839   3.234  -4.490  0.00  0.00     0.028 H 
ATOM     38  H   LIG d   1       8.735   2.093  -3.463  0.00  0.00     0.028 H 
ENDROOT
BRANCH  18  39
ATOM     39  O   LIG d   1       7.315   1.504  -9.012  0.00  0.00    -0.384 OA
BRANCH  39  40
ATOM     40  C   LIG d   1       6.728   0.544  -9.893  0.00  0.00     0.193 C 
ATOM     41  H   LIG d   1       6.204   1.062 -10.697  0.00  0.00     0.082 H 
ATOM     42  H   LIG d   1       7.511  -0.085 -10.317  0.00  0.00     0.082 H 
BRANCH  40  43
ATOM     43  C   LIG d   1       5.754  -0.312  -9.128  0.00  0.00     0.254 C 
ATOM     44  O   LIG d   1       5.996  -1.485  -8.938  0.00  0.00    -0.272 OA
ATOM     45  N   LIG d   1       4.613   0.225  -8.652  0.00  0.00    -0.299 N 
ATOM     46  H   LIG d   1       4.418   1.163  -8.804  0.00  0.00     0.150 HD
BRANCH  45  47
ATOM     47  C   LIG d   1       3.665  -0.608  -7.908  0.00  0.00     0.124 C 
ATOM     48  H   LIG d   1       4.207  -1.398  -7.388  0.00  0.00     0.062 H 
BRANCH  47  49
ATOM     49  C   LIG d   1       2.919   0.255  -6.888  0.00  0.00     0.001 C 
ATOM     50  H   LIG d   1       3.180   1.303  -7.038  0.00  0.00     0.034 H 
ATOM     51  H   LIG d   1       1.845   0.127  -7.020  0.00  0.00     0.034 H 
BRANCH  49  52
ATOM     52  C   LIG d   1       3.308  -0.164  -5.494  0.00  0.00    -0.038 A 
ATOM     53  C   LIG d   1       4.479  -0.870  -5.286  0.00  0.00     0.023 A 
ATOM     54  C   LIG d   1       4.839  -1.251  -4.008  0.00  0.00     0.314 A 
ATOM     55  H   LIG d   1       5.114  -1.120  -6.123  0.00  0.00     0.069 H 
ATOM     56  C   LIG d   1       4.021  -0.934  -2.935  0.00  0.00     0.195 A 
ATOM     57  C   LIG d   1       2.844  -0.231  -3.146  0.00  0.00    -0.013 A 
ATOM     58  C   LIG d   1       2.489   0.153  -4.424  0.00  0.00    -0.055 A 
ATOM     59  H   LIG d   1       2.204   0.016  -2.311  0.00  0.00     0.066 H 
ATOM     60  H   LIG d   1       1.574   0.700  -4.590  0.00  0.00     0.062 H 
BRANCH  54  61
ATOM     61  N   LIG d   1       6.095  -2.002  -3.786  0.00  0.00     0.083 N 
ATOM     62  O   LIG d   1       6.975  -1.522  -3.108  0.00  0.00     0.042 OA
ATOM     63  O   LIG d   1       6.242  -3.094  -4.282  0.00  0.00    -0.576 OA
ENDBRANCH  54  61
BRANCH  56  64
ATOM     64  O   LIG d   1       4.370  -1.313  -1.677  0.00  0.00    -0.501 OA
ATOM     65  H   LIG d   1       4.871  -2.139  -1.639  0.00  0.00     0.292 HD
ENDBRANCH  56  64
ENDBRANCH  49  52
ENDBRANCH  47  49
BRANCH  47  66
ATOM     66  C   LIG d   1       2.677  -1.223  -8.864  0.00  0.00     0.328 C 
ATOM     67  O   LIG d   1       2.738  -2.402  -9.123  0.00  0.00    -0.249 OA
BRANCH  66  68
ATOM     68  O   LIG d   1       1.728  -0.461  -9.431  0.00  0.00    -0.467 OA
BRANCH  68  69
ATOM     69  C   LIG d   1       1.330  -0.801 -10.761  0.00  0.00     0.082 C 
ATOM     70  H   LIG d   1       0.374  -0.329 -10.985  0.00  0.00     0.066 H 
ATOM     71  H   LIG d   1       2.083  -0.450 -11.466  0.00  0.00     0.066 H 
ATOM     72  H   LIG d   1       1.229  -1.883 -10.845  0.00  0.00     0.066 H 
ENDBRANCH  68  69
ENDBRANCH  66  68
ENDBRANCH  47  66
ENDBRANCH  45  47
ENDBRANCH  40  43
ENDBRANCH  39  40
ENDBRANCH  18  39
BRANCH  21  73
ATOM     73  C   LIG d   1      11.028   1.969  -4.907  0.00  0.00    -0.056 C 
ATOM     74  H   LIG d   1      10.612   0.982  -5.106  0.00  0.00     0.024 H 
ATOM     75  H   LIG d   1      11.804   2.191  -5.640  0.00  0.00     0.024 H 
ATOM     76  H   LIG d   1      11.457   1.987  -3.906  0.00  0.00     0.024 H 
ENDBRANCH  21  73
BRANCH   6  77
ATOM     77  C   LIG d   1      12.049   6.481  -3.196  0.00  0.00    -0.056 C 
ATOM     78  H   LIG d   1      12.546   7.405  -2.897  0.00  0.00     0.024 H 
ATOM     79  H   LIG d   1      12.588   5.628  -2.780  0.00  0.00     0.024 H 
ATOM     80  H   LIG d   1      12.039   6.409  -4.283  0.00  0.00     0.024 H 
ENDBRANCH   6  77
BRANCH   1  81
ATOM     81  C   LIG d   1      11.677   8.211  -1.220  0.00  0.00     0.162 C 
ATOM     82  O   LIG d   1      12.423   9.020  -1.717  0.00  0.00    -0.295 OA
BRANCH  81  83
ATOM     83  C   LIG d   1      12.016   7.593   0.112  0.00  0.00    -0.003 C 
ATOM     84  H   LIG d   1      11.615   8.214   0.913  0.00  0.00     0.031 H 
ATOM     85  H   LIG d   1      11.578   6.597   0.172  0.00  0.00     0.031 H 
ATOM     86  H   LIG d   1      13.099   7.521   0.214  0.00  0.00     0.031 H 
ENDBRANCH  81  83
ENDBRANCH   1  81
BRANCH   1  87
ATOM     87  O   LIG d   1       9.325   7.717  -1.011  0.00  0.00    -0.381 OA
ATOM     88  H   LIG d   1       8.505   7.392  -1.406  0.00  0.00     0.211 HD
ENDBRANCH   1  87
TORSDOF 16
ENDMDL
MODEL 3
REMARK VINA RESULT:      -7.3      1.425      2.211
REMARK  16 active torsions:
REMARK  status: ('A' for Active; 'I' for Inactive)
REMARK    1  A    between atoms: C_1  and  C_2 
REMARK    2  A    between atoms: C_2  and  C_4 
REMARK    3  A    between atoms: C_4  and  O_49 
REMARK    4  A    between atoms: C_9  and  C_48 
REMARK    5  A    between atoms: N_21  and  O_22 
REMARK    6  A    between atoms: O_22  and  C_23 
REMARK    7  A    between atoms: C_23  and  C_24 
REMARK       I    between atoms: C_24  and  N_26 
REMARK    8  A    between atoms: N_26  and  C_27 
REMARK    9  A    between atoms: C_27  and  C_29 
REMARK   10  A    between atoms: C_27  and  C_40 
REMARK   11  A    between atoms: C_29  and  C_30 
REMARK   12  A    between atoms: C_33  and  O_39 
REMARK   13  A    between atoms: C_34  and  N_36 
REMARK   14  A    between atoms: C_40  and  O_42 
REMARK   15  A    between atoms: O_42  and  C_43 
REMARK   16  A    between atoms: C_46  and  C_47 
ROOT
ATOM      1  C   LIG d   1      10.871   6.465  -1.516  0.00  0.00     0.129 C 
ATOM      2  C   LIG d   1       9.945   7.506  -2.192  0.00  0.00    -0.016 C 
ATOM      3  C   LIG d   1       9.464   6.862  -3.523  0.00  0.00    -0.046 C 
ATOM      4  C   LIG d   1       9.658   5.362  -3.240  0.00  0.00    -0.029 C 
ATOM      5  H   LIG d   1       8.905   5.055  -2.490  0.00  0.00     0.031 H 
ATOM      6  C   LIG d   1      11.054   5.360  -2.580  0.00  0.00     0.007 C 
ATOM      7  C   LIG d   1      11.363   3.994  -2.021  0.00  0.00    -0.044 C 
ATOM      8  C   LIG d   1      10.938   2.886  -2.992  0.00  0.00    -0.049 C 
ATOM      9  C   LIG d   1      10.684   3.393  -4.403  0.00  0.00    -0.029 C 
ATOM     10  H   LIG d   1      11.600   3.802  -4.829  0.00  0.00     0.031 H 
ATOM     11  C   LIG d   1       9.578   4.444  -4.424  0.00  0.00    -0.034 C 
ATOM     12  H   LIG d   1       8.618   3.894  -4.348  0.00  0.00     0.031 H 
ATOM     13  C   LIG d   1       9.540   5.188  -5.752  0.00  0.00    -0.046 C 
ATOM     14  C   LIG d   1       9.840   4.228  -6.907  0.00  0.00    -0.031 C 
ATOM     15  C   LIG d   1       9.501   2.820  -6.477  0.00  0.00    -0.062 C 
ATOM     16  C   LIG d   1       8.564   2.130  -7.107  0.00  0.00    -0.037 C 
ATOM     17  C   LIG d   1       8.218   0.766  -6.693  0.00  0.00     0.080 C 
ATOM     18  N   LIG d   1       7.342   0.089  -7.371  0.00  0.00    -0.089 NA
ATOM     19  C   LIG d   1       8.870   0.149  -5.482  0.00  0.00    -0.006 C 
ATOM     20  C   LIG d   1       9.381   1.250  -4.551  0.00  0.00    -0.038 C 
ATOM     21  C   LIG d   1      10.263   2.227  -5.316  0.00  0.00    -0.007 C 
ATOM     22  H   LIG d   1       9.091   7.718  -1.552  0.00  0.00     0.030 H 
ATOM     23  H   LIG d   1      10.500   8.420  -2.400  0.00  0.00     0.030 H 
ATOM     24  H   LIG d   1       8.406   7.080  -3.685  0.00  0.00     0.027 H 
ATOM     25  H   LIG d   1      10.057   7.202  -4.362  0.00  0.00     0.027 H 
ATOM     26  H   LIG d   1      12.442   3.911  -1.829  0.00  0.00     0.027 H 
ATOM     27  H   LIG d   1      10.844   3.851  -1.066  0.00  0.00     0.027 H 
ATOM     28  H   LIG d   1      11.719   2.118  -3.013  0.00  0.00     0.027 H 
ATOM     29  H   LIG d   1      10.024   2.418  -2.605  0.00  0.00     0.027 H 
ATOM     30  H   LIG d   1       8.549   5.615  -5.896  0.00  0.00     0.027 H 
ATOM     31  H   LIG d   1      10.284   5.979  -5.754  0.00  0.00     0.027 H 
ATOM     32  H   LIG d   1       9.230   4.501  -7.767  0.00  0.00     0.031 H 
ATOM     33  H   LIG d   1      10.894   4.291  -7.167  0.00  0.00     0.031 H 
ATOM     34  H   LIG d   1       8.045   2.579  -7.941  0.00  0.00     0.064 H 
ATOM     35  H   LIG d   1       8.127  -0.454  -4.948  0.00  0.00     0.033 H 
ATOM     36  H   LIG d   1       9.686  -0.501  -5.789  0.00  0.00     0.033 H 
ATOM     37  H   LIG d   1       8.529   1.782  -4.121  0.00  0.00     0.028 H 
ATOM     38  H   LIG d   1       9.955   0.793  -3.740  0.00  0.00     0.028 H 
ENDROOT
BRANCH  18  39
ATOM     39  O   LIG d   1       6.725   0.667  -8.505  0.00  0.00    -0.384 OA
BRANCH  39  40
ATOM     40  C   LIG d   1       5.300   0.733  -8.423  0.00  0.00     0.193 C 
ATOM     41  H   LIG d   1       4.996   1.753  -8.185  0.00  0.00     0.082 H 
ATOM     42  H   LIG d   1       4.867   0.439  -9.380  0.00  0.00     0.082 H 
BRANCH  40  43
ATOM     43  C   LIG d   1       4.815  -0.201  -7.345  0.00  0.00     0.254 C 
ATOM     44  O   LIG d   1       4.479  -1.331  -7.628  0.00  0.00    -0.272 OA
ATOM     45  N   LIG d   1       4.755   0.219  -6.066  0.00  0.00    -0.299 N 
ATOM     46  H   LIG d   1       5.024   1.123  -5.838  0.00  0.00     0.150 HD
BRANCH  45  47
ATOM     47  C   LIG d   1       4.284  -0.690  -5.018  0.00  0.00     0.124 C 
ATOM     48  H   LIG d   1       3.824  -1.564  -5.476  0.00  0.00     0.062 H 
BRANCH  47  49
ATOM     49  C   LIG d   1       5.467  -1.129  -4.154  0.00  0.00     0.001 C 
ATOM     50  H   LIG d   1       6.295  -0.433  -4.289  0.00  0.00     0.034 H 
ATOM     51  H   LIG d   1       5.170  -1.139  -3.105  0.00  0.00     0.034 H 
BRANCH  49  52
ATOM     52  C   LIG d   1       5.903  -2.513  -4.564  0.00  0.00    -0.038 A 
ATOM     53  C   LIG d   1       4.957  -3.462  -4.904  0.00  0.00     0.023 A 
ATOM     54  C   LIG d   1       5.354  -4.730  -5.283  0.00  0.00     0.314 A 
ATOM     55  H   LIG d   1       3.907  -3.212  -4.875  0.00  0.00     0.069 H 
ATOM     56  C   LIG d   1       6.702  -5.052  -5.315  0.00  0.00     0.195 A 
ATOM     57  C   LIG d   1       7.650  -4.100  -4.968  0.00  0.00    -0.013 A 
ATOM     58  C   LIG d   1       7.249  -2.832  -4.593  0.00  0.00    -0.055 A 
ATOM     59  H   LIG d   1       8.700  -4.349  -4.991  0.00  0.00     0.066 H 
ATOM     60  H   LIG d   1       7.985  -2.090  -4.324  0.00  0.00     0.062 H 
BRANCH  54  61
ATOM     61  N   LIG d   1       4.341  -5.743  -5.652  0.00  0.00     0.083 N 
ATOM     62  O   LIG d   1       4.458  -6.884  -5.268  0.00  0.00     0.042 OA
ATOM     63  O   LIG d   1       3.395  -5.431  -6.338  0.00  0.00    -0.576 OA
ENDBRANCH  54  61
BRANCH  56  64
ATOM     64  O   LIG d   1       7.095  -6.299  -5.683  0.00  0.00    -0.501 OA
ATOM     65  H   LIG d   1       7.555  -6.332  -6.533  0.00  0.00     0.292 HD
ENDBRANCH  56  64
ENDBRANCH  49  52
ENDBRANCH  47  49
BRANCH  47  66
ATOM     66  C   LIG d   1       3.270   0.019  -4.158  0.00  0.00     0.328 C 
ATOM     67  O   LIG d   1       2.245  -0.540  -3.845  0.00  0.00    -0.249 OA
BRANCH  66  68
ATOM     68  O   LIG d   1       3.505   1.272  -3.737  0.00  0.00    -0.467 OA
BRANCH  68  69
ATOM     69  C   LIG d   1       3.786   1.449  -2.347  0.00  0.00     0.082 C 
ATOM     70  H   LIG d   1       4.414   2.329  -2.213  0.00  0.00     0.066 H 
ATOM     71  H   LIG d   1       2.853   1.581  -1.801  0.00  0.00     0.066 H 
ATOM     72  H   LIG d   1       4.308   0.570  -1.967  0.00  0.00     0.066 H 
ENDBRANCH  68  69
ENDBRANCH  66  68
ENDBRANCH  47  66
ENDBRANCH  45  47
ENDBRANCH  40  43
ENDBRANCH  39  40
ENDBRANCH  18  39
BRANCH  21  73
ATOM     73  C   LIG d   1      11.519   1.521  -5.833  0.00  0.00    -0.056 C 
ATOM     74  H   LIG d   1      12.151   1.241  -4.991  0.00  0.00     0.024 H 
ATOM     75  H   LIG d   1      11.231   0.627  -6.386  0.00  0.00     0.024 H 
ATOM     76  H   LIG d   1      12.069   2.194  -6.491  0.00  0.00     0.024 H 
ENDBRANCH  21  73
BRANCH   6  77
ATOM     77  C   LIG d   1      12.159   5.833  -3.525  0.00  0.00    -0.056 C 
ATOM     78  H   LIG d   1      12.075   6.911  -3.671  0.00  0.00     0.024 H 
ATOM     79  H   LIG d   1      13.133   5.600  -3.092  0.00  0.00     0.024 H 
ATOM     80  H   LIG d   1      12.058   5.328  -4.485  0.00  0.00     0.024 H 
ENDBRANCH   6  77
BRANCH   1  81
ATOM     81  C   LIG d   1      12.203   7.080  -1.183  0.00  0.00     0.162 C 
ATOM     82  O   LIG d   1      12.461   8.200  -1.553  0.00  0.00    -0.295 OA
BRANCH  81  83
ATOM     83  C   LIG d   1      13.216   6.297  -0.388  0.00  0.00    -0.003 C 
ATOM     84  H   LIG d   1      13.418   6.815   0.550  0.00  0.00     0.031 H 
ATOM     85  H   LIG d   1      12.822   5.304  -0.176  0.00  0.00     0.031 H 
ATOM     86  H   LIG d   1      14.138   6.208  -0.961  0.00  0.00     0.031 H 
ENDBRANCH  81  83
ENDBRANCH   1  81
BRANCH   1  87
ATOM     87  O   LIG d   1      10.252   5.931  -0.350  0.00  0.00    -0.381 OA
ATOM     88  H   LIG d   1      10.822   5.342   0.163  0.00  0.00     0.211 HD
ENDBRANCH   1  87
TORSDOF 16
ENDMDL
MODEL 4
REMARK VINA RESULT:      -7.2      5.938     11.322
REMARK  16 active torsions:
REMARK  status: ('A' for Active; 'I' for Inactive)
REMARK    1  A    between atoms: C_1  and  C_2 
REMARK    2  A    between atoms: C_2  and  C_4 
REMARK    3  A    between atoms: C_4  and  O_49 
REMARK    4  A    between atoms: C_9  and  C_48 
REMARK    5  A    between atoms: N_21  and  O_22 
REMARK    6  A    between atoms: O_22  and  C_23 
REMARK    7  A    between atoms: C_23  and  C_24 
REMARK       I    between atoms: C_24  and  N_26 
REMARK    8  A    between atoms: N_26  and  C_27 
REMARK    9  A    between atoms: C_27  and  C_29 
REMARK   10  A    between atoms: C_27  and  C_40 
REMARK   11  A    between atoms: C_29  and  C_30 
REMARK   12  A    between atoms: C_33  and  O_39 
REMARK   13  A    between atoms: C_34  and  N_36 
REMARK   14  A    between atoms: C_40  and  O_42 
REMARK   15  A    between atoms: O_42  and  C_43 
REMARK   16  A    between atoms: C_46  and  C_47 
ROOT
ATOM      1  C   LIG d   1      11.274   4.547  -4.850  0.00  0.00     0.129 C 
ATOM      2  C   LIG d   1      10.297   5.433  -5.662  0.00  0.00    -0.016 C 
ATOM      3  C   LIG d   1       9.808   6.544  -4.690  0.00  0.00    -0.046 C 
ATOM      4  C   LIG d   1      10.931   6.565  -3.639  0.00  0.00    -0.029 C 
ATOM      5  H   LIG d   1      11.836   6.986  -4.113  0.00  0.00     0.031 H 
ATOM      6  C   LIG d   1      11.143   5.054  -3.398  0.00  0.00     0.007 C 
ATOM      7  C   LIG d   1      12.363   4.832  -2.541  0.00  0.00    -0.044 C 
ATOM      8  C   LIG d   1      12.426   5.840  -1.388  0.00  0.00    -0.049 C 
ATOM      9  C   LIG d   1      11.102   6.545  -1.138  0.00  0.00    -0.029 C 
ATOM     10  H   LIG d   1      10.340   5.825  -0.840  0.00  0.00     0.031 H 
ATOM     11  C   LIG d   1      10.643   7.317  -2.372  0.00  0.00    -0.034 C 
ATOM     12  H   LIG d   1      11.242   8.250  -2.402  0.00  0.00     0.031 H 
ATOM     13  C   LIG d   1       9.188   7.747  -2.252  0.00  0.00    -0.046 C 
ATOM     14  C   LIG d   1       8.873   8.159  -0.811  0.00  0.00    -0.031 C 
ATOM     15  C   LIG d   1      10.154   8.572  -0.126  0.00  0.00    -0.062 C 
ATOM     16  C   LIG d   1      10.309   9.806   0.325  0.00  0.00    -0.037 C 
ATOM     17  C   LIG d   1      11.553  10.224   0.982  0.00  0.00     0.080 C 
ATOM     18  N   LIG d   1      11.652  11.420   1.474  0.00  0.00    -0.089 NA
ATOM     19  C   LIG d   1      12.717   9.271   1.085  0.00  0.00    -0.006 C 
ATOM     20  C   LIG d   1      12.612   8.205  -0.007  0.00  0.00    -0.038 C 
ATOM     21  C   LIG d   1      11.244   7.537   0.030  0.00  0.00    -0.007 C 
ATOM     22  H   LIG d   1      10.813   5.881  -6.509  0.00  0.00     0.030 H 
ATOM     23  H   LIG d   1       9.450   4.839  -6.004  0.00  0.00     0.030 H 
ATOM     24  H   LIG d   1       9.761   7.504  -5.210  0.00  0.00     0.027 H 
ATOM     25  H   LIG d   1       8.846   6.296  -4.260  0.00  0.00     0.027 H 
ATOM     26  H   LIG d   1      12.342   3.813  -2.129  0.00  0.00     0.027 H 
ATOM     27  H   LIG d   1      13.272   4.925  -3.147  0.00  0.00     0.027 H 
ATOM     28  H   LIG d   1      12.739   5.316  -0.478  0.00  0.00     0.027 H 
ATOM     29  H   LIG d   1      13.196   6.586  -1.621  0.00  0.00     0.027 H 
ATOM     30  H   LIG d   1       9.009   8.597  -2.908  0.00  0.00     0.027 H 
ATOM     31  H   LIG d   1       8.535   6.925  -2.530  0.00  0.00     0.027 H 
ATOM     32  H   LIG d   1       8.180   8.999  -0.822  0.00  0.00     0.031 H 
ATOM     33  H   LIG d   1       8.426   7.319  -0.284  0.00  0.00     0.031 H 
ATOM     34  H   LIG d   1       9.506  10.519   0.207  0.00  0.00     0.064 H 
ATOM     35  H   LIG d   1      13.647   9.833   0.947  0.00  0.00     0.033 H 
ATOM     36  H   LIG d   1      12.735   8.809   2.069  0.00  0.00     0.033 H 
ATOM     37  H   LIG d   1      12.768   8.671  -0.983  0.00  0.00     0.028 H 
ATOM     38  H   LIG d   1      13.392   7.455   0.152  0.00  0.00     0.028 H 
ENDROOT
BRANCH  18  39
ATOM     39  O   LIG d   1      10.562  12.318   1.375  0.00  0.00    -0.384 OA
BRANCH  39  40
ATOM     40  C   LIG d   1      10.884  13.556   0.740  0.00  0.00     0.193 C 
ATOM     41  H   LIG d   1      10.163  14.317   1.040  0.00  0.00     0.082 H 
ATOM     42  H   LIG d   1      11.886  13.868   1.038  0.00  0.00     0.082 H 
BRANCH  40  43
ATOM     43  C   LIG d   1      10.837  13.381  -0.756  0.00  0.00     0.254 C 
ATOM     44  O   LIG d   1      11.862  13.404  -1.402  0.00  0.00    -0.272 OA
ATOM     45  N   LIG d   1       9.654  13.199  -1.376  0.00  0.00    -0.299 N 
ATOM     46  H   LIG d   1       8.833  13.182  -0.860  0.00  0.00     0.150 HD
BRANCH  45  47
ATOM     47  C   LIG d   1       9.609  13.029  -2.831  0.00  0.00     0.124 C 
ATOM     48  H   LIG d   1      10.622  13.053  -3.231  0.00  0.00     0.062 H 
BRANCH  47  49
ATOM     49  C   LIG d   1       8.960  11.685  -3.166  0.00  0.00     0.001 C 
ATOM     50  H   LIG d   1       8.813  11.112  -2.250  0.00  0.00     0.034 H 
ATOM     51  H   LIG d   1       7.996  11.855  -3.645  0.00  0.00     0.034 H 
BRANCH  49  52
ATOM     52  C   LIG d   1       9.856  10.913  -4.102  0.00  0.00    -0.038 A 
ATOM     53  C   LIG d   1       9.364  10.461  -5.312  0.00  0.00     0.023 A 
ATOM     54  C   LIG d   1      10.183   9.757  -6.173  0.00  0.00     0.314 A 
ATOM     55  H   LIG d   1       8.338  10.661  -5.587  0.00  0.00     0.069 H 
ATOM     56  C   LIG d   1      11.498   9.496  -5.818  0.00  0.00     0.195 A 
ATOM     57  C   LIG d   1      11.988   9.946  -4.601  0.00  0.00    -0.013 A 
ATOM     58  C   LIG d   1      11.167  10.654  -3.745  0.00  0.00    -0.055 A 
ATOM     59  H   LIG d   1      13.012   9.744  -4.322  0.00  0.00     0.066 H 
ATOM     60  H   LIG d   1      11.547  11.004  -2.797  0.00  0.00     0.062 H 
BRANCH  54  61
ATOM     61  N   LIG d   1       9.657   9.278  -7.470  0.00  0.00     0.083 N 
ATOM     62  O   LIG d   1      10.089   9.735  -8.504  0.00  0.00     0.042 OA
ATOM     63  O   LIG d   1       8.796   8.430  -7.498  0.00  0.00    -0.576 OA
ENDBRANCH  54  61
BRANCH  56  64
ATOM     64  O   LIG d   1      12.305   8.800  -6.660  0.00  0.00    -0.501 OA
ATOM     65  H   LIG d   1      13.180   8.606  -6.297  0.00  0.00     0.292 HD
ENDBRANCH  56  64
ENDBRANCH  49  52
ENDBRANCH  47  49
BRANCH  47  66
ATOM     66  C   LIG d   1       8.800  14.144  -3.442  0.00  0.00     0.328 C 
ATOM     67  O   LIG d   1       7.668  14.344  -3.069  0.00  0.00    -0.249 OA
BRANCH  66  68
ATOM     68  O   LIG d   1       9.337  14.915  -4.400  0.00  0.00    -0.467 OA
BRANCH  68  69
ATOM     69  C   LIG d   1       9.539  14.313  -5.681  0.00  0.00     0.082 C 
ATOM     70  H   LIG d   1       8.650  14.458  -6.294  0.00  0.00     0.066 H 
ATOM     71  H   LIG d   1      10.397  14.775  -6.168  0.00  0.00     0.066 H 
ATOM     72  H   LIG d   1       9.723  13.245  -5.556  0.00  0.00     0.066 H 
ENDBRANCH  68  69
ENDBRANCH  66  68
ENDBRANCH  47  66
ENDBRANCH  45  47
ENDBRANCH  40  43
ENDBRANCH  39  40
ENDBRANCH  18  39
BRANCH  21  73
ATOM     73  C   LIG d   1      11.051   6.785   1.350  0.00  0.00    -0.056 C 
ATOM     74  H   LIG d   1       9.987   6.673   1.551  0.00  0.00     0.024 H 
ATOM     75  H   LIG d   1      11.514   5.801   1.277  0.00  0.00     0.024 H 
ATOM     76  H   LIG d   1      11.517   7.347   2.159  0.00  0.00     0.024 H 
ENDBRANCH  21  73
BRANCH   6  77
ATOM     77  C   LIG d   1       9.915   4.370  -2.799  0.00  0.00    -0.056 C 
ATOM     78  H   LIG d   1      10.215   3.436  -2.323  0.00  0.00     0.024 H 
ATOM     79  H   LIG d   1       9.459   5.026  -2.056  0.00  0.00     0.024 H 
ATOM     80  H   LIG d   1       9.193   4.159  -3.588  0.00  0.00     0.024 H 
ENDBRANCH   6  77
BRANCH   1  81
ATOM     81  C   LIG d   1      10.865   3.102  -4.927  0.00  0.00     0.162 C 
ATOM     82  O   LIG d   1      11.606   2.242  -4.514  0.00  0.00    -0.295 OA
BRANCH  81  83
ATOM     83  C   LIG d   1       9.531   2.727  -5.519  0.00  0.00    -0.003 C 
ATOM     84  H   LIG d   1       9.687   2.085  -6.386  0.00  0.00     0.031 H 
ATOM     85  H   LIG d   1       8.941   2.194  -4.774  0.00  0.00     0.031 H 
ATOM     86  H   LIG d   1       9.002   3.630  -5.824  0.00  0.00     0.031 H 
ENDBRANCH  81  83
ENDBRANCH   1  81
BRANCH   1  87
ATOM     87  O   LIG d   1      12.609   4.723  -5.317  0.00  0.00    -0.381 OA
ATOM     88  H   LIG d   1      12.890   5.647  -5.366  0.00  0.00     0.211 HD
ENDBRANCH   1  87
TORSDOF 16
ENDMDL
MODEL 5
REMARK VINA RESULT:      -7.1      1.827      3.236
REMARK  16 active torsions:
REMARK  status: ('A' for Active; 'I' for Inactive)
REMARK    1  A    between atoms: C_1  and  C_2 
REMARK    2  A    between atoms: C_2  and  C_4 
REMARK    3  A    between atoms: C_4  and  O_49 
REMARK    4  A    between atoms: C_9  and  C_48 
REMARK    5  A    between atoms: N_21  and  O_22 
REMARK    6  A    between atoms: O_22  and  C_23 
REMARK    7  A    between atoms: C_23  and  C_24 
REMARK       I    between atoms: C_24  and  N_26 
REMARK    8  A    between atoms: N_26  and  C_27 
REMARK    9  A    between atoms: C_27  and  C_29 
REMARK   10  A    between atoms: C_27  and  C_40 
REMARK   11  A    between atoms: C_29  and  C_30 
REMARK   12  A    between atoms: C_33  and  O_39 
REMARK   13  A    between atoms: C_34  and  N_36 
REMARK   14  A    between atoms: C_40  and  O_42 
REMARK   15  A    between atoms: O_42  and  C_43 
REMARK   16  A    between atoms: C_46  and  C_47 
ROOT
ATOM      1  C   LIG d   1      11.499   8.042   0.459  0.00  0.00     0.129 C 
ATOM      2  C   LIG d   1      10.145   8.750   0.204  0.00  0.00    -0.016 C 
ATOM      3  C   LIG d   1       9.552   8.107  -1.081  0.00  0.00    -0.046 C 
ATOM      4  C   LIG d   1      10.278   6.751  -1.124  0.00  0.00    -0.029 C 
ATOM      5  H   LIG d   1       9.892   6.130  -0.295  0.00  0.00     0.031 H 
ATOM      6  C   LIG d   1      11.728   7.178  -0.801  0.00  0.00     0.007 C 
ATOM      7  C   LIG d   1      12.590   5.961  -0.581  0.00  0.00    -0.044 C 
ATOM      8  C   LIG d   1      12.292   4.871  -1.617  0.00  0.00    -0.049 C 
ATOM      9  C   LIG d   1      11.520   5.387  -2.821  0.00  0.00    -0.029 C 
ATOM     10  H   LIG d   1      12.109   6.131  -3.359  0.00  0.00     0.031 H 
ATOM     11  C   LIG d   1      10.176   5.981  -2.407  0.00  0.00    -0.034 C 
ATOM     12  H   LIG d   1       9.497   5.124  -2.221  0.00  0.00     0.031 H 
ATOM     13  C   LIG d   1       9.550   6.785  -3.537  0.00  0.00    -0.046 C 
ATOM     14  C   LIG d   1       9.814   6.106  -4.883  0.00  0.00    -0.031 C 
ATOM     15  C   LIG d   1      10.066   4.635  -4.651  0.00  0.00    -0.062 C 
ATOM     16  C   LIG d   1       9.262   3.723  -5.173  0.00  0.00    -0.037 C 
ATOM     17  C   LIG d   1       9.488   2.291  -4.946  0.00  0.00     0.080 C 
ATOM     18  N   LIG d   1       8.723   1.417  -5.524  0.00  0.00    -0.089 NA
ATOM     19  C   LIG d   1      10.603   1.831  -4.041  0.00  0.00    -0.006 C 
ATOM     20  C   LIG d   1      10.971   2.948  -3.063  0.00  0.00    -0.038 C 
ATOM     21  C   LIG d   1      11.260   4.241  -3.814  0.00  0.00    -0.007 C 
ATOM     22  H   LIG d   1       9.474   8.587   1.045  0.00  0.00     0.030 H 
ATOM     23  H   LIG d   1      10.305   9.816   0.047  0.00  0.00     0.030 H 
ATOM     24  H   LIG d   1       8.478   7.955  -0.963  0.00  0.00     0.027 H 
ATOM     25  H   LIG d   1       9.759   8.711  -1.955  0.00  0.00     0.027 H 
ATOM     26  H   LIG d   1      13.649   6.244  -0.650  0.00  0.00     0.027 H 
ATOM     27  H   LIG d   1      12.421   5.555   0.424  0.00  0.00     0.027 H 
ATOM     28  H   LIG d   1      13.239   4.432  -1.949  0.00  0.00     0.027 H 
ATOM     29  H   LIG d   1      11.712   4.078  -1.129  0.00  0.00     0.027 H 
ATOM     30  H   LIG d   1       8.474   6.849  -3.379  0.00  0.00     0.027 H 
ATOM     31  H   LIG d   1       9.976   7.784  -3.560  0.00  0.00     0.027 H 
ATOM     32  H   LIG d   1       8.941   6.228  -5.524  0.00  0.00     0.031 H 
ATOM     33  H   LIG d   1      10.683   6.560  -5.354  0.00  0.00     0.031 H 
ATOM     34  H   LIG d   1       8.422   4.038  -5.776  0.00  0.00     0.064 H 
ATOM     35  H   LIG d   1      10.262   0.958  -3.475  0.00  0.00     0.033 H 
ATOM     36  H   LIG d   1      11.468   1.542  -4.633  0.00  0.00     0.033 H 
ATOM     37  H   LIG d   1      10.144   3.104  -2.366  0.00  0.00     0.028 H 
ATOM     38  H   LIG d   1      11.856   2.647  -2.495  0.00  0.00     0.028 H 
ENDROOT
BRANCH  18  39
ATOM     39  O   LIG d   1       7.673   1.847  -6.371  0.00  0.00    -0.384 OA
BRANCH  39  40
ATOM     40  C   LIG d   1       7.696   1.258  -7.672  0.00  0.00     0.193 C 
ATOM     41  H   LIG d   1       7.754   2.043  -8.426  0.00  0.00     0.082 H 
ATOM     42  H   LIG d   1       8.566   0.606  -7.760  0.00  0.00     0.082 H 
BRANCH  40  43
ATOM     43  C   LIG d   1       6.441   0.450  -7.881  0.00  0.00     0.254 C 
ATOM     44  O   LIG d   1       6.511  -0.749  -8.037  0.00  0.00    -0.272 OA
ATOM     45  N   LIG d   1       5.240   1.063  -7.894  0.00  0.00    -0.299 N 
ATOM     46  H   LIG d   1       5.184   2.023  -7.770  0.00  0.00     0.150 HD
BRANCH  45  47
ATOM     47  C   LIG d   1       4.021   0.278  -8.097  0.00  0.00     0.124 C 
ATOM     48  H   LIG d   1       4.243  -0.781  -7.965  0.00  0.00     0.062 H 
BRANCH  47  49
ATOM     49  C   LIG d   1       2.963   0.707  -7.079  0.00  0.00     0.001 C 
ATOM     50  H   LIG d   1       3.059   1.775  -6.882  0.00  0.00     0.034 H 
ATOM     51  H   LIG d   1       1.969   0.501  -7.477  0.00  0.00     0.034 H 
BRANCH  49  52
ATOM     52  C   LIG d   1       3.158  -0.059  -5.796  0.00  0.00    -0.038 A 
ATOM     53  C   LIG d   1       3.980  -1.171  -5.774  0.00  0.00     0.023 A 
ATOM     54  C   LIG d   1       4.164  -1.873  -4.599  0.00  0.00     0.314 A 
ATOM     55  H   LIG d   1       4.481  -1.490  -6.677  0.00  0.00     0.069 H 
ATOM     56  C   LIG d   1       3.517  -1.466  -3.442  0.00  0.00     0.195 A 
ATOM     57  C   LIG d   1       2.689  -0.354  -3.467  0.00  0.00    -0.013 A 
ATOM     58  C   LIG d   1       2.511   0.348  -4.643  0.00  0.00    -0.055 A 
ATOM     59  H   LIG d   1       2.183  -0.036  -2.567  0.00  0.00     0.066 H 
ATOM     60  H   LIG d   1       1.867   1.214  -4.664  0.00  0.00     0.062 H 
BRANCH  54  61
ATOM     61  N   LIG d   1       5.048  -3.059  -4.576  0.00  0.00     0.083 N 
ATOM     62  O   LIG d   1       4.570  -4.170  -4.548  0.00  0.00     0.042 OA
ATOM     63  O   LIG d   1       6.249  -2.919  -4.585  0.00  0.00    -0.576 OA
ENDBRANCH  54  61
BRANCH  56  64
ATOM     64  O   LIG d   1       3.692  -2.158  -2.285  0.00  0.00    -0.501 OA
ATOM     65  H   LIG d   1       4.593  -2.485  -2.155  0.00  0.00     0.292 HD
ENDBRANCH  56  64
ENDBRANCH  49  52
ENDBRANCH  47  49
BRANCH  47  66
ATOM     66  C   LIG d   1       3.500   0.511  -9.492  0.00  0.00     0.328 C 
ATOM     67  O   LIG d   1       2.332   0.322  -9.741  0.00  0.00    -0.249 OA
BRANCH  66  68
ATOM     68  O   LIG d   1       4.332   0.929 -10.458  0.00  0.00    -0.467 OA
BRANCH  68  69
ATOM     69  C   LIG d   1       4.851  -0.066 -11.343  0.00  0.00     0.082 C 
ATOM     70  H   LIG d   1       5.592  -0.668 -10.817  0.00  0.00     0.066 H 
ATOM     71  H   LIG d   1       4.040  -0.706 -11.687  0.00  0.00     0.066 H 
ATOM     72  H   LIG d   1       5.320   0.418 -12.200  0.00  0.00     0.066 H 
ENDBRANCH  68  69
ENDBRANCH  66  68
ENDBRANCH  47  66
ENDBRANCH  45  47
ENDBRANCH  40  43
ENDBRANCH  39  40
ENDBRANCH  18  39
BRANCH  21  73
ATOM     73  C   LIG d   1      12.485   4.073  -4.716  0.00  0.00    -0.056 C 
ATOM     74  H   LIG d   1      12.929   3.093  -4.546  0.00  0.00     0.024 H 
ATOM     75  H   LIG d   1      12.183   4.160  -5.759  0.00  0.00     0.024 H 
ATOM     76  H   LIG d   1      13.216   4.848  -4.483  0.00  0.00     0.024 H 
ENDBRANCH  21  73
BRANCH   6  77
ATOM     77  C   LIG d   1      12.328   8.096  -1.865  0.00  0.00    -0.056 C 
ATOM     78  H   LIG d   1      12.839   8.928  -1.380  0.00  0.00     0.024 H 
ATOM     79  H   LIG d   1      13.042   7.534  -2.469  0.00  0.00     0.024 H 
ATOM     80  H   LIG d   1      11.534   8.480  -2.505  0.00  0.00     0.024 H 
ENDBRANCH   6  77
BRANCH   1  81
ATOM     81  C   LIG d   1      12.606   9.050   0.595  0.00  0.00     0.162 C 
ATOM     82  O   LIG d   1      13.707   8.696   0.941  0.00  0.00    -0.295 OA
BRANCH  81  83
ATOM     83  C   LIG d   1      12.341  10.504   0.300  0.00  0.00    -0.003 C 
ATOM     84  H   LIG d   1      13.000  11.124   0.907  0.00  0.00     0.031 H 
ATOM     85  H   LIG d   1      12.529  10.700  -0.756  0.00  0.00     0.031 H 
ATOM     86  H   LIG d   1      11.302  10.739   0.533  0.00  0.00     0.031 H 
ENDBRANCH  81  83
ENDBRANCH   1  81
BRANCH   1  87
ATOM     87  O   LIG d   1      11.418   7.216   1.617  0.00  0.00    -0.381 OA
ATOM     88  H   LIG d   1      12.270   6.866   1.910  0.00  0.00     0.211 HD
ENDBRANCH   1  87
TORSDOF 16
ENDMDL
MODEL 6
REMARK VINA RESULT:      -7.1      1.518      2.139
REMARK  16 active torsions:
REMARK  status: ('A' for Active; 'I' for Inactive)
REMARK    1  A    between atoms: C_1  and  C_2 
REMARK    2  A    between atoms: C_2  and  C_4 
REMARK    3  A    between atoms: C_4  and  O_49 
REMARK    4  A    between atoms: C_9  and  C_48 
REMARK    5  A    between atoms: N_21  and  O_22 
REMARK    6  A    between atoms: O_22  and  C_23 
REMARK    7  A    between atoms: C_23  and  C_24 
REMARK       I    between atoms: C_24  and  N_26 
REMARK    8  A    between atoms: N_26  and  C_27 
REMARK    9  A    between atoms: C_27  and  C_29 
REMARK   10  A    between atoms: C_27  and  C_40 
REMARK   11  A    between atoms: C_29  and  C_30 
REMARK   12  A    between atoms: C_33  and  O_39 
REMARK   13  A    between atoms: C_34  and  N_36 
REMARK   14  A    between atoms: C_40  and  O_42 
REMARK   15  A    between atoms: O_42  and  C_43 
REMARK   16  A    between atoms: C_46  and  C_47 
ROOT
ATOM      1  C   LIG d   1      11.485   8.169   0.492  0.00  0.00     0.129 C 
ATOM      2  C   LIG d   1      10.128   8.867   0.226  0.00  0.00    -0.016 C 
ATOM      3  C   LIG d   1       9.535   8.195  -1.045  0.00  0.00    -0.046 C 
ATOM      4  C   LIG d   1      10.267   6.842  -1.062  0.00  0.00    -0.029 C 
ATOM      5  H   LIG d   1       9.885   6.236  -0.220  0.00  0.00     0.031 H 
ATOM      6  C   LIG d   1      11.715   7.281  -0.750  0.00  0.00     0.007 C 
ATOM      7  C   LIG d   1      12.583   6.072  -0.508  0.00  0.00    -0.044 C 
ATOM      8  C   LIG d   1      12.287   4.961  -1.521  0.00  0.00    -0.049 C 
ATOM      9  C   LIG d   1      11.511   5.450  -2.734  0.00  0.00    -0.029 C 
ATOM     10  H   LIG d   1      12.097   6.185  -3.288  0.00  0.00     0.031 H 
ATOM     11  C   LIG d   1      10.166   6.046  -2.329  0.00  0.00    -0.034 C 
ATOM     12  H   LIG d   1       9.491   5.190  -2.125  0.00  0.00     0.031 H 
ATOM     13  C   LIG d   1       9.534   6.825  -3.474  0.00  0.00    -0.046 C 
ATOM     14  C   LIG d   1       9.798   6.120  -4.807  0.00  0.00    -0.031 C 
ATOM     15  C   LIG d   1      10.057   4.654  -4.546  0.00  0.00    -0.062 C 
ATOM     16  C   LIG d   1       9.256   3.729  -5.047  0.00  0.00    -0.037 C 
ATOM     17  C   LIG d   1       9.489   2.303  -4.792  0.00  0.00     0.080 C 
ATOM     18  N   LIG d   1       8.726   1.415  -5.352  0.00  0.00    -0.089 NA
ATOM     19  C   LIG d   1      10.607   1.866  -3.881  0.00  0.00    -0.006 C 
ATOM     20  C   LIG d   1      10.972   3.003  -2.926  0.00  0.00    -0.038 C 
ATOM     21  C   LIG d   1      11.254   4.282  -3.703  0.00  0.00    -0.007 C 
ATOM     22  H   LIG d   1       9.459   8.718   1.071  0.00  0.00     0.030 H 
ATOM     23  H   LIG d   1      10.284   9.930   0.047  0.00  0.00     0.030 H 
ATOM     24  H   LIG d   1       8.462   8.041  -0.922  0.00  0.00     0.027 H 
ATOM     25  H   LIG d   1       9.738   8.783  -1.931  0.00  0.00     0.027 H 
ATOM     26  H   LIG d   1      13.641   6.359  -0.585  0.00  0.00     0.027 H 
ATOM     27  H   LIG d   1      12.417   5.686   0.505  0.00  0.00     0.027 H 
ATOM     28  H   LIG d   1      13.236   4.519  -1.847  0.00  0.00     0.027 H 
ATOM     29  H   LIG d   1      11.712   4.175  -1.016  0.00  0.00     0.027 H 
ATOM     30  H   LIG d   1       8.458   6.887  -3.315  0.00  0.00     0.027 H 
ATOM     31  H   LIG d   1       9.956   7.825  -3.518  0.00  0.00     0.027 H 
ATOM     32  H   LIG d   1       8.924   6.225  -5.448  0.00  0.00     0.031 H 
ATOM     33  H   LIG d   1      10.664   6.568  -5.288  0.00  0.00     0.031 H 
ATOM     34  H   LIG d   1       8.414   4.029  -5.655  0.00  0.00     0.064 H 
ATOM     35  H   LIG d   1      10.270   1.003  -3.296  0.00  0.00     0.033 H 
ATOM     36  H   LIG d   1      11.472   1.568  -4.469  0.00  0.00     0.033 H 
ATOM     37  H   LIG d   1      10.146   3.170  -2.230  0.00  0.00     0.028 H 
ATOM     38  H   LIG d   1      11.860   2.718  -2.354  0.00  0.00     0.028 H 
ENDROOT
BRANCH  18  39
ATOM     39  O   LIG d   1       7.672   1.823  -6.204  0.00  0.00    -0.384 OA
BRANCH  39  40
ATOM     40  C   LIG d   1       7.301   0.847  -7.179  0.00  0.00     0.193 C 
ATOM     41  H   LIG d   1       6.925   1.349  -8.071  0.00  0.00     0.082 H 
ATOM     42  H   LIG d   1       8.173   0.246  -7.441  0.00  0.00     0.082 H 
BRANCH  40  43
ATOM     43  C   LIG d   1       6.228  -0.046  -6.614  0.00  0.00     0.254 C 
ATOM     44  O   LIG d   1       5.688  -0.869  -7.321  0.00  0.00    -0.272 OA
ATOM     45  N   LIG d   1       5.868   0.069  -5.320  0.00  0.00    -0.299 N 
ATOM     46  H   LIG d   1       6.299   0.727  -4.752  0.00  0.00     0.150 HD
BRANCH  45  47
ATOM     47  C   LIG d   1       4.824  -0.800  -4.770  0.00  0.00     0.124 C 
ATOM     48  H   LIG d   1       4.500  -1.506  -5.534  0.00  0.00     0.062 H 
BRANCH  47  49
ATOM     49  C   LIG d   1       5.380  -1.567  -3.569  0.00  0.00     0.001 C 
ATOM     50  H   LIG d   1       5.931  -0.883  -2.923  0.00  0.00     0.034 H 
ATOM     51  H   LIG d   1       4.558  -2.011  -3.008  0.00  0.00     0.034 H 
BRANCH  49  52
ATOM     52  C   LIG d   1       6.305  -2.656  -4.051  0.00  0.00    -0.038 A 
ATOM     53  C   LIG d   1       7.612  -2.700  -3.603  0.00  0.00     0.023 A 
ATOM     54  C   LIG d   1       8.460  -3.699  -4.040  0.00  0.00     0.314 A 
ATOM     55  H   LIG d   1       7.970  -1.954  -2.908  0.00  0.00     0.069 H 
ATOM     56  C   LIG d   1       8.002  -4.652  -4.937  0.00  0.00     0.195 A 
ATOM     57  C   LIG d   1       6.691  -4.603  -5.389  0.00  0.00    -0.013 A 
ATOM     58  C   LIG d   1       5.845  -3.605  -4.946  0.00  0.00    -0.055 A 
ATOM     59  H   LIG d   1       6.332  -5.344  -6.088  0.00  0.00     0.066 H 
ATOM     60  H   LIG d   1       4.825  -3.566  -5.297  0.00  0.00     0.062 H 
BRANCH  54  61
ATOM     61  N   LIG d   1       9.857  -3.748  -3.556  0.00  0.00     0.083 N 
ATOM     62  O   LIG d   1      10.768  -3.473  -4.304  0.00  0.00     0.042 OA
ATOM     63  O   LIG d   1      10.090  -4.062  -2.411  0.00  0.00    -0.576 OA
ENDBRANCH  54  61
BRANCH  56  64
ATOM     64  O   LIG d   1       8.835  -5.633  -5.372  0.00  0.00    -0.501 OA
ATOM     65  H   LIG d   1       9.708  -5.621  -4.957  0.00  0.00     0.292 HD
ENDBRANCH  56  64
ENDBRANCH  49  52
ENDBRANCH  47  49
BRANCH  47  66
ATOM     66  C   LIG d   1       3.652   0.039  -4.332  0.00  0.00     0.328 C 
ATOM     67  O   LIG d   1       2.995   0.636  -5.151  0.00  0.00    -0.249 OA
BRANCH  66  68
ATOM     68  O   LIG d   1       3.337   0.123  -3.030  0.00  0.00    -0.467 OA
BRANCH  68  69
ATOM     69  C   LIG d   1       3.611   1.363  -2.374  0.00  0.00     0.082 C 
ATOM     70  H   LIG d   1       2.886   2.111  -2.694  0.00  0.00     0.066 H 
ATOM     71  H   LIG d   1       3.540   1.227  -1.295  0.00  0.00     0.066 H 
ATOM     72  H   LIG d   1       4.616   1.698  -2.633  0.00  0.00     0.066 H 
ENDBRANCH  68  69
ENDBRANCH  66  68
ENDBRANCH  47  66
ENDBRANCH  45  47
ENDBRANCH  40  43
ENDBRANCH  39  40
ENDBRANCH  18  39
BRANCH  21  73
ATOM     73  C   LIG d   1      12.479   4.102  -4.604  0.00  0.00    -0.056 C 
ATOM     74  H   LIG d   1      13.270   4.777  -4.279  0.00  0.00     0.024 H 
ATOM     75  H   LIG d   1      12.830   3.072  -4.537  0.00  0.00     0.024 H 
ATOM     76  H   LIG d   1      12.208   4.328  -5.635  0.00  0.00     0.024 H 
ENDBRANCH  21  73
BRANCH   6  77
ATOM     77  C   LIG d   1      12.310   8.180  -1.834  0.00  0.00    -0.056 C 
ATOM     78  H   LIG d   1      12.637   9.120  -1.388  0.00  0.00     0.024 H 
ATOM     79  H   LIG d   1      13.164   7.680  -2.293  0.00  0.00     0.024 H 
ATOM     80  H   LIG d   1      11.556   8.382  -2.595  0.00  0.00     0.024 H 
ENDBRANCH   6  77
BRANCH   1  81
ATOM     81  C   LIG d   1      12.588   9.185   0.605  0.00  0.00     0.162 C 
ATOM     82  O   LIG d   1      13.686   8.846   0.978  0.00  0.00    -0.295 OA
BRANCH  81  83
ATOM     83  C   LIG d   1      12.324  10.627   0.255  0.00  0.00    -0.003 C 
ATOM     84  H   LIG d   1      11.251  10.780   0.136  0.00  0.00     0.031 H 
ATOM     85  H   LIG d   1      12.696  11.268   1.053  0.00  0.00     0.031 H 
ATOM     86  H   LIG d   1      12.832  10.874  -0.677  0.00  0.00     0.031 H 
ENDBRANCH  81  83
ENDBRANCH   1  81
BRANCH   1  87
ATOM     87  O   LIG d   1      11.410   7.367   1.667  0.00  0.00    -0.381 OA
ATOM     88  H   LIG d   1      11.133   7.851   2.457  0.00  0.00     0.211 HD
ENDBRANCH   1  87
TORSDOF 16
ENDMDL
MODEL 7
REMARK VINA RESULT:      -6.9      2.098      2.817
REMARK  16 active torsions:
REMARK  status: ('A' for Active; 'I' for Inactive)
REMARK    1  A    between atoms: C_1  and  C_2 
REMARK    2  A    between atoms: C_2  and  C_4 
REMARK    3  A    between atoms: C_4  and  O_49 
REMARK    4  A    between atoms: C_9  and  C_48 
REMARK    5  A    between atoms: N_21  and  O_22 
REMARK    6  A    between atoms: O_22  and  C_23 
REMARK    7  A    between atoms: C_23  and  C_24 
REMARK       I    between atoms: C_24  and  N_26 
REMARK    8  A    between atoms: N_26  and  C_27 
REMARK    9  A    between atoms: C_27  and  C_29 
REMARK   10  A    between atoms: C_27  and  C_40 
REMARK   11  A    between atoms: C_29  and  C_30 
REMARK   12  A    between atoms: C_33  and  O_39 
REMARK   13  A    between atoms: C_34  and  N_36 
REMARK   14  A    between atoms: C_40  and  O_42 
REMARK   15  A    between atoms: O_42  and  C_43 
REMARK   16  A    between atoms: C_46  and  C_47 
ROOT
ATOM      1  C   LIG d   1       9.985  10.192  -4.220  0.00  0.00     0.129 C 
ATOM      2  C   LIG d   1       9.504  10.456  -5.669  0.00  0.00    -0.016 C 
ATOM      3  C   LIG d   1       9.508   9.077  -6.387  0.00  0.00    -0.046 C 
ATOM      4  C   LIG d   1       9.421   8.100  -5.201  0.00  0.00    -0.029 C 
ATOM      5  H   LIG d   1       8.410   8.184  -4.762  0.00  0.00     0.031 H 
ATOM      6  C   LIG d   1      10.448   8.719  -4.227  0.00  0.00     0.007 C 
ATOM      7  C   LIG d   1      10.374   8.030  -2.888  0.00  0.00    -0.044 C 
ATOM      8  C   LIG d   1      10.243   6.511  -3.049  0.00  0.00    -0.049 C 
ATOM      9  C   LIG d   1      10.606   6.025  -4.443  0.00  0.00    -0.029 C 
ATOM     10  H   LIG d   1      11.653   6.240  -4.660  0.00  0.00     0.031 H 
ATOM     11  C   LIG d   1       9.709   6.659  -5.503  0.00  0.00    -0.034 C 
ATOM     12  H   LIG d   1       8.742   6.116  -5.464  0.00  0.00     0.031 H 
ATOM     13  C   LIG d   1      10.263   6.442  -6.905  0.00  0.00    -0.046 C 
ATOM     14  C   LIG d   1      10.883   5.048  -7.022  0.00  0.00    -0.031 C 
ATOM     15  C   LIG d   1      10.261   4.143  -5.984  0.00  0.00    -0.062 C 
ATOM     16  C   LIG d   1       9.573   3.074  -6.347  0.00  0.00    -0.037 C 
ATOM     17  C   LIG d   1       8.954   2.193  -5.350  0.00  0.00     0.080 C 
ATOM     18  N   LIG d   1       8.342   1.115  -5.732  0.00  0.00    -0.089 NA
ATOM     19  C   LIG d   1       9.021   2.538  -3.884  0.00  0.00    -0.006 C 
ATOM     20  C   LIG d   1       9.246   4.042  -3.715  0.00  0.00    -0.038 C 
ATOM     21  C   LIG d   1      10.451   4.496  -4.527  0.00  0.00    -0.007 C 
ATOM     22  H   LIG d   1       8.496  10.867  -5.659  0.00  0.00     0.030 H 
ATOM     23  H   LIG d   1      10.188  11.139  -6.171  0.00  0.00     0.030 H 
ATOM     24  H   LIG d   1       8.624   8.980  -7.020  0.00  0.00     0.027 H 
ATOM     25  H   LIG d   1      10.411   8.938  -6.968  0.00  0.00     0.027 H 
ATOM     26  H   LIG d   1      11.280   8.255  -2.309  0.00  0.00     0.027 H 
ATOM     27  H   LIG d   1       9.515   8.405  -2.318  0.00  0.00     0.027 H 
ATOM     28  H   LIG d   1      10.888   6.021  -2.311  0.00  0.00     0.027 H 
ATOM     29  H   LIG d   1       9.207   6.227  -2.825  0.00  0.00     0.027 H 
ATOM     30  H   LIG d   1       9.454   6.531  -7.628  0.00  0.00     0.027 H 
ATOM     31  H   LIG d   1      11.029   7.183  -7.118  0.00  0.00     0.027 H 
ATOM     32  H   LIG d   1      10.684   4.649  -8.016  0.00  0.00     0.031 H 
ATOM     33  H   LIG d   1      11.956   5.113  -6.859  0.00  0.00     0.031 H 
ATOM     34  H   LIG d   1       9.464   2.844  -7.398  0.00  0.00     0.064 H 
ATOM     35  H   LIG d   1       8.072   2.263  -3.411  0.00  0.00     0.033 H 
ATOM     36  H   LIG d   1       9.821   1.977  -3.405  0.00  0.00     0.033 H 
ATOM     37  H   LIG d   1       8.354   4.579  -4.048  0.00  0.00     0.028 H 
ATOM     38  H   LIG d   1       9.412   4.261  -2.656  0.00  0.00     0.028 H 
ENDROOT
BRANCH  18  39
ATOM     39  O   LIG d   1       8.273   0.791  -7.108  0.00  0.00    -0.384 OA
BRANCH  39  40
ATOM     40  C   LIG d   1       6.955   0.854  -7.656  0.00  0.00     0.193 C 
ATOM     41  H   LIG d   1       6.577   1.874  -7.576  0.00  0.00     0.082 H 
ATOM     42  H   LIG d   1       6.984   0.559  -8.705  0.00  0.00     0.082 H 
BRANCH  40  43
ATOM     43  C   LIG d   1       6.049  -0.080  -6.896  0.00  0.00     0.254 C 
ATOM     44  O   LIG d   1       5.727  -1.141  -7.383  0.00  0.00    -0.272 OA
ATOM     45  N   LIG d   1       5.598   0.265  -5.674  0.00  0.00    -0.299 N 
ATOM     46  H   LIG d   1       5.856   1.115  -5.282  0.00  0.00     0.150 HD
BRANCH  45  47
ATOM     47  C   LIG d   1       4.718  -0.643  -4.935  0.00  0.00     0.124 C 
ATOM     48  H   LIG d   1       4.276  -1.362  -5.625  0.00  0.00     0.062 H 
BRANCH  47  49
ATOM     49  C   LIG d   1       5.529  -1.388  -3.873  0.00  0.00     0.001 C 
ATOM     50  H   LIG d   1       6.411  -0.803  -3.612  0.00  0.00     0.034 H 
ATOM     51  H   LIG d   1       4.916  -1.537  -2.984  0.00  0.00     0.034 H 
BRANCH  49  52
ATOM     52  C   LIG d   1       5.958  -2.728  -4.415  0.00  0.00    -0.038 A 
ATOM     53  C   LIG d   1       5.007  -3.662  -4.780  0.00  0.00     0.023 A 
ATOM     54  C   LIG d   1       5.398  -4.888  -5.281  0.00  0.00     0.314 A 
ATOM     55  H   LIG d   1       3.956  -3.431  -4.677  0.00  0.00     0.069 H 
ATOM     56  C   LIG d   1       6.746  -5.186  -5.409  0.00  0.00     0.195 A 
ATOM     57  C   LIG d   1       7.699  -4.249  -5.037  0.00  0.00    -0.013 A 
ATOM     58  C   LIG d   1       7.304  -3.022  -4.541  0.00  0.00    -0.055 A 
ATOM     59  H   LIG d   1       8.750  -4.479  -5.135  0.00  0.00     0.066 H 
ATOM     60  H   LIG d   1       8.045  -2.292  -4.251  0.00  0.00     0.062 H 
BRANCH  54  61
ATOM     61  N   LIG d   1       4.378  -5.885  -5.677  0.00  0.00     0.083 N 
ATOM     62  O   LIG d   1       4.472  -7.030  -5.298  0.00  0.00     0.042 OA
ATOM     63  O   LIG d   1       3.450  -5.555  -6.379  0.00  0.00    -0.576 OA
ENDBRANCH  54  61
BRANCH  56  64
ATOM     64  O   LIG d   1       7.133  -6.393  -5.897  0.00  0.00    -0.501 OA
ATOM     65  H   LIG d   1       8.069  -6.592  -5.759  0.00  0.00     0.292 HD
ENDBRANCH  56  64
ENDBRANCH  49  52
ENDBRANCH  47  49
BRANCH  47  66
ATOM     66  C   LIG d   1       3.625   0.149  -4.267  0.00  0.00     0.328 C 
ATOM     67  O   LIG d   1       2.866   0.815  -4.933  0.00  0.00    -0.249 OA
BRANCH  66  68
ATOM     68  O   LIG d   1       3.492   0.117  -2.932  0.00  0.00    -0.467 OA
BRANCH  68  69
ATOM     69  C   LIG d   1       3.756   1.331  -2.223  0.00  0.00     0.082 C 
ATOM     70  H   LIG d   1       3.392   2.177  -2.806  0.00  0.00     0.066 H 
ATOM     71  H   LIG d   1       3.247   1.307  -1.260  0.00  0.00     0.066 H 
ATOM     72  H   LIG d   1       4.830   1.433  -2.065  0.00  0.00     0.066 H 
ENDBRANCH  68  69
ENDBRANCH  66  68
ENDBRANCH  47  66
ENDBRANCH  45  47
ENDBRANCH  40  43
ENDBRANCH  39  40
ENDBRANCH  18  39
BRANCH  21  73
ATOM     73  C   LIG d   1      11.729   3.835  -4.003  0.00  0.00    -0.056 C 
ATOM     74  H   LIG d   1      12.512   3.914  -4.755  0.00  0.00     0.024 H 
ATOM     75  H   LIG d   1      12.049   4.338  -3.090  0.00  0.00     0.024 H 
ATOM     76  H   LIG d   1      11.533   2.785  -3.790  0.00  0.00     0.024 H 
ENDBRANCH  21  73
BRANCH   6  77
ATOM     77  C   LIG d   1      11.874   8.705  -4.778  0.00  0.00    -0.056 C 
ATOM     78  H   LIG d   1      11.898   8.136  -5.708  0.00  0.00     0.024 H 
ATOM     79  H   LIG d   1      12.200   9.728  -4.970  0.00  0.00     0.024 H 
ATOM     80  H   LIG d   1      12.541   8.242  -4.051  0.00  0.00     0.024 H 
ENDBRANCH   6  77
BRANCH   1  81
ATOM     81  C   LIG d   1      11.141  11.090  -3.876  0.00  0.00     0.162 C 
ATOM     82  O   LIG d   1      11.573  11.114  -2.748  0.00  0.00    -0.295 OA
BRANCH  81  83
ATOM     83  C   LIG d   1      11.762  11.960  -4.939  0.00  0.00    -0.003 C 
ATOM     84  H   LIG d   1      11.112  12.813  -5.134  0.00  0.00     0.031 H 
ATOM     85  H   LIG d   1      12.733  12.316  -4.594  0.00  0.00     0.031 H 
ATOM     86  H   LIG d   1      11.890  11.382  -5.854  0.00  0.00     0.031 H 
ENDBRANCH  81  83
ENDBRANCH   1  81
BRANCH   1  87
ATOM     87  O   LIG d   1       8.912  10.370  -3.300  0.00  0.00    -0.381 OA
ATOM     88  H   LIG d   1       8.270  11.040  -3.569  0.00  0.00     0.211 HD
ENDBRANCH   1  87
TORSDOF 16
ENDMDL
MODEL 8
REMARK VINA RESULT:      -6.9      4.926     10.757
REMARK  16 active torsions:
REMARK  status: ('A' for Active; 'I' for Inactive)
REMARK    1  A    between atoms: C_1  and  C_2 
REMARK    2  A    between atoms: C_2  and  C_4 
REMARK    3  A    between atoms: C_4  and  O_49 
REMARK    4  A    between atoms: C_9  and  C_48 
REMARK    5  A    between atoms: N_21  and  O_22 
REMARK    6  A    between atoms: O_22  and  C_23 
REMARK    7  A    between atoms: C_23  and  C_24 
REMARK       I    between atoms: C_24  and  N_26 
REMARK    8  A    between atoms: N_26  and  C_27 
REMARK    9  A    between atoms: C_27  and  C_29 
REMARK   10  A    between atoms: C_27  and  C_40 
REMARK   11  A    between atoms: C_29  and  C_30 
REMARK   12  A    between atoms: C_33  and  O_39 
REMARK   13  A    between atoms: C_34  and  N_36 
REMARK   14  A    between atoms: C_40  and  O_42 
REMARK   15  A    between atoms: O_42  and  C_43 
REMARK   16  A    between atoms: C_46  and  C_47 
ROOT
ATOM      1  C   LIG d   1       9.026   1.777  -5.421  0.00  0.00     0.129 C 
ATOM      2  C   LIG d   1       8.852   1.841  -3.884  0.00  0.00    -0.016 C 
ATOM      3  C   LIG d   1       9.283   3.272  -3.456  0.00  0.00    -0.046 C 
ATOM      4  C   LIG d   1       9.110   4.062  -4.764  0.00  0.00    -0.029 C 
ATOM      5  H   LIG d   1       8.028   4.145  -4.974  0.00  0.00     0.031 H 
ATOM      6  C   LIG d   1       9.748   3.093  -5.785  0.00  0.00     0.007 C 
ATOM      7  C   LIG d   1       9.498   3.580  -7.189  0.00  0.00    -0.044 C 
ATOM      8  C   LIG d   1       9.697   5.097  -7.297  0.00  0.00    -0.049 C 
ATOM      9  C   LIG d   1      10.458   5.684  -6.119  0.00  0.00    -0.029 C 
ATOM     10  H   LIG d   1      11.466   5.271  -6.075  0.00  0.00     0.031 H 
ATOM     11  C   LIG d   1       9.727   5.429  -4.804  0.00  0.00    -0.034 C 
ATOM     12  H   LIG d   1       8.898   6.164  -4.755  0.00  0.00     0.031 H 
ATOM     13  C   LIG d   1      10.621   5.714  -3.605  0.00  0.00    -0.046 C 
ATOM     14  C   LIG d   1      11.503   6.935  -3.877  0.00  0.00    -0.031 C 
ATOM     15  C   LIG d   1      10.840   7.797  -4.926  0.00  0.00    -0.062 C 
ATOM     16  C   LIG d   1      10.471   9.035  -4.645  0.00  0.00    -0.037 C 
ATOM     17  C   LIG d   1       9.816   9.879  -5.651  0.00  0.00     0.080 C 
ATOM     18  N   LIG d   1       9.524  11.111  -5.368  0.00  0.00    -0.089 NA
ATOM     19  C   LIG d   1       9.476   9.320  -7.009  0.00  0.00    -0.006 C 
ATOM     20  C   LIG d   1       9.366   7.796  -6.930  0.00  0.00    -0.038 C 
ATOM     21  C   LIG d   1      10.619   7.204  -6.298  0.00  0.00    -0.007 C 
ATOM     22  H   LIG d   1       7.810   1.671  -3.618  0.00  0.00     0.030 H 
ATOM     23  H   LIG d   1       9.491   1.100  -3.404  0.00  0.00     0.030 H 
ATOM     24  H   LIG d   1       8.603   3.656  -2.692  0.00  0.00     0.027 H 
ATOM     25  H   LIG d   1      10.305   3.285  -3.099  0.00  0.00     0.027 H 
ATOM     26  H   LIG d   1      10.187   3.076  -7.881  0.00  0.00     0.027 H 
ATOM     27  H   LIG d   1       8.476   3.331  -7.499  0.00  0.00     0.027 H 
ATOM     28  H   LIG d   1      10.235   5.316  -8.227  0.00  0.00     0.027 H 
ATOM     29  H   LIG d   1       8.711   5.572  -7.365  0.00  0.00     0.027 H 
ATOM     30  H   LIG d   1      10.000   5.916  -2.733  0.00  0.00     0.027 H 
ATOM     31  H   LIG d   1      11.260   4.858  -3.408  0.00  0.00     0.027 H 
ATOM     32  H   LIG d   1      11.618   7.507  -2.958  0.00  0.00     0.031 H 
ATOM     33  H   LIG d   1      12.478   6.606  -4.231  0.00  0.00     0.031 H 
ATOM     34  H   LIG d   1      10.653   9.432  -3.657  0.00  0.00     0.064 H 
ATOM     35  H   LIG d   1       8.513   9.731  -7.331  0.00  0.00     0.033 H 
ATOM     36  H   LIG d   1      10.235   9.611  -7.732  0.00  0.00     0.033 H 
ATOM     37  H   LIG d   1       8.491   7.528  -6.334  0.00  0.00     0.028 H 
ATOM     38  H   LIG d   1       9.239   7.396  -7.940  0.00  0.00     0.028 H 
ENDROOT
BRANCH  18  39
ATOM     39  O   LIG d   1       9.838  11.637  -4.092  0.00  0.00    -0.384 OA
BRANCH  39  40
ATOM     40  C   LIG d   1       8.745  11.622  -3.172  0.00  0.00     0.193 C 
ATOM     41  H   LIG d   1       8.411  12.644  -2.987  0.00  0.00     0.082 H 
ATOM     42  H   LIG d   1       7.923  11.042  -3.594  0.00  0.00     0.082 H 
BRANCH  40  43
ATOM     43  C   LIG d   1       9.188  10.995  -1.875  0.00  0.00     0.254 C 
ATOM     44  O   LIG d   1       8.513  10.131  -1.358  0.00  0.00    -0.272 OA
ATOM     45  N   LIG d   1      10.335  11.394  -1.290  0.00  0.00    -0.299 N 
ATOM     46  H   LIG d   1      10.875  12.086  -1.704  0.00  0.00     0.150 HD
BRANCH  45  47
ATOM     47  C   LIG d   1      10.765  10.785  -0.030  0.00  0.00     0.124 C 
ATOM     48  H   LIG d   1      10.048  10.020   0.267  0.00  0.00     0.062 H 
BRANCH  47  49
ATOM     49  C   LIG d   1      12.143  10.147  -0.217  0.00  0.00     0.001 C 
ATOM     50  H   LIG d   1      12.572  10.478  -1.162  0.00  0.00     0.034 H 
ATOM     51  H   LIG d   1      12.797  10.446   0.602  0.00  0.00     0.034 H 
BRANCH  49  52
ATOM     52  C   LIG d   1      12.006   8.646  -0.226  0.00  0.00    -0.038 A 
ATOM     53  C   LIG d   1      13.102   7.854  -0.517  0.00  0.00     0.023 A 
ATOM     54  C   LIG d   1      12.979   6.478  -0.522  0.00  0.00     0.314 A 
ATOM     55  H   LIG d   1      14.055   8.312  -0.736  0.00  0.00     0.069 H 
ATOM     56  C   LIG d   1      11.754   5.891  -0.245  0.00  0.00     0.195 A 
ATOM     57  C   LIG d   1      10.654   6.687   0.041  0.00  0.00    -0.013 A 
ATOM     58  C   LIG d   1      10.782   8.063   0.049  0.00  0.00    -0.055 A 
ATOM     59  H   LIG d   1       9.699   6.233   0.256  0.00  0.00     0.066 H 
ATOM     60  H   LIG d   1       9.927   8.683   0.272  0.00  0.00     0.062 H 
BRANCH  54  61
ATOM     61  N   LIG d   1      14.154   5.632  -0.828  0.00  0.00     0.083 N 
ATOM     62  O   LIG d   1      14.118   4.858  -1.757  0.00  0.00     0.042 OA
ATOM     63  O   LIG d   1      15.151   5.714  -0.149  0.00  0.00    -0.576 OA
ENDBRANCH  54  61
BRANCH  56  64
ATOM     64  O   LIG d   1      11.630   4.538  -0.255  0.00  0.00    -0.501 OA
ATOM     65  H   LIG d   1      11.925   4.110   0.561  0.00  0.00     0.292 HD
ENDBRANCH  56  64
ENDBRANCH  49  52
ENDBRANCH  47  49
BRANCH  47  66
ATOM     66  C   LIG d   1      10.842  11.843   1.039  0.00  0.00     0.328 C 
ATOM     67  O   LIG d   1      11.679  11.766   1.908  0.00  0.00    -0.249 OA
BRANCH  66  68
ATOM     68  O   LIG d   1       9.981  12.873   1.028  0.00  0.00    -0.467 OA
BRANCH  68  69
ATOM     69  C   LIG d   1      10.538  14.183   0.897  0.00  0.00     0.082 C 
ATOM     70  H   LIG d   1      11.493  14.121   0.377  0.00  0.00     0.066 H 
ATOM     71  H   LIG d   1       9.855  14.813   0.329  0.00  0.00     0.066 H 
ATOM     72  H   LIG d   1      10.691  14.613   1.887  0.00  0.00     0.066 H 
ENDBRANCH  68  69
ENDBRANCH  66  68
ENDBRANCH  47  66
ENDBRANCH  45  47
ENDBRANCH  40  43
ENDBRANCH  39  40
ENDBRANCH  18  39
BRANCH  21  73
ATOM     73  C   LIG d   1      11.842   7.476  -7.178  0.00  0.00    -0.056 C 
ATOM     74  H   LIG d   1      12.403   8.316  -6.769  0.00  0.00     0.024 H 
ATOM     75  H   LIG d   1      12.477   6.591  -7.201  0.00  0.00     0.024 H 
ATOM     76  H   LIG d   1      11.515   7.716  -8.190  0.00  0.00     0.024 H 
ENDBRANCH  21  73
BRANCH   6  77
ATOM     77  C   LIG d   1      11.238   2.864  -5.536  0.00  0.00    -0.056 C 
ATOM     78  H   LIG d   1      11.734   3.824  -5.390  0.00  0.00     0.024 H 
ATOM     79  H   LIG d   1      11.368   2.249  -4.644  0.00  0.00     0.024 H 
ATOM     80  H   LIG d   1      11.677   2.356  -6.395  0.00  0.00     0.024 H 
ENDBRANCH   6  77
BRANCH   1  81
ATOM     81  C   LIG d   1       9.880   0.601  -5.808  0.00  0.00     0.162 C 
ATOM     82  O   LIG d   1      10.591   0.075  -4.987  0.00  0.00    -0.295 OA
BRANCH  81  83
ATOM     83  C   LIG d   1       9.849   0.080  -7.222  0.00  0.00    -0.003 C 
ATOM     84  H   LIG d   1      10.257  -0.930  -7.246  0.00  0.00     0.031 H 
ATOM     85  H   LIG d   1       8.819   0.064  -7.580  0.00  0.00     0.031 H 
ATOM     86  H   LIG d   1      10.446   0.730  -7.862  0.00  0.00     0.031 H 
ENDBRANCH  81  83
ENDBRANCH   1  81
BRANCH   1  87
ATOM     87  O   LIG d   1       7.756   1.716  -6.064  0.00  0.00    -0.381 OA
ATOM     88  H   LIG d   1       7.176   1.020  -5.724  0.00  0.00     0.211 HD
ENDBRANCH   1  87
TORSDOF 16
ENDMDL
MODEL 9
REMARK VINA RESULT:      -6.9      0.978      1.430
REMARK  16 active torsions:
REMARK  status: ('A' for Active; 'I' for Inactive)
REMARK    1  A    between atoms: C_1  and  C_2 
REMARK    2  A    between atoms: C_2  and  C_4 
REMARK    3  A    between atoms: C_4  and  O_49 
REMARK    4  A    between atoms: C_9  and  C_48 
REMARK    5  A    between atoms: N_21  and  O_22 
REMARK    6  A    between atoms: O_22  and  C_23 
REMARK    7  A    between atoms: C_23  and  C_24 
REMARK       I    between atoms: C_24  and  N_26 
REMARK    8  A    between atoms: N_26  and  C_27 
REMARK    9  A    between atoms: C_27  and  C_29 
REMARK   10  A    between atoms: C_27  and  C_40 
REMARK   11  A    between atoms: C_29  and  C_30 
REMARK   12  A    between atoms: C_33  and  O_39 
REMARK   13  A    between atoms: C_34  and  N_36 
REMARK   14  A    between atoms: C_40  and  O_42 
REMARK   15  A    between atoms: O_42  and  C_43 
REMARK   16  A    between atoms: C_46  and  C_47 
ROOT
ATOM      1  C   LIG d   1      11.459   7.660   0.010  0.00  0.00     0.129 C 
ATOM      2  C   LIG d   1      10.101   8.376  -0.193  0.00  0.00    -0.016 C 
ATOM      3  C   LIG d   1       9.432   7.699  -1.422  0.00  0.00    -0.046 C 
ATOM      4  C   LIG d   1      10.140   6.334  -1.459  0.00  0.00    -0.029 C 
ATOM      5  H   LIG d   1       9.793   5.745  -0.590  0.00  0.00     0.031 H 
ATOM      6  C   LIG d   1      11.609   6.753  -1.230  0.00  0.00     0.007 C 
ATOM      7  C   LIG d   1      12.469   5.533  -1.018  0.00  0.00    -0.044 C 
ATOM      8  C   LIG d   1      12.102   4.414  -1.999  0.00  0.00    -0.049 C 
ATOM      9  C   LIG d   1      11.272   4.900  -3.176  0.00  0.00    -0.029 C 
ATOM     10  H   LIG d   1      11.838   5.618  -3.769  0.00  0.00     0.031 H 
ATOM     11  C   LIG d   1       9.959   5.523  -2.709  0.00  0.00    -0.034 C 
ATOM     12  H   LIG d   1       9.282   4.681  -2.458  0.00  0.00     0.031 H 
ATOM     13  C   LIG d   1       9.280   6.299  -3.829  0.00  0.00    -0.046 C 
ATOM     14  C   LIG d   1       9.462   5.573  -5.164  0.00  0.00    -0.031 C 
ATOM     15  C   LIG d   1       9.711   4.106  -4.898  0.00  0.00    -0.062 C 
ATOM     16  C   LIG d   1       8.870   3.189  -5.344  0.00  0.00    -0.037 C 
ATOM     17  C   LIG d   1       9.093   1.762  -5.082  0.00  0.00     0.080 C 
ATOM     18  N   LIG d   1       8.288   0.879  -5.589  0.00  0.00    -0.089 NA
ATOM     19  C   LIG d   1      10.250   1.318  -4.225  0.00  0.00    -0.006 C 
ATOM     20  C   LIG d   1      10.684   2.461  -3.306  0.00  0.00    -0.038 C 
ATOM     21  C   LIG d   1      10.944   3.725  -4.114  0.00  0.00    -0.007 C 
ATOM     22  H   LIG d   1       9.476   8.249   0.688  0.00  0.00     0.030 H 
ATOM     23  H   LIG d   1      10.264   9.435  -0.394  0.00  0.00     0.030 H 
ATOM     24  H   LIG d   1       8.364   7.565  -1.241  0.00  0.00     0.027 H 
ATOM     25  H   LIG d   1       9.596   8.272  -2.326  0.00  0.00     0.027 H 
ATOM     26  H   LIG d   1      13.526   5.800  -1.154  0.00  0.00     0.027 H 
ATOM     27  H   LIG d   1      12.351   5.162   0.008  0.00  0.00     0.027 H 
ATOM     28  H   LIG d   1      13.025   3.952  -2.368  0.00  0.00     0.027 H 
ATOM     29  H   LIG d   1      11.542   3.644  -1.454  0.00  0.00     0.027 H 
ATOM     30  H   LIG d   1       8.215   6.381  -3.615  0.00  0.00     0.027 H 
ATOM     31  H   LIG d   1       9.715   7.291  -3.909  0.00  0.00     0.027 H 
ATOM     32  H   LIG d   1       8.557   5.684  -5.760  0.00  0.00     0.031 H 
ATOM     33  H   LIG d   1      10.309   6.000  -5.697  0.00  0.00     0.031 H 
ATOM     34  H   LIG d   1       8.002   3.494  -5.911  0.00  0.00     0.064 H 
ATOM     35  H   LIG d   1       9.931   0.468  -3.612  0.00  0.00     0.033 H 
ATOM     36  H   LIG d   1      11.079   0.998  -4.854  0.00  0.00     0.033 H 
ATOM     37  H   LIG d   1       9.898   2.650  -2.570  0.00  0.00     0.028 H 
ATOM     38  H   LIG d   1      11.596   2.167  -2.778  0.00  0.00     0.028 H 
ENDROOT
BRANCH  18  39
ATOM     39  O   LIG d   1       7.197   1.294  -6.390  0.00  0.00    -0.384 OA
BRANCH  39  40
ATOM     40  C   LIG d   1       6.618   0.248  -7.172  0.00  0.00     0.193 C 
ATOM     41  H   LIG d   1       6.479   0.594  -8.196  0.00  0.00     0.082 H 
ATOM     42  H   LIG d   1       7.281  -0.618  -7.168  0.00  0.00     0.082 H 
BRANCH  40  43
ATOM     43  C   LIG d   1       5.285  -0.138  -6.586  0.00  0.00     0.254 C 
ATOM     44  O   LIG d   1       4.342  -0.356  -7.315  0.00  0.00    -0.272 OA
ATOM     45  N   LIG d   1       5.141  -0.243  -5.250  0.00  0.00    -0.299 N 
ATOM     46  H   LIG d   1       5.895  -0.069  -4.664  0.00  0.00     0.150 HD
BRANCH  45  47
ATOM     47  C   LIG d   1       3.845  -0.619  -4.680  0.00  0.00     0.124 C 
ATOM     48  H   LIG d   1       3.158  -0.885  -5.483  0.00  0.00     0.062 H 
BRANCH  47  49
ATOM     49  C   LIG d   1       4.026  -1.818  -3.747  0.00  0.00     0.001 C 
ATOM     50  H   LIG d   1       3.993  -1.481  -2.711  0.00  0.00     0.034 H 
ATOM     51  H   LIG d   1       3.226  -2.538  -3.920  0.00  0.00     0.034 H 
BRANCH  49  52
ATOM     52  C   LIG d   1       5.357  -2.471  -4.020  0.00  0.00    -0.038 A 
ATOM     53  C   LIG d   1       5.430  -3.560  -4.869  0.00  0.00     0.023 A 
ATOM     54  C   LIG d   1       6.650  -4.158  -5.123  0.00  0.00     0.314 A 
ATOM     55  H   LIG d   1       4.534  -3.942  -5.336  0.00  0.00     0.069 H 
ATOM     56  C   LIG d   1       7.799  -3.671  -4.519  0.00  0.00     0.195 A 
ATOM     57  C   LIG d   1       7.722  -2.581  -3.664  0.00  0.00    -0.013 A 
ATOM     58  C   LIG d   1       6.502  -1.984  -3.415  0.00  0.00    -0.055 A 
ATOM     59  H   LIG d   1       8.615  -2.201  -3.192  0.00  0.00     0.066 H 
ATOM     60  H   LIG d   1       6.441  -1.136  -2.750  0.00  0.00     0.062 H 
BRANCH  54  61
ATOM     61  N   LIG d   1       6.728  -5.320  -6.036  0.00  0.00     0.083 N 
ATOM     62  O   LIG d   1       6.031  -6.290  -5.843  0.00  0.00     0.042 OA
ATOM     63  O   LIG d   1       7.488  -5.300  -6.976  0.00  0.00    -0.576 OA
ENDBRANCH  54  61
BRANCH  56  64
ATOM     64  O   LIG d   1       8.998  -4.260  -4.764  0.00  0.00    -0.501 OA
ATOM     65  H   LIG d   1       9.761  -3.718  -4.518  0.00  0.00     0.292 HD
ENDBRANCH  56  64
ENDBRANCH  49  52
ENDBRANCH  47  49
BRANCH  47  66
ATOM     66  C   LIG d   1       3.282   0.542  -3.902  0.00  0.00     0.328 C 
ATOM     67  O   LIG d   1       2.861   1.513  -4.485  0.00  0.00    -0.249 OA
BRANCH  66  68
ATOM     68  O   LIG d   1       3.248   0.498  -2.561  0.00  0.00    -0.467 OA
BRANCH  68  69
ATOM     69  C   LIG d   1       4.352   1.078  -1.864  0.00  0.00     0.082 C 
ATOM     70  H   LIG d   1       5.219   0.424  -1.949  0.00  0.00     0.066 H 
ATOM     71  H   LIG d   1       4.586   2.050  -2.298  0.00  0.00     0.066 H 
ATOM     72  H   LIG d   1       4.094   1.203  -0.812  0.00  0.00     0.066 H 
ENDBRANCH  68  69
ENDBRANCH  66  68
ENDBRANCH  47  66
ENDBRANCH  45  47
ENDBRANCH  40  43
ENDBRANCH  39  40
ENDBRANCH  18  39
BRANCH  21  73
ATOM     73  C   LIG d   1      12.117   3.512  -5.075  0.00  0.00    -0.056 C 
ATOM     74  H   LIG d   1      13.008   3.250  -4.507  0.00  0.00     0.024 H 
ATOM     75  H   LIG d   1      11.877   2.706  -5.769  0.00  0.00     0.024 H 
ATOM     76  H   LIG d   1      12.300   4.430  -5.634  0.00  0.00     0.024 H 
ENDBRANCH  21  73
BRANCH   6  77
ATOM     77  C   LIG d   1      12.160   7.628  -2.356  0.00  0.00    -0.056 C 
ATOM     78  H   LIG d   1      13.075   8.117  -2.021  0.00  0.00     0.024 H 
ATOM     79  H   LIG d   1      12.378   7.006  -3.226  0.00  0.00     0.024 H 
ATOM     80  H   LIG d   1      11.422   8.383  -2.625  0.00  0.00     0.024 H 
ENDBRANCH   6  77
BRANCH   1  81
ATOM     81  C   LIG d   1      12.583   8.658   0.052  0.00  0.00     0.162 C 
ATOM     82  O   LIG d   1      13.693   8.306   0.370  0.00  0.00    -0.295 OA
BRANCH  81  83
ATOM     83  C   LIG d   1      12.323  10.100  -0.302  0.00  0.00    -0.003 C 
ATOM     84  H   LIG d   1      13.055  10.734   0.198  0.00  0.00     0.031 H 
ATOM     85  H   LIG d   1      12.409  10.229  -1.381  0.00  0.00     0.031 H 
ATOM     86  H   LIG d   1      11.319  10.378   0.019  0.00  0.00     0.031 H 
ENDBRANCH  81  83
ENDBRANCH   1  81
BRANCH   1  87
ATOM     87  O   LIG d   1      11.434   6.874   1.198  0.00  0.00    -0.381 OA
ATOM     88  H   LIG d   1      12.188   7.023   1.785  0.00  0.00     0.211 HD
ENDBRANCH   1  87
TORSDOF 16
ENDMDL
