MODEL 1
REMARK VINA RESULT:      -4.9      0.000      0.000
REMARK  6 active torsions:
REMARK  status: ('A' for Active; 'I' for Inactive)
REMARK    1  A    between atoms: C_1  and  N_2 
REMARK    2  A    between atoms: N_2  and  C_3 
REMARK    3  A    between atoms: C_3  and  C_4 
REMARK    4  A    between atoms: C_4  and  C_5 
REMARK    5  A    between atoms: C_8  and  O_12 
REMARK    6  A    between atoms: C_9  and  O_11 
ROOT
ATOM      1  C   LIG d   1       4.411  -2.039  -3.682  0.00  0.00    -0.039 A 
ATOM      2  C   LIG d   1       4.650  -1.780  -2.345  0.00  0.00    -0.055 A 
ATOM      3  C   LIG d   1       4.290  -0.560  -1.801  0.00  0.00    -0.016 A 
ATOM      4  C   LIG d   1       3.691   0.404  -2.595  0.00  0.00     0.158 A 
ATOM      5  C   LIG d   1       3.452   0.142  -3.941  0.00  0.00     0.159 A 
ATOM      6  C   LIG d   1       3.819  -1.080  -4.482  0.00  0.00    -0.013 A 
ATOM      7  H   LIG d   1       5.116  -2.530  -1.725  0.00  0.00     0.062 H 
ATOM      8  H   LIG d   1       4.476  -0.360  -0.756  0.00  0.00     0.066 H 
ATOM      9  H   LIG d   1       3.639  -1.285  -5.527  0.00  0.00     0.066 H 
ENDROOT
BRANCH   1  10
ATOM     10  C   LIG d   1       4.805  -3.370  -4.270  0.00  0.00     0.013 C 
ATOM     11  H   LIG d   1       4.153  -4.149  -3.874  0.00  0.00     0.036 H 
ATOM     12  H   LIG d   1       5.839  -3.593  -4.007  0.00  0.00     0.036 H 
BRANCH  10  13
ATOM     13  C   LIG d   1       4.667  -3.315  -5.793  0.00  0.00    -0.030 C 
ATOM     14  H   LIG d   1       5.650  -3.420  -6.251  0.00  0.00     0.082 H 
ATOM     15  H   LIG d   1       4.229  -2.361  -6.084  0.00  0.00     0.082 H 
BRANCH  13  16
ATOM     16  N   LIG d   1       3.797  -4.410  -6.245  0.00  0.00     0.225 N 
ATOM     17  H   LIG d   1       2.853  -4.244  -5.926  0.00  0.00     0.201 HD
ATOM     18  H   LIG d   1       4.131  -5.284  -5.866  0.00  0.00     0.201 HD
BRANCH  16  19
ATOM     19  C   LIG d   1       3.813  -4.475  -7.712  0.00  0.00    -0.045 C 
ATOM     20  H   LIG d   1       2.799  -4.354  -8.093  0.00  0.00     0.078 H 
ATOM     21  H   LIG d   1       4.445  -3.678  -8.104  0.00  0.00     0.078 H 
ATOM     22  H   LIG d   1       4.207  -5.441  -8.028  0.00  0.00     0.078 H 
ENDBRANCH  16  19
ENDBRANCH  13  16
ENDBRANCH  10  13
ENDBRANCH   1  10
BRANCH   5  23
ATOM     23  O   LIG d   1       2.864   1.085  -4.725  0.00  0.00    -0.503 OA
ATOM     24  H   LIG d   1       3.482   1.729  -5.096  0.00  0.00     0.292 HD
ENDBRANCH   5  23
BRANCH   4  25
ATOM     25  O   LIG d   1       3.336   1.603  -2.061  0.00  0.00    -0.503 OA
ATOM     26  H   LIG d   1       3.624   1.726  -1.147  0.00  0.00     0.292 HD
ENDBRANCH   4  25
TORSDOF 6
ENDMDL
MODEL 2
REMARK VINA RESULT:      -4.7      1.517      1.543
REMARK  6 active torsions:
REMARK  status: ('A' for Active; 'I' for Inactive)
REMARK    1  A    between atoms: C_1  and  N_2 
REMARK    2  A    between atoms: N_2  and  C_3 
REMARK    3  A    between atoms: C_3  and  C_4 
REMARK    4  A    between atoms: C_4  and  C_5 
REMARK    5  A    between atoms: C_8  and  O_12 
REMARK    6  A    between atoms: C_9  and  O_11 
ROOT
ATOM      1  C   LIG d   1       5.005  -2.285  -3.749  0.00  0.00    -0.039 A 
ATOM      2  C   LIG d   1       4.235  -2.181  -2.606  0.00  0.00    -0.055 A 
ATOM      3  C   LIG d   1       4.196  -0.991  -1.903  0.00  0.00    -0.016 A 
ATOM      4  C   LIG d   1       4.928   0.100  -2.344  0.00  0.00     0.158 A 
ATOM      5  C   LIG d   1       5.703  -0.006  -3.495  0.00  0.00     0.159 A 
ATOM      6  C   LIG d   1       5.743  -1.203  -4.192  0.00  0.00    -0.013 A 
ATOM      7  H   LIG d   1       3.664  -3.029  -2.261  0.00  0.00     0.062 H 
ATOM      8  H   LIG d   1       3.593  -0.911  -1.010  0.00  0.00     0.066 H 
ATOM      9  H   LIG d   1       6.347  -1.290  -5.083  0.00  0.00     0.066 H 
ENDROOT
BRANCH   1  10
ATOM     10  C   LIG d   1       5.044  -3.585  -4.512  0.00  0.00     0.013 C 
ATOM     11  H   LIG d   1       4.413  -4.319  -4.010  0.00  0.00     0.036 H 
ATOM     12  H   LIG d   1       6.069  -3.953  -4.551  0.00  0.00     0.036 H 
BRANCH  10  13
ATOM     13  C   LIG d   1       4.529  -3.357  -5.934  0.00  0.00    -0.030 C 
ATOM     14  H   LIG d   1       5.361  -3.417  -6.636  0.00  0.00     0.082 H 
ATOM     15  H   LIG d   1       4.068  -2.372  -6.000  0.00  0.00     0.082 H 
BRANCH  13  16
ATOM     16  N   LIG d   1       3.534  -4.387  -6.265  0.00  0.00     0.225 N 
ATOM     17  H   LIG d   1       2.642  -3.948  -6.445  0.00  0.00     0.201 HD
ATOM     18  H   LIG d   1       3.444  -5.028  -5.492  0.00  0.00     0.201 HD
BRANCH  16  19
ATOM     19  C   LIG d   1       3.968  -5.121  -7.462  0.00  0.00    -0.045 C 
ATOM     20  H   LIG d   1       3.101  -5.346  -8.083  0.00  0.00     0.078 H 
ATOM     21  H   LIG d   1       4.671  -4.510  -8.027  0.00  0.00     0.078 H 
ATOM     22  H   LIG d   1       4.452  -6.050  -7.162  0.00  0.00     0.078 H 
ENDBRANCH  16  19
ENDBRANCH  13  16
ENDBRANCH  10  13
ENDBRANCH   1  10
BRANCH   5  23
ATOM     23  O   LIG d   1       6.424   1.060  -3.931  0.00  0.00    -0.503 OA
ATOM     24  H   LIG d   1       5.897   1.736  -4.377  0.00  0.00     0.292 HD
ENDBRANCH   5  23
BRANCH   4  25
ATOM     25  O   LIG d   1       4.890   1.270  -1.654  0.00  0.00    -0.503 OA
ATOM     26  H   LIG d   1       5.494   1.302  -0.900  0.00  0.00     0.292 HD
ENDBRANCH   4  25
TORSDOF 6
ENDMDL
MODEL 3
REMARK VINA RESULT:      -4.6      3.112      4.078
REMARK  6 active torsions:
REMARK  status: ('A' for Active; 'I' for Inactive)
REMARK    1  A    between atoms: C_1  and  N_2 
REMARK    2  A    between atoms: N_2  and  C_3 
REMARK    3  A    between atoms: C_3  and  C_4 
REMARK    4  A    between atoms: C_4  and  C_5 
REMARK    5  A    between atoms: C_8  and  O_12 
REMARK    6  A    between atoms: C_9  and  O_11 
ROOT
ATOM      1  C   LIG d   1       5.196  -1.182  -2.942  0.00  0.00    -0.039 A 
ATOM      2  C   LIG d   1       5.998  -2.145  -3.526  0.00  0.00    -0.055 A 
ATOM      3  C   LIG d   1       7.221  -1.794  -4.066  0.00  0.00    -0.016 A 
ATOM      4  C   LIG d   1       7.645  -0.476  -4.023  0.00  0.00     0.158 A 
ATOM      5  C   LIG d   1       6.837   0.493  -3.435  0.00  0.00     0.159 A 
ATOM      6  C   LIG d   1       5.610   0.136  -2.900  0.00  0.00    -0.013 A 
ATOM      7  H   LIG d   1       5.669  -3.173  -3.559  0.00  0.00     0.062 H 
ATOM      8  H   LIG d   1       7.847  -2.548  -4.521  0.00  0.00     0.066 H 
ATOM      9  H   LIG d   1       4.979   0.886  -2.448  0.00  0.00     0.066 H 
ENDROOT
BRANCH   1  10
ATOM     10  C   LIG d   1       3.863  -1.571  -2.354  0.00  0.00     0.013 C 
ATOM     11  H   LIG d   1       3.932  -1.569  -1.266  0.00  0.00     0.036 H 
ATOM     12  H   LIG d   1       3.590  -2.567  -2.699  0.00  0.00     0.036 H 
BRANCH  10  13
ATOM     13  C   LIG d   1       2.798  -0.567  -2.800  0.00  0.00    -0.030 C 
ATOM     14  H   LIG d   1       3.187   0.446  -2.695  0.00  0.00     0.082 H 
ATOM     15  H   LIG d   1       1.909  -0.681  -2.181  0.00  0.00     0.082 H 
BRANCH  13  16
ATOM     16  N   LIG d   1       2.450  -0.814  -4.206  0.00  0.00     0.225 N 
ATOM     17  H   LIG d   1       1.529  -1.225  -4.258  0.00  0.00     0.201 HD
ATOM     18  H   LIG d   1       3.124  -1.446  -4.613  0.00  0.00     0.201 HD
BRANCH  16  19
ATOM     19  C   LIG d   1       2.462   0.456  -4.945  0.00  0.00    -0.045 C 
ATOM     20  H   LIG d   1       1.993   1.232  -4.339  0.00  0.00     0.078 H 
ATOM     21  H   LIG d   1       3.491   0.738  -5.165  0.00  0.00     0.078 H 
ATOM     22  H   LIG d   1       1.909   0.338  -5.877  0.00  0.00     0.078 H 
ENDBRANCH  16  19
ENDBRANCH  13  16
ENDBRANCH  10  13
ENDBRANCH   1  10
BRANCH   5  23
ATOM     23  O   LIG d   1       7.249   1.788  -3.392  0.00  0.00    -0.503 OA
ATOM     24  H   LIG d   1       8.122   1.911  -2.997  0.00  0.00     0.292 HD
ENDBRANCH   5  23
BRANCH   4  25
ATOM     25  O   LIG d   1       8.848  -0.129  -4.554  0.00  0.00    -0.503 OA
ATOM     26  H   LIG d   1       9.152  -0.719  -5.257  0.00  0.00     0.292 HD
ENDBRANCH   4  25
TORSDOF 6
ENDMDL
MODEL 4
REMARK VINA RESULT:      -4.5      2.814      3.328
REMARK  6 active torsions:
REMARK  status: ('A' for Active; 'I' for Inactive)
REMARK    1  A    between atoms: C_1  and  N_2 
REMARK    2  A    between atoms: N_2  and  C_3 
REMARK    3  A    between atoms: C_3  and  C_4 
REMARK    4  A    between atoms: C_4  and  C_5 
REMARK    5  A    between atoms: C_8  and  O_12 
REMARK    6  A    between atoms: C_9  and  O_11 
ROOT
ATOM      1  C   LIG d   1       5.787  -1.844  -3.543  0.00  0.00    -0.039 A 
ATOM      2  C   LIG d   1       4.581  -2.103  -2.919  0.00  0.00    -0.055 A 
ATOM      3  C   LIG d   1       3.864  -1.071  -2.341  0.00  0.00    -0.016 A 
ATOM      4  C   LIG d   1       4.355   0.224  -2.385  0.00  0.00     0.158 A 
ATOM      5  C   LIG d   1       5.569   0.483  -3.013  0.00  0.00     0.159 A 
ATOM      6  C   LIG d   1       6.285  -0.556  -3.586  0.00  0.00    -0.013 A 
ATOM      7  H   LIG d   1       4.198  -3.112  -2.884  0.00  0.00     0.062 H 
ATOM      8  H   LIG d   1       2.921  -1.276  -1.854  0.00  0.00     0.066 H 
ATOM      9  H   LIG d   1       7.230  -0.358  -4.071  0.00  0.00     0.066 H 
ENDROOT
BRANCH   1  10
ATOM     10  C   LIG d   1       6.564  -2.973  -4.172  0.00  0.00     0.013 C 
ATOM     11  H   LIG d   1       6.201  -3.142  -5.186  0.00  0.00     0.036 H 
ATOM     12  H   LIG d   1       6.432  -3.879  -3.582  0.00  0.00     0.036 H 
BRANCH  10  13
ATOM     13  C   LIG d   1       8.049  -2.605  -4.218  0.00  0.00    -0.030 C 
ATOM     14  H   LIG d   1       8.155  -1.521  -4.193  0.00  0.00     0.082 H 
ATOM     15  H   LIG d   1       8.491  -2.994  -5.134  0.00  0.00     0.082 H 
BRANCH  13  16
ATOM     16  N   LIG d   1       8.734  -3.191  -3.057  0.00  0.00     0.225 N 
ATOM     17  H   LIG d   1       8.060  -3.386  -2.331  0.00  0.00     0.201 HD
ATOM     18  H   LIG d   1       9.423  -2.541  -2.709  0.00  0.00     0.201 HD
BRANCH  16  19
ATOM     19  C   LIG d   1       9.397  -4.439  -3.458  0.00  0.00    -0.045 C 
ATOM     20  H   LIG d   1       9.232  -4.612  -4.522  0.00  0.00     0.078 H 
ATOM     21  H   LIG d   1      10.466  -4.361  -3.263  0.00  0.00     0.078 H 
ATOM     22  H   LIG d   1       8.983  -5.270  -2.886  0.00  0.00     0.078 H 
ENDBRANCH  16  19
ENDBRANCH  13  16
ENDBRANCH  10  13
ENDBRANCH   1  10
BRANCH   5  23
ATOM     23  O   LIG d   1       6.055   1.752  -3.059  0.00  0.00    -0.503 OA
ATOM     24  H   LIG d   1       6.348   2.030  -3.937  0.00  0.00     0.292 HD
ENDBRANCH   5  23
BRANCH   4  25
ATOM     25  O   LIG d   1       3.651   1.239  -1.817  0.00  0.00    -0.503 OA
ATOM     26  H   LIG d   1       4.134   1.716  -1.129  0.00  0.00     0.292 HD
ENDBRANCH   4  25
TORSDOF 6
ENDMDL
MODEL 5
REMARK VINA RESULT:      -4.5      3.330      4.646
REMARK  6 active torsions:
REMARK  status: ('A' for Active; 'I' for Inactive)
REMARK    1  A    between atoms: C_1  and  N_2 
REMARK    2  A    between atoms: N_2  and  C_3 
REMARK    3  A    between atoms: C_3  and  C_4 
REMARK    4  A    between atoms: C_4  and  C_5 
REMARK    5  A    between atoms: C_8  and  O_12 
REMARK    6  A    between atoms: C_9  and  O_11 
ROOT
ATOM      1  C   LIG d   1       5.117  -1.323  -2.876  0.00  0.00    -0.039 A 
ATOM      2  C   LIG d   1       6.469  -1.205  -3.143  0.00  0.00    -0.055 A 
ATOM      3  C   LIG d   1       7.094  -2.120  -3.969  0.00  0.00    -0.016 A 
ATOM      4  C   LIG d   1       6.368  -3.158  -4.531  0.00  0.00     0.158 A 
ATOM      5  C   LIG d   1       5.008  -3.275  -4.262  0.00  0.00     0.159 A 
ATOM      6  C   LIG d   1       4.387  -2.358  -3.428  0.00  0.00    -0.013 A 
ATOM      7  H   LIG d   1       7.036  -0.397  -2.706  0.00  0.00     0.062 H 
ATOM      8  H   LIG d   1       8.151  -2.026  -4.177  0.00  0.00     0.066 H 
ATOM      9  H   LIG d   1       3.333  -2.450  -3.214  0.00  0.00     0.066 H 
ENDROOT
BRANCH   1  10
ATOM     10  C   LIG d   1       4.440  -0.322  -1.974  0.00  0.00     0.013 C 
ATOM     11  H   LIG d   1       5.102   0.529  -1.816  0.00  0.00     0.036 H 
ATOM     12  H   LIG d   1       4.214  -0.790  -1.017  0.00  0.00     0.036 H 
BRANCH  10  13
ATOM     13  C   LIG d   1       3.142   0.156  -2.628  0.00  0.00    -0.030 C 
ATOM     14  H   LIG d   1       2.564   0.734  -1.908  0.00  0.00     0.082 H 
ATOM     15  H   LIG d   1       2.560  -0.706  -2.954  0.00  0.00     0.082 H 
BRANCH  13  16
ATOM     16  N   LIG d   1       3.461   0.999  -3.789  0.00  0.00     0.225 N 
ATOM     17  H   LIG d   1       4.421   0.848  -4.061  0.00  0.00     0.201 HD
ATOM     18  H   LIG d   1       3.328   1.969  -3.547  0.00  0.00     0.201 HD
BRANCH  16  19
ATOM     19  C   LIG d   1       2.575   0.647  -4.907  0.00  0.00    -0.045 C 
ATOM     20  H   LIG d   1       3.039  -0.136  -5.506  0.00  0.00     0.078 H 
ATOM     21  H   LIG d   1       1.622   0.290  -4.517  0.00  0.00     0.078 H 
ATOM     22  H   LIG d   1       2.407   1.528  -5.527  0.00  0.00     0.078 H 
ENDBRANCH  16  19
ENDBRANCH  13  16
ENDBRANCH  10  13
ENDBRANCH   1  10
BRANCH   5  23
ATOM     23  O   LIG d   1       4.290  -4.292  -4.810  0.00  0.00    -0.503 OA
ATOM     24  H   LIG d   1       4.832  -5.001  -5.181  0.00  0.00     0.292 HD
ENDBRANCH   5  23
BRANCH   4  25
ATOM     25  O   LIG d   1       6.982  -4.057  -5.344  0.00  0.00    -0.503 OA
ATOM     26  H   LIG d   1       7.927  -4.162  -5.172  0.00  0.00     0.292 HD
ENDBRANCH   4  25
TORSDOF 6
ENDMDL
MODEL 6
REMARK VINA RESULT:      -4.4      1.588      2.049
REMARK  6 active torsions:
REMARK  status: ('A' for Active; 'I' for Inactive)
REMARK    1  A    between atoms: C_1  and  N_2 
REMARK    2  A    between atoms: N_2  and  C_3 
REMARK    3  A    between atoms: C_3  and  C_4 
REMARK    4  A    between atoms: C_4  and  C_5 
REMARK    5  A    between atoms: C_8  and  O_12 
REMARK    6  A    between atoms: C_9  and  O_11 
ROOT
ATOM      1  C   LIG d   1       4.455  -1.956  -3.837  0.00  0.00    -0.039 A 
ATOM      2  C   LIG d   1       4.684  -1.795  -2.483  0.00  0.00    -0.055 A 
ATOM      3  C   LIG d   1       4.312  -0.623  -1.851  0.00  0.00    -0.016 A 
ATOM      4  C   LIG d   1       3.709   0.393  -2.574  0.00  0.00     0.158 A 
ATOM      5  C   LIG d   1       3.478   0.231  -3.937  0.00  0.00     0.159 A 
ATOM      6  C   LIG d   1       3.859  -0.944  -4.566  0.00  0.00    -0.013 A 
ATOM      7  H   LIG d   1       5.154  -2.586  -1.918  0.00  0.00     0.062 H 
ATOM      8  H   LIG d   1       4.491  -0.500  -0.792  0.00  0.00     0.066 H 
ATOM      9  H   LIG d   1       3.685  -1.071  -5.624  0.00  0.00     0.066 H 
ENDROOT
BRANCH   1  10
ATOM     10  C   LIG d   1       4.862  -3.236  -4.521  0.00  0.00     0.013 C 
ATOM     11  H   LIG d   1       4.461  -3.249  -5.534  0.00  0.00     0.036 H 
ATOM     12  H   LIG d   1       4.472  -4.086  -3.964  0.00  0.00     0.036 H 
BRANCH  10  13
ATOM     13  C   LIG d   1       6.389  -3.319  -4.577  0.00  0.00    -0.030 C 
ATOM     14  H   LIG d   1       6.690  -4.350  -4.763  0.00  0.00     0.082 H 
ATOM     15  H   LIG d   1       6.807  -2.984  -3.628  0.00  0.00     0.082 H 
BRANCH  13  16
ATOM     16  N   LIG d   1       6.887  -2.460  -5.661  0.00  0.00     0.225 N 
ATOM     17  H   LIG d   1       6.125  -1.913  -6.033  0.00  0.00     0.201 HD
ATOM     18  H   LIG d   1       7.278  -3.035  -6.392  0.00  0.00     0.201 HD
BRANCH  16  19
ATOM     19  C   LIG d   1       7.924  -1.561  -5.136  0.00  0.00    -0.045 C 
ATOM     20  H   LIG d   1       7.649  -0.528  -5.347  0.00  0.00     0.078 H 
ATOM     21  H   LIG d   1       8.015  -1.701  -4.059  0.00  0.00     0.078 H 
ATOM     22  H   LIG d   1       8.877  -1.789  -5.615  0.00  0.00     0.078 H 
ENDBRANCH  16  19
ENDBRANCH  13  16
ENDBRANCH  10  13
ENDBRANCH   1  10
BRANCH   5  23
ATOM     23  O   LIG d   1       2.887   1.226  -4.651  0.00  0.00    -0.503 OA
ATOM     24  H   LIG d   1       3.271   2.100  -4.501  0.00  0.00     0.292 HD
ENDBRANCH   5  23
BRANCH   4  25
ATOM     25  O   LIG d   1       3.342   1.546  -1.953  0.00  0.00    -0.503 OA
ATOM     26  H   LIG d   1       3.586   1.584  -1.019  0.00  0.00     0.292 HD
ENDBRANCH   4  25
TORSDOF 6
ENDMDL
MODEL 7
REMARK VINA RESULT:      -4.3      2.865      3.218
REMARK  6 active torsions:
REMARK  status: ('A' for Active; 'I' for Inactive)
REMARK    1  A    between atoms: C_1  and  N_2 
REMARK    2  A    between atoms: N_2  and  C_3 
REMARK    3  A    between atoms: C_3  and  C_4 
REMARK    4  A    between atoms: C_4  and  C_5 
REMARK    5  A    between atoms: C_8  and  O_12 
REMARK    6  A    between atoms: C_9  and  O_11 
ROOT
ATOM      1  C   LIG d   1       5.554  -1.215  -3.417  0.00  0.00    -0.039 A 
ATOM      2  C   LIG d   1       4.557  -1.615  -2.546  0.00  0.00    -0.055 A 
ATOM      3  C   LIG d   1       3.233  -1.347  -2.839  0.00  0.00    -0.016 A 
ATOM      4  C   LIG d   1       2.902  -0.675  -4.005  0.00  0.00     0.158 A 
ATOM      5  C   LIG d   1       3.906  -0.273  -4.880  0.00  0.00     0.159 A 
ATOM      6  C   LIG d   1       5.233  -0.540  -4.579  0.00  0.00    -0.013 A 
ATOM      7  H   LIG d   1       4.813  -2.138  -1.638  0.00  0.00     0.062 H 
ATOM      8  H   LIG d   1       2.455  -1.661  -2.158  0.00  0.00     0.066 H 
ATOM      9  H   LIG d   1       6.014  -0.225  -5.254  0.00  0.00     0.066 H 
ENDROOT
BRANCH   1  10
ATOM     10  C   LIG d   1       6.997  -1.510  -3.093  0.00  0.00     0.013 C 
ATOM     11  H   LIG d   1       7.094  -1.715  -2.026  0.00  0.00     0.036 H 
ATOM     12  H   LIG d   1       7.612  -0.651  -3.356  0.00  0.00     0.036 H 
BRANCH  10  13
ATOM     13  C   LIG d   1       7.458  -2.732  -3.891  0.00  0.00    -0.030 C 
ATOM     14  H   LIG d   1       7.598  -2.452  -4.935  0.00  0.00     0.082 H 
ATOM     15  H   LIG d   1       6.706  -3.516  -3.822  0.00  0.00     0.082 H 
BRANCH  13  16
ATOM     16  N   LIG d   1       8.729  -3.224  -3.342  0.00  0.00     0.225 N 
ATOM     17  H   LIG d   1       8.654  -3.304  -2.338  0.00  0.00     0.201 HD
ATOM     18  H   LIG d   1       9.468  -2.576  -3.573  0.00  0.00     0.201 HD
BRANCH  16  19
ATOM     19  C   LIG d   1       9.035  -4.540  -3.917  0.00  0.00    -0.045 C 
ATOM     20  H   LIG d   1       8.711  -4.566  -4.958  0.00  0.00     0.078 H 
ATOM     21  H   LIG d   1      10.108  -4.719  -3.866  0.00  0.00     0.078 H 
ATOM     22  H   LIG d   1       8.510  -5.313  -3.354  0.00  0.00     0.078 H 
ENDBRANCH  16  19
ENDBRANCH  13  16
ENDBRANCH  10  13
ENDBRANCH   1  10
BRANCH   5  23
ATOM     23  O   LIG d   1       3.588   0.387  -6.026  0.00  0.00    -0.503 OA
ATOM     24  H   LIG d   1       3.478   1.340  -5.913  0.00  0.00     0.292 HD
ENDBRANCH   5  23
BRANCH   4  25
ATOM     25  O   LIG d   1       1.601  -0.411  -4.294  0.00  0.00    -0.503 OA
ATOM     26  H   LIG d   1       0.974  -0.777  -3.655  0.00  0.00     0.292 HD
ENDBRANCH   4  25
TORSDOF 6
ENDMDL
MODEL 8
REMARK VINA RESULT:      -4.2      4.145      5.128
REMARK  6 active torsions:
REMARK  status: ('A' for Active; 'I' for Inactive)
REMARK    1  A    between atoms: C_1  and  N_2 
REMARK    2  A    between atoms: N_2  and  C_3 
REMARK    3  A    between atoms: C_3  and  C_4 
REMARK    4  A    between atoms: C_4  and  C_5 
REMARK    5  A    between atoms: C_8  and  O_12 
REMARK    6  A    between atoms: C_9  and  O_11 
ROOT
ATOM      1  C   LIG d   1       6.634   0.730  -3.387  0.00  0.00    -0.039 A 
ATOM      2  C   LIG d   1       6.872  -0.630  -3.465  0.00  0.00    -0.055 A 
ATOM      3  C   LIG d   1       5.896  -1.528  -3.073  0.00  0.00    -0.016 A 
ATOM      4  C   LIG d   1       4.678  -1.066  -2.600  0.00  0.00     0.158 A 
ATOM      5  C   LIG d   1       4.440   0.303  -2.522  0.00  0.00     0.159 A 
ATOM      6  C   LIG d   1       5.424   1.198  -2.911  0.00  0.00    -0.013 A 
ATOM      7  H   LIG d   1       7.820  -0.991  -3.833  0.00  0.00     0.062 H 
ATOM      8  H   LIG d   1       6.084  -2.590  -3.136  0.00  0.00     0.066 H 
ATOM      9  H   LIG d   1       5.243   2.261  -2.847  0.00  0.00     0.066 H 
ENDROOT
BRANCH   1  10
ATOM     10  C   LIG d   1       7.701   1.704  -3.816  0.00  0.00     0.013 C 
ATOM     11  H   LIG d   1       8.174   2.136  -2.934  0.00  0.00     0.036 H 
ATOM     12  H   LIG d   1       7.251   2.498  -4.412  0.00  0.00     0.036 H 
BRANCH  10  13
ATOM     13  C   LIG d   1       8.753   0.972  -4.652  0.00  0.00    -0.030 C 
ATOM     14  H   LIG d   1       8.695   1.310  -5.686  0.00  0.00     0.082 H 
ATOM     15  H   LIG d   1       8.569  -0.101  -4.609  0.00  0.00     0.082 H 
BRANCH  13  16
ATOM     16  N   LIG d   1      10.091   1.261  -4.117  0.00  0.00     0.225 N 
ATOM     17  H   LIG d   1      10.738   1.394  -4.881  0.00  0.00     0.201 HD
ATOM     18  H   LIG d   1      10.399   0.488  -3.546  0.00  0.00     0.201 HD
BRANCH  16  19
ATOM     19  C   LIG d   1      10.039   2.482  -3.302  0.00  0.00    -0.045 C 
ATOM     20  H   LIG d   1      10.792   3.187  -3.655  0.00  0.00     0.078 H 
ATOM     21  H   LIG d   1       9.051   2.934  -3.386  0.00  0.00     0.078 H 
ATOM     22  H   LIG d   1      10.237   2.231  -2.259  0.00  0.00     0.078 H 
ENDBRANCH  16  19
ENDBRANCH  13  16
ENDBRANCH  10  13
ENDBRANCH   1  10
BRANCH   5  23
ATOM     23  O   LIG d   1       3.247   0.761  -2.058  0.00  0.00    -0.503 OA
ATOM     24  H   LIG d   1       2.779   1.338  -2.677  0.00  0.00     0.292 HD
ENDBRANCH   5  23
BRANCH   4  25
ATOM     25  O   LIG d   1       3.718  -1.948  -2.215  0.00  0.00    -0.503 OA
ATOM     26  H   LIG d   1       3.222  -1.672  -1.432  0.00  0.00     0.292 HD
ENDBRANCH   4  25
TORSDOF 6
ENDMDL
MODEL 9
REMARK VINA RESULT:      -4.2     10.761     12.487
REMARK  6 active torsions:
REMARK  status: ('A' for Active; 'I' for Inactive)
REMARK    1  A    between atoms: C_1  and  N_2 
REMARK    2  A    between atoms: N_2  and  C_3 
REMARK    3  A    between atoms: C_3  and  C_4 
REMARK    4  A    between atoms: C_4  and  C_5 
REMARK    5  A    between atoms: C_8  and  O_12 
REMARK    6  A    between atoms: C_9  and  O_11 
ROOT
ATOM      1  C   LIG d   1       9.648   8.123  -0.820  0.00  0.00    -0.039 A 
ATOM      2  C   LIG d   1       9.336   7.280  -1.870  0.00  0.00    -0.055 A 
ATOM      3  C   LIG d   1       9.902   6.020  -1.939  0.00  0.00    -0.016 A 
ATOM      4  C   LIG d   1      10.785   5.602  -0.957  0.00  0.00     0.158 A 
ATOM      5  C   LIG d   1      11.098   6.451   0.100  0.00  0.00     0.159 A 
ATOM      6  C   LIG d   1      10.531   7.715   0.161  0.00  0.00    -0.013 A 
ATOM      7  H   LIG d   1       8.648   7.605  -2.637  0.00  0.00     0.062 H 
ATOM      8  H   LIG d   1       9.656   5.362  -2.760  0.00  0.00     0.066 H 
ATOM      9  H   LIG d   1      10.776   8.378   0.977  0.00  0.00     0.066 H 
ENDROOT
BRANCH   1  10
ATOM     10  C   LIG d   1       9.027   9.495  -0.750  0.00  0.00     0.013 C 
ATOM     11  H   LIG d   1       9.392  10.013   0.138  0.00  0.00     0.036 H 
ATOM     12  H   LIG d   1       7.943   9.402  -0.696  0.00  0.00     0.036 H 
BRANCH  10  13
ATOM     13  C   LIG d   1       9.410  10.292  -1.998  0.00  0.00    -0.030 C 
ATOM     14  H   LIG d   1       9.692   9.605  -2.796  0.00  0.00     0.082 H 
ATOM     15  H   LIG d   1      10.250  10.947  -1.768  0.00  0.00     0.082 H 
BRANCH  13  16
ATOM     16  N   LIG d   1       8.263  11.102  -2.433  0.00  0.00     0.225 N 
ATOM     17  H   LIG d   1       7.989  11.724  -1.687  0.00  0.00     0.201 HD
ATOM     18  H   LIG d   1       7.492  10.495  -2.666  0.00  0.00     0.201 HD
BRANCH  16  19
ATOM     19  C   LIG d   1       8.640  11.890  -3.614  0.00  0.00    -0.045 C 
ATOM     20  H   LIG d   1       9.413  11.362  -4.172  0.00  0.00     0.078 H 
ATOM     21  H   LIG d   1       7.766  12.032  -4.250  0.00  0.00     0.078 H 
ATOM     22  H   LIG d   1       9.020  12.861  -3.296  0.00  0.00     0.078 H 
ENDBRANCH  16  19
ENDBRANCH  13  16
ENDBRANCH  10  13
ENDBRANCH   1  10
BRANCH   5  23
ATOM     23  O   LIG d   1      11.964   6.046   1.067  0.00  0.00    -0.503 OA
ATOM     24  H   LIG d   1      12.230   6.747   1.676  0.00  0.00     0.292 HD
ENDBRANCH   5  23
BRANCH   4  25
ATOM     25  O   LIG d   1      11.342   4.363  -1.023  0.00  0.00    -0.503 OA
ATOM     26  H   LIG d   1      12.215   4.303  -0.614  0.00  0.00     0.292 HD
ENDBRANCH   4  25
TORSDOF 6
ENDMDL
MODEL 10
REMARK VINA RESULT:      -4.1     10.834     12.096
REMARK  6 active torsions:
REMARK  status: ('A' for Active; 'I' for Inactive)
REMARK    1  A    between atoms: C_1  and  N_2 
REMARK    2  A    between atoms: N_2  and  C_3 
REMARK    3  A    between atoms: C_3  and  C_4 
REMARK    4  A    between atoms: C_4  and  C_5 
REMARK    5  A    between atoms: C_8  and  O_12 
REMARK    6  A    between atoms: C_9  and  O_11 
ROOT
ATOM      1  C   LIG d   1      10.281   7.553  -0.444  0.00  0.00    -0.039 A 
ATOM      2  C   LIG d   1      11.135   8.223   0.413  0.00  0.00    -0.055 A 
ATOM      3  C   LIG d   1      10.943   9.568   0.671  0.00  0.00    -0.016 A 
ATOM      4  C   LIG d   1       9.894  10.247   0.072  0.00  0.00     0.158 A 
ATOM      5  C   LIG d   1       9.035   9.572  -0.790  0.00  0.00     0.159 A 
ATOM      6  C   LIG d   1       9.236   8.225  -1.050  0.00  0.00    -0.013 A 
ATOM      7  H   LIG d   1      11.952   7.696   0.881  0.00  0.00     0.062 H 
ATOM      8  H   LIG d   1      11.611  10.090   1.342  0.00  0.00     0.066 H 
ATOM      9  H   LIG d   1       8.574   7.700  -1.722  0.00  0.00     0.066 H 
ENDROOT
BRANCH   1  10
ATOM     10  C   LIG d   1      10.495   6.087  -0.722  0.00  0.00     0.013 C 
ATOM     11  H   LIG d   1      10.377   5.900  -1.790  0.00  0.00     0.036 H 
ATOM     12  H   LIG d   1       9.764   5.501  -0.167  0.00  0.00     0.036 H 
BRANCH  10  13
ATOM     13  C   LIG d   1      11.907   5.687  -0.288  0.00  0.00    -0.030 C 
ATOM     14  H   LIG d   1      11.860   5.180   0.675  0.00  0.00     0.082 H 
ATOM     15  H   LIG d   1      12.527   6.579  -0.199  0.00  0.00     0.082 H 
BRANCH  13  16
ATOM     16  N   LIG d   1      12.490   4.784  -1.290  0.00  0.00     0.225 N 
ATOM     17  H   LIG d   1      12.885   3.978  -0.828  0.00  0.00     0.201 HD
ATOM     18  H   LIG d   1      13.214   5.269  -1.799  0.00  0.00     0.201 HD
BRANCH  16  19
ATOM     19  C   LIG d   1      11.443   4.349  -2.225  0.00  0.00    -0.045 C 
ATOM     20  H   LIG d   1      11.258   5.137  -2.955  0.00  0.00     0.078 H 
ATOM     21  H   LIG d   1      11.769   3.446  -2.740  0.00  0.00     0.078 H 
ATOM     22  H   LIG d   1      10.527   4.142  -1.672  0.00  0.00     0.078 H 
ENDBRANCH  16  19
ENDBRANCH  13  16
ENDBRANCH  10  13
ENDBRANCH   1  10
BRANCH   5  23
ATOM     23  O   LIG d   1       8.005  10.233  -1.382  0.00  0.00    -0.503 OA
ATOM     24  H   LIG d   1       8.178  11.171  -1.539  0.00  0.00     0.292 HD
ENDBRANCH   5  23
BRANCH   4  25
ATOM     25  O   LIG d   1       9.704  11.568   0.326  0.00  0.00    -0.503 OA
ATOM     26  H   LIG d   1      10.178  12.157  -0.277  0.00  0.00     0.292 HD
ENDBRANCH   4  25
TORSDOF 6
ENDMDL
