MODEL 1
REMARK VINA RESULT:      -4.1      0.000      0.000
REMARK  3 active torsions:
REMARK  status: ('A' for Active; 'I' for Inactive)
REMARK    1  A    between atoms: C_1  and  C_2 
REMARK    2  A    between atoms: C_1  and  C_6 
REMARK    3  A    between atoms: C_2  and  C_4 
ROOT
ATOM      1  C   LIG d   1       3.545   1.597  -3.152  0.00  0.00     0.046 C 
ATOM      2  H   LIG d   1       2.828   1.752  -2.471  0.00  0.00     0.040 H 
ATOM      3  H   LIG d   1       3.588   2.448  -3.833  0.00  0.00     0.040 H 
ENDROOT
BRANCH   1   4
ATOM      4  C   LIG d   1       3.234   0.346  -3.932  0.00  0.00     0.149 C 
ATOM      5  O   LIG d   1       3.525   0.276  -5.102  0.00  0.00    -0.296 OA
BRANCH   4   6
ATOM      6  C   LIG d   1       2.562  -0.819  -3.252  0.00  0.00     0.062 C 
ATOM      7 BR   LIG d   1       3.927  -2.070  -2.592  0.00  0.00    -0.084 Br
ATOM      8  H   LIG d   1       2.015  -0.487  -2.483  0.00  0.00     0.046 H 
ATOM      9  H   LIG d   1       1.913  -1.330  -3.964  0.00  0.00     0.046 H 
ENDBRANCH   4   6
ENDBRANCH   1   4
BRANCH   1  10
ATOM     10  C   LIG d   1       4.873   1.439  -2.457  0.00  0.00     0.049 C 
ATOM     11  O   LIG d   1       5.900   1.600  -3.073  0.00  0.00    -0.549 OA
ATOM     12  O   LIG d   1       4.913   1.120  -1.154  0.00  0.00    -0.549 OA
ENDBRANCH   1  10
TORSDOF 3
ENDMDL
MODEL 2
REMARK VINA RESULT:      -3.9      1.544      3.127
REMARK  3 active torsions:
REMARK  status: ('A' for Active; 'I' for Inactive)
REMARK    1  A    between atoms: C_1  and  C_2 
REMARK    2  A    between atoms: C_1  and  C_6 
REMARK    3  A    between atoms: C_2  and  C_4 
ROOT
ATOM      1  C   LIG d   1       2.635   0.081  -4.166  0.00  0.00     0.046 C 
ATOM      2  H   LIG d   1       1.756   0.555  -4.208  0.00  0.00     0.040 H 
ATOM      3  H   LIG d   1       2.480  -0.945  -3.832  0.00  0.00     0.040 H 
ENDROOT
BRANCH   1   4
ATOM      4  C   LIG d   1       3.542   0.792  -3.195  0.00  0.00     0.149 C 
ATOM      5  O   LIG d   1       3.727   1.981  -3.301  0.00  0.00    -0.296 OA
BRANCH   4   6
ATOM      6  C   LIG d   1       4.217   0.021  -2.090  0.00  0.00     0.062 C 
ATOM      7 BR   LIG d   1       3.938  -1.905  -2.370  0.00  0.00    -0.084 Br
ATOM      8  H   LIG d   1       5.197   0.220  -2.093  0.00  0.00     0.046 H 
ATOM      9  H   LIG d   1       3.791   0.314  -1.130  0.00  0.00     0.046 H 
ENDBRANCH   4   6
ENDBRANCH   1   4
BRANCH   1  10
ATOM     10  C   LIG d   1       3.270   0.076  -5.533  0.00  0.00     0.049 C 
ATOM     11  O   LIG d   1       4.059  -0.789  -5.830  0.00  0.00    -0.549 OA
ATOM     12  O   LIG d   1       2.957   1.033  -6.421  0.00  0.00    -0.549 OA
ENDBRANCH   1  10
TORSDOF 3
ENDMDL
MODEL 3
REMARK VINA RESULT:      -3.9      2.144      2.339
REMARK  3 active torsions:
REMARK  status: ('A' for Active; 'I' for Inactive)
REMARK    1  A    between atoms: C_1  and  C_2 
REMARK    2  A    between atoms: C_1  and  C_6 
REMARK    3  A    between atoms: C_2  and  C_4 
ROOT
ATOM      1  C   LIG d   1       2.870  -0.275  -2.858  0.00  0.00     0.046 C 
ATOM      2  H   LIG d   1       2.248  -0.445  -2.094  0.00  0.00     0.040 H 
ATOM      3  H   LIG d   1       2.291  -0.062  -3.758  0.00  0.00     0.040 H 
ENDROOT
BRANCH   1   4
ATOM      4  C   LIG d   1       3.726  -1.493  -3.089  0.00  0.00     0.149 C 
ATOM      5  O   LIG d   1       3.591  -2.468  -2.389  0.00  0.00    -0.296 OA
BRANCH   4   6
ATOM      6  C   LIG d   1       4.750  -1.496  -4.195  0.00  0.00     0.062 C 
ATOM      7 BR   LIG d   1       6.547  -1.695  -3.424  0.00  0.00    -0.084 Br
ATOM      8  H   LIG d   1       4.568  -2.258  -4.817  0.00  0.00     0.046 H 
ATOM      9  H   LIG d   1       4.692  -0.557  -4.746  0.00  0.00     0.046 H 
ENDBRANCH   4   6
ENDBRANCH   1   4
BRANCH   1  10
ATOM     10  C   LIG d   1       3.751   0.905  -2.537  0.00  0.00     0.049 C 
ATOM     11  O   LIG d   1       3.726   1.887  -3.239  0.00  0.00    -0.549 OA
ATOM     12  O   LIG d   1       4.563   0.863  -1.468  0.00  0.00    -0.549 OA
ENDBRANCH   1  10
TORSDOF 3
ENDMDL
MODEL 4
REMARK VINA RESULT:      -3.9      2.639      3.276
REMARK  3 active torsions:
REMARK  status: ('A' for Active; 'I' for Inactive)
REMARK    1  A    between atoms: C_1  and  C_2 
REMARK    2  A    between atoms: C_1  and  C_6 
REMARK    3  A    between atoms: C_2  and  C_4 
ROOT
ATOM      1  C   LIG d   1       2.537  -0.492  -3.709  0.00  0.00     0.046 C 
ATOM      2  H   LIG d   1       2.317   0.089  -2.925  0.00  0.00     0.040 H 
ATOM      3  H   LIG d   1       1.712  -1.181  -3.892  0.00  0.00     0.040 H 
ENDROOT
BRANCH   1   4
ATOM      4  C   LIG d   1       3.790  -1.276  -3.417  0.00  0.00     0.149 C 
ATOM      5  O   LIG d   1       3.782  -2.481  -3.503  0.00  0.00    -0.296 OA
BRANCH   4   6
ATOM      6  C   LIG d   1       5.054  -0.558  -3.020  0.00  0.00     0.062 C 
ATOM      7 BR   LIG d   1       4.620   0.877  -1.749  0.00  0.00    -0.084 Br
ATOM      8  H   LIG d   1       5.685  -1.204  -2.591  0.00  0.00     0.046 H 
ATOM      9  H   LIG d   1       5.522  -0.129  -3.907  0.00  0.00     0.046 H 
ENDBRANCH   4   6
ENDBRANCH   1   4
BRANCH   1  10
ATOM     10  C   LIG d   1       2.755   0.369  -4.927  0.00  0.00     0.049 C 
ATOM     11  O   LIG d   1       3.084  -0.138  -5.973  0.00  0.00    -0.549 OA
ATOM     12  O   LIG d   1       2.584   1.698  -4.848  0.00  0.00    -0.549 OA
ENDBRANCH   1  10
TORSDOF 3
ENDMDL
MODEL 5
REMARK VINA RESULT:      -3.7      2.443      3.486
REMARK  3 active torsions:
REMARK  status: ('A' for Active; 'I' for Inactive)
REMARK    1  A    between atoms: C_1  and  C_2 
REMARK    2  A    between atoms: C_1  and  C_6 
REMARK    3  A    between atoms: C_2  and  C_4 
ROOT
ATOM      1  C   LIG d   1       4.525  -0.700  -1.756  0.00  0.00     0.046 C 
ATOM      2  H   LIG d   1       4.039  -0.176  -1.056  0.00  0.00     0.040 H 
ATOM      3  H   LIG d   1       5.208  -1.401  -1.275  0.00  0.00     0.040 H 
ENDROOT
BRANCH   1   4
ATOM      4  C   LIG d   1       5.308   0.240  -2.635  0.00  0.00     0.149 C 
ATOM      5  O   LIG d   1       5.456   1.393  -2.306  0.00  0.00    -0.296 OA
BRANCH   4   6
ATOM      6  C   LIG d   1       5.909  -0.258  -3.925  0.00  0.00     0.062 C 
ATOM      7 BR   LIG d   1       7.130  -1.751  -3.545  0.00  0.00    -0.084 Br
ATOM      8  H   LIG d   1       5.180  -0.570  -4.534  0.00  0.00     0.046 H 
ATOM      9  H   LIG d   1       6.462   0.551  -4.404  0.00  0.00     0.046 H 
ENDBRANCH   4   6
ENDBRANCH   1   4
BRANCH   1  10
ATOM     10  C   LIG d   1       3.530  -1.461  -2.595  0.00  0.00     0.049 C 
ATOM     11  O   LIG d   1       2.557  -0.898  -3.037  0.00  0.00    -0.549 OA
ATOM     12  O   LIG d   1       3.727  -2.763  -2.851  0.00  0.00    -0.549 OA
ENDBRANCH   1  10
TORSDOF 3
ENDMDL
MODEL 6
REMARK VINA RESULT:      -3.7      2.314      2.652
REMARK  3 active torsions:
REMARK  status: ('A' for Active; 'I' for Inactive)
REMARK    1  A    between atoms: C_1  and  C_2 
REMARK    2  A    between atoms: C_1  and  C_6 
REMARK    3  A    between atoms: C_2  and  C_4 
ROOT
ATOM      1  C   LIG d   1       4.481  -0.702  -1.728  0.00  0.00     0.046 C 
ATOM      2  H   LIG d   1       5.098  -0.858  -0.957  0.00  0.00     0.040 H 
ATOM      3  H   LIG d   1       3.481  -1.053  -1.469  0.00  0.00     0.040 H 
ENDROOT
BRANCH   1   4
ATOM      4  C   LIG d   1       4.980  -1.458  -2.933  0.00  0.00     0.149 C 
ATOM      5  O   LIG d   1       6.140  -1.789  -3.000  0.00  0.00    -0.296 OA
BRANCH   4   6
ATOM      6  C   LIG d   1       4.032  -1.801  -4.053  0.00  0.00     0.062 C 
ATOM      7 BR   LIG d   1       4.346  -0.593  -5.571  0.00  0.00    -0.084 Br
ATOM      8  H   LIG d   1       4.185  -2.746  -4.342  0.00  0.00     0.046 H 
ATOM      9  H   LIG d   1       3.004  -1.690  -3.706  0.00  0.00     0.046 H 
ENDBRANCH   4   6
ENDBRANCH   1   4
BRANCH   1  10
ATOM     10  C   LIG d   1       4.432   0.770  -2.044  0.00  0.00     0.049 C 
ATOM     11  O   LIG d   1       3.377   1.358  -2.028  0.00  0.00    -0.549 OA
ATOM     12  O   LIG d   1       5.563   1.429  -2.341  0.00  0.00    -0.549 OA
ENDBRANCH   1  10
TORSDOF 3
ENDMDL
MODEL 7
REMARK VINA RESULT:      -3.7      2.364      3.045
REMARK  3 active torsions:
REMARK  status: ('A' for Active; 'I' for Inactive)
REMARK    1  A    between atoms: C_1  and  C_2 
REMARK    2  A    between atoms: C_1  and  C_6 
REMARK    3  A    between atoms: C_2  and  C_4 
ROOT
ATOM      1  C   LIG d   1       2.594  -0.715  -3.077  0.00  0.00     0.046 C 
ATOM      2  H   LIG d   1       1.843  -1.205  -3.519  0.00  0.00     0.040 H 
ATOM      3  H   LIG d   1       2.232  -0.245  -2.162  0.00  0.00     0.040 H 
ENDROOT
BRANCH   1   4
ATOM      4  C   LIG d   1       3.120   0.345  -4.011  0.00  0.00     0.149 C 
ATOM      5  O   LIG d   1       3.875   1.192  -3.598  0.00  0.00    -0.296 OA
BRANCH   4   6
ATOM      6  C   LIG d   1       2.704   0.347  -5.459  0.00  0.00     0.062 C 
ATOM      7 BR   LIG d   1       4.087  -0.538  -6.540  0.00  0.00    -0.084 Br
ATOM      8  H   LIG d   1       1.838  -0.143  -5.559  0.00  0.00     0.046 H 
ATOM      9  H   LIG d   1       2.579   1.376  -5.799  0.00  0.00     0.046 H 
ENDBRANCH   4   6
ENDBRANCH   1   4
BRANCH   1  10
ATOM     10  C   LIG d   1       3.699  -1.684  -2.744  0.00  0.00     0.049 C 
ATOM     11  O   LIG d   1       3.918  -2.624  -3.470  0.00  0.00    -0.549 OA
ATOM     12  O   LIG d   1       4.441  -1.500  -1.640  0.00  0.00    -0.549 OA
ENDBRANCH   1  10
TORSDOF 3
ENDMDL
MODEL 8
REMARK VINA RESULT:      -3.6      1.980      3.221
REMARK  3 active torsions:
REMARK  status: ('A' for Active; 'I' for Inactive)
REMARK    1  A    between atoms: C_1  and  C_2 
REMARK    2  A    between atoms: C_1  and  C_6 
REMARK    3  A    between atoms: C_2  and  C_4 
ROOT
ATOM      1  C   LIG d   1       4.362   0.841  -2.150  0.00  0.00     0.046 C 
ATOM      2  H   LIG d   1       4.210   1.778  -1.836  0.00  0.00     0.040 H 
ATOM      3  H   LIG d   1       4.361   0.166  -1.294  0.00  0.00     0.040 H 
ENDROOT
BRANCH   1   4
ATOM      4  C   LIG d   1       5.692   0.757  -2.854  0.00  0.00     0.149 C 
ATOM      5  O   LIG d   1       6.281   1.768  -3.154  0.00  0.00    -0.296 OA
BRANCH   4   6
ATOM      6  C   LIG d   1       6.287  -0.588  -3.184  0.00  0.00     0.062 C 
ATOM      7 BR   LIG d   1       6.283  -0.848  -5.132  0.00  0.00    -0.084 Br
ATOM      8  H   LIG d   1       7.226  -0.630  -2.844  0.00  0.00     0.046 H 
ATOM      9  H   LIG d   1       5.694  -1.372  -2.711  0.00  0.00     0.046 H 
ENDBRANCH   4   6
ENDBRANCH   1   4
BRANCH   1  10
ATOM     10  C   LIG d   1       3.264   0.446  -3.104  0.00  0.00     0.049 C 
ATOM     11  O   LIG d   1       2.593  -0.534  -2.880  0.00  0.00    -0.549 OA
ATOM     12  O   LIG d   1       3.030   1.184  -4.201  0.00  0.00    -0.549 OA
ENDBRANCH   1  10
TORSDOF 3
ENDMDL
MODEL 9
REMARK VINA RESULT:      -3.5      2.370      2.693
REMARK  3 active torsions:
REMARK  status: ('A' for Active; 'I' for Inactive)
REMARK    1  A    between atoms: C_1  and  C_2 
REMARK    2  A    between atoms: C_1  and  C_6 
REMARK    3  A    between atoms: C_2  and  C_4 
ROOT
ATOM      1  C   LIG d   1       2.810  -0.667  -2.961  0.00  0.00     0.046 C 
ATOM      2  H   LIG d   1       2.371  -1.307  -2.331  0.00  0.00     0.040 H 
ATOM      3  H   LIG d   1       2.047  -0.140  -3.534  0.00  0.00     0.040 H 
ENDROOT
BRANCH   1   4
ATOM      4  C   LIG d   1       3.709  -1.427  -3.903  0.00  0.00     0.149 C 
ATOM      5  O   LIG d   1       3.872  -2.615  -3.755  0.00  0.00    -0.296 OA
BRANCH   4   6
ATOM      6  C   LIG d   1       4.403  -0.705  -5.029  0.00  0.00     0.062 C 
ATOM      7 BR   LIG d   1       3.060   0.101  -6.217  0.00  0.00    -0.084 Br
ATOM      8  H   LIG d   1       4.991   0.012  -4.655  0.00  0.00     0.046 H 
ATOM      9  H   LIG d   1       5.010  -1.413  -5.594  0.00  0.00     0.046 H 
ENDBRANCH   4   6
ENDBRANCH   1   4
BRANCH   1  10
ATOM     10  C   LIG d   1       3.629   0.327  -2.178  0.00  0.00     0.049 C 
ATOM     11  O   LIG d   1       4.599  -0.043  -1.560  0.00  0.00    -0.549 OA
ATOM     12  O   LIG d   1       3.280   1.623  -2.168  0.00  0.00    -0.549 OA
ENDBRANCH   1  10
TORSDOF 3
ENDMDL
MODEL 10
REMARK VINA RESULT:      -3.5      1.926      2.395
REMARK  3 active torsions:
REMARK  status: ('A' for Active; 'I' for Inactive)
REMARK    1  A    between atoms: C_1  and  C_2 
REMARK    2  A    between atoms: C_1  and  C_6 
REMARK    3  A    between atoms: C_2  and  C_4 
ROOT
ATOM      1  C   LIG d   1       6.478  -0.450  -3.828  0.00  0.00     0.046 C 
ATOM      2  H   LIG d   1       7.288  -0.647  -4.380  0.00  0.00     0.040 H 
ATOM      3  H   LIG d   1       6.492  -1.069  -2.930  0.00  0.00     0.040 H 
ENDROOT
BRANCH   1   4
ATOM      4  C   LIG d   1       5.238  -0.755  -4.627  0.00  0.00     0.149 C 
ATOM      5  O   LIG d   1       4.895  -0.012  -5.517  0.00  0.00    -0.296 OA
BRANCH   4   6
ATOM      6  C   LIG d   1       4.426  -1.986  -4.319  0.00  0.00     0.062 C 
ATOM      7 BR   LIG d   1       3.886  -1.960  -2.430  0.00  0.00    -0.084 Br
ATOM      8  H   LIG d   1       3.611  -2.003  -4.899  0.00  0.00     0.046 H 
ATOM      9  H   LIG d   1       5.027  -2.875  -4.513  0.00  0.00     0.046 H 
ENDBRANCH   4   6
ENDBRANCH   1   4
BRANCH   1  10
ATOM     10  C   LIG d   1       6.478   1.006  -3.436  0.00  0.00     0.049 C 
ATOM     11  O   LIG d   1       5.763   1.391  -2.542  0.00  0.00    -0.549 OA
ATOM     12  O   LIG d   1       7.274   1.873  -4.081  0.00  0.00    -0.549 OA
ENDBRANCH   1  10
TORSDOF 3
ENDMDL
