MODEL 1
REMARK VINA RESULT:      -7.2      0.000      0.000
REMARK  8 active torsions:
REMARK  status: ('A' for Active; 'I' for Inactive)
REMARK    1  A    between atoms: C_1  and  C_2 
REMARK    2  A    between atoms: C_16  and  C_19 
REMARK    3  A    between atoms: C_19  and  C_20 
REMARK    4  A    between atoms: N_32  and  C_35 
REMARK    5  A    between atoms: C_35  and  C_36 
REMARK    6  A    between atoms: C_36  and  C_37 
REMARK    7  A    between atoms: C_37  and  O_38 
REMARK    8  A    between atoms: O_38  and  C_39 
ROOT
ATOM      1  C   LIG d   1      10.288   7.202  -3.239  0.00  0.00    -0.029 A 
ATOM      2  C   LIG d   1       9.939   7.995  -4.313  0.00  0.00    -0.057 A 
ATOM      3  C   LIG d   1       9.550   7.419  -5.508  0.00  0.00    -0.061 A 
ATOM      4  C   LIG d   1       9.509   6.041  -5.629  0.00  0.00    -0.054 A 
ATOM      5  C   LIG d   1       9.857   5.246  -4.559  0.00  0.00     0.004 A 
ATOM      6  C   LIG d   1      10.255   5.814  -3.353  0.00  0.00     0.042 A 
ATOM      7  N   LIG d   1      10.563   4.815  -2.427  0.00  0.00    -0.283 N 
ATOM      8  C   LIG d   1      10.397   3.580  -2.938  0.00  0.00     0.243 A 
ATOM      9  O   LIG d   1      10.586   2.528  -2.365  0.00  0.00    -0.273 OA
ATOM     10  C   LIG d   1       9.921   3.759  -4.353  0.00  0.00     0.136 A 
ATOM     11  C   LIG d   1      10.885   3.095  -5.344  0.00  0.00     0.080 A 
ATOM     12  H   LIG d   1      11.894   2.995  -4.944  0.00  0.00     0.043 H 
ATOM     13  C   LIG d   1      10.227   1.727  -5.675  0.00  0.00     0.065 A 
ATOM     14  H   LIG d   1      10.887   0.882  -5.476  0.00  0.00     0.042 H 
ATOM     15  C   LIG d   1       8.941   1.689  -4.822  0.00  0.00     0.025 C 
ATOM     16  H   LIG d   1       9.123   1.161  -3.887  0.00  0.00     0.047 H 
ATOM     17  N   LIG d   1       8.609   3.125  -4.578  0.00  0.00    -0.295 N 
ATOM     18  C   LIG d   1       9.872   1.856  -7.138  0.00  0.00     0.227 A 
ATOM     19  O   LIG d   1       9.321   1.004  -7.803  0.00  0.00    -0.275 OA
ATOM     20  N   LIG d   1      10.259   3.055  -7.587  0.00  0.00    -0.241 N 
ATOM     21  C   LIG d   1      10.854   3.841  -6.659  0.00  0.00     0.228 A 
ATOM     22  O   LIG d   1      11.288   4.958  -6.842  0.00  0.00    -0.275 OA
ATOM     23  H   LIG d   1       9.970   9.070  -4.220  0.00  0.00     0.062 H 
ATOM     24  H   LIG d   1       9.278   8.043  -6.348  0.00  0.00     0.062 H 
ATOM     25  H   LIG d   1       9.205   5.588  -6.561  0.00  0.00     0.062 H 
ATOM     26  H   LIG d   1      10.862   4.991  -1.520  0.00  0.00     0.155 HD
ATOM     27  H   LIG d   1       8.016   3.220  -3.767  0.00  0.00     0.123 HD
ENDROOT
BRANCH  15  28
ATOM     28  C   LIG d   1       7.807   1.018  -5.601  0.00  0.00    -0.009 C 
ATOM     29  H   LIG d   1       7.042   1.758  -5.838  0.00  0.00     0.033 H 
ATOM     30  H   LIG d   1       8.202   0.593  -6.524  0.00  0.00     0.033 H 
BRANCH  28  31
ATOM     31  C   LIG d   1       7.203  -0.078  -4.762  0.00  0.00    -0.021 A 
ATOM     32  C   LIG d   1       6.211   0.086  -3.696  0.00  0.00     0.003 A 
ATOM     33  C   LIG d   1       5.948  -1.207  -3.208  0.00  0.00     0.047 A 
ATOM     34  C   LIG d   1       5.552   1.186  -3.146  0.00  0.00    -0.052 A 
ATOM     35  N   LIG d   1       6.735  -2.080  -3.925  0.00  0.00    -0.360 N 
ATOM     36  C   LIG d   1       5.028  -1.372  -2.178  0.00  0.00    -0.038 A 
ATOM     37  C   LIG d   1       7.476  -1.390  -4.846  0.00  0.00     0.006 A 
ATOM     38  H   LIG d   1       6.761  -3.041  -3.797  0.00  0.00     0.165 HD
ATOM     39  H   LIG d   1       8.176  -1.835  -5.538  0.00  0.00     0.081 H 
ATOM     40  C   LIG d   1       4.395  -0.271  -1.643  0.00  0.00    -0.060 A 
ATOM     41  H   LIG d   1       4.820  -2.358  -1.790  0.00  0.00     0.064 H 
ATOM     42  C   LIG d   1       4.655   1.002  -2.130  0.00  0.00    -0.061 A 
ATOM     43  H   LIG d   1       3.685  -0.400  -0.840  0.00  0.00     0.062 H 
ATOM     44  H   LIG d   1       4.145   1.854  -1.705  0.00  0.00     0.062 H 
ATOM     45  H   LIG d   1       5.750   2.180  -3.520  0.00  0.00     0.062 H 
ENDBRANCH  28  31
ENDBRANCH  15  28
BRANCH  20  46
ATOM     46  C   LIG d   1      10.062   3.485  -8.973  0.00  0.00     0.024 C 
ATOM     47  H   LIG d   1      10.859   4.171  -9.258  0.00  0.00     0.047 H 
ATOM     48  H   LIG d   1      10.081   2.615  -9.629  0.00  0.00     0.047 H 
BRANCH  46  49
ATOM     49  C   LIG d   1       8.711   4.191  -9.102  0.00  0.00    -0.013 C 
ATOM     50  H   LIG d   1       8.101   3.675  -9.843  0.00  0.00     0.030 H 
ATOM     51  H   LIG d   1       8.201   4.178  -8.139  0.00  0.00     0.030 H 
BRANCH  49  52
ATOM     52  C   LIG d   1       8.931   5.638  -9.543  0.00  0.00     0.049 C 
ATOM     53  H   LIG d   1       8.444   6.312  -8.837  0.00  0.00     0.056 H 
ATOM     54  H   LIG d   1      10.000   5.852  -9.570  0.00  0.00     0.056 H 
BRANCH  52  55
ATOM     55  O   LIG d   1       8.373   5.831 -10.845  0.00  0.00    -0.383 OA
BRANCH  55  56
ATOM     56  C   LIG d   1       9.318   6.270 -11.823  0.00  0.00     0.036 C 
ATOM     57  H   LIG d   1       9.880   5.414 -12.195  0.00  0.00     0.052 H 
ATOM     58  H   LIG d   1       8.789   6.744 -12.651  0.00  0.00     0.052 H 
ATOM     59  H   LIG d   1      10.002   6.987 -11.372  0.00  0.00     0.052 H 
ENDBRANCH  55  56
ENDBRANCH  52  55
ENDBRANCH  49  52
ENDBRANCH  46  49
ENDBRANCH  20  46
BRANCH   1  60
ATOM     60  C   LIG d   1      10.712   7.840  -1.941  0.00  0.00    -0.038 C 
ATOM     61  H   LIG d   1      11.762   8.125  -2.003  0.00  0.00     0.028 H 
ATOM     62  H   LIG d   1      10.105   8.726  -1.757  0.00  0.00     0.028 H 
ATOM     63  H   LIG d   1      10.575   7.129  -1.126  0.00  0.00     0.028 H 
ENDBRANCH   1  60
TORSDOF 8
ENDMDL
MODEL 2
REMARK VINA RESULT:      -7.2      6.040      8.234
REMARK  8 active torsions:
REMARK  status: ('A' for Active; 'I' for Inactive)
REMARK    1  A    between atoms: C_1  and  C_2 
REMARK    2  A    between atoms: C_16  and  C_19 
REMARK    3  A    between atoms: C_19  and  C_20 
REMARK    4  A    between atoms: N_32  and  C_35 
REMARK    5  A    between atoms: C_35  and  C_36 
REMARK    6  A    between atoms: C_36  and  C_37 
REMARK    7  A    between atoms: C_37  and  O_38 
REMARK    8  A    between atoms: O_38  and  C_39 
ROOT
ATOM      1  C   LIG d   1       4.122   0.604  -2.898  0.00  0.00    -0.029 A 
ATOM      2  C   LIG d   1       3.074   1.297  -3.467  0.00  0.00    -0.057 A 
ATOM      3  C   LIG d   1       2.582   0.926  -4.705  0.00  0.00    -0.061 A 
ATOM      4  C   LIG d   1       3.145  -0.145  -5.378  0.00  0.00    -0.054 A 
ATOM      5  C   LIG d   1       4.191  -0.839  -4.813  0.00  0.00     0.004 A 
ATOM      6  C   LIG d   1       4.697  -0.472  -3.570  0.00  0.00     0.042 A 
ATOM      7  N   LIG d   1       5.754  -1.312  -3.212  0.00  0.00    -0.283 N 
ATOM      8  C   LIG d   1       6.003  -2.244  -4.151  0.00  0.00     0.243 A 
ATOM      9  O   LIG d   1       6.857  -3.105  -4.110  0.00  0.00    -0.273 OA
ATOM     10  C   LIG d   1       5.010  -2.018  -5.258  0.00  0.00     0.136 A 
ATOM     11  C   LIG d   1       5.723  -1.738  -6.586  0.00  0.00     0.080 A 
ATOM     12  H   LIG d   1       6.730  -1.344  -6.447  0.00  0.00     0.043 H 
ATOM     13  C   LIG d   1       5.705  -3.100  -7.335  0.00  0.00     0.065 A 
ATOM     14  H   LIG d   1       6.702  -3.436  -7.623  0.00  0.00     0.042 H 
ATOM     15  C   LIG d   1       5.008  -4.077  -6.365  0.00  0.00     0.025 C 
ATOM     16  H   LIG d   1       5.748  -4.623  -5.781  0.00  0.00     0.047 H 
ATOM     17  N   LIG d   1       4.166  -3.204  -5.493  0.00  0.00    -0.295 N 
ATOM     18  C   LIG d   1       4.815  -2.832  -8.526  0.00  0.00     0.227 A 
ATOM     19  O   LIG d   1       4.520  -3.644  -9.377  0.00  0.00    -0.275 OA
ATOM     20  N   LIG d   1       4.402  -1.559  -8.496  0.00  0.00    -0.241 N 
ATOM     21  C   LIG d   1       4.861  -0.840  -7.445  0.00  0.00     0.228 A 
ATOM     22  O   LIG d   1       4.623   0.327  -7.221  0.00  0.00    -0.275 OA
ATOM     23  H   LIG d   1       2.634   2.132  -2.943  0.00  0.00     0.062 H 
ATOM     24  H   LIG d   1       1.761   1.472  -5.148  0.00  0.00     0.062 H 
ATOM     25  H   LIG d   1       2.763  -0.437  -6.345  0.00  0.00     0.062 H 
ATOM     26  H   LIG d   1       6.250  -1.234  -2.381  0.00  0.00     0.155 HD
ATOM     27  H   LIG d   1       3.948  -3.672  -4.625  0.00  0.00     0.123 HD
ENDROOT
BRANCH  15  28
ATOM     28  C   LIG d   1       4.118  -5.050  -7.140  0.00  0.00    -0.009 C 
ATOM     29  H   LIG d   1       3.071  -4.830  -6.931  0.00  0.00     0.033 H 
ATOM     30  H   LIG d   1       4.307  -4.943  -8.209  0.00  0.00     0.033 H 
BRANCH  28  31
ATOM     31  C   LIG d   1       4.430  -6.462  -6.715  0.00  0.00    -0.021 A 
ATOM     32  C   LIG d   1       4.316  -7.667  -7.542  0.00  0.00     0.003 A 
ATOM     33  C   LIG d   1       4.715  -8.739  -6.723  0.00  0.00     0.047 A 
ATOM     34  C   LIG d   1       3.924  -7.905  -8.860  0.00  0.00    -0.052 A 
ATOM     35  N   LIG d   1       5.036  -8.212  -5.491  0.00  0.00    -0.360 N 
ATOM     36  C   LIG d   1       4.717 -10.029  -7.243  0.00  0.00    -0.038 A 
ATOM     37  C   LIG d   1       4.860  -6.855  -5.506  0.00  0.00     0.006 A 
ATOM     38  H   LIG d   1       5.341  -8.726  -4.728  0.00  0.00     0.165 HD
ATOM     39  H   LIG d   1       5.040  -6.198  -4.668  0.00  0.00     0.081 H 
ATOM     40  C   LIG d   1       4.318 -10.243  -8.544  0.00  0.00    -0.060 A 
ATOM     41  H   LIG d   1       5.017 -10.862  -6.624  0.00  0.00     0.064 H 
ATOM     42  C   LIG d   1       3.928  -9.182  -9.349  0.00  0.00    -0.061 A 
ATOM     43  H   LIG d   1       4.314 -11.246  -8.944  0.00  0.00     0.062 H 
ATOM     44  H   LIG d   1       3.626  -9.365 -10.369  0.00  0.00     0.062 H 
ATOM     45  H   LIG d   1       3.619  -7.084  -9.492  0.00  0.00     0.062 H 
ENDBRANCH  28  31
ENDBRANCH  15  28
BRANCH  20  46
ATOM     46  C   LIG d   1       3.528  -0.986  -9.521  0.00  0.00     0.024 C 
ATOM     47  H   LIG d   1       2.743  -1.701  -9.770  0.00  0.00     0.047 H 
ATOM     48  H   LIG d   1       3.076  -0.069  -9.142  0.00  0.00     0.047 H 
BRANCH  46  49
ATOM     49  C   LIG d   1       4.346  -0.671 -10.774  0.00  0.00    -0.013 C 
ATOM     50  H   LIG d   1       5.406  -0.810 -10.560  0.00  0.00     0.030 H 
ATOM     51  H   LIG d   1       4.049  -1.341 -11.581  0.00  0.00     0.030 H 
BRANCH  49  52
ATOM     52  C   LIG d   1       4.098   0.777 -11.196  0.00  0.00     0.049 C 
ATOM     53  H   LIG d   1       4.567   0.959 -12.164  0.00  0.00     0.056 H 
ATOM     54  H   LIG d   1       3.026   0.955 -11.273  0.00  0.00     0.056 H 
BRANCH  52  55
ATOM     55  O   LIG d   1       4.660   1.661 -10.223  0.00  0.00    -0.383 OA
BRANCH  55  56
ATOM     56  C   LIG d   1       3.738   2.627  -9.714  0.00  0.00     0.036 C 
ATOM     57  H   LIG d   1       4.288   3.485  -9.328  0.00  0.00     0.052 H 
ATOM     58  H   LIG d   1       3.074   2.952 -10.515  0.00  0.00     0.052 H 
ATOM     59  H   LIG d   1       3.150   2.181  -8.913  0.00  0.00     0.052 H 
ENDBRANCH  55  56
ENDBRANCH  52  55
ENDBRANCH  49  52
ENDBRANCH  46  49
ENDBRANCH  20  46
BRANCH   1  60
ATOM     60  C   LIG d   1       4.651   1.017  -1.548  0.00  0.00    -0.038 C 
ATOM     61  H   LIG d   1       5.330   0.252  -1.175  0.00  0.00     0.028 H 
ATOM     62  H   LIG d   1       5.183   1.963  -1.641  0.00  0.00     0.028 H 
ATOM     63  H   LIG d   1       3.818   1.135  -0.854  0.00  0.00     0.028 H 
ENDBRANCH   1  60
TORSDOF 8
ENDMDL
MODEL 3
REMARK VINA RESULT:      -7.1      5.275      8.708
REMARK  8 active torsions:
REMARK  status: ('A' for Active; 'I' for Inactive)
REMARK    1  A    between atoms: C_1  and  C_2 
REMARK    2  A    between atoms: C_16  and  C_19 
REMARK    3  A    between atoms: C_19  and  C_20 
REMARK    4  A    between atoms: N_32  and  C_35 
REMARK    5  A    between atoms: C_35  and  C_36 
REMARK    6  A    between atoms: C_36  and  C_37 
REMARK    7  A    between atoms: C_37  and  O_38 
REMARK    8  A    between atoms: O_38  and  C_39 
ROOT
ATOM      1  C   LIG d   1       4.764  -0.203  -2.294  0.00  0.00    -0.029 A 
ATOM      2  C   LIG d   1       3.840  -1.199  -2.051  0.00  0.00    -0.057 A 
ATOM      3  C   LIG d   1       3.917  -2.402  -2.728  0.00  0.00    -0.061 A 
ATOM      4  C   LIG d   1       4.924  -2.609  -3.654  0.00  0.00    -0.054 A 
ATOM      5  C   LIG d   1       5.848  -1.618  -3.899  0.00  0.00     0.004 A 
ATOM      6  C   LIG d   1       5.778  -0.401  -3.227  0.00  0.00     0.042 A 
ATOM      7  N   LIG d   1       6.810   0.442  -3.646  0.00  0.00    -0.283 N 
ATOM      8  C   LIG d   1       7.591  -0.136  -4.579  0.00  0.00     0.243 A 
ATOM      9  O   LIG d   1       8.558   0.356  -5.120  0.00  0.00    -0.273 OA
ATOM     10  C   LIG d   1       7.037  -1.515  -4.812  0.00  0.00     0.136 A 
ATOM     11  C   LIG d   1       6.636  -1.704  -6.280  0.00  0.00     0.080 A 
ATOM     12  H   LIG d   1       6.420  -0.760  -6.781  0.00  0.00     0.043 H 
ATOM     13  C   LIG d   1       7.831  -2.466  -6.917  0.00  0.00     0.065 A 
ATOM     14  H   LIG d   1       8.251  -1.947  -7.779  0.00  0.00     0.042 H 
ATOM     15  C   LIG d   1       8.852  -2.633  -5.772  0.00  0.00     0.025 C 
ATOM     16  H   LIG d   1       9.591  -1.833  -5.803  0.00  0.00     0.047 H 
ATOM     17  N   LIG d   1       8.031  -2.565  -4.525  0.00  0.00    -0.295 N 
ATOM     18  C   LIG d   1       7.236  -3.808  -7.279  0.00  0.00     0.227 A 
ATOM     19  O   LIG d   1       7.839  -4.724  -7.796  0.00  0.00    -0.275 OA
ATOM     20  N   LIG d   1       5.943  -3.828  -6.938  0.00  0.00    -0.241 N 
ATOM     21  C   LIG d   1       5.489  -2.685  -6.371  0.00  0.00     0.228 A 
ATOM     22  O   LIG d   1       4.357  -2.477  -5.992  0.00  0.00    -0.275 OA
ATOM     23  H   LIG d   1       3.053  -1.038  -1.328  0.00  0.00     0.062 H 
ATOM     24  H   LIG d   1       3.191  -3.179  -2.536  0.00  0.00     0.062 H 
ATOM     25  H   LIG d   1       4.986  -3.548  -4.184  0.00  0.00     0.062 H 
ATOM     26  H   LIG d   1       6.948   1.340  -3.304  0.00  0.00     0.155 HD
ATOM     27  H   LIG d   1       8.606  -2.313  -3.734  0.00  0.00     0.123 HD
ENDROOT
BRANCH  15  28
ATOM     28  C   LIG d   1       9.538  -3.997  -5.867  0.00  0.00    -0.009 C 
ATOM     29  H   LIG d   1       8.864  -4.711  -6.340  0.00  0.00     0.033 H 
ATOM     30  H   LIG d   1      10.448  -3.905  -6.462  0.00  0.00     0.033 H 
BRANCH  28  31
ATOM     31  C   LIG d   1       9.891  -4.479  -4.484  0.00  0.00    -0.021 A 
ATOM     32  C   LIG d   1       9.486  -5.748  -3.873  0.00  0.00     0.003 A 
ATOM     33  C   LIG d   1      10.052  -5.757  -2.585  0.00  0.00     0.047 A 
ATOM     34  C   LIG d   1       8.721  -6.832  -4.306  0.00  0.00    -0.052 A 
ATOM     35  N   LIG d   1      10.738  -4.572  -2.434  0.00  0.00    -0.360 N 
ATOM     36  C   LIG d   1       9.842  -6.854  -1.757  0.00  0.00    -0.038 A 
ATOM     37  C   LIG d   1      10.631  -3.824  -3.575  0.00  0.00     0.006 A 
ATOM     38  H   LIG d   1      11.224  -4.308  -1.637  0.00  0.00     0.165 HD
ATOM     39  H   LIG d   1      11.075  -2.851  -3.721  0.00  0.00     0.081 H 
ATOM     40  C   LIG d   1       9.076  -7.910  -2.200  0.00  0.00    -0.060 A 
ATOM     41  H   LIG d   1      10.266  -6.873  -0.764  0.00  0.00     0.064 H 
ATOM     42  C   LIG d   1       8.523  -7.898  -3.473  0.00  0.00    -0.061 A 
ATOM     43  H   LIG d   1       8.909  -8.759  -1.554  0.00  0.00     0.062 H 
ATOM     44  H   LIG d   1       7.932  -8.737  -3.809  0.00  0.00     0.062 H 
ATOM     45  H   LIG d   1       8.288  -6.830  -5.295  0.00  0.00     0.062 H 
ENDBRANCH  28  31
ENDBRANCH  15  28
BRANCH  20  46
ATOM     46  C   LIG d   1       5.081  -4.990  -7.165  0.00  0.00     0.024 C 
ATOM     47  H   LIG d   1       4.090  -4.654  -7.468  0.00  0.00     0.047 H 
ATOM     48  H   LIG d   1       5.509  -5.612  -7.951  0.00  0.00     0.047 H 
BRANCH  46  49
ATOM     49  C   LIG d   1       4.971  -5.804  -5.875  0.00  0.00    -0.013 C 
ATOM     50  H   LIG d   1       5.750  -5.491  -5.180  0.00  0.00     0.030 H 
ATOM     51  H   LIG d   1       3.993  -5.638  -5.423  0.00  0.00     0.030 H 
BRANCH  49  52
ATOM     52  C   LIG d   1       5.140  -7.290  -6.192  0.00  0.00     0.049 C 
ATOM     53  H   LIG d   1       4.626  -7.524  -7.125  0.00  0.00     0.056 H 
ATOM     54  H   LIG d   1       6.200  -7.522  -6.295  0.00  0.00     0.056 H 
BRANCH  52  55
ATOM     55  O   LIG d   1       4.582  -8.072  -5.134  0.00  0.00    -0.383 OA
BRANCH  55  56
ATOM     56  C   LIG d   1       4.787  -9.478  -5.278  0.00  0.00     0.036 C 
ATOM     57  H   LIG d   1       5.622  -9.790  -4.652  0.00  0.00     0.052 H 
ATOM     58  H   LIG d   1       3.885 -10.010  -4.972  0.00  0.00     0.052 H 
ATOM     59  H   LIG d   1       5.008  -9.708  -6.320  0.00  0.00     0.052 H 
ENDBRANCH  55  56
ENDBRANCH  52  55
ENDBRANCH  49  52
ENDBRANCH  46  49
ENDBRANCH  20  46
BRANCH   1  60
ATOM     60  C   LIG d   1       4.670   1.105  -1.551  0.00  0.00    -0.038 C 
ATOM     61  H   LIG d   1       4.564   0.911  -0.484  0.00  0.00     0.028 H 
ATOM     62  H   LIG d   1       5.574   1.688  -1.727  0.00  0.00     0.028 H 
ATOM     63  H   LIG d   1       3.803   1.663  -1.907  0.00  0.00     0.028 H 
ENDBRANCH   1  60
TORSDOF 8
ENDMDL
MODEL 4
REMARK VINA RESULT:      -7.0      4.890      8.829
REMARK  8 active torsions:
REMARK  status: ('A' for Active; 'I' for Inactive)
REMARK    1  A    between atoms: C_1  and  C_2 
REMARK    2  A    between atoms: C_16  and  C_19 
REMARK    3  A    between atoms: C_19  and  C_20 
REMARK    4  A    between atoms: N_32  and  C_35 
REMARK    5  A    between atoms: C_35  and  C_36 
REMARK    6  A    between atoms: C_36  and  C_37 
REMARK    7  A    between atoms: C_37  and  O_38 
REMARK    8  A    between atoms: O_38  and  C_39 
ROOT
ATOM      1  C   LIG d   1       3.863   0.151 -10.132  0.00  0.00    -0.029 A 
ATOM      2  C   LIG d   1       2.642  -0.271  -9.647  0.00  0.00    -0.057 A 
ATOM      3  C   LIG d   1       2.579  -1.097  -8.540  0.00  0.00    -0.061 A 
ATOM      4  C   LIG d   1       3.745  -1.504  -7.915  0.00  0.00    -0.054 A 
ATOM      5  C   LIG d   1       4.966  -1.084  -8.396  0.00  0.00     0.004 A 
ATOM      6  C   LIG d   1       5.042  -0.257  -9.512  0.00  0.00     0.042 A 
ATOM      7  N   LIG d   1       6.376   0.026  -9.813  0.00  0.00    -0.283 N 
ATOM      8  C   LIG d   1       7.228  -0.570  -8.957  0.00  0.00     0.243 A 
ATOM      9  O   LIG d   1       8.438  -0.501  -8.973  0.00  0.00    -0.273 OA
ATOM     10  C   LIG d   1       6.385  -1.329  -7.969  0.00  0.00     0.136 A 
ATOM     11  C   LIG d   1       6.729  -2.823  -7.989  0.00  0.00     0.080 A 
ATOM     12  H   LIG d   1       7.169  -3.139  -8.935  0.00  0.00     0.043 H 
ATOM     13  C   LIG d   1       7.687  -3.021  -6.781  0.00  0.00     0.065 A 
ATOM     14  H   LIG d   1       8.640  -3.467  -7.067  0.00  0.00     0.042 H 
ATOM     15  C   LIG d   1       7.850  -1.614  -6.169  0.00  0.00     0.025 C 
ATOM     16  H   LIG d   1       8.748  -1.134  -6.559  0.00  0.00     0.047 H 
ATOM     17  N   LIG d   1       6.618  -0.878  -6.584  0.00  0.00    -0.295 N 
ATOM     18  C   LIG d   1       6.890  -3.901  -5.845  0.00  0.00     0.227 A 
ATOM     19  O   LIG d   1       7.267  -4.292  -4.762  0.00  0.00    -0.275 OA
ATOM     20  N   LIG d   1       5.704  -4.181  -6.399  0.00  0.00    -0.241 N 
ATOM     21  C   LIG d   1       5.505  -3.630  -7.619  0.00  0.00     0.228 A 
ATOM     22  O   LIG d   1       4.513  -3.754  -8.304  0.00  0.00    -0.275 OA
ATOM     23  H   LIG d   1       1.731   0.045 -10.133  0.00  0.00     0.062 H 
ATOM     24  H   LIG d   1       1.621  -1.427  -8.164  0.00  0.00     0.062 H 
ATOM     25  H   LIG d   1       3.699  -2.149  -7.050  0.00  0.00     0.062 H 
ATOM     26  H   LIG d   1       6.657   0.588 -10.554  0.00  0.00     0.155 HD
ATOM     27  H   LIG d   1       6.770   0.119  -6.548  0.00  0.00     0.123 HD
ENDROOT
BRANCH  15  28
ATOM     28  C   LIG d   1       7.914  -1.703  -4.643  0.00  0.00    -0.009 C 
ATOM     29  H   LIG d   1       7.567  -2.685  -4.321  0.00  0.00     0.033 H 
ATOM     30  H   LIG d   1       8.942  -1.553  -4.313  0.00  0.00     0.033 H 
BRANCH  28  31
ATOM     31  C   LIG d   1       7.033  -0.637  -4.043  0.00  0.00    -0.021 A 
ATOM     32  C   LIG d   1       5.683  -0.824  -3.504  0.00  0.00     0.003 A 
ATOM     33  C   LIG d   1       5.266   0.443  -3.055  0.00  0.00     0.047 A 
ATOM     34  C   LIG d   1       4.835  -1.924  -3.372  0.00  0.00    -0.052 A 
ATOM     35  N   LIG d   1       6.291   1.325  -3.316  0.00  0.00    -0.360 N 
ATOM     36  C   LIG d   1       4.007   0.581  -2.480  0.00  0.00    -0.038 A 
ATOM     37  C   LIG d   1       7.335   0.664  -3.904  0.00  0.00     0.006 A 
ATOM     38  H   LIG d   1       6.275   2.273  -3.113  0.00  0.00     0.165 HD
ATOM     39  H   LIG d   1       8.264   1.121  -4.212  0.00  0.00     0.081 H 
ATOM     40  C   LIG d   1       3.182  -0.517  -2.367  0.00  0.00    -0.060 A 
ATOM     41  H   LIG d   1       3.672   1.548  -2.135  0.00  0.00     0.064 H 
ATOM     42  C   LIG d   1       3.600  -1.764  -2.809  0.00  0.00    -0.061 A 
ATOM     43  H   LIG d   1       2.203  -0.407  -1.926  0.00  0.00     0.062 H 
ATOM     44  H   LIG d   1       2.944  -2.617  -2.706  0.00  0.00     0.062 H 
ATOM     45  H   LIG d   1       5.153  -2.898  -3.713  0.00  0.00     0.062 H 
ENDBRANCH  28  31
ENDBRANCH  15  28
BRANCH  20  46
ATOM     46  C   LIG d   1       4.702  -5.022  -5.740  0.00  0.00     0.024 C 
ATOM     47  H   LIG d   1       4.948  -5.120  -4.683  0.00  0.00     0.047 H 
ATOM     48  H   LIG d   1       3.719  -4.563  -5.843  0.00  0.00     0.047 H 
BRANCH  46  49
ATOM     49  C   LIG d   1       4.689  -6.406  -6.391  0.00  0.00    -0.013 C 
ATOM     50  H   LIG d   1       3.674  -6.650  -6.706  0.00  0.00     0.030 H 
ATOM     51  H   LIG d   1       5.348  -6.406  -7.259  0.00  0.00     0.030 H 
BRANCH  49  52
ATOM     52  C   LIG d   1       5.173  -7.449  -5.383  0.00  0.00     0.049 C 
ATOM     53  H   LIG d   1       6.171  -7.789  -5.663  0.00  0.00     0.056 H 
ATOM     54  H   LIG d   1       5.207  -7.005  -4.388  0.00  0.00     0.056 H 
BRANCH  52  55
ATOM     55  O   LIG d   1       4.276  -8.562  -5.379  0.00  0.00    -0.383 OA
BRANCH  55  56
ATOM     56  C   LIG d   1       4.516  -9.499  -4.327  0.00  0.00     0.036 C 
ATOM     57  H   LIG d   1       3.920  -9.227  -3.456  0.00  0.00     0.052 H 
ATOM     58  H   LIG d   1       4.237 -10.498  -4.661  0.00  0.00     0.052 H 
ATOM     59  H   LIG d   1       5.573  -9.486  -4.063  0.00  0.00     0.052 H 
ENDBRANCH  55  56
ENDBRANCH  52  55
ENDBRANCH  49  52
ENDBRANCH  46  49
ENDBRANCH  20  46
BRANCH   1  60
ATOM     60  C   LIG d   1       3.920   1.051 -11.339  0.00  0.00    -0.038 C 
ATOM     61  H   LIG d   1       3.791   2.087 -11.027  0.00  0.00     0.028 H 
ATOM     62  H   LIG d   1       4.886   0.938 -11.831  0.00  0.00     0.028 H 
ATOM     63  H   LIG d   1       3.125   0.778 -12.033  0.00  0.00     0.028 H 
ENDBRANCH   1  60
TORSDOF 8
ENDMDL
MODEL 5
REMARK VINA RESULT:      -6.9      6.367      8.386
REMARK  8 active torsions:
REMARK  status: ('A' for Active; 'I' for Inactive)
REMARK    1  A    between atoms: C_1  and  C_2 
REMARK    2  A    between atoms: C_16  and  C_19 
REMARK    3  A    between atoms: C_19  and  C_20 
REMARK    4  A    between atoms: N_32  and  C_35 
REMARK    5  A    between atoms: C_35  and  C_36 
REMARK    6  A    between atoms: C_36  and  C_37 
REMARK    7  A    between atoms: C_37  and  O_38 
REMARK    8  A    between atoms: O_38  and  C_39 
ROOT
ATOM      1  C   LIG d   1       4.136   0.466  -2.888  0.00  0.00    -0.029 A 
ATOM      2  C   LIG d   1       3.130   1.250  -3.414  0.00  0.00    -0.057 A 
ATOM      3  C   LIG d   1       2.640   0.998  -4.682  0.00  0.00    -0.061 A 
ATOM      4  C   LIG d   1       3.159  -0.046  -5.427  0.00  0.00    -0.054 A 
ATOM      5  C   LIG d   1       4.163  -0.832  -4.905  0.00  0.00     0.004 A 
ATOM      6  C   LIG d   1       4.668  -0.584  -3.632  0.00  0.00     0.042 A 
ATOM      7  N   LIG d   1       5.678  -1.500  -3.327  0.00  0.00    -0.283 N 
ATOM      8  C   LIG d   1       5.895  -2.370  -4.332  0.00  0.00     0.243 A 
ATOM      9  O   LIG d   1       6.706  -3.272  -4.346  0.00  0.00    -0.273 OA
ATOM     10  C   LIG d   1       4.930  -2.013  -5.428  0.00  0.00     0.136 A 
ATOM     11  C   LIG d   1       5.676  -1.670  -6.724  0.00  0.00     0.080 A 
ATOM     12  H   LIG d   1       6.698  -1.337  -6.544  0.00  0.00     0.043 H 
ATOM     13  C   LIG d   1       5.603  -2.970  -7.573  0.00  0.00     0.065 A 
ATOM     14  H   LIG d   1       6.586  -3.332  -7.875  0.00  0.00     0.042 H 
ATOM     15  C   LIG d   1       4.845  -3.981  -6.688  0.00  0.00     0.025 C 
ATOM     16  H   LIG d   1       5.549  -4.605  -6.138  0.00  0.00     0.047 H 
ATOM     17  N   LIG d   1       4.033  -3.135  -5.762  0.00  0.00    -0.295 N 
ATOM     18  C   LIG d   1       4.744  -2.569  -8.751  0.00  0.00     0.227 A 
ATOM     19  O   LIG d   1       4.422  -3.300  -9.663  0.00  0.00    -0.275 OA
ATOM     20  N   LIG d   1       4.393  -1.284  -8.630  0.00  0.00    -0.241 N 
ATOM     21  C   LIG d   1       4.871  -0.669  -7.523  0.00  0.00     0.228 A 
ATOM     22  O   LIG d   1       4.686   0.488  -7.213  0.00  0.00    -0.275 OA
ATOM     23  H   LIG d   1       2.724   2.065  -2.833  0.00  0.00     0.062 H 
ATOM     24  H   LIG d   1       1.853   1.615  -5.091  0.00  0.00     0.062 H 
ATOM     25  H   LIG d   1       2.778  -0.246  -6.418  0.00  0.00     0.062 H 
ATOM     26  H   LIG d   1       6.165  -1.508  -2.488  0.00  0.00     0.155 HD
ATOM     27  H   LIG d   1       3.781  -3.655  -4.934  0.00  0.00     0.123 HD
ENDROOT
BRANCH  15  28
ATOM     28  C   LIG d   1       3.920  -4.848  -7.544  0.00  0.00    -0.009 C 
ATOM     29  H   LIG d   1       2.997  -5.043  -6.999  0.00  0.00     0.033 H 
ATOM     30  H   LIG d   1       3.692  -4.328  -8.474  0.00  0.00     0.033 H 
BRANCH  28  31
ATOM     31  C   LIG d   1       4.605  -6.154  -7.855  0.00  0.00    -0.021 A 
ATOM     32  C   LIG d   1       4.982  -7.192  -6.892  0.00  0.00     0.003 A 
ATOM     33  C   LIG d   1       5.584  -8.218  -7.643  0.00  0.00     0.047 A 
ATOM     34  C   LIG d   1       4.856  -7.323  -5.509  0.00  0.00    -0.052 A 
ATOM     35  N   LIG d   1       5.576  -7.817  -8.960  0.00  0.00    -0.360 N 
ATOM     36  C   LIG d   1       6.047  -9.357  -6.992  0.00  0.00    -0.038 A 
ATOM     37  C   LIG d   1       4.988  -6.585  -9.068  0.00  0.00     0.006 A 
ATOM     38  H   LIG d   1       5.933  -8.330  -9.702  0.00  0.00     0.165 HD
ATOM     39  H   LIG d   1       4.854  -6.041  -9.991  0.00  0.00     0.081 H 
ATOM     40  C   LIG d   1       5.920  -9.462  -5.624  0.00  0.00    -0.060 A 
ATOM     41  H   LIG d   1       6.516 -10.150  -7.555  0.00  0.00     0.064 H 
ATOM     42  C   LIG d   1       5.322  -8.449  -4.888  0.00  0.00    -0.061 A 
ATOM     43  H   LIG d   1       6.285 -10.344  -5.120  0.00  0.00     0.062 H 
ATOM     44  H   LIG d   1       5.224  -8.550  -3.818  0.00  0.00     0.062 H 
ATOM     45  H   LIG d   1       4.392  -6.539  -4.929  0.00  0.00     0.062 H 
ENDBRANCH  28  31
ENDBRANCH  15  28
BRANCH  20  46
ATOM     46  C   LIG d   1       3.562  -0.593  -9.618  0.00  0.00     0.024 C 
ATOM     47  H   LIG d   1       3.834   0.462  -9.647  0.00  0.00     0.047 H 
ATOM     48  H   LIG d   1       3.721  -1.036 -10.601  0.00  0.00     0.047 H 
BRANCH  46  49
ATOM     49  C   LIG d   1       2.088  -0.729  -9.231  0.00  0.00    -0.013 C 
ATOM     50  H   LIG d   1       2.011  -1.224  -8.263  0.00  0.00     0.030 H 
ATOM     51  H   LIG d   1       1.636   0.261  -9.169  0.00  0.00     0.030 H 
BRANCH  49  52
ATOM     52  C   LIG d   1       1.357  -1.559 -10.287  0.00  0.00     0.049 C 
ATOM     53  H   LIG d   1       1.781  -2.563 -10.317  0.00  0.00     0.056 H 
ATOM     54  H   LIG d   1       0.298  -1.619 -10.033  0.00  0.00     0.056 H 
BRANCH  52  55
ATOM     55  O   LIG d   1       1.506  -0.941 -11.567  0.00  0.00    -0.383 OA
BRANCH  55  56
ATOM     56  C   LIG d   1       1.669  -1.866 -12.644  0.00  0.00     0.036 C 
ATOM     57  H   LIG d   1       1.954  -2.840 -12.246  0.00  0.00     0.052 H 
ATOM     58  H   LIG d   1       0.729  -1.958 -13.188  0.00  0.00     0.052 H 
ATOM     59  H   LIG d   1       2.445  -1.507 -13.318  0.00  0.00     0.052 H 
ENDBRANCH  55  56
ENDBRANCH  52  55
ENDBRANCH  49  52
ENDBRANCH  46  49
ENDBRANCH  20  46
BRANCH   1  60
ATOM     60  C   LIG d   1       4.664   0.750  -1.505  0.00  0.00    -0.038 C 
ATOM     61  H   LIG d   1       5.753   0.742  -1.523  0.00  0.00     0.028 H 
ATOM     62  H   LIG d   1       4.313   1.728  -1.176  0.00  0.00     0.028 H 
ATOM     63  H   LIG d   1       4.307  -0.015  -0.816  0.00  0.00     0.028 H 
ENDBRANCH   1  60
TORSDOF 8
ENDMDL
MODEL 6
REMARK VINA RESULT:      -6.7      6.045      7.668
REMARK  8 active torsions:
REMARK  status: ('A' for Active; 'I' for Inactive)
REMARK    1  A    between atoms: C_1  and  C_2 
REMARK    2  A    between atoms: C_16  and  C_19 
REMARK    3  A    between atoms: C_19  and  C_20 
REMARK    4  A    between atoms: N_32  and  C_35 
REMARK    5  A    between atoms: C_35  and  C_36 
REMARK    6  A    between atoms: C_36  and  C_37 
REMARK    7  A    between atoms: C_37  and  O_38 
REMARK    8  A    between atoms: O_38  and  C_39 
ROOT
ATOM      1  C   LIG d   1       4.247   0.423  -2.903  0.00  0.00    -0.029 A 
ATOM      2  C   LIG d   1       3.143   0.924  -3.562  0.00  0.00    -0.057 A 
ATOM      3  C   LIG d   1       2.835   0.488  -4.837  0.00  0.00    -0.061 A 
ATOM      4  C   LIG d   1       3.638  -0.453  -5.457  0.00  0.00    -0.054 A 
ATOM      5  C   LIG d   1       4.741  -0.956  -4.802  0.00  0.00     0.004 A 
ATOM      6  C   LIG d   1       5.063  -0.521  -3.520  0.00  0.00     0.042 A 
ATOM      7  N   LIG d   1       6.219  -1.162  -3.070  0.00  0.00    -0.283 N 
ATOM      8  C   LIG d   1       6.713  -2.020  -3.983  0.00  0.00     0.243 A 
ATOM      9  O   LIG d   1       7.702  -2.712  -3.866  0.00  0.00    -0.273 OA
ATOM     10  C   LIG d   1       5.794  -1.961  -5.172  0.00  0.00     0.136 A 
ATOM     11  C   LIG d   1       6.557  -1.537  -6.434  0.00  0.00     0.080 A 
ATOM     12  H   LIG d   1       7.460  -0.970  -6.207  0.00  0.00     0.043 H 
ATOM     13  C   LIG d   1       6.851  -2.869  -7.179  0.00  0.00     0.065 A 
ATOM     14  H   LIG d   1       7.913  -3.016  -7.379  0.00  0.00     0.042 H 
ATOM     15  C   LIG d   1       6.261  -3.970  -6.273  0.00  0.00     0.025 C 
ATOM     16  H   LIG d   1       7.035  -4.382  -5.625  0.00  0.00     0.047 H 
ATOM     17  N   LIG d   1       5.203  -3.276  -5.479  0.00  0.00    -0.295 N 
ATOM     18  C   LIG d   1       6.032  -2.749  -8.444  0.00  0.00     0.227 A 
ATOM     19  O   LIG d   1       5.964  -3.589  -9.316  0.00  0.00    -0.275 OA
ATOM     20  N   LIG d   1       5.395  -1.573  -8.452  0.00  0.00    -0.241 N 
ATOM     21  C   LIG d   1       5.624  -0.798  -7.366  0.00  0.00     0.228 A 
ATOM     22  O   LIG d   1       5.160   0.304  -7.165  0.00  0.00    -0.275 OA
ATOM     23  H   LIG d   1       2.515   1.659  -3.079  0.00  0.00     0.062 H 
ATOM     24  H   LIG d   1       1.970   0.884  -5.351  0.00  0.00     0.062 H 
ATOM     25  H   LIG d   1       3.400  -0.795  -6.453  0.00  0.00     0.062 H 
ATOM     26  H   LIG d   1       6.620  -1.007  -2.199  0.00  0.00     0.155 HD
ATOM     27  H   LIG d   1       4.999  -3.788  -4.632  0.00  0.00     0.123 HD
ENDROOT
BRANCH  15  28
ATOM     28  C   LIG d   1       5.632  -5.077  -7.121  0.00  0.00    -0.009 C 
ATOM     29  H   LIG d   1       4.601  -4.811  -7.358  0.00  0.00     0.033 H 
ATOM     30  H   LIG d   1       6.200  -5.194  -8.045  0.00  0.00     0.033 H 
BRANCH  28  31
ATOM     31  C   LIG d   1       5.653  -6.372  -6.352  0.00  0.00    -0.021 A 
ATOM     32  C   LIG d   1       6.733  -6.854  -5.486  0.00  0.00     0.003 A 
ATOM     33  C   LIG d   1       6.304  -8.097  -4.985  0.00  0.00     0.047 A 
ATOM     34  C   LIG d   1       7.977  -6.344  -5.112  0.00  0.00    -0.052 A 
ATOM     35  N   LIG d   1       5.060  -8.343  -5.522  0.00  0.00    -0.360 N 
ATOM     36  C   LIG d   1       7.130  -8.803  -4.117  0.00  0.00    -0.038 A 
ATOM     37  C   LIG d   1       4.689  -7.305  -6.333  0.00  0.00     0.006 A 
ATOM     38  H   LIG d   1       4.526  -9.135  -5.350  0.00  0.00     0.165 HD
ATOM     39  H   LIG d   1       3.758  -7.247  -6.877  0.00  0.00     0.081 H 
ATOM     40  C   LIG d   1       8.358  -8.286  -3.768  0.00  0.00    -0.060 A 
ATOM     41  H   LIG d   1       6.815  -9.760  -3.729  0.00  0.00     0.064 H 
ATOM     42  C   LIG d   1       8.775  -7.058  -4.262  0.00  0.00    -0.061 A 
ATOM     43  H   LIG d   1       9.000  -8.838  -3.098  0.00  0.00     0.062 H 
ATOM     44  H   LIG d   1       9.738  -6.662  -3.972  0.00  0.00     0.062 H 
ATOM     45  H   LIG d   1       8.309  -5.389  -5.492  0.00  0.00     0.062 H 
ENDBRANCH  28  31
ENDBRANCH  15  28
BRANCH  20  46
ATOM     46  C   LIG d   1       4.522  -1.152  -9.550  0.00  0.00     0.024 C 
ATOM     47  H   LIG d   1       4.638  -0.080  -9.715  0.00  0.00     0.047 H 
ATOM     48  H   LIG d   1       4.795  -1.690 -10.458  0.00  0.00     0.047 H 
BRANCH  46  49
ATOM     49  C   LIG d   1       3.067  -1.458  -9.193  0.00  0.00    -0.013 C 
ATOM     50  H   LIG d   1       2.723  -2.315  -9.773  0.00  0.00     0.030 H 
ATOM     51  H   LIG d   1       2.994  -1.688  -8.130  0.00  0.00     0.030 H 
BRANCH  49  52
ATOM     52  C   LIG d   1       2.195  -0.243  -9.514  0.00  0.00     0.049 C 
ATOM     53  H   LIG d   1       1.653  -0.421 -10.443  0.00  0.00     0.056 H 
ATOM     54  H   LIG d   1       1.484  -0.082  -8.704  0.00  0.00     0.056 H 
BRANCH  52  55
ATOM     55  O   LIG d   1       3.023   0.913  -9.659  0.00  0.00    -0.383 OA
BRANCH  55  56
ATOM     56  C   LIG d   1       2.691   1.981  -8.770  0.00  0.00     0.036 C 
ATOM     57  H   LIG d   1       1.802   1.715  -8.198  0.00  0.00     0.052 H 
ATOM     58  H   LIG d   1       3.523   2.156  -8.087  0.00  0.00     0.052 H 
ATOM     59  H   LIG d   1       2.497   2.886  -9.345  0.00  0.00     0.052 H 
ENDBRANCH  55  56
ENDBRANCH  52  55
ENDBRANCH  49  52
ENDBRANCH  46  49
ENDBRANCH  20  46
BRANCH   1  60
ATOM     60  C   LIG d   1       4.574   0.906  -1.513  0.00  0.00    -0.038 C 
ATOM     61  H   LIG d   1       4.990   0.084  -0.931  0.00  0.00     0.028 H 
ATOM     62  H   LIG d   1       5.301   1.715  -1.571  0.00  0.00     0.028 H 
ATOM     63  H   LIG d   1       3.665   1.268  -1.032  0.00  0.00     0.028 H 
ENDBRANCH   1  60
TORSDOF 8
ENDMDL
MODEL 7
REMARK VINA RESULT:      -6.7      2.982      8.290
REMARK  8 active torsions:
REMARK  status: ('A' for Active; 'I' for Inactive)
REMARK    1  A    between atoms: C_1  and  C_2 
REMARK    2  A    between atoms: C_16  and  C_19 
REMARK    3  A    between atoms: C_19  and  C_20 
REMARK    4  A    between atoms: N_32  and  C_35 
REMARK    5  A    between atoms: C_35  and  C_36 
REMARK    6  A    between atoms: C_36  and  C_37 
REMARK    7  A    between atoms: C_37  and  O_38 
REMARK    8  A    between atoms: O_38  and  C_39 
ROOT
ATOM      1  C   LIG d   1       3.019  -0.597  -3.989  0.00  0.00    -0.029 A 
ATOM      2  C   LIG d   1       3.113  -1.226  -2.764  0.00  0.00    -0.057 A 
ATOM      3  C   LIG d   1       4.336  -1.671  -2.300  0.00  0.00    -0.061 A 
ATOM      4  C   LIG d   1       5.473  -1.486  -3.067  0.00  0.00    -0.054 A 
ATOM      5  C   LIG d   1       5.384  -0.859  -4.290  0.00  0.00     0.004 A 
ATOM      6  C   LIG d   1       4.157  -0.412  -4.769  0.00  0.00     0.042 A 
ATOM      7  N   LIG d   1       4.316   0.180  -6.025  0.00  0.00    -0.283 N 
ATOM      8  C   LIG d   1       5.598   0.161  -6.437  0.00  0.00     0.243 A 
ATOM      9  O   LIG d   1       6.031   0.602  -7.480  0.00  0.00    -0.273 OA
ATOM     10  C   LIG d   1       6.392  -0.505  -5.347  0.00  0.00     0.136 A 
ATOM     11  C   LIG d   1       7.112  -1.752  -5.877  0.00  0.00     0.080 A 
ATOM     12  H   LIG d   1       6.629  -2.172  -6.759  0.00  0.00     0.043 H 
ATOM     13  C   LIG d   1       8.566  -1.277  -6.152  0.00  0.00     0.065 A 
ATOM     14  H   LIG d   1       8.882  -1.459  -7.179  0.00  0.00     0.042 H 
ATOM     15  C   LIG d   1       8.569   0.223  -5.789  0.00  0.00     0.025 C 
ATOM     16  H   LIG d   1       8.404   0.829  -6.680  0.00  0.00     0.047 H 
ATOM     17  N   LIG d   1       7.447   0.376  -4.814  0.00  0.00    -0.295 N 
ATOM     18  C   LIG d   1       9.383  -2.053  -5.145  0.00  0.00     0.227 A 
ATOM     19  O   LIG d   1      10.585  -1.972  -5.007  0.00  0.00    -0.275 OA
ATOM     20  N   LIG d   1       8.574  -2.842  -4.428  0.00  0.00    -0.241 N 
ATOM     21  C   LIG d   1       7.265  -2.762  -4.761  0.00  0.00     0.228 A 
ATOM     22  O   LIG d   1       6.360  -3.387  -4.253  0.00  0.00    -0.275 OA
ATOM     23  H   LIG d   1       2.226  -1.370  -2.164  0.00  0.00     0.062 H 
ATOM     24  H   LIG d   1       4.406  -2.163  -1.340  0.00  0.00     0.062 H 
ATOM     25  H   LIG d   1       6.431  -1.833  -2.707  0.00  0.00     0.062 H 
ATOM     26  H   LIG d   1       3.587   0.561  -6.540  0.00  0.00     0.155 HD
ATOM     27  H   LIG d   1       7.134   1.336  -4.780  0.00  0.00     0.123 HD
ENDROOT
BRANCH  15  28
ATOM     28  C   LIG d   1       9.892   0.606  -5.122  0.00  0.00    -0.009 C 
ATOM     29  H   LIG d   1      10.082  -0.063  -4.282  0.00  0.00     0.033 H 
ATOM     30  H   LIG d   1      10.702   0.521  -5.846  0.00  0.00     0.033 H 
BRANCH  28  31
ATOM     31  C   LIG d   1       9.810   2.026  -4.625  0.00  0.00    -0.021 A 
ATOM     32  C   LIG d   1       9.805   3.238  -5.448  0.00  0.00     0.003 A 
ATOM     33  C   LIG d   1       9.712   4.317  -4.549  0.00  0.00     0.047 A 
ATOM     34  C   LIG d   1       9.867   3.479  -6.821  0.00  0.00    -0.052 A 
ATOM     35  N   LIG d   1       9.673   3.786  -3.279  0.00  0.00    -0.360 N 
ATOM     36  C   LIG d   1       9.680   5.616  -5.046  0.00  0.00    -0.038 A 
ATOM     37  C   LIG d   1       9.733   2.420  -3.344  0.00  0.00     0.006 A 
ATOM     38  H   LIG d   1       9.613   4.303  -2.461  0.00  0.00     0.165 HD
ATOM     39  H   LIG d   1       9.720   1.758  -2.491  0.00  0.00     0.081 H 
ATOM     40  C   LIG d   1       9.751   5.832  -6.404  0.00  0.00    -0.060 A 
ATOM     41  H   LIG d   1       9.613   6.454  -4.367  0.00  0.00     0.064 H 
ATOM     42  C   LIG d   1       9.840   4.764  -7.287  0.00  0.00    -0.061 A 
ATOM     43  H   LIG d   1       9.732   6.841  -6.788  0.00  0.00     0.062 H 
ATOM     44  H   LIG d   1       9.887   4.949  -8.350  0.00  0.00     0.062 H 
ATOM     45  H   LIG d   1       9.936   2.653  -7.514  0.00  0.00     0.062 H 
ENDBRANCH  28  31
ENDBRANCH  15  28
BRANCH  20  46
ATOM     46  C   LIG d   1       9.065  -3.729  -3.371  0.00  0.00     0.024 C 
ATOM     47  H   LIG d   1       9.967  -3.303  -2.930  0.00  0.00     0.047 H 
ATOM     48  H   LIG d   1       8.301  -3.835  -2.601  0.00  0.00     0.047 H 
BRANCH  46  49
ATOM     49  C   LIG d   1       9.387  -5.102  -3.963  0.00  0.00    -0.013 C 
ATOM     50  H   LIG d   1       8.607  -5.810  -3.682  0.00  0.00     0.030 H 
ATOM     51  H   LIG d   1       9.434  -5.027  -5.050  0.00  0.00     0.030 H 
BRANCH  49  52
ATOM     52  C   LIG d   1      10.733  -5.588  -3.426  0.00  0.00     0.049 C 
ATOM     53  H   LIG d   1      10.569  -6.223  -2.555  0.00  0.00     0.056 H 
ATOM     54  H   LIG d   1      11.249  -6.158  -4.199  0.00  0.00     0.056 H 
BRANCH  52  55
ATOM     55  O   LIG d   1      11.531  -4.463  -3.050  0.00  0.00    -0.383 OA
BRANCH  55  56
ATOM     56  C   LIG d   1      12.817  -4.428  -3.672  0.00  0.00     0.036 C 
ATOM     57  H   LIG d   1      13.587  -4.317  -2.908  0.00  0.00     0.052 H 
ATOM     58  H   LIG d   1      12.981  -5.357  -4.219  0.00  0.00     0.052 H 
ATOM     59  H   LIG d   1      12.864  -3.587  -4.362  0.00  0.00     0.052 H 
ENDBRANCH  55  56
ENDBRANCH  52  55
ENDBRANCH  49  52
ENDBRANCH  46  49
ENDBRANCH  20  46
BRANCH   1  60
ATOM     60  C   LIG d   1       1.680  -0.117  -4.486  0.00  0.00    -0.038 C 
ATOM     61  H   LIG d   1       1.720   0.959  -4.656  0.00  0.00     0.028 H 
ATOM     62  H   LIG d   1       1.435  -0.624  -5.418  0.00  0.00     0.028 H 
ATOM     63  H   LIG d   1       0.916  -0.338  -3.740  0.00  0.00     0.028 H 
ENDBRANCH   1  60
TORSDOF 8
ENDMDL
MODEL 8
REMARK VINA RESULT:      -6.7      6.587     11.026
REMARK  8 active torsions:
REMARK  status: ('A' for Active; 'I' for Inactive)
REMARK    1  A    between atoms: C_1  and  C_2 
REMARK    2  A    between atoms: C_16  and  C_19 
REMARK    3  A    between atoms: C_19  and  C_20 
REMARK    4  A    between atoms: N_32  and  C_35 
REMARK    5  A    between atoms: C_35  and  C_36 
REMARK    6  A    between atoms: C_36  and  C_37 
REMARK    7  A    between atoms: C_37  and  O_38 
REMARK    8  A    between atoms: O_38  and  C_39 
ROOT
ATOM      1  C   LIG d   1       1.706  -5.872 -10.337  0.00  0.00    -0.029 A 
ATOM      2  C   LIG d   1       1.932  -7.227 -10.212  0.00  0.00    -0.057 A 
ATOM      3  C   LIG d   1       2.911  -7.695  -9.355  0.00  0.00    -0.061 A 
ATOM      4  C   LIG d   1       3.668  -6.801  -8.619  0.00  0.00    -0.054 A 
ATOM      5  C   LIG d   1       3.446  -5.447  -8.741  0.00  0.00     0.004 A 
ATOM      6  C   LIG d   1       2.467  -4.964  -9.604  0.00  0.00     0.042 A 
ATOM      7  N   LIG d   1       2.433  -3.569  -9.562  0.00  0.00    -0.283 N 
ATOM      8  C   LIG d   1       3.346  -3.063  -8.710  0.00  0.00     0.243 A 
ATOM      9  O   LIG d   1       3.542  -1.891  -8.470  0.00  0.00    -0.273 OA
ATOM     10  C   LIG d   1       4.068  -4.236  -8.106  0.00  0.00     0.136 A 
ATOM     11  C   LIG d   1       5.573  -4.161  -8.394  0.00  0.00     0.080 A 
ATOM     12  H   LIG d   1       5.801  -3.569  -9.281  0.00  0.00     0.043 H 
ATOM     13  C   LIG d   1       6.191  -3.570  -7.097  0.00  0.00     0.065 A 
ATOM     14  H   LIG d   1       6.775  -2.668  -7.281  0.00  0.00     0.042 H 
ATOM     15  C   LIG d   1       4.989  -3.317  -6.163  0.00  0.00     0.025 C 
ATOM     16  H   LIG d   1       4.654  -2.284  -6.248  0.00  0.00     0.047 H 
ATOM     17  N   LIG d   1       3.938  -4.268  -6.638  0.00  0.00    -0.295 N 
ATOM     18  C   LIG d   1       7.030  -4.707  -6.561  0.00  0.00     0.227 A 
ATOM     19  O   LIG d   1       7.684  -4.674  -5.540  0.00  0.00    -0.275 OA
ATOM     20  N   LIG d   1       6.939  -5.756  -7.387  0.00  0.00    -0.241 N 
ATOM     21  C   LIG d   1       6.146  -5.558  -8.466  0.00  0.00     0.228 A 
ATOM     22  O   LIG d   1       5.924  -6.363  -9.345  0.00  0.00    -0.275 OA
ATOM     23  H   LIG d   1       1.341  -7.926 -10.785  0.00  0.00     0.062 H 
ATOM     24  H   LIG d   1       3.085  -8.758  -9.261  0.00  0.00     0.062 H 
ATOM     25  H   LIG d   1       4.434  -7.164  -7.949  0.00  0.00     0.062 H 
ATOM     26  H   LIG d   1       1.822  -3.026 -10.086  0.00  0.00     0.155 HD
ATOM     27  H   LIG d   1       3.021  -3.959  -6.349  0.00  0.00     0.123 HD
ENDROOT
BRANCH  15  28
ATOM     28  C   LIG d   1       5.363  -3.638  -4.715  0.00  0.00    -0.009 C 
ATOM     29  H   LIG d   1       4.507  -4.083  -4.208  0.00  0.00     0.033 H 
ATOM     30  H   LIG d   1       6.198  -4.339  -4.703  0.00  0.00     0.033 H 
BRANCH  28  31
ATOM     31  C   LIG d   1       5.763  -2.369  -4.008  0.00  0.00    -0.021 A 
ATOM     32  C   LIG d   1       4.859  -1.364  -3.443  0.00  0.00     0.003 A 
ATOM     33  C   LIG d   1       5.683  -0.369  -2.886  0.00  0.00     0.047 A 
ATOM     34  C   LIG d   1       3.471  -1.240  -3.369  0.00  0.00    -0.052 A 
ATOM     35  N   LIG d   1       6.988  -0.749  -3.111  0.00  0.00    -0.360 N 
ATOM     36  C   LIG d   1       5.099   0.729  -2.263  0.00  0.00    -0.038 A 
ATOM     37  C   LIG d   1       7.016  -1.943  -3.780  0.00  0.00     0.006 A 
ATOM     38  H   LIG d   1       7.770  -0.246  -2.836  0.00  0.00     0.165 HD
ATOM     39  H   LIG d   1       7.913  -2.463  -4.081  0.00  0.00     0.081 H 
ATOM     40  C   LIG d   1       3.727   0.836  -2.209  0.00  0.00    -0.060 A 
ATOM     41  H   LIG d   1       5.720   1.503  -1.835  0.00  0.00     0.064 H 
ATOM     42  C   LIG d   1       2.918  -0.150  -2.757  0.00  0.00    -0.061 A 
ATOM     43  H   LIG d   1       3.275   1.691  -1.730  0.00  0.00     0.062 H 
ATOM     44  H   LIG d   1       1.844  -0.056  -2.699  0.00  0.00     0.062 H 
ATOM     45  H   LIG d   1       2.835  -2.003  -3.793  0.00  0.00     0.062 H 
ENDBRANCH  28  31
ENDBRANCH  15  28
BRANCH  20  46
ATOM     46  C   LIG d   1       7.645  -7.016  -7.148  0.00  0.00     0.024 C 
ATOM     47  H   LIG d   1       7.799  -7.531  -8.096  0.00  0.00     0.047 H 
ATOM     48  H   LIG d   1       8.610  -6.811  -6.686  0.00  0.00     0.047 H 
BRANCH  46  49
ATOM     49  C   LIG d   1       6.812  -7.900  -6.218  0.00  0.00    -0.013 C 
ATOM     50  H   LIG d   1       7.459  -8.340  -5.459  0.00  0.00     0.030 H 
ATOM     51  H   LIG d   1       6.044  -7.296  -5.734  0.00  0.00     0.030 H 
BRANCH  49  52
ATOM     52  C   LIG d   1       6.149  -9.014  -7.030  0.00  0.00     0.049 C 
ATOM     53  H   LIG d   1       5.957  -8.660  -8.043  0.00  0.00     0.056 H 
ATOM     54  H   LIG d   1       6.810  -9.879  -7.067  0.00  0.00     0.056 H 
BRANCH  52  55
ATOM     55  O   LIG d   1       4.914  -9.384  -6.413  0.00  0.00    -0.383 OA
BRANCH  55  56
ATOM     56  C   LIG d   1       4.754  -8.884  -5.084  0.00  0.00     0.036 C 
ATOM     57  H   LIG d   1       5.048  -9.652  -4.370  0.00  0.00     0.052 H 
ATOM     58  H   LIG d   1       5.383  -8.003  -4.950  0.00  0.00     0.052 H 
ATOM     59  H   LIG d   1       3.712  -8.613  -4.920  0.00  0.00     0.052 H 
ENDBRANCH  55  56
ENDBRANCH  52  55
ENDBRANCH  49  52
ENDBRANCH  46  49
ENDBRANCH  20  46
BRANCH   1  60
ATOM     60  C   LIG d   1       0.637  -5.372 -11.274  0.00  0.00    -0.038 C 
ATOM     61  H   LIG d   1       1.101  -4.841 -12.104  0.00  0.00     0.028 H 
ATOM     62  H   LIG d   1       0.066  -6.217 -11.657  0.00  0.00     0.028 H 
ATOM     63  H   LIG d   1      -0.029  -4.696 -10.737  0.00  0.00     0.028 H 
ENDBRANCH   1  60
TORSDOF 8
ENDMDL
MODEL 9
REMARK VINA RESULT:      -6.6      4.008      7.224
REMARK  8 active torsions:
REMARK  status: ('A' for Active; 'I' for Inactive)
REMARK    1  A    between atoms: C_1  and  C_2 
REMARK    2  A    between atoms: C_16  and  C_19 
REMARK    3  A    between atoms: C_19  and  C_20 
REMARK    4  A    between atoms: N_32  and  C_35 
REMARK    5  A    between atoms: C_35  and  C_36 
REMARK    6  A    between atoms: C_36  and  C_37 
REMARK    7  A    between atoms: C_37  and  O_38 
REMARK    8  A    between atoms: O_38  and  C_39 
ROOT
ATOM      1  C   LIG d   1      10.343   1.343  -4.976  0.00  0.00    -0.029 A 
ATOM      2  C   LIG d   1      11.008   0.424  -5.761  0.00  0.00    -0.057 A 
ATOM      3  C   LIG d   1      10.370  -0.729  -6.178  0.00  0.00    -0.061 A 
ATOM      4  C   LIG d   1       9.057  -0.963  -5.807  0.00  0.00    -0.054 A 
ATOM      5  C   LIG d   1       8.389  -0.047  -5.024  0.00  0.00     0.004 A 
ATOM      6  C   LIG d   1       9.024   1.114  -4.594  0.00  0.00     0.042 A 
ATOM      7  N   LIG d   1       8.154   1.877  -3.812  0.00  0.00    -0.283 N 
ATOM      8  C   LIG d   1       6.946   1.296  -3.680  0.00  0.00     0.243 A 
ATOM      9  O   LIG d   1       5.997   1.729  -3.062  0.00  0.00    -0.273 OA
ATOM     10  C   LIG d   1       6.999   0.010  -4.458  0.00  0.00     0.136 A 
ATOM     11  C   LIG d   1       6.711  -1.192  -3.550  0.00  0.00     0.080 A 
ATOM     12  H   LIG d   1       6.933  -0.989  -2.502  0.00  0.00     0.043 H 
ATOM     13  C   LIG d   1       5.213  -1.521  -3.799  0.00  0.00     0.065 A 
ATOM     14  H   LIG d   1       4.623  -1.519  -2.882  0.00  0.00     0.042 H 
ATOM     15  C   LIG d   1       4.736  -0.460  -4.812  0.00  0.00     0.025 C 
ATOM     16  H   LIG d   1       4.270   0.377  -4.293  0.00  0.00     0.047 H 
ATOM     17  N   LIG d   1       5.979  -0.034  -5.523  0.00  0.00    -0.295 N 
ATOM     18  C   LIG d   1       5.259  -2.881  -4.458  0.00  0.00     0.227 A 
ATOM     19  O   LIG d   1       4.293  -3.510  -4.833  0.00  0.00    -0.275 OA
ATOM     20  N   LIG d   1       6.531  -3.282  -4.562  0.00  0.00    -0.241 N 
ATOM     21  C   LIG d   1       7.442  -2.409  -4.073  0.00  0.00     0.228 A 
ATOM     22  O   LIG d   1       8.644  -2.566  -4.056  0.00  0.00    -0.275 OA
ATOM     23  H   LIG d   1      12.032   0.606  -6.051  0.00  0.00     0.062 H 
ATOM     24  H   LIG d   1      10.894  -1.447  -6.792  0.00  0.00     0.062 H 
ATOM     25  H   LIG d   1       8.556  -1.863  -6.132  0.00  0.00     0.062 H 
ATOM     26  H   LIG d   1       8.392   2.728  -3.411  0.00  0.00     0.155 HD
ATOM     27  H   LIG d   1       5.855   0.876  -5.943  0.00  0.00     0.123 HD
ENDROOT
BRANCH  15  28
ATOM     28  C   LIG d   1       3.755  -1.081  -5.809  0.00  0.00    -0.009 C 
ATOM     29  H   LIG d   1       3.699  -2.157  -5.642  0.00  0.00     0.033 H 
ATOM     30  H   LIG d   1       2.769  -0.639  -5.672  0.00  0.00     0.033 H 
BRANCH  28  31
ATOM     31  C   LIG d   1       4.233  -0.816  -7.213  0.00  0.00    -0.021 A 
ATOM     32  C   LIG d   1       3.851   0.314  -8.065  0.00  0.00     0.003 A 
ATOM     33  C   LIG d   1       4.547   0.140  -9.276  0.00  0.00     0.047 A 
ATOM     34  C   LIG d   1       3.008   1.413  -7.898  0.00  0.00    -0.052 A 
ATOM     35  N   LIG d   1       5.285  -1.016  -9.158  0.00  0.00    -0.360 N 
ATOM     36  C   LIG d   1       4.387   1.075 -10.293  0.00  0.00    -0.038 A 
ATOM     37  C   LIG d   1       5.086  -1.572  -7.923  0.00  0.00     0.006 A 
ATOM     38  H   LIG d   1       5.861  -1.383  -9.847  0.00  0.00     0.165 HD
ATOM     39  H   LIG d   1       5.546  -2.483  -7.572  0.00  0.00     0.081 H 
ATOM     40  C   LIG d   1       3.543   2.148 -10.110  0.00  0.00    -0.060 A 
ATOM     41  H   LIG d   1       4.911   0.952 -11.229  0.00  0.00     0.064 H 
ATOM     42  C   LIG d   1       2.861   2.317  -8.913  0.00  0.00    -0.061 A 
ATOM     43  H   LIG d   1       3.415   2.870 -10.903  0.00  0.00     0.062 H 
ATOM     44  H   LIG d   1       2.209   3.168  -8.782  0.00  0.00     0.062 H 
ATOM     45  H   LIG d   1       2.474   1.551  -6.969  0.00  0.00     0.062 H 
ENDBRANCH  28  31
ENDBRANCH  15  28
BRANCH  20  46
ATOM     46  C   LIG d   1       6.911  -4.567  -5.154  0.00  0.00     0.024 C 
ATOM     47  H   LIG d   1       7.851  -4.904  -4.717  0.00  0.00     0.047 H 
ATOM     48  H   LIG d   1       6.133  -5.304  -4.953  0.00  0.00     0.047 H 
BRANCH  46  49
ATOM     49  C   LIG d   1       7.081  -4.403  -6.665  0.00  0.00    -0.013 C 
ATOM     50  H   LIG d   1       6.542  -3.516  -6.997  0.00  0.00     0.030 H 
ATOM     51  H   LIG d   1       8.139  -4.295  -6.902  0.00  0.00     0.030 H 
BRANCH  49  52
ATOM     52  C   LIG d   1       6.521  -5.635  -7.379  0.00  0.00     0.049 C 
ATOM     53  H   LIG d   1       6.518  -5.461  -8.455  0.00  0.00     0.056 H 
ATOM     54  H   LIG d   1       7.144  -6.500  -7.153  0.00  0.00     0.056 H 
BRANCH  52  55
ATOM     55  O   LIG d   1       5.185  -5.879  -6.933  0.00  0.00    -0.383 OA
BRANCH  55  56
ATOM     56  C   LIG d   1       4.178  -5.334  -7.788  0.00  0.00     0.036 C 
ATOM     57  H   LIG d   1       3.371  -4.924  -7.183  0.00  0.00     0.052 H 
ATOM     58  H   LIG d   1       4.611  -4.543  -8.400  0.00  0.00     0.052 H 
ATOM     59  H   LIG d   1       3.786  -6.119  -8.434  0.00  0.00     0.052 H 
ENDBRANCH  55  56
ENDBRANCH  52  55
ENDBRANCH  49  52
ENDBRANCH  46  49
ENDBRANCH  20  46
BRANCH   1  60
ATOM     60  C   LIG d   1      11.049   2.597  -4.526  0.00  0.00    -0.038 C 
ATOM     61  H   LIG d   1      11.716   2.360  -3.697  0.00  0.00     0.028 H 
ATOM     62  H   LIG d   1      11.628   3.005  -5.354  0.00  0.00     0.028 H 
ATOM     63  H   LIG d   1      10.311   3.331  -4.201  0.00  0.00     0.028 H 
ENDBRANCH   1  60
TORSDOF 8
ENDMDL
MODEL 10
REMARK VINA RESULT:      -6.4      4.981      8.681
REMARK  8 active torsions:
REMARK  status: ('A' for Active; 'I' for Inactive)
REMARK    1  A    between atoms: C_1  and  C_2 
REMARK    2  A    between atoms: C_16  and  C_19 
REMARK    3  A    between atoms: C_19  and  C_20 
REMARK    4  A    between atoms: N_32  and  C_35 
REMARK    5  A    between atoms: C_35  and  C_36 
REMARK    6  A    between atoms: C_36  and  C_37 
REMARK    7  A    between atoms: C_37  and  O_38 
REMARK    8  A    between atoms: O_38  and  C_39 
ROOT
ATOM      1  C   LIG d   1       4.391   0.047  -2.577  0.00  0.00    -0.029 A 
ATOM      2  C   LIG d   1       3.602  -1.078  -2.455  0.00  0.00    -0.057 A 
ATOM      3  C   LIG d   1       3.988  -2.268  -3.043  0.00  0.00    -0.061 A 
ATOM      4  C   LIG d   1       5.171  -2.333  -3.757  0.00  0.00    -0.054 A 
ATOM      5  C   LIG d   1       5.962  -1.212  -3.881  0.00  0.00     0.004 A 
ATOM      6  C   LIG d   1       5.581  -0.007  -3.298  0.00  0.00     0.042 A 
ATOM      7  N   LIG d   1       6.533   0.980  -3.565  0.00  0.00    -0.283 N 
ATOM      8  C   LIG d   1       7.555   0.513  -4.308  0.00  0.00     0.243 A 
ATOM      9  O   LIG d   1       8.520   1.141  -4.688  0.00  0.00    -0.273 OA
ATOM     10  C   LIG d   1       7.272  -0.941  -4.566  0.00  0.00     0.136 A 
ATOM     11  C   LIG d   1       7.189  -1.225  -6.071  0.00  0.00     0.080 A 
ATOM     12  H   LIG d   1       6.929  -0.340  -6.651  0.00  0.00     0.043 H 
ATOM     13  C   LIG d   1       8.585  -1.801  -6.438  0.00  0.00     0.065 A 
ATOM     14  H   LIG d   1       9.075  -1.241  -7.235  0.00  0.00     0.042 H 
ATOM     15  C   LIG d   1       9.384  -1.777  -5.119  0.00  0.00     0.025 C 
ATOM     16  H   LIG d   1       9.985  -0.869  -5.056  0.00  0.00     0.047 H 
ATOM     17  N   LIG d   1       8.343  -1.812  -4.048  0.00  0.00    -0.295 N 
ATOM     18  C   LIG d   1       8.281  -3.228  -6.832  0.00  0.00     0.227 A 
ATOM     19  O   LIG d   1       9.103  -4.048  -7.182  0.00  0.00    -0.275 OA
ATOM     20  N   LIG d   1       6.965  -3.447  -6.732  0.00  0.00    -0.241 N 
ATOM     21  C   LIG d   1       6.243  -2.379  -6.318  0.00  0.00     0.228 A 
ATOM     22  O   LIG d   1       5.042  -2.347  -6.164  0.00  0.00    -0.275 OA
ATOM     23  H   LIG d   1       2.678  -1.029  -1.898  0.00  0.00     0.062 H 
ATOM     24  H   LIG d   1       3.366  -3.147  -2.946  0.00  0.00     0.062 H 
ATOM     25  H   LIG d   1       5.475  -3.261  -4.218  0.00  0.00     0.062 H 
ATOM     26  H   LIG d   1       6.465   1.896  -3.251  0.00  0.00     0.155 HD
ATOM     27  H   LIG d   1       8.713  -1.454  -3.179  0.00  0.00     0.123 HD
ENDROOT
BRANCH  15  28
ATOM     28  C   LIG d   1      10.277  -3.015  -5.016  0.00  0.00    -0.009 C 
ATOM     29  H   LIG d   1       9.830  -3.729  -4.324  0.00  0.00     0.033 H 
ATOM     30  H   LIG d   1      10.376  -3.474  -6.000  0.00  0.00     0.033 H 
BRANCH  28  31
ATOM     31  C   LIG d   1      11.638  -2.610  -4.512  0.00  0.00    -0.021 A 
ATOM     32  C   LIG d   1      12.675  -3.504  -3.989  0.00  0.00     0.003 A 
ATOM     33  C   LIG d   1      13.764  -2.679  -3.649  0.00  0.00     0.047 A 
ATOM     34  C   LIG d   1      12.760  -4.883  -3.796  0.00  0.00    -0.052 A 
ATOM     35  N   LIG d   1      13.398  -1.384  -3.939  0.00  0.00    -0.360 N 
ATOM     36  C   LIG d   1      14.916  -3.255  -3.124  0.00  0.00    -0.038 A 
ATOM     37  C   LIG d   1      12.129  -1.362  -4.452  0.00  0.00     0.006 A 
ATOM     38  H   LIG d   1      13.956  -0.603  -3.800  0.00  0.00     0.165 HD
ATOM     39  H   LIG d   1      11.601  -0.472  -4.763  0.00  0.00     0.081 H 
ATOM     40  C   LIG d   1      14.974  -4.618  -2.933  0.00  0.00    -0.060 A 
ATOM     41  H   LIG d   1      15.757  -2.633  -2.853  0.00  0.00     0.064 H 
ATOM     42  C   LIG d   1      13.900  -5.427  -3.273  0.00  0.00    -0.061 A 
ATOM     43  H   LIG d   1      15.867  -5.062  -2.519  0.00  0.00     0.062 H 
ATOM     44  H   LIG d   1      13.964  -6.495  -3.124  0.00  0.00     0.062 H 
ATOM     45  H   LIG d   1      11.927  -5.520  -4.058  0.00  0.00     0.062 H 
ENDBRANCH  28  31
ENDBRANCH  15  28
BRANCH  20  46
ATOM     46  C   LIG d   1       6.350  -4.737  -7.052  0.00  0.00     0.024 C 
ATOM     47  H   LIG d   1       5.490  -4.578  -7.703  0.00  0.00     0.047 H 
ATOM     48  H   LIG d   1       7.077  -5.371  -7.559  0.00  0.00     0.047 H 
BRANCH  46  49
ATOM     49  C   LIG d   1       5.892  -5.419  -5.761  0.00  0.00    -0.013 C 
ATOM     50  H   LIG d   1       6.720  -5.986  -5.337  0.00  0.00     0.030 H 
ATOM     51  H   LIG d   1       5.567  -4.662  -5.047  0.00  0.00     0.030 H 
BRANCH  49  52
ATOM     52  C   LIG d   1       4.730  -6.365  -6.067  0.00  0.00     0.049 C 
ATOM     53  H   LIG d   1       3.788  -5.819  -5.995  0.00  0.00     0.056 H 
ATOM     54  H   LIG d   1       4.841  -6.763  -7.076  0.00  0.00     0.056 H 
BRANCH  52  55
ATOM     55  O   LIG d   1       4.729  -7.440  -5.126  0.00  0.00    -0.383 OA
BRANCH  55  56
ATOM     56  C   LIG d   1       4.697  -8.737  -5.725  0.00  0.00     0.036 C 
ATOM     57  H   LIG d   1       3.878  -8.786  -6.442  0.00  0.00     0.052 H 
ATOM     58  H   LIG d   1       5.640  -8.923  -6.239  0.00  0.00     0.052 H 
ATOM     59  H   LIG d   1       4.550  -9.491  -4.952  0.00  0.00     0.052 H 
ENDBRANCH  55  56
ENDBRANCH  52  55
ENDBRANCH  49  52
ENDBRANCH  46  49
ENDBRANCH  20  46
BRANCH   1  60
ATOM     60  C   LIG d   1       3.961   1.340  -1.933  0.00  0.00    -0.038 C 
ATOM     61  H   LIG d   1       2.875   1.356  -1.840  0.00  0.00     0.028 H 
ATOM     62  H   LIG d   1       4.412   1.421  -0.944  0.00  0.00     0.028 H 
ATOM     63  H   LIG d   1       4.285   2.178  -2.551  0.00  0.00     0.028 H 
ENDBRANCH   1  60
TORSDOF 8
ENDMDL
