MODEL 1
REMARK VINA RESULT:      -7.2      0.000      0.000
REMARK  9 active torsions:
REMARK  status: ('A' for Active; 'I' for Inactive)
REMARK    1  A    between atoms: C_1  and  O_2 
REMARK    2  A    between atoms: O_2  and  C_3 
REMARK    3  A    between atoms: C_6  and  C_9 
REMARK    4  A    between atoms: C_14  and  C_15 
REMARK    5  A    between atoms: C_18  and  O_22 
REMARK    6  A    between atoms: C_20  and  O_21 
REMARK    7  A    between atoms: O_22  and  C_23 
REMARK    8  A    between atoms: C_23  and  C_24 
REMARK    9  A    between atoms: C_27  and  C_30 
ROOT
ATOM      1  C   LIG d   1       9.893   5.204  -2.845  0.00  0.00     0.044 A 
ATOM      2  C   LIG d   1       9.186   4.928  -4.013  0.00  0.00    -0.045 A 
ATOM      3  C   LIG d   1       9.154   3.643  -4.512  0.00  0.00    -0.019 A 
ATOM      4  C   LIG d   1       9.826   2.621  -3.852  0.00  0.00     0.124 A 
ATOM      5  C   LIG d   1      10.531   2.887  -2.688  0.00  0.00     0.022 A 
ATOM      6  C   LIG d   1      10.573   4.176  -2.184  0.00  0.00     0.130 A 
ATOM      7  H   LIG d   1       8.663   5.721  -4.528  0.00  0.00     0.063 H 
ATOM      8  H   LIG d   1       8.606   3.430  -5.418  0.00  0.00     0.065 H 
ATOM      9  H   LIG d   1      11.052   2.091  -2.178  0.00  0.00     0.069 H 
ENDROOT
BRANCH   1  10
ATOM     10  C   LIG d   1       9.928   6.586  -2.306  0.00  0.00     0.104 A 
ATOM     11  C   LIG d   1      10.156   7.767  -3.054  0.00  0.00     0.027 A 
ATOM     12  C   LIG d   1      10.102   8.817  -2.188  0.00  0.00     0.031 A 
ATOM     13  N   LIG d   1       9.860   8.324  -0.956  0.00  0.00    -0.283 N 
ATOM     14  H   LIG d   1      10.231   9.860  -2.441  0.00  0.00     0.083 H 
ATOM     15  H   LIG d   1       9.770   8.847  -0.143  0.00  0.00     0.188 HD
ATOM     16  N   LIG d   1       9.759   6.931  -1.049  0.00  0.00    -0.173 NA
BRANCH  11  17
ATOM     17  C   LIG d   1      10.402   7.848  -4.516  0.00  0.00    -0.014 A 
ATOM     18  C   LIG d   1      11.666   7.564  -5.027  0.00  0.00    -0.051 A 
ATOM     19  C   LIG d   1      11.892   7.640  -6.386  0.00  0.00    -0.019 A 
ATOM     20  H   LIG d   1      12.468   7.283  -4.361  0.00  0.00     0.062 H 
ATOM     21  C   LIG d   1      10.862   7.999  -7.243  0.00  0.00     0.120 A 
ATOM     22  H   LIG d   1      12.872   7.419  -6.783  0.00  0.00     0.065 H 
ATOM     23  C   LIG d   1       9.602   8.289  -6.736  0.00  0.00    -0.019 A 
ATOM     24  C   LIG d   1       9.369   8.210  -5.379  0.00  0.00    -0.051 A 
ATOM     25  H   LIG d   1       8.804   8.574  -7.405  0.00  0.00     0.065 H 
ATOM     26  H   LIG d   1       8.388   8.430  -4.985  0.00  0.00     0.062 H 
BRANCH  21  27
ATOM     27  O   LIG d   1      11.086   8.074  -8.582  0.00  0.00    -0.495 OA
BRANCH  27  28
ATOM     28  C   LIG d   1       9.938   8.069  -9.432  0.00  0.00     0.079 C 
ATOM     29  H   LIG d   1       9.322   8.942  -9.215  0.00  0.00     0.066 H 
ATOM     30  H   LIG d   1      10.257   8.099 -10.474  0.00  0.00     0.066 H 
ATOM     31  H   LIG d   1       9.359   7.163  -9.255  0.00  0.00     0.066 H 
ENDBRANCH  27  28
ENDBRANCH  21  27
ENDBRANCH  11  17
ENDBRANCH   1  10
BRANCH   6  32
ATOM     32  O   LIG d   1      11.268   4.440  -1.047  0.00  0.00    -0.506 OA
ATOM     33  H   LIG d   1      12.212   4.238  -1.107  0.00  0.00     0.292 HD
ENDBRANCH   6  32
BRANCH   4  34
ATOM     34  O   LIG d   1       9.790   1.357  -4.348  0.00  0.00    -0.487 OA
BRANCH  34  35
ATOM     35  C   LIG d   1       8.676   1.015  -5.176  0.00  0.00     0.115 C 
ATOM     36  H   LIG d   1       8.317   1.907  -5.688  0.00  0.00     0.075 H 
ATOM     37  H   LIG d   1       8.986   0.274  -5.913  0.00  0.00     0.075 H 
BRANCH  35  38
ATOM     38  C   LIG d   1       7.573   0.446  -4.323  0.00  0.00    -0.010 A 
ATOM     39  C   LIG d   1       6.737   1.296  -3.620  0.00  0.00    -0.055 A 
ATOM     40  C   LIG d   1       5.722   0.781  -2.841  0.00  0.00    -0.054 A 
ATOM     41  H   LIG d   1       6.879   2.364  -3.685  0.00  0.00     0.062 H 
ATOM     42  C   LIG d   1       5.544  -0.600  -2.756  0.00  0.00    -0.026 A 
ATOM     43  H   LIG d   1       5.068   1.446  -2.296  0.00  0.00     0.062 H 
ATOM     44  C   LIG d   1       6.392  -1.452  -3.463  0.00  0.00    -0.054 A 
ATOM     45  C   LIG d   1       7.401  -0.924  -4.242  0.00  0.00    -0.055 A 
ATOM     46  H   LIG d   1       6.260  -2.523  -3.401  0.00  0.00     0.062 H 
ATOM     47  H   LIG d   1       8.059  -1.583  -4.790  0.00  0.00     0.062 H 
BRANCH  42  48
ATOM     48  C   LIG d   1       4.460  -1.158  -1.919  0.00  0.00    -0.062 C 
ATOM     49  C   LIG d   1       3.787  -2.224  -2.329  0.00  0.00    -0.098 C 
ATOM     50  H   LIG d   1       2.996  -2.631  -1.718  0.00  0.00     0.053 H 
ATOM     51  H   LIG d   1       4.030  -2.684  -3.276  0.00  0.00     0.053 H 
ATOM     52  H   LIG d   1       4.218  -0.697  -0.972  0.00  0.00     0.062 H 
ENDBRANCH  42  48
ENDBRANCH  35  38
ENDBRANCH  34  35
ENDBRANCH   4  34
TORSDOF 9
ENDMDL
MODEL 2
REMARK VINA RESULT:      -6.9      7.740     12.760
REMARK  9 active torsions:
REMARK  status: ('A' for Active; 'I' for Inactive)
REMARK    1  A    between atoms: C_1  and  O_2 
REMARK    2  A    between atoms: O_2  and  C_3 
REMARK    3  A    between atoms: C_6  and  C_9 
REMARK    4  A    between atoms: C_14  and  C_15 
REMARK    5  A    between atoms: C_18  and  O_22 
REMARK    6  A    between atoms: C_20  and  O_21 
REMARK    7  A    between atoms: O_22  and  C_23 
REMARK    8  A    between atoms: C_23  and  C_24 
REMARK    9  A    between atoms: C_27  and  C_30 
ROOT
ATOM      1  C   LIG d   1      10.486  -6.570  -2.666  0.00  0.00     0.044 A 
ATOM      2  C   LIG d   1      10.493  -6.334  -4.039  0.00  0.00    -0.045 A 
ATOM      3  C   LIG d   1       9.930  -5.180  -4.542  0.00  0.00    -0.019 A 
ATOM      4  C   LIG d   1       9.354  -4.251  -3.683  0.00  0.00     0.124 A 
ATOM      5  C   LIG d   1       9.344  -4.479  -2.316  0.00  0.00     0.022 A 
ATOM      6  C   LIG d   1       9.902  -5.638  -1.803  0.00  0.00     0.130 A 
ATOM      7  H   LIG d   1      10.939  -7.053  -4.709  0.00  0.00     0.063 H 
ATOM      8  H   LIG d   1       9.935  -4.997  -5.607  0.00  0.00     0.065 H 
ATOM      9  H   LIG d   1       8.896  -3.756  -1.651  0.00  0.00     0.069 H 
ENDROOT
BRANCH   1  10
ATOM     10  C   LIG d   1      11.091  -7.810  -2.123  0.00  0.00     0.104 A 
ATOM     11  C   LIG d   1      10.448  -9.067  -1.996  0.00  0.00     0.027 A 
ATOM     12  C   LIG d   1      11.350  -9.936  -1.460  0.00  0.00     0.031 A 
ATOM     13  N   LIG d   1      12.501  -9.262  -1.254  0.00  0.00    -0.283 N 
ATOM     14  H   LIG d   1      11.175 -10.979  -1.239  0.00  0.00     0.083 H 
ATOM     15  H   LIG d   1      13.316  -9.634  -0.881  0.00  0.00     0.188 HD
ATOM     16  N   LIG d   1      12.319  -7.938  -1.669  0.00  0.00    -0.173 NA
BRANCH  11  17
ATOM     17  C   LIG d   1       9.050  -9.380  -2.381  0.00  0.00    -0.014 A 
ATOM     18  C   LIG d   1       8.716  -9.545  -3.724  0.00  0.00    -0.051 A 
ATOM     19  C   LIG d   1       7.416  -9.836  -4.079  0.00  0.00    -0.019 A 
ATOM     20  H   LIG d   1       9.475  -9.446  -4.485  0.00  0.00     0.062 H 
ATOM     21  C   LIG d   1       6.440  -9.966  -3.101  0.00  0.00     0.120 A 
ATOM     22  H   LIG d   1       7.156  -9.965  -5.119  0.00  0.00     0.065 H 
ATOM     23  C   LIG d   1       6.768  -9.796  -1.762  0.00  0.00    -0.019 A 
ATOM     24  C   LIG d   1       8.068  -9.509  -1.401  0.00  0.00    -0.051 A 
ATOM     25  H   LIG d   1       6.006  -9.891  -1.004  0.00  0.00     0.065 H 
ATOM     26  H   LIG d   1       8.324  -9.383  -0.359  0.00  0.00     0.062 H 
BRANCH  21  27
ATOM     27  O   LIG d   1       5.159 -10.253  -3.453  0.00  0.00    -0.495 OA
BRANCH  27  28
ATOM     28  C   LIG d   1       4.596  -9.494  -4.525  0.00  0.00     0.079 C 
ATOM     29  H   LIG d   1       4.076 -10.163  -5.211  0.00  0.00     0.066 H 
ATOM     30  H   LIG d   1       3.891  -8.765  -4.124  0.00  0.00     0.066 H 
ATOM     31  H   LIG d   1       5.391  -8.974  -5.058  0.00  0.00     0.066 H 
ENDBRANCH  27  28
ENDBRANCH  21  27
ENDBRANCH  11  17
ENDBRANCH   1  10
BRANCH   6  32
ATOM     32  O   LIG d   1       9.888  -5.866  -0.463  0.00  0.00    -0.506 OA
ATOM     33  H   LIG d   1      10.370  -5.206   0.053  0.00  0.00     0.292 HD
ENDBRANCH   6  32
BRANCH   4  34
ATOM     34  O   LIG d   1       8.802  -3.116  -4.185  0.00  0.00    -0.487 OA
BRANCH  34  35
ATOM     35  C   LIG d   1       7.433  -3.186  -4.593  0.00  0.00     0.115 C 
ATOM     36  H   LIG d   1       7.365  -3.008  -5.666  0.00  0.00     0.075 H 
ATOM     37  H   LIG d   1       7.036  -4.174  -4.363  0.00  0.00     0.075 H 
BRANCH  35  38
ATOM     38  C   LIG d   1       6.636  -2.140  -3.858  0.00  0.00    -0.010 A 
ATOM     39  C   LIG d   1       5.404  -2.465  -3.320  0.00  0.00    -0.055 A 
ATOM     40  C   LIG d   1       4.671  -1.513  -2.642  0.00  0.00    -0.054 A 
ATOM     41  H   LIG d   1       5.017  -3.467  -3.428  0.00  0.00     0.062 H 
ATOM     42  C   LIG d   1       5.171  -0.218  -2.507  0.00  0.00    -0.026 A 
ATOM     43  H   LIG d   1       3.711  -1.770  -2.218  0.00  0.00     0.062 H 
ATOM     44  C   LIG d   1       6.412   0.106  -3.056  0.00  0.00    -0.054 A 
ATOM     45  C   LIG d   1       7.137  -0.857  -3.728  0.00  0.00    -0.055 A 
ATOM     46  H   LIG d   1       6.804   1.107  -2.956  0.00  0.00     0.062 H 
ATOM     47  H   LIG d   1       8.098  -0.607  -4.154  0.00  0.00     0.062 H 
BRANCH  42  48
ATOM     48  C   LIG d   1       4.388   0.808  -1.785  0.00  0.00    -0.062 C 
ATOM     49  C   LIG d   1       3.504   1.549  -2.438  0.00  0.00    -0.098 C 
ATOM     50  H   LIG d   1       2.932   2.297  -1.911  0.00  0.00     0.053 H 
ATOM     51  H   LIG d   1       3.355   1.403  -3.499  0.00  0.00     0.053 H 
ATOM     52  H   LIG d   1       4.537   0.954  -0.725  0.00  0.00     0.062 H 
ENDBRANCH  42  48
ENDBRANCH  35  38
ENDBRANCH  34  35
ENDBRANCH   4  34
TORSDOF 9
ENDMDL
MODEL 3
REMARK VINA RESULT:      -6.9      8.476     12.745
REMARK  9 active torsions:
REMARK  status: ('A' for Active; 'I' for Inactive)
REMARK    1  A    between atoms: C_1  and  O_2 
REMARK    2  A    between atoms: O_2  and  C_3 
REMARK    3  A    between atoms: C_6  and  C_9 
REMARK    4  A    between atoms: C_14  and  C_15 
REMARK    5  A    between atoms: C_18  and  O_22 
REMARK    6  A    between atoms: C_20  and  O_21 
REMARK    7  A    between atoms: O_22  and  C_23 
REMARK    8  A    between atoms: C_23  and  C_24 
REMARK    9  A    between atoms: C_27  and  C_30 
ROOT
ATOM      1  C   LIG d   1      10.502  -6.557  -1.983  0.00  0.00     0.044 A 
ATOM      2  C   LIG d   1       9.676  -5.599  -1.399  0.00  0.00    -0.045 A 
ATOM      3  C   LIG d   1       9.347  -4.457  -2.096  0.00  0.00    -0.019 A 
ATOM      4  C   LIG d   1       9.836  -4.257  -3.382  0.00  0.00     0.124 A 
ATOM      5  C   LIG d   1      10.657  -5.206  -3.970  0.00  0.00     0.022 A 
ATOM      6  C   LIG d   1      10.999  -6.354  -3.274  0.00  0.00     0.130 A 
ATOM      7  H   LIG d   1       9.295  -5.751  -0.400  0.00  0.00     0.063 H 
ATOM      8  H   LIG d   1       8.706  -3.714  -1.643  0.00  0.00     0.065 H 
ATOM      9  H   LIG d   1      11.036  -5.048  -4.969  0.00  0.00     0.069 H 
ENDROOT
BRANCH   1  10
ATOM     10  C   LIG d   1      10.859  -7.787  -1.235  0.00  0.00     0.104 A 
ATOM     11  C   LIG d   1      10.109  -8.990  -1.200  0.00  0.00     0.027 A 
ATOM     12  C   LIG d   1      10.783  -9.869  -0.407  0.00  0.00     0.031 A 
ATOM     13  N   LIG d   1      11.896  -9.252   0.041  0.00  0.00    -0.283 N 
ATOM     14  H   LIG d   1      10.480 -10.880  -0.176  0.00  0.00     0.083 H 
ATOM     15  H   LIG d   1      12.565  -9.643   0.626  0.00  0.00     0.188 HD
ATOM     16  N   LIG d   1      11.924  -7.954  -0.482  0.00  0.00    -0.173 NA
BRANCH  11  17
ATOM     17  C   LIG d   1       8.828  -9.247  -1.903  0.00  0.00    -0.014 A 
ATOM     18  C   LIG d   1       7.722  -9.709  -1.191  0.00  0.00    -0.051 A 
ATOM     19  C   LIG d   1       6.533  -9.948  -1.848  0.00  0.00    -0.019 A 
ATOM     20  H   LIG d   1       7.797  -9.879  -0.128  0.00  0.00     0.062 H 
ATOM     21  C   LIG d   1       6.436  -9.728  -3.214  0.00  0.00     0.120 A 
ATOM     22  H   LIG d   1       5.675 -10.305  -1.297  0.00  0.00     0.065 H 
ATOM     23  C   LIG d   1       7.538  -9.273  -3.927  0.00  0.00    -0.019 A 
ATOM     24  C   LIG d   1       8.729  -9.029  -3.276  0.00  0.00    -0.051 A 
ATOM     25  H   LIG d   1       7.461  -9.109  -4.991  0.00  0.00     0.065 H 
ATOM     26  H   LIG d   1       9.584  -8.670  -3.829  0.00  0.00     0.062 H 
BRANCH  21  27
ATOM     27  O   LIG d   1       5.263  -9.964  -3.859  0.00  0.00    -0.495 OA
BRANCH  27  28
ATOM     28  C   LIG d   1       4.848  -8.995  -4.824  0.00  0.00     0.079 C 
ATOM     29  H   LIG d   1       5.356  -8.049  -4.631  0.00  0.00     0.066 H 
ATOM     30  H   LIG d   1       5.102  -9.346  -5.824  0.00  0.00     0.066 H 
ATOM     31  H   LIG d   1       3.771  -8.850  -4.753  0.00  0.00     0.066 H 
ENDBRANCH  27  28
ENDBRANCH  21  27
ENDBRANCH  11  17
ENDBRANCH   1  10
BRANCH   6  32
ATOM     32  O   LIG d   1      11.809  -7.282  -3.847  0.00  0.00    -0.506 OA
ATOM     33  H   LIG d   1      11.610  -7.457  -4.777  0.00  0.00     0.292 HD
ENDBRANCH   6  32
BRANCH   4  34
ATOM     34  O   LIG d   1       9.506  -3.130  -4.064  0.00  0.00    -0.487 OA
BRANCH  34  35
ATOM     35  C   LIG d   1       8.463  -3.240  -5.035  0.00  0.00     0.115 C 
ATOM     36  H   LIG d   1       8.678  -2.582  -5.876  0.00  0.00     0.075 H 
ATOM     37  H   LIG d   1       8.402  -4.270  -5.386  0.00  0.00     0.075 H 
BRANCH  35  38
ATOM     38  C   LIG d   1       7.151  -2.843  -4.410  0.00  0.00    -0.010 A 
ATOM     39  C   LIG d   1       5.994  -3.525  -4.744  0.00  0.00    -0.055 A 
ATOM     40  C   LIG d   1       4.791  -3.171  -4.172  0.00  0.00    -0.054 A 
ATOM     41  H   LIG d   1       6.036  -4.340  -5.451  0.00  0.00     0.062 H 
ATOM     42  C   LIG d   1       4.739  -2.115  -3.261  0.00  0.00    -0.026 A 
ATOM     43  H   LIG d   1       3.890  -3.707  -4.430  0.00  0.00     0.062 H 
ATOM     44  C   LIG d   1       5.907  -1.427  -2.932  0.00  0.00    -0.054 A 
ATOM     45  C   LIG d   1       7.106  -1.795  -3.508  0.00  0.00    -0.055 A 
ATOM     46  H   LIG d   1       5.874  -0.608  -2.228  0.00  0.00     0.062 H 
ATOM     47  H   LIG d   1       8.011  -1.264  -3.254  0.00  0.00     0.062 H 
BRANCH  42  48
ATOM     48  C   LIG d   1       3.452  -1.727  -2.647  0.00  0.00    -0.062 C 
ATOM     49  C   LIG d   1       2.742  -0.734  -3.166  0.00  0.00    -0.098 C 
ATOM     50  H   LIG d   1       1.802  -0.451  -2.717  0.00  0.00     0.053 H 
ATOM     51  H   LIG d   1       3.106  -0.208  -4.037  0.00  0.00     0.053 H 
ATOM     52  H   LIG d   1       3.088  -2.253  -1.776  0.00  0.00     0.062 H 
ENDBRANCH  42  48
ENDBRANCH  35  38
ENDBRANCH  34  35
ENDBRANCH   4  34
TORSDOF 9
ENDMDL
MODEL 4
REMARK VINA RESULT:      -6.7      7.449      9.379
REMARK  9 active torsions:
REMARK  status: ('A' for Active; 'I' for Inactive)
REMARK    1  A    between atoms: C_1  and  O_2 
REMARK    2  A    between atoms: O_2  and  C_3 
REMARK    3  A    between atoms: C_6  and  C_9 
REMARK    4  A    between atoms: C_14  and  C_15 
REMARK    5  A    between atoms: C_18  and  O_22 
REMARK    6  A    between atoms: C_20  and  O_21 
REMARK    7  A    between atoms: O_22  and  C_23 
REMARK    8  A    between atoms: C_23  and  C_24 
REMARK    9  A    between atoms: C_27  and  C_30 
ROOT
ATOM      1  C   LIG d   1       5.462  -2.566  -4.109  0.00  0.00     0.044 A 
ATOM      2  C   LIG d   1       4.722  -3.542  -4.774  0.00  0.00    -0.045 A 
ATOM      3  C   LIG d   1       5.361  -4.628  -5.333  0.00  0.00    -0.019 A 
ATOM      4  C   LIG d   1       6.742  -4.753  -5.237  0.00  0.00     0.124 A 
ATOM      5  C   LIG d   1       7.485  -3.786  -4.576  0.00  0.00     0.022 A 
ATOM      6  C   LIG d   1       6.852  -2.689  -4.017  0.00  0.00     0.130 A 
ATOM      7  H   LIG d   1       3.649  -3.447  -4.851  0.00  0.00     0.063 H 
ATOM      8  H   LIG d   1       4.787  -5.385  -5.848  0.00  0.00     0.065 H 
ATOM      9  H   LIG d   1       8.557  -3.886  -4.503  0.00  0.00     0.069 H 
ENDROOT
BRANCH   1  10
ATOM     10  C   LIG d   1       4.777  -1.396  -3.507  0.00  0.00     0.104 A 
ATOM     11  C   LIG d   1       4.172  -0.328  -4.214  0.00  0.00     0.027 A 
ATOM     12  C   LIG d   1       3.654   0.532  -3.293  0.00  0.00     0.031 A 
ATOM     13  N   LIG d   1       3.924   0.036  -2.068  0.00  0.00    -0.283 N 
ATOM     14  H   LIG d   1       3.123   1.449  -3.505  0.00  0.00     0.083 H 
ATOM     15  H   LIG d   1       3.672   0.443  -1.223  0.00  0.00     0.188 HD
ATOM     16  N   LIG d   1       4.628  -1.163  -2.221  0.00  0.00    -0.173 NA
BRANCH  11  17
ATOM     17  C   LIG d   1       4.108  -0.175  -5.689  0.00  0.00    -0.014 A 
ATOM     18  C   LIG d   1       5.266  -0.300  -6.455  0.00  0.00    -0.051 A 
ATOM     19  C   LIG d   1       5.203  -0.158  -7.825  0.00  0.00    -0.019 A 
ATOM     20  H   LIG d   1       6.210  -0.509  -5.975  0.00  0.00     0.062 H 
ATOM     21  C   LIG d   1       3.989   0.109  -8.442  0.00  0.00     0.120 A 
ATOM     22  H   LIG d   1       6.100  -0.255  -8.419  0.00  0.00     0.065 H 
ATOM     23  C   LIG d   1       2.835   0.240  -7.681  0.00  0.00    -0.019 A 
ATOM     24  C   LIG d   1       2.890   0.094  -6.311  0.00  0.00    -0.051 A 
ATOM     25  H   LIG d   1       1.892   0.454  -8.164  0.00  0.00     0.065 H 
ATOM     26  H   LIG d   1       1.991   0.191  -5.720  0.00  0.00     0.062 H 
BRANCH  21  27
ATOM     27  O   LIG d   1       3.930   0.249  -9.793  0.00  0.00    -0.495 OA
BRANCH  27  28
ATOM     28  C   LIG d   1       3.943   1.582 -10.307  0.00  0.00     0.079 C 
ATOM     29  H   LIG d   1       4.906   2.046 -10.088  0.00  0.00     0.066 H 
ATOM     30  H   LIG d   1       3.788   1.558 -11.385  0.00  0.00     0.066 H 
ATOM     31  H   LIG d   1       3.147   2.160  -9.838  0.00  0.00     0.066 H 
ENDBRANCH  27  28
ENDBRANCH  21  27
ENDBRANCH  11  17
ENDBRANCH   1  10
BRANCH   6  32
ATOM     32  O   LIG d   1       7.579  -1.737  -3.375  0.00  0.00    -0.506 OA
ATOM     33  H   LIG d   1       8.500  -1.985  -3.218  0.00  0.00     0.292 HD
ENDBRANCH   6  32
BRANCH   4  34
ATOM     34  O   LIG d   1       7.365  -5.826  -5.789  0.00  0.00    -0.487 OA
BRANCH  34  35
ATOM     35  C   LIG d   1       6.533  -6.824  -6.386  0.00  0.00     0.115 C 
ATOM     36  H   LIG d   1       5.601  -6.369  -6.719  0.00  0.00     0.075 H 
ATOM     37  H   LIG d   1       7.049  -7.262  -7.240  0.00  0.00     0.075 H 
BRANCH  35  38
ATOM     38  C   LIG d   1       6.234  -7.899  -5.374  0.00  0.00    -0.010 A 
ATOM     39  C   LIG d   1       4.958  -8.428  -5.286  0.00  0.00    -0.055 A 
ATOM     40  C   LIG d   1       4.679  -9.415  -4.366  0.00  0.00    -0.054 A 
ATOM     41  H   LIG d   1       4.181  -8.068  -5.944  0.00  0.00     0.062 H 
ATOM     42  C   LIG d   1       5.684  -9.876  -3.514  0.00  0.00    -0.026 A 
ATOM     43  H   LIG d   1       3.683  -9.830  -4.302  0.00  0.00     0.062 H 
ATOM     44  C   LIG d   1       6.967  -9.336  -3.603  0.00  0.00    -0.054 A 
ATOM     45  C   LIG d   1       7.235  -8.351  -4.532  0.00  0.00    -0.055 A 
ATOM     46  H   LIG d   1       7.750  -9.688  -2.947  0.00  0.00     0.062 H 
ATOM     47  H   LIG d   1       8.228  -7.932  -4.602  0.00  0.00     0.062 H 
BRANCH  42  48
ATOM     48  C   LIG d   1       5.390 -10.931  -2.522  0.00  0.00    -0.062 C 
ATOM     49  C   LIG d   1       6.060 -10.973  -1.379  0.00  0.00    -0.098 C 
ATOM     50  H   LIG d   1       5.845 -11.744  -0.655  0.00  0.00     0.053 H 
ATOM     51  H   LIG d   1       6.823 -10.236  -1.173  0.00  0.00     0.053 H 
ATOM     52  H   LIG d   1       4.627 -11.669  -2.728  0.00  0.00     0.062 H 
ENDBRANCH  42  48
ENDBRANCH  35  38
ENDBRANCH  34  35
ENDBRANCH   4  34
TORSDOF 9
ENDMDL
MODEL 5
REMARK VINA RESULT:      -6.6      5.260      8.366
REMARK  9 active torsions:
REMARK  status: ('A' for Active; 'I' for Inactive)
REMARK    1  A    between atoms: C_1  and  O_2 
REMARK    2  A    between atoms: O_2  and  C_3 
REMARK    3  A    between atoms: C_6  and  C_9 
REMARK    4  A    between atoms: C_14  and  C_15 
REMARK    5  A    between atoms: C_18  and  O_22 
REMARK    6  A    between atoms: C_20  and  O_21 
REMARK    7  A    between atoms: O_22  and  C_23 
REMARK    8  A    between atoms: C_23  and  C_24 
REMARK    9  A    between atoms: C_27  and  C_30 
ROOT
ATOM      1  C   LIG d   1       6.069  -2.267  -3.737  0.00  0.00     0.044 A 
ATOM      2  C   LIG d   1       7.408  -2.624  -3.595  0.00  0.00    -0.045 A 
ATOM      3  C   LIG d   1       7.908  -3.710  -4.282  0.00  0.00    -0.019 A 
ATOM      4  C   LIG d   1       7.079  -4.451  -5.116  0.00  0.00     0.124 A 
ATOM      5  C   LIG d   1       5.745  -4.102  -5.262  0.00  0.00     0.022 A 
ATOM      6  C   LIG d   1       5.234  -3.017  -4.571  0.00  0.00     0.130 A 
ATOM      7  H   LIG d   1       8.055  -2.050  -2.948  0.00  0.00     0.063 H 
ATOM      8  H   LIG d   1       8.947  -3.986  -4.172  0.00  0.00     0.065 H 
ATOM      9  H   LIG d   1       5.104  -4.680  -5.911  0.00  0.00     0.069 H 
ENDROOT
BRANCH   1  10
ATOM     10  C   LIG d   1       5.529  -1.099  -2.999  0.00  0.00     0.104 A 
ATOM     11  C   LIG d   1       5.871   0.258  -3.219  0.00  0.00     0.027 A 
ATOM     12  C   LIG d   1       5.152   1.010  -2.340  0.00  0.00     0.031 A 
ATOM     13  N   LIG d   1       4.399   0.170  -1.598  0.00  0.00    -0.283 N 
ATOM     14  H   LIG d   1       5.179   2.086  -2.250  0.00  0.00     0.083 H 
ATOM     15  H   LIG d   1       3.786   0.432  -0.892  0.00  0.00     0.188 HD
ATOM     16  N   LIG d   1       4.651  -1.140  -2.021  0.00  0.00    -0.173 NA
BRANCH  11  17
ATOM     17  C   LIG d   1       6.833   0.769  -4.227  0.00  0.00    -0.014 A 
ATOM     18  C   LIG d   1       7.796   1.707  -3.860  0.00  0.00    -0.051 A 
ATOM     19  C   LIG d   1       8.688   2.180  -4.799  0.00  0.00    -0.019 A 
ATOM     20  H   LIG d   1       7.844   2.062  -2.841  0.00  0.00     0.062 H 
ATOM     21  C   LIG d   1       8.629   1.724  -6.107  0.00  0.00     0.120 A 
ATOM     22  H   LIG d   1       9.436   2.907  -4.515  0.00  0.00     0.065 H 
ATOM     23  C   LIG d   1       7.667   0.794  -6.478  0.00  0.00    -0.019 A 
ATOM     24  C   LIG d   1       6.774   0.313  -5.543  0.00  0.00    -0.051 A 
ATOM     25  H   LIG d   1       7.619   0.444  -7.499  0.00  0.00     0.065 H 
ATOM     26  H   LIG d   1       6.030  -0.414  -5.829  0.00  0.00     0.062 H 
BRANCH  21  27
ATOM     27  O   LIG d   1       9.510   2.192  -7.031  0.00  0.00    -0.495 OA
BRANCH  27  28
ATOM     28  C   LIG d   1      10.251   3.363  -6.684  0.00  0.00     0.079 C 
ATOM     29  H   LIG d   1      10.991   3.568  -7.459  0.00  0.00     0.066 H 
ATOM     30  H   LIG d   1       9.573   4.211  -6.597  0.00  0.00     0.066 H 
ATOM     31  H   LIG d   1      10.757   3.203  -5.732  0.00  0.00     0.066 H 
ENDBRANCH  27  28
ENDBRANCH  21  27
ENDBRANCH  11  17
ENDBRANCH   1  10
BRANCH   6  32
ATOM     32  O   LIG d   1       3.925  -2.677  -4.709  0.00  0.00    -0.506 OA
ATOM     33  H   LIG d   1       3.782  -1.751  -4.944  0.00  0.00     0.292 HD
ENDBRANCH   6  32
BRANCH   4  34
ATOM     34  O   LIG d   1       7.578  -5.519  -5.791  0.00  0.00    -0.487 OA
BRANCH  34  35
ATOM     35  C   LIG d   1       6.633  -6.386  -6.424  0.00  0.00     0.115 C 
ATOM     36  H   LIG d   1       5.723  -5.830  -6.648  0.00  0.00     0.075 H 
ATOM     37  H   LIG d   1       7.060  -6.773  -7.349  0.00  0.00     0.075 H 
BRANCH  35  38
ATOM     38  C   LIG d   1       6.308  -7.533  -5.503  0.00  0.00    -0.010 A 
ATOM     39  C   LIG d   1       5.014  -8.019  -5.438  0.00  0.00    -0.055 A 
ATOM     40  C   LIG d   1       4.710  -9.072  -4.601  0.00  0.00    -0.054 A 
ATOM     41  H   LIG d   1       4.242  -7.576  -6.049  0.00  0.00     0.062 H 
ATOM     42  C   LIG d   1       5.709  -9.641  -3.810  0.00  0.00    -0.026 A 
ATOM     43  H   LIG d   1       3.700  -9.454  -4.556  0.00  0.00     0.062 H 
ATOM     44  C   LIG d   1       7.011  -9.143  -3.875  0.00  0.00    -0.054 A 
ATOM     45  C   LIG d   1       7.302  -8.093  -4.721  0.00  0.00    -0.055 A 
ATOM     46  H   LIG d   1       7.788  -9.579  -3.265  0.00  0.00     0.062 H 
ATOM     47  H   LIG d   1       8.309  -7.706  -4.772  0.00  0.00     0.062 H 
BRANCH  42  48
ATOM     48  C   LIG d   1       5.389 -10.767  -2.907  0.00  0.00    -0.062 C 
ATOM     49  C   LIG d   1       5.917 -10.813  -1.692  0.00  0.00    -0.098 C 
ATOM     50  H   LIG d   1       5.683 -11.635  -1.033  0.00  0.00     0.053 H 
ATOM     51  H   LIG d   1       6.582 -10.028  -1.361  0.00  0.00     0.053 H 
ATOM     52  H   LIG d   1       4.724 -11.552  -3.237  0.00  0.00     0.062 H 
ENDBRANCH  42  48
ENDBRANCH  35  38
ENDBRANCH  34  35
ENDBRANCH   4  34
TORSDOF 9
ENDMDL
MODEL 6
REMARK VINA RESULT:      -6.6      9.050     14.087
REMARK  9 active torsions:
REMARK  status: ('A' for Active; 'I' for Inactive)
REMARK    1  A    between atoms: C_1  and  O_2 
REMARK    2  A    between atoms: O_2  and  C_3 
REMARK    3  A    between atoms: C_6  and  C_9 
REMARK    4  A    between atoms: C_14  and  C_15 
REMARK    5  A    between atoms: C_18  and  O_22 
REMARK    6  A    between atoms: C_20  and  O_21 
REMARK    7  A    between atoms: O_22  and  C_23 
REMARK    8  A    between atoms: C_23  and  C_24 
REMARK    9  A    between atoms: C_27  and  C_30 
ROOT
ATOM      1  C   LIG d   1       3.719  -6.104  -9.262  0.00  0.00     0.044 A 
ATOM      2  C   LIG d   1       3.547  -4.761  -8.933  0.00  0.00    -0.045 A 
ATOM      3  C   LIG d   1       3.750  -4.338  -7.636  0.00  0.00    -0.019 A 
ATOM      4  C   LIG d   1       4.127  -5.247  -6.656  0.00  0.00     0.124 A 
ATOM      5  C   LIG d   1       4.301  -6.585  -6.975  0.00  0.00     0.022 A 
ATOM      6  C   LIG d   1       4.092  -7.020  -8.273  0.00  0.00     0.130 A 
ATOM      7  H   LIG d   1       3.254  -4.052  -9.693  0.00  0.00     0.063 H 
ATOM      8  H   LIG d   1       3.617  -3.296  -7.382  0.00  0.00     0.065 H 
ATOM      9  H   LIG d   1       4.594  -7.289  -6.211  0.00  0.00     0.069 H 
ENDROOT
BRANCH   1  10
ATOM     10  C   LIG d   1       3.500  -6.561 -10.655  0.00  0.00     0.104 A 
ATOM     11  C   LIG d   1       2.245  -6.714 -11.296  0.00  0.00     0.027 A 
ATOM     12  C   LIG d   1       2.484  -7.147 -12.566  0.00  0.00     0.031 A 
ATOM     13  N   LIG d   1       3.820  -7.267 -12.717  0.00  0.00    -0.283 N 
ATOM     14  H   LIG d   1       1.738  -7.357 -13.318  0.00  0.00     0.083 H 
ATOM     15  H   LIG d   1       4.275  -7.557 -13.523  0.00  0.00     0.188 HD
ATOM     16  N   LIG d   1       4.435  -6.902 -11.514  0.00  0.00    -0.173 NA
BRANCH  11  17
ATOM     17  C   LIG d   1       0.914  -6.446 -10.697  0.00  0.00    -0.014 A 
ATOM     18  C   LIG d   1       0.407  -5.148 -10.676  0.00  0.00    -0.051 A 
ATOM     19  C   LIG d   1      -0.830  -4.903 -10.118  0.00  0.00    -0.019 A 
ATOM     20  H   LIG d   1       0.981  -4.337 -11.097  0.00  0.00     0.062 H 
ATOM     21  C   LIG d   1      -1.570  -5.945  -9.579  0.00  0.00     0.120 A 
ATOM     22  H   LIG d   1      -1.225  -3.897 -10.102  0.00  0.00     0.065 H 
ATOM     23  C   LIG d   1      -1.064  -7.239  -9.593  0.00  0.00    -0.019 A 
ATOM     24  C   LIG d   1       0.170  -7.492 -10.153  0.00  0.00    -0.051 A 
ATOM     25  H   LIG d   1      -1.639  -8.047  -9.167  0.00  0.00     0.065 H 
ATOM     26  H   LIG d   1       0.561  -8.498 -10.169  0.00  0.00     0.062 H 
BRANCH  21  27
ATOM     27  O   LIG d   1      -2.789  -5.701  -9.030  0.00  0.00    -0.495 OA
BRANCH  27  28
ATOM     28  C   LIG d   1      -3.788  -5.149  -9.890  0.00  0.00     0.079 C 
ATOM     29  H   LIG d   1      -3.721  -5.618 -10.872  0.00  0.00     0.066 H 
ATOM     30  H   LIG d   1      -4.775  -5.333  -9.467  0.00  0.00     0.066 H 
ATOM     31  H   LIG d   1      -3.629  -4.076  -9.989  0.00  0.00     0.066 H 
ENDBRANCH  27  28
ENDBRANCH  21  27
ENDBRANCH  11  17
ENDBRANCH   1  10
BRANCH   6  32
ATOM     32  O   LIG d   1       4.256  -8.332  -8.587  0.00  0.00    -0.506 OA
ATOM     33  H   LIG d   1       4.247  -8.923  -7.822  0.00  0.00     0.292 HD
ENDBRANCH   6  32
BRANCH   4  34
ATOM     34  O   LIG d   1       4.327  -4.824  -5.380  0.00  0.00    -0.487 OA
BRANCH  34  35
ATOM     35  C   LIG d   1       5.568  -4.172  -5.100  0.00  0.00     0.115 C 
ATOM     36  H   LIG d   1       6.240  -4.869  -4.599  0.00  0.00     0.075 H 
ATOM     37  H   LIG d   1       6.021  -3.838  -6.033  0.00  0.00     0.075 H 
BRANCH  35  38
ATOM     38  C   LIG d   1       5.320  -2.983  -4.208  0.00  0.00    -0.010 A 
ATOM     39  C   LIG d   1       4.135  -2.887  -3.501  0.00  0.00    -0.055 A 
ATOM     40  C   LIG d   1       3.903  -1.805  -2.679  0.00  0.00    -0.054 A 
ATOM     41  H   LIG d   1       3.391  -3.665  -3.590  0.00  0.00     0.062 H 
ATOM     42  C   LIG d   1       4.865  -0.799  -2.568  0.00  0.00    -0.026 A 
ATOM     43  H   LIG d   1       2.979  -1.734  -2.124  0.00  0.00     0.062 H 
ATOM     44  C   LIG d   1       6.056  -0.898  -3.286  0.00  0.00    -0.054 A 
ATOM     45  C   LIG d   1       6.277  -1.990  -4.102  0.00  0.00    -0.055 A 
ATOM     46  H   LIG d   1       6.804  -0.123  -3.205  0.00  0.00     0.062 H 
ATOM     47  H   LIG d   1       7.199  -2.068  -4.659  0.00  0.00     0.062 H 
BRANCH  42  48
ATOM     48  C   LIG d   1       4.621   0.366  -1.692  0.00  0.00    -0.062 C 
ATOM     49  C   LIG d   1       3.856   1.364  -2.112  0.00  0.00    -0.098 C 
ATOM     50  H   LIG d   1       3.678   2.215  -1.472  0.00  0.00     0.053 H 
ATOM     51  H   LIG d   1       3.410   1.325  -3.096  0.00  0.00     0.053 H 
ATOM     52  H   LIG d   1       5.067   0.405  -0.708  0.00  0.00     0.062 H 
ENDBRANCH  42  48
ENDBRANCH  35  38
ENDBRANCH  34  35
ENDBRANCH   4  34
TORSDOF 9
ENDMDL
MODEL 7
REMARK VINA RESULT:      -6.6      6.075      9.435
REMARK  9 active torsions:
REMARK  status: ('A' for Active; 'I' for Inactive)
REMARK    1  A    between atoms: C_1  and  O_2 
REMARK    2  A    between atoms: O_2  and  C_3 
REMARK    3  A    between atoms: C_6  and  C_9 
REMARK    4  A    between atoms: C_14  and  C_15 
REMARK    5  A    between atoms: C_18  and  O_22 
REMARK    6  A    between atoms: C_20  and  O_21 
REMARK    7  A    between atoms: O_22  and  C_23 
REMARK    8  A    between atoms: C_23  and  C_24 
REMARK    9  A    between atoms: C_27  and  C_30 
ROOT
ATOM      1  C   LIG d   1       8.347  -0.777  -6.840  0.00  0.00     0.044 A 
ATOM      2  C   LIG d   1       7.617  -1.299  -7.905  0.00  0.00    -0.045 A 
ATOM      3  C   LIG d   1       6.957  -0.451  -8.769  0.00  0.00    -0.019 A 
ATOM      4  C   LIG d   1       7.017   0.924  -8.579  0.00  0.00     0.124 A 
ATOM      5  C   LIG d   1       7.742   1.452  -7.522  0.00  0.00     0.022 A 
ATOM      6  C   LIG d   1       8.403   0.607  -6.646  0.00  0.00     0.130 A 
ATOM      7  H   LIG d   1       7.569  -2.367  -8.055  0.00  0.00     0.063 H 
ATOM      8  H   LIG d   1       6.391  -0.857  -9.595  0.00  0.00     0.065 H 
ATOM      9  H   LIG d   1       7.786   2.521  -7.377  0.00  0.00     0.069 H 
ENDROOT
BRANCH   1  10
ATOM     10  C   LIG d   1       9.058  -1.687  -5.909  0.00  0.00     0.104 A 
ATOM     11  C   LIG d   1       8.493  -2.341  -4.786  0.00  0.00     0.027 A 
ATOM     12  C   LIG d   1       9.477  -3.084  -4.207  0.00  0.00     0.031 A 
ATOM     13  N   LIG d   1      10.606  -2.904  -4.923  0.00  0.00    -0.283 N 
ATOM     14  H   LIG d   1       9.372  -3.707  -3.330  0.00  0.00     0.083 H 
ATOM     15  H   LIG d   1      11.466  -3.314  -4.738  0.00  0.00     0.188 HD
ATOM     16  N   LIG d   1      10.327  -2.027  -5.977  0.00  0.00    -0.173 NA
BRANCH  11  17
ATOM     17  C   LIG d   1       7.085  -2.240  -4.328  0.00  0.00    -0.014 A 
ATOM     18  C   LIG d   1       6.137  -3.155  -4.781  0.00  0.00    -0.051 A 
ATOM     19  C   LIG d   1       4.829  -3.058  -4.353  0.00  0.00    -0.019 A 
ATOM     20  H   LIG d   1       6.425  -3.939  -5.465  0.00  0.00     0.062 H 
ATOM     21  C   LIG d   1       4.457  -2.052  -3.473  0.00  0.00     0.120 A 
ATOM     22  H   LIG d   1       4.093  -3.768  -4.703  0.00  0.00     0.065 H 
ATOM     23  C   LIG d   1       5.399  -1.136  -3.025  0.00  0.00    -0.019 A 
ATOM     24  C   LIG d   1       6.709  -1.229  -3.445  0.00  0.00    -0.051 A 
ATOM     25  H   LIG d   1       5.106  -0.350  -2.344  0.00  0.00     0.065 H 
ATOM     26  H   LIG d   1       7.443  -0.520  -3.092  0.00  0.00     0.062 H 
BRANCH  21  27
ATOM     27  O   LIG d   1       3.168  -1.959  -3.052  0.00  0.00    -0.495 OA
BRANCH  27  28
ATOM     28  C   LIG d   1       2.576  -0.659  -3.062  0.00  0.00     0.079 C 
ATOM     29  H   LIG d   1       1.579  -0.717  -3.501  0.00  0.00     0.066 H 
ATOM     30  H   LIG d   1       2.502  -0.284  -2.042  0.00  0.00     0.066 H 
ATOM     31  H   LIG d   1       3.194   0.017  -3.653  0.00  0.00     0.066 H 
ENDBRANCH  27  28
ENDBRANCH  21  27
ENDBRANCH  11  17
ENDBRANCH   1  10
BRANCH   6  32
ATOM     32  O   LIG d   1       9.108   1.122  -5.605  0.00  0.00    -0.506 OA
ATOM     33  H   LIG d   1       8.732   0.923  -4.738  0.00  0.00     0.292 HD
ENDBRANCH   6  32
BRANCH   4  34
ATOM     34  O   LIG d   1       6.364   1.755  -9.434  0.00  0.00    -0.487 OA
BRANCH  34  35
ATOM     35  C   LIG d   1       5.047   2.165  -9.062  0.00  0.00     0.115 C 
ATOM     36  H   LIG d   1       4.956   2.157  -7.976  0.00  0.00     0.075 H 
ATOM     37  H   LIG d   1       4.862   3.173  -9.434  0.00  0.00     0.075 H 
BRANCH  35  38
ATOM     38  C   LIG d   1       4.038   1.217  -9.657  0.00  0.00    -0.010 A 
ATOM     39  C   LIG d   1       2.971   0.779  -8.894  0.00  0.00    -0.055 A 
ATOM     40  C   LIG d   1       2.041  -0.085  -9.434  0.00  0.00    -0.054 A 
ATOM     41  H   LIG d   1       2.863   1.118  -7.875  0.00  0.00     0.062 H 
ATOM     42  C   LIG d   1       2.185  -0.525 -10.751  0.00  0.00    -0.026 A 
ATOM     43  H   LIG d   1       1.206  -0.423  -8.838  0.00  0.00     0.062 H 
ATOM     44  C   LIG d   1       3.266  -0.084 -11.514  0.00  0.00    -0.054 A 
ATOM     45  C   LIG d   1       4.186   0.784 -10.963  0.00  0.00    -0.055 A 
ATOM     46  H   LIG d   1       3.383  -0.421 -12.533  0.00  0.00     0.062 H 
ATOM     47  H   LIG d   1       5.024   1.126 -11.552  0.00  0.00     0.062 H 
BRANCH  42  48
ATOM     48  C   LIG d   1       1.195  -1.455 -11.334  0.00  0.00    -0.062 C 
ATOM     49  C   LIG d   1       1.391  -1.960 -12.544  0.00  0.00    -0.098 C 
ATOM     50  H   LIG d   1       0.668  -2.639 -12.969  0.00  0.00     0.053 H 
ATOM     51  H   LIG d   1       2.275  -1.691 -13.105  0.00  0.00     0.053 H 
ATOM     52  H   LIG d   1       0.311  -1.724 -10.773  0.00  0.00     0.062 H 
ENDBRANCH  42  48
ENDBRANCH  35  38
ENDBRANCH  34  35
ENDBRANCH   4  34
TORSDOF 9
ENDMDL
MODEL 8
REMARK VINA RESULT:      -6.5      7.972     10.844
REMARK  9 active torsions:
REMARK  status: ('A' for Active; 'I' for Inactive)
REMARK    1  A    between atoms: C_1  and  O_2 
REMARK    2  A    between atoms: O_2  and  C_3 
REMARK    3  A    between atoms: C_6  and  C_9 
REMARK    4  A    between atoms: C_14  and  C_15 
REMARK    5  A    between atoms: C_18  and  O_22 
REMARK    6  A    between atoms: C_20  and  O_21 
REMARK    7  A    between atoms: O_22  and  C_23 
REMARK    8  A    between atoms: C_23  and  C_24 
REMARK    9  A    between atoms: C_27  and  C_30 
ROOT
ATOM      1  C   LIG d   1       4.513  -4.637  -8.795  0.00  0.00     0.044 A 
ATOM      2  C   LIG d   1       3.677  -4.676  -7.681  0.00  0.00    -0.045 A 
ATOM      3  C   LIG d   1       4.217  -4.632  -6.413  0.00  0.00    -0.019 A 
ATOM      4  C   LIG d   1       5.594  -4.548  -6.242  0.00  0.00     0.124 A 
ATOM      5  C   LIG d   1       6.432  -4.508  -7.346  0.00  0.00     0.022 A 
ATOM      6  C   LIG d   1       5.899  -4.558  -8.623  0.00  0.00     0.130 A 
ATOM      7  H   LIG d   1       2.607  -4.742  -7.810  0.00  0.00     0.063 H 
ATOM      8  H   LIG d   1       3.568  -4.662  -5.550  0.00  0.00     0.065 H 
ATOM      9  H   LIG d   1       7.501  -4.442  -7.210  0.00  0.00     0.069 H 
ENDROOT
BRANCH   1  10
ATOM     10  C   LIG d   1       3.935  -4.685 -10.160  0.00  0.00     0.104 A 
ATOM     11  C   LIG d   1       3.355  -3.598 -10.860  0.00  0.00     0.027 A 
ATOM     12  C   LIG d   1       2.954  -4.061 -12.076  0.00  0.00     0.031 A 
ATOM     13  N   LIG d   1       3.258  -5.374 -12.139  0.00  0.00    -0.283 N 
ATOM     14  H   LIG d   1       2.476  -3.481 -12.852  0.00  0.00     0.083 H 
ATOM     15  H   LIG d   1       3.086  -5.960 -12.893  0.00  0.00     0.188 HD
ATOM     16  N   LIG d   1       3.865  -5.746 -10.934  0.00  0.00    -0.173 NA
BRANCH  11  17
ATOM     17  C   LIG d   1       3.215  -2.207 -10.361  0.00  0.00    -0.014 A 
ATOM     18  C   LIG d   1       4.323  -1.362 -10.331  0.00  0.00    -0.051 A 
ATOM     19  C   LIG d   1       4.190  -0.070  -9.866  0.00  0.00    -0.019 A 
ATOM     20  H   LIG d   1       5.284  -1.718 -10.671  0.00  0.00     0.062 H 
ATOM     21  C   LIG d   1       2.955   0.389  -9.430  0.00  0.00     0.120 A 
ATOM     22  H   LIG d   1       5.048   0.586  -9.843  0.00  0.00     0.065 H 
ATOM     23  C   LIG d   1       1.851  -0.453  -9.454  0.00  0.00    -0.019 A 
ATOM     24  C   LIG d   1       1.976  -1.744  -9.921  0.00  0.00    -0.051 A 
ATOM     25  H   LIG d   1       0.893  -0.095  -9.108  0.00  0.00     0.065 H 
ATOM     26  H   LIG d   1       1.117  -2.397  -9.944  0.00  0.00     0.062 H 
BRANCH  21  27
ATOM     27  O   LIG d   1       2.827   1.663  -8.973  0.00  0.00    -0.495 OA
BRANCH  27  28
ATOM     28  C   LIG d   1       3.831   2.598  -9.373  0.00  0.00     0.079 C 
ATOM     29  H   LIG d   1       4.313   3.013  -8.487  0.00  0.00     0.066 H 
ATOM     30  H   LIG d   1       4.574   2.094  -9.989  0.00  0.00     0.066 H 
ATOM     31  H   LIG d   1       3.370   3.403  -9.945  0.00  0.00     0.066 H 
ENDBRANCH  27  28
ENDBRANCH  21  27
ENDBRANCH  11  17
ENDBRANCH   1  10
BRANCH   6  32
ATOM     32  O   LIG d   1       6.719  -4.525  -9.705  0.00  0.00    -0.506 OA
ATOM     33  H   LIG d   1       6.844  -3.642 -10.077  0.00  0.00     0.292 HD
ENDBRANCH   6  32
BRANCH   4  34
ATOM     34  O   LIG d   1       6.119  -4.503  -4.990  0.00  0.00    -0.487 OA
BRANCH  34  35
ATOM     35  C   LIG d   1       7.066  -3.467  -4.720  0.00  0.00     0.115 C 
ATOM     36  H   LIG d   1       7.888  -3.870  -4.129  0.00  0.00     0.075 H 
ATOM     37  H   LIG d   1       7.453  -3.075  -5.661  0.00  0.00     0.075 H 
BRANCH  35  38
ATOM     38  C   LIG d   1       6.392  -2.358  -3.954  0.00  0.00    -0.010 A 
ATOM     39  C   LIG d   1       5.145  -2.568  -3.393  0.00  0.00    -0.055 A 
ATOM     40  C   LIG d   1       4.524  -1.559  -2.686  0.00  0.00    -0.054 A 
ATOM     41  H   LIG d   1       4.658  -3.525  -3.506  0.00  0.00     0.062 H 
ATOM     42  C   LIG d   1       5.153  -0.322  -2.545  0.00  0.00    -0.026 A 
ATOM     43  H   LIG d   1       3.552  -1.726  -2.245  0.00  0.00     0.062 H 
ATOM     44  C   LIG d   1       6.409  -0.114  -3.117  0.00  0.00    -0.054 A 
ATOM     45  C   LIG d   1       7.021  -1.134  -3.817  0.00  0.00    -0.055 A 
ATOM     46  H   LIG d   1       6.901   0.841  -3.011  0.00  0.00     0.062 H 
ATOM     47  H   LIG d   1       7.992  -0.974  -4.261  0.00  0.00     0.062 H 
BRANCH  42  48
ATOM     48  C   LIG d   1       4.492   0.765  -1.792  0.00  0.00    -0.062 C 
ATOM     49  C   LIG d   1       3.575   1.518  -2.383  0.00  0.00    -0.098 C 
ATOM     50  H   LIG d   1       3.092   2.312  -1.833  0.00  0.00     0.053 H 
ATOM     51  H   LIG d   1       3.311   1.339  -3.415  0.00  0.00     0.053 H 
ATOM     52  H   LIG d   1       4.755   0.945  -0.760  0.00  0.00     0.062 H 
ENDBRANCH  42  48
ENDBRANCH  35  38
ENDBRANCH  34  35
ENDBRANCH   4  34
TORSDOF 9
ENDMDL
MODEL 9
REMARK VINA RESULT:      -6.3      3.798      9.310
REMARK  9 active torsions:
REMARK  status: ('A' for Active; 'I' for Inactive)
REMARK    1  A    between atoms: C_1  and  O_2 
REMARK    2  A    between atoms: O_2  and  C_3 
REMARK    3  A    between atoms: C_6  and  C_9 
REMARK    4  A    between atoms: C_14  and  C_15 
REMARK    5  A    between atoms: C_18  and  O_22 
REMARK    6  A    between atoms: C_20  and  O_21 
REMARK    7  A    between atoms: O_22  and  C_23 
REMARK    8  A    between atoms: C_23  and  C_24 
REMARK    9  A    between atoms: C_27  and  C_30 
ROOT
ATOM      1  C   LIG d   1       6.861   0.349  -4.785  0.00  0.00     0.044 A 
ATOM      2  C   LIG d   1       7.785   0.283  -5.826  0.00  0.00    -0.045 A 
ATOM      3  C   LIG d   1       8.898   1.096  -5.813  0.00  0.00    -0.019 A 
ATOM      4  C   LIG d   1       9.102   1.983  -4.763  0.00  0.00     0.124 A 
ATOM      5  C   LIG d   1       8.189   2.055  -3.723  0.00  0.00     0.022 A 
ATOM      6  C   LIG d   1       7.065   1.246  -3.732  0.00  0.00     0.130 A 
ATOM      7  H   LIG d   1       7.629  -0.406  -6.644  0.00  0.00     0.063 H 
ATOM      8  H   LIG d   1       9.614   1.043  -6.621  0.00  0.00     0.065 H 
ATOM      9  H   LIG d   1       8.350   2.745  -2.908  0.00  0.00     0.069 H 
ENDROOT
BRANCH   1  10
ATOM     10  C   LIG d   1       5.663  -0.524  -4.797  0.00  0.00     0.104 A 
ATOM     11  C   LIG d   1       5.659  -1.937  -4.695  0.00  0.00     0.027 A 
ATOM     12  C   LIG d   1       4.361  -2.348  -4.741  0.00  0.00     0.031 A 
ATOM     13  N   LIG d   1       3.585  -1.252  -4.872  0.00  0.00    -0.283 N 
ATOM     14  H   LIG d   1       4.014  -3.369  -4.684  0.00  0.00     0.083 H 
ATOM     15  H   LIG d   1       2.617  -1.246  -4.930  0.00  0.00     0.188 HD
ATOM     16  N   LIG d   1       4.415  -0.125  -4.910  0.00  0.00    -0.173 NA
BRANCH  11  17
ATOM     17  C   LIG d   1       6.851  -2.811  -4.557  0.00  0.00    -0.014 A 
ATOM     18  C   LIG d   1       7.677  -2.694  -3.441  0.00  0.00    -0.051 A 
ATOM     19  C   LIG d   1       8.783  -3.507  -3.316  0.00  0.00    -0.019 A 
ATOM     20  H   LIG d   1       7.450  -1.968  -2.675  0.00  0.00     0.062 H 
ATOM     21  C   LIG d   1       9.075  -4.442  -4.300  0.00  0.00     0.120 A 
ATOM     22  H   LIG d   1       9.424  -3.418  -2.451  0.00  0.00     0.065 H 
ATOM     23  C   LIG d   1       8.258  -4.557  -5.416  0.00  0.00    -0.019 A 
ATOM     24  C   LIG d   1       7.147  -3.750  -5.545  0.00  0.00    -0.051 A 
ATOM     25  H   LIG d   1       8.490  -5.281  -6.183  0.00  0.00     0.065 H 
ATOM     26  H   LIG d   1       6.508  -3.843  -6.410  0.00  0.00     0.062 H 
BRANCH  21  27
ATOM     27  O   LIG d   1      10.167  -5.242  -4.174  0.00  0.00    -0.495 OA
BRANCH  27  28
ATOM     28  C   LIG d   1       9.941  -6.653  -4.197  0.00  0.00     0.079 C 
ATOM     29  H   LIG d   1       9.626  -6.954  -5.197  0.00  0.00     0.066 H 
ATOM     30  H   LIG d   1      10.861  -7.174  -3.934  0.00  0.00     0.066 H 
ATOM     31  H   LIG d   1       9.162  -6.908  -3.479  0.00  0.00     0.066 H 
ENDBRANCH  27  28
ENDBRANCH  21  27
ENDBRANCH  11  17
ENDBRANCH   1  10
BRANCH   6  32
ATOM     32  O   LIG d   1       6.165   1.320  -2.716  0.00  0.00    -0.506 OA
ATOM     33  H   LIG d   1       5.720   0.484  -2.524  0.00  0.00     0.292 HD
ENDBRANCH   6  32
BRANCH   4  34
ATOM     34  O   LIG d   1      10.202   2.781  -4.755  0.00  0.00    -0.487 OA
BRANCH  34  35
ATOM     35  C   LIG d   1       9.983   4.189  -4.867  0.00  0.00     0.115 C 
ATOM     36  H   LIG d   1      10.683   4.609  -5.589  0.00  0.00     0.075 H 
ATOM     37  H   LIG d   1       8.962   4.372  -5.203  0.00  0.00     0.075 H 
BRANCH  35  38
ATOM     38  C   LIG d   1      10.194   4.839  -3.525  0.00  0.00    -0.010 A 
ATOM     39  C   LIG d   1       9.585   6.048  -3.241  0.00  0.00    -0.055 A 
ATOM     40  C   LIG d   1       9.770   6.647  -2.012  0.00  0.00    -0.054 A 
ATOM     41  H   LIG d   1       8.959   6.522  -3.983  0.00  0.00     0.062 H 
ATOM     42  C   LIG d   1      10.582   6.034  -1.057  0.00  0.00    -0.026 A 
ATOM     43  H   LIG d   1       9.289   7.588  -1.791  0.00  0.00     0.062 H 
ATOM     44  C   LIG d   1      11.199   4.818  -1.350  0.00  0.00    -0.054 A 
ATOM     45  C   LIG d   1      11.001   4.227  -2.582  0.00  0.00    -0.055 A 
ATOM     46  H   LIG d   1      11.829   4.338  -0.615  0.00  0.00     0.062 H 
ATOM     47  H   LIG d   1      11.478   3.286  -2.810  0.00  0.00     0.062 H 
BRANCH  42  48
ATOM     48  C   LIG d   1      10.788   6.672   0.260  0.00  0.00    -0.062 C 
ATOM     49  C   LIG d   1      11.080   5.929   1.319  0.00  0.00    -0.098 C 
ATOM     50  H   LIG d   1      11.231   6.396   2.281  0.00  0.00     0.053 H 
ATOM     51  H   LIG d   1      11.166   4.857   1.219  0.00  0.00     0.053 H 
ATOM     52  H   LIG d   1      10.702   7.745   0.360  0.00  0.00     0.062 H 
ENDBRANCH  42  48
ENDBRANCH  35  38
ENDBRANCH  34  35
ENDBRANCH   4  34
TORSDOF 9
ENDMDL
