MODEL 1
REMARK VINA RESULT:      -7.0      0.000      0.000
REMARK  3 active torsions:
REMARK  status: ('A' for Active; 'I' for Inactive)
REMARK    1  A    between atoms: C_1  and  C_2 
REMARK    2  A    between atoms: C_2  and  N_3 
REMARK    3  A    between atoms: C_16  and  C_18 
ROOT
ATOM      1  N   LIG d   1       6.064  -2.302  -5.688  0.00  0.00     0.245 N 
ATOM      2  C   LIG d   1       6.130  -2.972  -6.994  0.00  0.00    -0.027 C 
ATOM      3  C   LIG d   1       6.213  -1.917  -8.106  0.00  0.00     0.015 C 
ATOM      4  C   LIG d   1       5.132  -0.894  -7.860  0.00  0.00    -0.008 A 
ATOM      5  C   LIG d   1       4.594   0.104  -8.757  0.00  0.00     0.004 A 
ATOM      6  C   LIG d   1       4.878   0.442 -10.084  0.00  0.00    -0.052 A 
ATOM      7  C   LIG d   1       4.152   1.469 -10.632  0.00  0.00    -0.061 A 
ATOM      8  C   LIG d   1       3.180   2.149  -9.916  0.00  0.00    -0.060 A 
ATOM      9  C   LIG d   1       2.878   1.836  -8.601  0.00  0.00    -0.038 A 
ATOM     10  C   LIG d   1       3.599   0.796  -8.018  0.00  0.00     0.047 A 
ATOM     11  N   LIG d   1       3.557   0.241  -6.772  0.00  0.00    -0.353 N 
ATOM     12  H   LIG d   1       2.850   0.624  -6.021  0.00  0.00     0.166 HD
ATOM     13  C   LIG d   1       4.477  -0.769  -6.684  0.00  0.00     0.074 A 
ATOM     14  C   LIG d   1       4.762  -1.644  -5.486  0.00  0.00     0.052 C 
ATOM     15  H   LIG d   1       3.989  -2.418  -5.373  0.00  0.00     0.097 H 
ATOM     16  H   LIG d   1       7.020  -3.616  -7.031  0.00  0.00     0.082 H 
ATOM     17  H   LIG d   1       5.228  -3.585  -7.137  0.00  0.00     0.082 H 
ATOM     18  H   LIG d   1       7.202  -1.436  -8.082  0.00  0.00     0.037 H 
ATOM     19  H   LIG d   1       6.064  -2.400  -9.082  0.00  0.00     0.037 H 
ATOM     20  H   LIG d   1       5.573  -0.027 -10.630  0.00  0.00     0.062 H 
ATOM     21  H   LIG d   1       4.318   1.751 -11.578  0.00  0.00     0.062 H 
ATOM     22  H   LIG d   1       2.689   2.886 -10.379  0.00  0.00     0.062 H 
ATOM     23  H   LIG d   1       2.170   2.348  -8.115  0.00  0.00     0.064 H 
ATOM     24  H   LIG d   1       6.838  -1.520  -5.676  0.00  0.00     0.204 HD
ENDROOT
BRANCH  14  25
ATOM     25  C   LIG d   1       4.811  -0.797  -4.240  0.00  0.00     0.079 A 
ATOM     26  C   LIG d   1       3.922  -1.037  -3.179  0.00  0.00     0.262 A 
ATOM     27  N   LIG d   1       3.986  -0.272  -2.071  0.00  0.00    -0.275 N 
ATOM     28  O   LIG d   1       3.102  -1.936  -3.256  0.00  0.00    -0.267 OA
ATOM     29  C   LIG d   1       4.890   0.722  -1.978  0.00  0.00     0.326 A 
ATOM     30  H   LIG d   1       3.293  -0.463  -1.239  0.00  0.00     0.173 HD
ATOM     31  N   LIG d   1       5.747   0.974  -2.985  0.00  0.00    -0.321 N 
ATOM     32  O   LIG d   1       4.931   1.401  -0.972  0.00  0.00    -0.247 OA
ATOM     33  C   LIG d   1       5.716   0.217  -4.130  0.00  0.00    -0.020 A 
ATOM     34  H   LIG d   1       6.476   1.791  -2.885  0.00  0.00     0.169 HD
ATOM     35  O   LIG d   1       6.577   0.473  -5.137  0.00  0.00    -0.861 OA
ENDBRANCH  14  25
BRANCH   1  36
ATOM     36  C   LIG d   1       6.353  -3.243  -4.599  0.00  0.00    -0.034 C 
ATOM     37  H   LIG d   1       6.257  -4.274  -4.969  0.00  0.00     0.081 H 
ATOM     38  H   LIG d   1       5.640  -3.082  -3.776  0.00  0.00     0.081 H 
BRANCH  36  39
ATOM     39  C   LIG d   1       7.777  -3.014  -4.091  0.00  0.00    -0.024 C 
ATOM     40  H   LIG d   1       8.490  -3.530  -4.751  0.00  0.00     0.028 H 
ATOM     41  H   LIG d   1       7.870  -3.412  -3.069  0.00  0.00     0.028 H 
ATOM     42  H   LIG d   1       7.997  -1.936  -4.086  0.00  0.00     0.028 H 
ENDBRANCH  36  39
ENDBRANCH   1  36
TORSDOF 3
ENDMDL
MODEL 2
REMARK VINA RESULT:      -6.9      1.902      3.623
REMARK  3 active torsions:
REMARK  status: ('A' for Active; 'I' for Inactive)
REMARK    1  A    between atoms: C_1  and  C_2 
REMARK    2  A    between atoms: C_2  and  N_3 
REMARK    3  A    between atoms: C_16  and  C_18 
ROOT
ATOM      1  N   LIG d   1       3.870  -0.599  -3.688  0.00  0.00     0.245 N 
ATOM      2  C   LIG d   1       2.789   0.366  -3.934  0.00  0.00    -0.027 C 
ATOM      3  C   LIG d   1       2.213   0.139  -5.338  0.00  0.00     0.015 C 
ATOM      4  C   LIG d   1       3.365   0.066  -6.309  0.00  0.00    -0.008 A 
ATOM      5  C   LIG d   1       3.356   0.173  -7.751  0.00  0.00     0.004 A 
ATOM      6  C   LIG d   1       2.333   0.369  -8.684  0.00  0.00    -0.052 A 
ATOM      7  C   LIG d   1       2.699   0.422 -10.006  0.00  0.00    -0.061 A 
ATOM      8  C   LIG d   1       4.018   0.288 -10.411  0.00  0.00    -0.060 A 
ATOM      9  C   LIG d   1       5.050   0.092  -9.509  0.00  0.00    -0.038 A 
ATOM     10  C   LIG d   1       4.709   0.036  -8.160  0.00  0.00     0.047 A 
ATOM     11  N   LIG d   1       5.459  -0.141  -7.033  0.00  0.00    -0.353 N 
ATOM     12  H   LIG d   1       6.549  -0.270  -7.112  0.00  0.00     0.166 HD
ATOM     13  C   LIG d   1       4.649  -0.123  -5.930  0.00  0.00     0.074 A 
ATOM     14  C   LIG d   1       5.066  -0.282  -4.487  0.00  0.00     0.052 C 
ATOM     15  H   LIG d   1       5.512   0.648  -4.103  0.00  0.00     0.097 H 
ATOM     16  H   LIG d   1       1.997   0.227  -3.185  0.00  0.00     0.082 H 
ATOM     17  H   LIG d   1       3.187   1.388  -3.862  0.00  0.00     0.082 H 
ATOM     18  H   LIG d   1       1.644  -0.802  -5.354  0.00  0.00     0.037 H 
ATOM     19  H   LIG d   1       1.548   0.974  -5.601  0.00  0.00     0.037 H 
ATOM     20  H   LIG d   1       1.372   0.469  -8.426  0.00  0.00     0.062 H 
ATOM     21  H   LIG d   1       2.005   0.560 -10.713  0.00  0.00     0.062 H 
ATOM     22  H   LIG d   1       4.212   0.338 -11.390  0.00  0.00     0.062 H 
ATOM     23  H   LIG d   1       5.990  -0.001  -9.838  0.00  0.00     0.064 H 
ATOM     24  H   LIG d   1       3.511  -1.589  -4.004  0.00  0.00     0.204 HD
ENDROOT
BRANCH  14  25
ATOM     25  C   LIG d   1       6.065  -1.404  -4.370  0.00  0.00     0.079 A 
ATOM     26  C   LIG d   1       5.678  -2.732  -4.616  0.00  0.00     0.262 A 
ATOM     27  N   LIG d   1       6.588  -3.721  -4.512  0.00  0.00    -0.275 N 
ATOM     28  O   LIG d   1       4.527  -2.988  -4.928  0.00  0.00    -0.267 OA
ATOM     29  C   LIG d   1       7.860  -3.445  -4.169  0.00  0.00     0.326 A 
ATOM     30  H   LIG d   1       6.285  -4.760  -4.708  0.00  0.00     0.173 HD
ATOM     31  N   LIG d   1       8.252  -2.181  -3.922  0.00  0.00    -0.321 N 
ATOM     32  O   LIG d   1       8.666  -4.350  -4.079  0.00  0.00    -0.247 OA
ATOM     33  C   LIG d   1       7.357  -1.145  -4.018  0.00  0.00    -0.020 A 
ATOM     34  H   LIG d   1       9.297  -1.981  -3.644  0.00  0.00     0.169 HD
ATOM     35  O   LIG d   1       7.754   0.121  -3.771  0.00  0.00    -0.861 OA
ENDBRANCH  14  25
BRANCH   1  36
ATOM     36  C   LIG d   1       4.197  -0.670  -2.258  0.00  0.00    -0.034 C 
ATOM     37  H   LIG d   1       5.070  -1.322  -2.113  0.00  0.00     0.081 H 
ATOM     38  H   LIG d   1       3.338  -1.080  -1.705  0.00  0.00     0.081 H 
BRANCH  36  39
ATOM     39  C   LIG d   1       4.515   0.733  -1.737  0.00  0.00    -0.024 C 
ATOM     40  H   LIG d   1       3.629   1.376  -1.847  0.00  0.00     0.028 H 
ATOM     41  H   LIG d   1       5.350   1.157  -2.315  0.00  0.00     0.028 H 
ATOM     42  H   LIG d   1       4.796   0.675  -0.675  0.00  0.00     0.028 H 
ENDBRANCH  36  39
ENDBRANCH   1  36
TORSDOF 3
ENDMDL
MODEL 3
REMARK VINA RESULT:      -6.9      1.897      3.893
REMARK  3 active torsions:
REMARK  status: ('A' for Active; 'I' for Inactive)
REMARK    1  A    between atoms: C_1  and  C_2 
REMARK    2  A    between atoms: C_2  and  N_3 
REMARK    3  A    between atoms: C_16  and  C_18 
ROOT
ATOM      1  N   LIG d   1       3.861  -0.634  -3.703  0.00  0.00     0.245 N 
ATOM      2  C   LIG d   1       2.772   0.321  -3.948  0.00  0.00    -0.027 C 
ATOM      3  C   LIG d   1       2.210   0.103  -5.359  0.00  0.00     0.015 C 
ATOM      4  C   LIG d   1       3.370   0.053  -6.320  0.00  0.00    -0.008 A 
ATOM      5  C   LIG d   1       3.373   0.175  -7.761  0.00  0.00     0.004 A 
ATOM      6  C   LIG d   1       2.355   0.370  -8.701  0.00  0.00    -0.052 A 
ATOM      7  C   LIG d   1       2.732   0.441 -10.018  0.00  0.00    -0.061 A 
ATOM      8  C   LIG d   1       4.055   0.326 -10.414  0.00  0.00    -0.060 A 
ATOM      9  C   LIG d   1       5.082   0.132  -9.506  0.00  0.00    -0.038 A 
ATOM     10  C   LIG d   1       4.730   0.057  -8.160  0.00  0.00     0.047 A 
ATOM     11  N   LIG d   1       5.473  -0.123  -7.029  0.00  0.00    -0.353 N 
ATOM     12  H   LIG d   1       6.565  -0.240  -7.100  0.00  0.00     0.166 HD
ATOM     13  C   LIG d   1       4.653  -0.125  -5.932  0.00  0.00     0.074 A 
ATOM     14  C   LIG d   1       5.060  -0.295  -4.487  0.00  0.00     0.052 C 
ATOM     15  H   LIG d   1       5.492   0.635  -4.090  0.00  0.00     0.097 H 
ATOM     16  H   LIG d   1       1.974   0.166  -3.206  0.00  0.00     0.082 H 
ATOM     17  H   LIG d   1       3.157   1.347  -3.861  0.00  0.00     0.082 H 
ATOM     18  H   LIG d   1       1.651  -0.844  -5.389  0.00  0.00     0.037 H 
ATOM     19  H   LIG d   1       1.537   0.933  -5.619  0.00  0.00     0.037 H 
ATOM     20  H   LIG d   1       1.391   0.457  -8.450  0.00  0.00     0.062 H 
ATOM     21  H   LIG d   1       2.042   0.578 -10.730  0.00  0.00     0.062 H 
ATOM     22  H   LIG d   1       4.257   0.388 -11.391  0.00  0.00     0.062 H 
ATOM     23  H   LIG d   1       6.026   0.053  -9.827  0.00  0.00     0.064 H 
ATOM     24  H   LIG d   1       3.516  -1.625  -4.031  0.00  0.00     0.204 HD
ENDROOT
BRANCH  14  25
ATOM     25  C   LIG d   1       6.071  -1.407  -4.374  0.00  0.00     0.079 A 
ATOM     26  C   LIG d   1       7.401  -1.128  -4.017  0.00  0.00     0.262 A 
ATOM     27  N   LIG d   1       8.289  -2.138  -3.914  0.00  0.00    -0.275 N 
ATOM     28  O   LIG d   1       7.750   0.019  -3.795  0.00  0.00    -0.267 OA
ATOM     29  C   LIG d   1       7.910  -3.407  -4.157  0.00  0.00     0.326 A 
ATOM     30  H   LIG d   1       9.328  -1.919  -3.631  0.00  0.00     0.173 HD
ATOM     31  N   LIG d   1       6.643  -3.696  -4.506  0.00  0.00    -0.321 N 
ATOM     32  O   LIG d   1       8.724  -4.303  -4.061  0.00  0.00    -0.247 OA
ATOM     33  C   LIG d   1       5.708  -2.698  -4.620  0.00  0.00    -0.020 A 
ATOM     34  H   LIG d   1       6.358  -4.741  -4.699  0.00  0.00     0.169 HD
ATOM     35  O   LIG d   1       4.439  -2.993  -4.971  0.00  0.00    -0.861 OA
ENDBRANCH  14  25
BRANCH   1  36
ATOM     36  C   LIG d   1       4.176  -0.717  -2.270  0.00  0.00    -0.034 C 
ATOM     37  H   LIG d   1       5.039  -1.381  -2.123  0.00  0.00     0.081 H 
ATOM     38  H   LIG d   1       3.308  -1.117  -1.726  0.00  0.00     0.081 H 
BRANCH  36  39
ATOM     39  C   LIG d   1       4.510   0.679  -1.740  0.00  0.00    -0.024 C 
ATOM     40  H   LIG d   1       5.159   1.200  -2.461  0.00  0.00     0.028 H 
ATOM     41  H   LIG d   1       5.032   0.589  -0.775  0.00  0.00     0.028 H 
ATOM     42  H   LIG d   1       3.581   1.252  -1.603  0.00  0.00     0.028 H 
ENDBRANCH  36  39
ENDBRANCH   1  36
TORSDOF 3
ENDMDL
MODEL 4
REMARK VINA RESULT:      -6.8      3.374      5.517
REMARK  3 active torsions:
REMARK  status: ('A' for Active; 'I' for Inactive)
REMARK    1  A    between atoms: C_1  and  C_2 
REMARK    2  A    between atoms: C_2  and  N_3 
REMARK    3  A    between atoms: C_16  and  C_18 
ROOT
ATOM      1  N   LIG d   1       7.216  -3.575  -5.114  0.00  0.00     0.245 N 
ATOM      2  C   LIG d   1       8.086  -2.797  -4.221  0.00  0.00    -0.027 C 
ATOM      3  C   LIG d   1       7.233  -2.124  -3.137  0.00  0.00     0.015 C 
ATOM      4  C   LIG d   1       6.076  -1.436  -3.816  0.00  0.00    -0.008 A 
ATOM      5  C   LIG d   1       5.179  -0.427  -3.298  0.00  0.00     0.004 A 
ATOM      6  C   LIG d   1       5.085   0.218  -2.060  0.00  0.00    -0.052 A 
ATOM      7  C   LIG d   1       4.085   1.147  -1.917  0.00  0.00    -0.061 A 
ATOM      8  C   LIG d   1       3.202   1.442  -2.944  0.00  0.00    -0.060 A 
ATOM      9  C   LIG d   1       3.271   0.820  -4.179  0.00  0.00    -0.038 A 
ATOM     10  C   LIG d   1       4.278  -0.127  -4.353  0.00  0.00     0.047 A 
ATOM     11  N   LIG d   1       4.623  -0.910  -5.417  0.00  0.00    -0.353 N 
ATOM     12  H   LIG d   1       4.053  -0.844  -6.357  0.00  0.00     0.166 HD
ATOM     13  C   LIG d   1       5.699  -1.690  -5.089  0.00  0.00     0.074 A 
ATOM     14  C   LIG d   1       6.400  -2.697  -5.970  0.00  0.00     0.052 C 
ATOM     15  H   LIG d   1       7.060  -2.193  -6.691  0.00  0.00     0.097 H 
ATOM     16  H   LIG d   1       8.819  -3.467  -3.749  0.00  0.00     0.082 H 
ATOM     17  H   LIG d   1       8.614  -2.028  -4.803  0.00  0.00     0.082 H 
ATOM     18  H   LIG d   1       6.863  -2.887  -2.436  0.00  0.00     0.037 H 
ATOM     19  H   LIG d   1       7.845  -1.391  -2.592  0.00  0.00     0.037 H 
ATOM     20  H   LIG d   1       5.705   0.028  -1.298  0.00  0.00     0.062 H 
ATOM     21  H   LIG d   1       3.974   1.635  -1.051  0.00  0.00     0.062 H 
ATOM     22  H   LIG d   1       2.499   2.131  -2.770  0.00  0.00     0.062 H 
ATOM     23  H   LIG d   1       2.617   1.058  -4.896  0.00  0.00     0.064 H 
ATOM     24  H   LIG d   1       6.530  -4.160  -4.484  0.00  0.00     0.204 HD
ENDROOT
BRANCH  14  25
ATOM     25  C   LIG d   1       5.379  -3.520  -6.711  0.00  0.00     0.079 A 
ATOM     26  C   LIG d   1       4.423  -4.273  -6.007  0.00  0.00     0.262 A 
ATOM     27  N   LIG d   1       3.513  -4.998  -6.689  0.00  0.00    -0.275 N 
ATOM     28  O   LIG d   1       4.413  -4.267  -4.788  0.00  0.00    -0.267 OA
ATOM     29  C   LIG d   1       3.519  -5.008  -8.035  0.00  0.00     0.326 A 
ATOM     30  H   LIG d   1       2.764  -5.584  -6.138  0.00  0.00     0.173 HD
ATOM     31  N   LIG d   1       4.429  -4.300  -8.729  0.00  0.00    -0.321 N 
ATOM     32  O   LIG d   1       2.692  -5.669  -8.632  0.00  0.00    -0.247 OA
ATOM     33  C   LIG d   1       5.371  -3.547  -8.074  0.00  0.00    -0.020 A 
ATOM     34  H   LIG d   1       4.412  -4.324  -9.829  0.00  0.00     0.169 HD
ATOM     35  O   LIG d   1       6.281  -2.838  -8.774  0.00  0.00    -0.861 OA
ENDBRANCH  14  25
BRANCH   1  36
ATOM     36  C   LIG d   1       8.001  -4.516  -5.924  0.00  0.00    -0.034 C 
ATOM     37  H   LIG d   1       9.050  -4.189  -5.954  0.00  0.00     0.081 H 
ATOM     38  H   LIG d   1       7.598  -4.545  -6.947  0.00  0.00     0.081 H 
BRANCH  36  39
ATOM     39  C   LIG d   1       7.920  -5.912  -5.305  0.00  0.00    -0.024 C 
ATOM     40  H   LIG d   1       8.388  -6.643  -5.982  0.00  0.00     0.028 H 
ATOM     41  H   LIG d   1       6.865  -6.183  -5.146  0.00  0.00     0.028 H 
ATOM     42  H   LIG d   1       8.448  -5.917  -4.339  0.00  0.00     0.028 H 
ENDBRANCH  36  39
ENDBRANCH   1  36
TORSDOF 3
ENDMDL
MODEL 5
REMARK VINA RESULT:      -6.6      3.124      6.214
REMARK  3 active torsions:
REMARK  status: ('A' for Active; 'I' for Inactive)
REMARK    1  A    between atoms: C_1  and  C_2 
REMARK    2  A    between atoms: C_2  and  N_3 
REMARK    3  A    between atoms: C_16  and  C_18 
ROOT
ATOM      1  N   LIG d   1       5.709  -0.517  -8.667  0.00  0.00     0.245 N 
ATOM      2  C   LIG d   1       6.773   0.139  -7.895  0.00  0.00    -0.027 C 
ATOM      3  C   LIG d   1       6.904  -0.541  -6.526  0.00  0.00     0.015 C 
ATOM      4  C   LIG d   1       5.525  -0.651  -5.926  0.00  0.00    -0.008 A 
ATOM      5  C   LIG d   1       5.140  -0.920  -4.559  0.00  0.00     0.004 A 
ATOM      6  C   LIG d   1       5.875  -1.159  -3.393  0.00  0.00    -0.052 A 
ATOM      7  C   LIG d   1       5.160  -1.382  -2.242  0.00  0.00    -0.061 A 
ATOM      8  C   LIG d   1       3.774  -1.374  -2.223  0.00  0.00    -0.060 A 
ATOM      9  C   LIG d   1       3.021  -1.141  -3.362  0.00  0.00    -0.038 A 
ATOM     10  C   LIG d   1       3.720  -0.910  -4.545  0.00  0.00     0.047 A 
ATOM     11  N   LIG d   1       3.303  -0.653  -5.819  0.00  0.00    -0.353 N 
ATOM     12  H   LIG d   1       2.227  -0.598  -6.045  0.00  0.00     0.166 HD
ATOM     13  C   LIG d   1       4.387  -0.499  -6.640  0.00  0.00     0.074 A 
ATOM     14  C   LIG d   1       4.377  -0.204  -8.121  0.00  0.00     0.052 C 
ATOM     15  H   LIG d   1       4.159   0.857  -8.308  0.00  0.00     0.097 H 
ATOM     16  H   LIG d   1       7.725   0.056  -8.440  0.00  0.00     0.082 H 
ATOM     17  H   LIG d   1       6.523   1.200  -7.756  0.00  0.00     0.082 H 
ATOM     18  H   LIG d   1       7.343  -1.542  -6.654  0.00  0.00     0.037 H 
ATOM     19  H   LIG d   1       7.554   0.064  -5.877  0.00  0.00     0.037 H 
ATOM     20  H   LIG d   1       6.875  -1.172  -3.371  0.00  0.00     0.062 H 
ATOM     21  H   LIG d   1       5.638  -1.559  -1.382  0.00  0.00     0.062 H 
ATOM     22  H   LIG d   1       3.319  -1.542  -1.349  0.00  0.00     0.062 H 
ATOM     23  H   LIG d   1       2.023  -1.143  -3.310  0.00  0.00     0.064 H 
ATOM     24  H   LIG d   1       5.857  -1.604  -8.582  0.00  0.00     0.204 HD
ENDROOT
BRANCH  14  25
ATOM     25  C   LIG d   1       3.338  -1.058  -8.800  0.00  0.00     0.079 A 
ATOM     26  C   LIG d   1       3.481  -2.456  -8.844  0.00  0.00     0.262 A 
ATOM     27  N   LIG d   1       2.537  -3.203  -9.451  0.00  0.00    -0.275 N 
ATOM     28  O   LIG d   1       4.449  -2.990  -8.331  0.00  0.00    -0.267 OA
ATOM     29  C   LIG d   1       1.465  -2.619 -10.019  0.00  0.00     0.326 A 
ATOM     30  H   LIG d   1       2.648  -4.296  -9.482  0.00  0.00     0.173 HD
ATOM     31  N   LIG d   1       1.311  -1.282  -9.994  0.00  0.00    -0.321 N 
ATOM     32  O   LIG d   1       0.626  -3.308 -10.563  0.00  0.00    -0.247 OA
ATOM     33  C   LIG d   1       2.248  -0.485  -9.385  0.00  0.00    -0.020 A 
ATOM     34  H   LIG d   1       0.426  -0.829 -10.465  0.00  0.00     0.169 HD
ATOM     35  O   LIG d   1       2.089   0.855  -9.363  0.00  0.00    -0.861 OA
ENDBRANCH  14  25
BRANCH   1  36
ATOM     36  C   LIG d   1       5.792  -0.159 -10.089  0.00  0.00    -0.034 C 
ATOM     37  H   LIG d   1       6.307   0.807 -10.194  0.00  0.00     0.081 H 
ATOM     38  H   LIG d   1       4.777  -0.079 -10.507  0.00  0.00     0.081 H 
BRANCH  36  39
ATOM     39  C   LIG d   1       6.571  -1.237 -10.842  0.00  0.00    -0.024 C 
ATOM     40  H   LIG d   1       7.635  -1.182 -10.567  0.00  0.00     0.028 H 
ATOM     41  H   LIG d   1       6.464  -1.078 -11.926  0.00  0.00     0.028 H 
ATOM     42  H   LIG d   1       6.176  -2.229 -10.577  0.00  0.00     0.028 H 
ENDBRANCH  36  39
ENDBRANCH   1  36
TORSDOF 3
ENDMDL
MODEL 6
REMARK VINA RESULT:      -6.5      2.772      5.550
REMARK  3 active torsions:
REMARK  status: ('A' for Active; 'I' for Inactive)
REMARK    1  A    between atoms: C_1  and  C_2 
REMARK    2  A    between atoms: C_2  and  N_3 
REMARK    3  A    between atoms: C_16  and  C_18 
ROOT
ATOM      1  N   LIG d   1       4.275  -0.408  -3.539  0.00  0.00     0.245 N 
ATOM      2  C   LIG d   1       4.841   0.252  -2.355  0.00  0.00    -0.027 C 
ATOM      3  C   LIG d   1       5.733   1.419  -2.798  0.00  0.00     0.015 C 
ATOM      4  C   LIG d   1       6.664   0.913  -3.871  0.00  0.00    -0.008 A 
ATOM      5  C   LIG d   1       7.876   1.508  -4.387  0.00  0.00     0.004 A 
ATOM      6  C   LIG d   1       8.559   2.691  -4.085  0.00  0.00    -0.052 A 
ATOM      7  C   LIG d   1       9.709   2.943  -4.791  0.00  0.00    -0.061 A 
ATOM      8  C   LIG d   1      10.182   2.075  -5.762  0.00  0.00    -0.060 A 
ATOM      9  C   LIG d   1       9.527   0.898  -6.082  0.00  0.00    -0.038 A 
ATOM     10  C   LIG d   1       8.357   0.615  -5.380  0.00  0.00     0.047 A 
ATOM     11  N   LIG d   1       7.484  -0.433  -5.442  0.00  0.00    -0.353 N 
ATOM     12  H   LIG d   1       7.661  -1.255  -6.152  0.00  0.00     0.166 HD
ATOM     13  C   LIG d   1       6.474  -0.248  -4.537  0.00  0.00     0.074 A 
ATOM     14  C   LIG d   1       5.301  -1.164  -4.277  0.00  0.00     0.052 C 
ATOM     15  H   LIG d   1       5.607  -2.029  -3.670  0.00  0.00     0.097 H 
ATOM     16  H   LIG d   1       4.026   0.632  -1.722  0.00  0.00     0.082 H 
ATOM     17  H   LIG d   1       5.441  -0.472  -1.784  0.00  0.00     0.082 H 
ATOM     18  H   LIG d   1       5.105   2.231  -3.194  0.00  0.00     0.037 H 
ATOM     19  H   LIG d   1       6.310   1.788  -1.938  0.00  0.00     0.037 H 
ATOM     20  H   LIG d   1       8.246   3.340  -3.391  0.00  0.00     0.062 H 
ATOM     21  H   LIG d   1      10.233   3.776  -4.614  0.00  0.00     0.062 H 
ATOM     22  H   LIG d   1      11.026   2.322  -6.237  0.00  0.00     0.062 H 
ATOM     23  H   LIG d   1       9.898   0.296  -6.789  0.00  0.00     0.064 H 
ATOM     24  H   LIG d   1       3.894   0.378  -4.208  0.00  0.00     0.204 HD
ENDROOT
BRANCH  14  25
ATOM     25  C   LIG d   1       4.733  -1.644  -5.587  0.00  0.00     0.079 A 
ATOM     26  C   LIG d   1       4.104  -0.744  -6.464  0.00  0.00     0.262 A 
ATOM     27  N   LIG d   1       3.608  -1.192  -7.635  0.00  0.00    -0.275 N 
ATOM     28  O   LIG d   1       4.013   0.436  -6.171  0.00  0.00    -0.267 OA
ATOM     29  C   LIG d   1       3.706  -2.493  -7.964  0.00  0.00     0.326 A 
ATOM     30  H   LIG d   1       3.119  -0.486  -8.322  0.00  0.00     0.173 HD
ATOM     31  N   LIG d   1       4.298  -3.374  -7.137  0.00  0.00    -0.321 N 
ATOM     32  O   LIG d   1       3.251  -2.879  -9.023  0.00  0.00    -0.247 OA
ATOM     33  C   LIG d   1       4.818  -2.959  -5.936  0.00  0.00    -0.020 A 
ATOM     34  H   LIG d   1       4.366  -4.432  -7.429  0.00  0.00     0.169 HD
ATOM     35  O   LIG d   1       5.412  -3.845  -5.110  0.00  0.00    -0.861 OA
ENDBRANCH  14  25
BRANCH   1  36
ATOM     36  C   LIG d   1       3.147  -1.274  -3.171  0.00  0.00    -0.034 C 
ATOM     37  H   LIG d   1       2.742  -1.753  -4.074  0.00  0.00     0.081 H 
ATOM     38  H   LIG d   1       2.361  -0.671  -2.693  0.00  0.00     0.081 H 
BRANCH  36  39
ATOM     39  C   LIG d   1       3.628  -2.350  -2.196  0.00  0.00    -0.024 C 
ATOM     40  H   LIG d   1       4.239  -1.885  -1.407  0.00  0.00     0.028 H 
ATOM     41  H   LIG d   1       4.233  -3.092  -2.738  0.00  0.00     0.028 H 
ATOM     42  H   LIG d   1       2.759  -2.848  -1.740  0.00  0.00     0.028 H 
ENDBRANCH  36  39
ENDBRANCH   1  36
TORSDOF 3
ENDMDL
MODEL 7
REMARK VINA RESULT:      -6.4      2.549      5.686
REMARK  3 active torsions:
REMARK  status: ('A' for Active; 'I' for Inactive)
REMARK    1  A    between atoms: C_1  and  C_2 
REMARK    2  A    between atoms: C_2  and  N_3 
REMARK    3  A    between atoms: C_16  and  C_18 
ROOT
ATOM      1  N   LIG d   1       5.512  -3.036  -7.566  0.00  0.00     0.245 N 
ATOM      2  C   LIG d   1       5.874  -3.985  -6.503  0.00  0.00    -0.027 C 
ATOM      3  C   LIG d   1       5.093  -3.645  -5.227  0.00  0.00     0.015 C 
ATOM      4  C   LIG d   1       5.239  -2.166  -4.971  0.00  0.00    -0.008 A 
ATOM      5  C   LIG d   1       4.968  -1.414  -3.767  0.00  0.00     0.004 A 
ATOM      6  C   LIG d   1       4.501  -1.782  -2.500  0.00  0.00    -0.052 A 
ATOM      7  C   LIG d   1       4.360  -0.778  -1.574  0.00  0.00    -0.061 A 
ATOM      8  C   LIG d   1       4.661   0.542  -1.868  0.00  0.00    -0.060 A 
ATOM      9  C   LIG d   1       5.124   0.935  -3.112  0.00  0.00    -0.038 A 
ATOM     10  C   LIG d   1       5.278  -0.063  -4.072  0.00  0.00     0.047 A 
ATOM     11  N   LIG d   1       5.703  -0.026  -5.369  0.00  0.00    -0.353 N 
ATOM     12  H   LIG d   1       6.000   0.931  -5.825  0.00  0.00     0.166 HD
ATOM     13  C   LIG d   1       5.677  -1.287  -5.901  0.00  0.00     0.074 A 
ATOM     14  C   LIG d   1       6.064  -1.697  -7.302  0.00  0.00     0.052 C 
ATOM     15  H   LIG d   1       7.158  -1.738  -7.409  0.00  0.00     0.097 H 
ATOM     16  H   LIG d   1       5.627  -5.007  -6.825  0.00  0.00     0.082 H 
ATOM     17  H   LIG d   1       6.953  -3.915  -6.302  0.00  0.00     0.082 H 
ATOM     18  H   LIG d   1       4.032  -3.902  -5.367  0.00  0.00     0.037 H 
ATOM     19  H   LIG d   1       5.501  -4.219  -4.383  0.00  0.00     0.037 H 
ATOM     20  H   LIG d   1       4.274  -2.724  -2.255  0.00  0.00     0.062 H 
ATOM     21  H   LIG d   1       4.029  -0.989  -0.654  0.00  0.00     0.062 H 
ATOM     22  H   LIG d   1       4.535   1.221  -1.145  0.00  0.00     0.062 H 
ATOM     23  H   LIG d   1       5.331   1.897  -3.288  0.00  0.00     0.064 H 
ATOM     24  H   LIG d   1       4.416  -2.950  -7.575  0.00  0.00     0.204 HD
ENDROOT
BRANCH  14  25
ATOM     25  C   LIG d   1       5.498  -0.712  -8.292  0.00  0.00     0.079 A 
ATOM     26  C   LIG d   1       4.109  -0.611  -8.482  0.00  0.00     0.262 A 
ATOM     27  N   LIG d   1       3.622   0.281  -9.368  0.00  0.00    -0.275 N 
ATOM     28  O   LIG d   1       3.349  -1.320  -7.845  0.00  0.00    -0.267 OA
ATOM     29  C   LIG d   1       4.456   1.068 -10.074  0.00  0.00     0.326 A 
ATOM     30  H   LIG d   1       2.535   0.363  -9.514  0.00  0.00     0.173 HD
ATOM     31  N   LIG d   1       5.790   0.983  -9.913  0.00  0.00    -0.321 N 
ATOM     32  O   LIG d   1       3.998   1.864 -10.869  0.00  0.00    -0.247 OA
ATOM     33  C   LIG d   1       6.326   0.090  -9.020  0.00  0.00    -0.020 A 
ATOM     34  H   LIG d   1       6.450   1.637 -10.501  0.00  0.00     0.169 HD
ATOM     35  O   LIG d   1       7.664   0.008  -8.861  0.00  0.00    -0.861 OA
ENDBRANCH  14  25
BRANCH   1  36
ATOM     36  C   LIG d   1       5.939  -3.531  -8.881  0.00  0.00    -0.034 C 
ATOM     37  H   LIG d   1       6.758  -4.253  -8.753  0.00  0.00     0.081 H 
ATOM     38  H   LIG d   1       6.287  -2.688  -9.495  0.00  0.00     0.081 H 
BRANCH  36  39
ATOM     39  C   LIG d   1       4.760  -4.215  -9.576  0.00  0.00    -0.024 C 
ATOM     40  H   LIG d   1       4.518  -3.676 -10.504  0.00  0.00     0.028 H 
ATOM     41  H   LIG d   1       3.886  -4.206  -8.908  0.00  0.00     0.028 H 
ATOM     42  H   LIG d   1       5.028  -5.255  -9.815  0.00  0.00     0.028 H 
ENDBRANCH  36  39
ENDBRANCH   1  36
TORSDOF 3
ENDMDL
MODEL 8
REMARK VINA RESULT:      -6.3      1.932      5.983
REMARK  3 active torsions:
REMARK  status: ('A' for Active; 'I' for Inactive)
REMARK    1  A    between atoms: C_1  and  C_2 
REMARK    2  A    between atoms: C_2  and  N_3 
REMARK    3  A    between atoms: C_16  and  C_18 
ROOT
ATOM      1  N   LIG d   1       5.442  -2.555  -6.182  0.00  0.00     0.245 N 
ATOM      2  C   LIG d   1       6.077  -3.522  -7.087  0.00  0.00    -0.027 C 
ATOM      3  C   LIG d   1       6.605  -4.711  -6.273  0.00  0.00     0.015 C 
ATOM      4  C   LIG d   1       7.397  -4.166  -5.111  0.00  0.00    -0.008 A 
ATOM      5  C   LIG d   1       8.337  -4.842  -4.245  0.00  0.00     0.004 A 
ATOM      6  C   LIG d   1       8.805  -6.159  -4.194  0.00  0.00    -0.052 A 
ATOM      7  C   LIG d   1       9.719  -6.455  -3.214  0.00  0.00    -0.061 A 
ATOM      8  C   LIG d   1      10.166  -5.503  -2.311  0.00  0.00    -0.060 A 
ATOM      9  C   LIG d   1       9.719  -4.193  -2.338  0.00  0.00    -0.038 A 
ATOM     10  C   LIG d   1       8.791  -3.862  -3.323  0.00  0.00     0.047 A 
ATOM     11  N   LIG d   1       8.159  -2.692  -3.628  0.00  0.00    -0.353 N 
ATOM     12  H   LIG d   1       8.361  -1.786  -3.036  0.00  0.00     0.166 HD
ATOM     13  C   LIG d   1       7.326  -2.880  -4.698  0.00  0.00     0.074 A 
ATOM     14  C   LIG d   1       6.441  -1.851  -5.360  0.00  0.00     0.052 C 
ATOM     15  H   LIG d   1       7.030  -1.188  -6.010  0.00  0.00     0.097 H 
ATOM     16  H   LIG d   1       5.338  -3.878  -7.820  0.00  0.00     0.082 H 
ATOM     17  H   LIG d   1       6.912  -3.038  -7.614  0.00  0.00     0.082 H 
ATOM     18  H   LIG d   1       5.759  -5.311  -5.907  0.00  0.00     0.037 H 
ATOM     19  H   LIG d   1       7.248  -5.336  -6.911  0.00  0.00     0.037 H 
ATOM     20  H   LIG d   1       8.504  -6.871  -4.829  0.00  0.00     0.062 H 
ATOM     21  H   LIG d   1      10.084  -7.383  -3.133  0.00  0.00     0.062 H 
ATOM     22  H   LIG d   1      10.833  -5.789  -1.623  0.00  0.00     0.062 H 
ATOM     23  H   LIG d   1      10.063  -3.534  -1.670  0.00  0.00     0.064 H 
ATOM     24  H   LIG d   1       4.785  -3.116  -5.501  0.00  0.00     0.204 HD
ENDROOT
BRANCH  14  25
ATOM     25  C   LIG d   1       5.742  -1.031  -4.306  0.00  0.00     0.079 A 
ATOM     26  C   LIG d   1       6.068   0.324  -4.125  0.00  0.00     0.262 A 
ATOM     27  N   LIG d   1       5.427   1.042  -3.180  0.00  0.00    -0.275 N 
ATOM     28  O   LIG d   1       6.919   0.850  -4.821  0.00  0.00    -0.267 OA
ATOM     29  C   LIG d   1       4.485   0.468  -2.408  0.00  0.00     0.326 A 
ATOM     30  H   LIG d   1       5.679   2.103  -3.042  0.00  0.00     0.173 HD
ATOM     31  N   LIG d   1       4.162  -0.830  -2.560  0.00  0.00    -0.321 N 
ATOM     32  O   LIG d   1       3.920   1.131  -1.562  0.00  0.00    -0.247 OA
ATOM     33  C   LIG d   1       4.789  -1.595  -3.511  0.00  0.00    -0.020 A 
ATOM     34  H   LIG d   1       3.389  -1.275  -1.917  0.00  0.00     0.169 HD
ATOM     35  O   LIG d   1       4.462  -2.896  -3.660  0.00  0.00    -0.861 OA
ENDBRANCH  14  25
BRANCH   1  36
ATOM     36  C   LIG d   1       4.611  -1.602  -6.929  0.00  0.00    -0.034 C 
ATOM     37  H   LIG d   1       4.213  -0.843  -6.240  0.00  0.00     0.081 H 
ATOM     38  H   LIG d   1       3.775  -2.137  -7.405  0.00  0.00     0.081 H 
BRANCH  36  39
ATOM     39  C   LIG d   1       5.458  -0.920  -8.005  0.00  0.00    -0.024 C 
ATOM     40  H   LIG d   1       6.389  -0.543  -7.555  0.00  0.00     0.028 H 
ATOM     41  H   LIG d   1       4.894  -0.081  -8.439  0.00  0.00     0.028 H 
ATOM     42  H   LIG d   1       5.701  -1.646  -8.795  0.00  0.00     0.028 H 
ENDBRANCH  36  39
ENDBRANCH   1  36
TORSDOF 3
ENDMDL
MODEL 9
REMARK VINA RESULT:      -6.3      3.649      6.140
REMARK  3 active torsions:
REMARK  status: ('A' for Active; 'I' for Inactive)
REMARK    1  A    between atoms: C_1  and  C_2 
REMARK    2  A    between atoms: C_2  and  N_3 
REMARK    3  A    between atoms: C_16  and  C_18 
ROOT
ATOM      1  N   LIG d   1       9.150  -1.172  -6.009  0.00  0.00     0.245 N 
ATOM      2  C   LIG d   1       9.183  -2.193  -4.953  0.00  0.00    -0.027 C 
ATOM      3  C   LIG d   1       7.770  -2.388  -4.387  0.00  0.00     0.015 C 
ATOM      4  C   LIG d   1       7.202  -1.027  -4.073  0.00  0.00    -0.008 A 
ATOM      5  C   LIG d   1       6.062  -0.676  -3.255  0.00  0.00     0.004 A 
ATOM      6  C   LIG d   1       5.149  -1.439  -2.519  0.00  0.00    -0.052 A 
ATOM      7  C   LIG d   1       4.169  -0.754  -1.845  0.00  0.00    -0.061 A 
ATOM      8  C   LIG d   1       4.077   0.628  -1.883  0.00  0.00    -0.060 A 
ATOM      9  C   LIG d   1       4.966   1.407  -2.603  0.00  0.00    -0.038 A 
ATOM     10  C   LIG d   1       5.973   0.740  -3.297  0.00  0.00     0.047 A 
ATOM     11  N   LIG d   1       6.992   1.188  -4.087  0.00  0.00    -0.353 N 
ATOM     12  H   LIG d   1       7.118   2.268  -4.263  0.00  0.00     0.166 HD
ATOM     13  C   LIG d   1       7.723   0.127  -4.548  0.00  0.00     0.074 A 
ATOM     14  C   LIG d   1       8.933   0.173  -5.450  0.00  0.00     0.052 C 
ATOM     15  H   LIG d   1       9.830   0.471  -4.887  0.00  0.00     0.097 H 
ATOM     16  H   LIG d   1       9.545  -3.143  -5.373  0.00  0.00     0.082 H 
ATOM     17  H   LIG d   1       9.859  -1.867  -4.149  0.00  0.00     0.082 H 
ATOM     18  H   LIG d   1       7.143  -2.898  -5.133  0.00  0.00     0.037 H 
ATOM     19  H   LIG d   1       7.822  -2.998  -3.473  0.00  0.00     0.037 H 
ATOM     20  H   LIG d   1       5.186  -2.437  -2.470  0.00  0.00     0.062 H 
ATOM     21  H   LIG d   1       3.491  -1.253  -1.305  0.00  0.00     0.062 H 
ATOM     22  H   LIG d   1       3.338   1.061  -1.367  0.00  0.00     0.062 H 
ATOM     23  H   LIG d   1       4.869   2.402  -2.608  0.00  0.00     0.064 H 
ATOM     24  H   LIG d   1       8.299  -1.401  -6.667  0.00  0.00     0.204 HD
ENDROOT
BRANCH  14  25
ATOM     25  C   LIG d   1       8.694   1.154  -6.569  0.00  0.00     0.079 A 
ATOM     26  C   LIG d   1       9.477   2.316  -6.678  0.00  0.00     0.262 A 
ATOM     27  N   LIG d   1       9.250   3.178  -7.691  0.00  0.00    -0.275 N 
ATOM     28  O   LIG d   1      10.359   2.541  -5.868  0.00  0.00    -0.267 OA
ATOM     29  C   LIG d   1       8.278   2.935  -8.589  0.00  0.00     0.326 A 
ATOM     30  H   LIG d   1       9.866   4.085  -7.778  0.00  0.00     0.173 HD
ATOM     31  N   LIG d   1       7.512   1.832  -8.500  0.00  0.00    -0.321 N 
ATOM     32  O   LIG d   1       8.088   3.724  -9.494  0.00  0.00    -0.247 OA
ATOM     33  C   LIG d   1       7.711   0.929  -7.486  0.00  0.00    -0.020 A 
ATOM     34  H   LIG d   1       6.725   1.656  -9.247  0.00  0.00     0.169 HD
ATOM     35  O   LIG d   1       6.940  -0.176  -7.400  0.00  0.00    -0.861 OA
ENDBRANCH  14  25
BRANCH   1  36
ATOM     36  C   LIG d   1      10.374  -1.213  -6.820  0.00  0.00    -0.034 C 
ATOM     37  H   LIG d   1      11.154  -0.608  -6.337  0.00  0.00     0.081 H 
ATOM     38  H   LIG d   1      10.164  -0.809  -7.822  0.00  0.00     0.081 H 
BRANCH  36  39
ATOM     39  C   LIG d   1      10.854  -2.660  -6.945  0.00  0.00    -0.024 C 
ATOM     40  H   LIG d   1      10.006  -3.344  -6.788  0.00  0.00     0.028 H 
ATOM     41  H   LIG d   1      11.628  -2.856  -6.188  0.00  0.00     0.028 H 
ATOM     42  H   LIG d   1      11.274  -2.822  -7.949  0.00  0.00     0.028 H 
ENDBRANCH  36  39
ENDBRANCH   1  36
TORSDOF 3
ENDMDL
MODEL 10
REMARK VINA RESULT:      -6.3      3.130      5.999
REMARK  3 active torsions:
REMARK  status: ('A' for Active; 'I' for Inactive)
REMARK    1  A    between atoms: C_1  and  C_2 
REMARK    2  A    between atoms: C_2  and  N_3 
REMARK    3  A    between atoms: C_16  and  C_18 
ROOT
ATOM      1  N   LIG d   1       5.729  -2.704  -7.592  0.00  0.00     0.245 N 
ATOM      2  C   LIG d   1       5.406  -1.306  -7.905  0.00  0.00    -0.027 C 
ATOM      3  C   LIG d   1       5.803  -0.413  -6.722  0.00  0.00     0.015 C 
ATOM      4  C   LIG d   1       5.244  -1.030  -5.464  0.00  0.00    -0.008 A 
ATOM      5  C   LIG d   1       5.070  -0.443  -4.155  0.00  0.00     0.004 A 
ATOM      6  C   LIG d   1       5.346   0.828  -3.637  0.00  0.00    -0.052 A 
ATOM      7  C   LIG d   1       5.043   1.040  -2.316  0.00  0.00    -0.061 A 
ATOM      8  C   LIG d   1       4.489   0.050  -1.519  0.00  0.00    -0.060 A 
ATOM      9  C   LIG d   1       4.206  -1.216  -2.004  0.00  0.00    -0.038 A 
ATOM     10  C   LIG d   1       4.502  -1.460  -3.343  0.00  0.00     0.047 A 
ATOM     11  N   LIG d   1       4.355  -2.569  -4.125  0.00  0.00    -0.353 N 
ATOM     12  H   LIG d   1       3.928  -3.490  -3.700  0.00  0.00     0.166 HD
ATOM     13  C   LIG d   1       4.801  -2.305  -5.392  0.00  0.00     0.074 A 
ATOM     14  C   LIG d   1       4.819  -3.251  -6.570  0.00  0.00     0.052 C 
ATOM     15  H   LIG d   1       3.815  -3.351  -7.007  0.00  0.00     0.097 H 
ATOM     16  H   LIG d   1       5.959  -0.994  -8.803  0.00  0.00     0.082 H 
ATOM     17  H   LIG d   1       4.326  -1.211  -8.090  0.00  0.00     0.082 H 
ATOM     18  H   LIG d   1       6.899  -0.352  -6.660  0.00  0.00     0.037 H 
ATOM     19  H   LIG d   1       5.387   0.595  -6.867  0.00  0.00     0.037 H 
ATOM     20  H   LIG d   1       5.746   1.564  -4.183  0.00  0.00     0.062 H 
ATOM     21  H   LIG d   1       5.222   1.930  -1.897  0.00  0.00     0.062 H 
ATOM     22  H   LIG d   1       4.293   0.275  -0.565  0.00  0.00     0.062 H 
ATOM     23  H   LIG d   1       3.807  -1.905  -1.400  0.00  0.00     0.064 H 
ATOM     24  H   LIG d   1       6.747  -2.726  -7.178  0.00  0.00     0.204 HD
ENDROOT
BRANCH  14  25
ATOM     25  C   LIG d   1       5.312  -4.603  -6.125  0.00  0.00     0.079 A 
ATOM     26  C   LIG d   1       6.655  -4.787  -5.755  0.00  0.00     0.262 A 
ATOM     27  N   LIG d   1       7.075  -6.004  -5.354  0.00  0.00    -0.275 N 
ATOM     28  O   LIG d   1       7.435  -3.850  -5.790  0.00  0.00    -0.267 OA
ATOM     29  C   LIG d   1       6.219  -7.041  -5.312  0.00  0.00     0.326 A 
ATOM     30  H   LIG d   1       8.125  -6.146  -5.061  0.00  0.00     0.173 HD
ATOM     31  N   LIG d   1       4.930  -6.890  -5.668  0.00  0.00    -0.321 N 
ATOM     32  O   LIG d   1       6.616  -8.131  -4.949  0.00  0.00    -0.247 OA
ATOM     33  C   LIG d   1       4.462  -5.668  -6.081  0.00  0.00    -0.020 A 
ATOM     34  H   LIG d   1       4.250  -7.754  -5.625  0.00  0.00     0.169 HD
ATOM     35  O   LIG d   1       3.168  -5.521  -6.437  0.00  0.00    -0.861 OA
ENDBRANCH  14  25
BRANCH   1  36
ATOM     36  C   LIG d   1       5.714  -3.532  -8.805  0.00  0.00    -0.034 C 
ATOM     37  H   LIG d   1       4.967  -4.331  -8.695  0.00  0.00     0.081 H 
ATOM     38  H   LIG d   1       6.708  -3.980  -8.955  0.00  0.00     0.081 H 
BRANCH  36  39
ATOM     39  C   LIG d   1       5.359  -2.662 -10.012  0.00  0.00    -0.024 C 
ATOM     40  H   LIG d   1       5.202  -1.624  -9.683  0.00  0.00     0.028 H 
ATOM     41  H   LIG d   1       4.438  -3.042 -10.479  0.00  0.00     0.028 H 
ATOM     42  H   LIG d   1       6.181  -2.695 -10.742  0.00  0.00     0.028 H 
ENDBRANCH  36  39
ENDBRANCH   1  36
TORSDOF 3
ENDMDL
