MODEL 1
REMARK VINA RESULT:      -6.7      0.000      0.000
REMARK  8 active torsions:
REMARK  status: ('A' for Active; 'I' for Inactive)
REMARK    1  A    between atoms: C_1  and  N_2 
REMARK    2  A    between atoms: N_2  and  C_3 
REMARK    3  A    between atoms: N_2  and  C_4 
REMARK    4  A    between atoms: C_11  and  O_36 
REMARK    5  A    between atoms: C_17  and  O_34 
REMARK    6  A    between atoms: C_23  and  O_32 
REMARK    7  A    between atoms: C_26  and  C_27 
REMARK    8  A    between atoms: C_27  and  O_29 
ROOT
ATOM      1  C   LIG d   1       7.745   1.000  -7.783  0.00  0.00     0.080 C 
ATOM      2  H   LIG d   1       7.000   1.159  -7.004  0.00  0.00     0.055 H 
ATOM      3  C   LIG d   1       9.003   0.384  -7.171  0.00  0.00     0.022 C 
ATOM      4  H   LIG d   1       9.745   0.223  -7.953  0.00  0.00     0.036 H 
ATOM      5  C   LIG d   1       8.678  -0.942  -6.504  0.00  0.00    -0.035 C 
ATOM      6  C   LIG d   1       7.853  -0.805  -5.243  0.00  0.00     0.018 C 
ATOM      7  H   LIG d   1       8.375  -1.356  -4.461  0.00  0.00     0.038 H 
ATOM      8  C   LIG d   1       6.497  -1.484  -5.432  0.00  0.00     0.089 C 
ATOM      9  H   LIG d   1       6.653  -2.538  -5.667  0.00  0.00     0.065 H 
ATOM     10  C   LIG d   1       5.669  -1.371  -4.181  0.00  0.00     0.014 A 
ATOM     11  C   LIG d   1       4.839  -2.408  -3.802  0.00  0.00     0.048 A 
ATOM     12  C   LIG d   1       4.063  -2.297  -2.660  0.00  0.00    -0.040 A 
ATOM     13  C   LIG d   1       4.107  -1.150  -1.890  0.00  0.00    -0.018 A 
ATOM     14  C   LIG d   1       4.941  -0.103  -2.253  0.00  0.00     0.128 A 
ATOM     15  C   LIG d   1       5.734  -0.217  -3.401  0.00  0.00     0.070 A 
ATOM     16  C   LIG d   1       6.665   0.865  -3.778  0.00  0.00     0.193 C 
ATOM     17  C   LIG d   1       7.672   0.591  -4.746  0.00  0.00    -0.003 C 
ATOM     18  C   LIG d   1       8.447   1.620  -5.143  0.00  0.00    -0.085 C 
ATOM     19  O   LIG d   1       8.238   2.860  -4.658  0.00  0.00    -0.874 OA
ATOM     20  C   LIG d   1       9.571   1.350  -6.120  0.00  0.00     0.145 C 
ATOM     21  C   LIG d   1       9.917   2.652  -6.800  0.00  0.00     0.206 C 
ATOM     22  O   LIG d   1      10.839   3.325  -6.386  0.00  0.00    -0.288 OA
ATOM     23  C   LIG d   1       9.171   3.089  -7.915  0.00  0.00     0.121 C 
ATOM     24  C   LIG d   1       8.100   2.320  -8.420  0.00  0.00     0.189 C 
ATOM     25  O   LIG d   1       7.463   2.723  -9.372  0.00  0.00    -0.290 OA
ATOM     26  O   LIG d   1       6.565   1.972  -3.279  0.00  0.00    -0.287 OA
ATOM     27 CL   LIG d   1       4.770  -3.854  -4.759  0.00  0.00    -0.083 Cl
ATOM     28  H   LIG d   1       8.129  -1.563  -7.213  0.00  0.00     0.028 H 
ATOM     29  H   LIG d   1       9.612  -1.445  -6.255  0.00  0.00     0.028 H 
ATOM     30  H   LIG d   1       3.417  -3.112  -2.369  0.00  0.00     0.063 H 
ATOM     31  H   LIG d   1       3.493  -1.070  -1.006  0.00  0.00     0.066 H 
ENDROOT
BRANCH   1  32
ATOM     32  N   LIG d   1       7.201   0.094  -8.804  0.00  0.00    -0.298 N 
BRANCH  32  33
ATOM     33  C   LIG d   1       5.924   0.597  -9.328  0.00  0.00    -0.012 C 
ATOM     34  H   LIG d   1       5.114   0.290  -8.666  0.00  0.00     0.039 H 
ATOM     35  H   LIG d   1       5.957   1.685  -9.382  0.00  0.00     0.039 H 
ATOM     36  H   LIG d   1       5.753   0.189 -10.325  0.00  0.00     0.039 H 
ENDBRANCH  32  33
BRANCH  32  37
ATOM     37  C   LIG d   1       8.168  -0.118  -9.889  0.00  0.00    -0.012 C 
ATOM     38  H   LIG d   1       8.912  -0.850  -9.576  0.00  0.00     0.039 H 
ATOM     39  H   LIG d   1       7.648  -0.484 -10.774  0.00  0.00     0.039 H 
ATOM     40  H   LIG d   1       8.663   0.825 -10.123  0.00  0.00     0.039 H 
ENDBRANCH  32  37
ENDBRANCH   1  32
BRANCH  23  41
ATOM     41  C   LIG d   1       9.498   4.307  -8.531  0.00  0.00     0.189 C 
ATOM     42  N   LIG d   1       9.840   4.333  -9.839  0.00  0.00    -0.329 N 
ATOM     43  H   LIG d   1       9.516   3.642 -10.438  0.00  0.00     0.145 HD
ATOM     44  H   LIG d   1      10.407   5.042 -10.178  0.00  0.00     0.145 HD
BRANCH  41  45
ATOM     45  O   LIG d   1       9.474   5.448  -7.821  0.00  0.00    -0.495 OA
ATOM     46  H   LIG d   1       9.034   5.368  -6.963  0.00  0.00     0.293 HD
ENDBRANCH  41  45
ENDBRANCH  23  41
BRANCH  20  47
ATOM     47  O   LIG d   1      10.713   0.782  -5.474  0.00  0.00    -0.377 OA
ATOM     48  H   LIG d   1      10.508   0.026  -4.908  0.00  0.00     0.211 HD
ENDBRANCH  20  47
BRANCH   8  49
ATOM     49  O   LIG d   1       5.803  -0.859  -6.514  0.00  0.00    -0.387 OA
ATOM     50  H   LIG d   1       5.403  -0.009  -6.286  0.00  0.00     0.210 HD
ENDBRANCH   8  49
BRANCH  14  51
ATOM     51  O   LIG d   1       4.986   1.025  -1.501  0.00  0.00    -0.506 OA
ATOM     52  H   LIG d   1       5.868   1.411  -1.422  0.00  0.00     0.292 HD
ENDBRANCH  14  51
TORSDOF 8
ENDMDL
MODEL 2
REMARK VINA RESULT:      -6.3      4.630      7.426
REMARK  8 active torsions:
REMARK  status: ('A' for Active; 'I' for Inactive)
REMARK    1  A    between atoms: C_1  and  N_2 
REMARK    2  A    between atoms: N_2  and  C_3 
REMARK    3  A    between atoms: N_2  and  C_4 
REMARK    4  A    between atoms: C_11  and  O_36 
REMARK    5  A    between atoms: C_17  and  O_34 
REMARK    6  A    between atoms: C_23  and  O_32 
REMARK    7  A    between atoms: C_26  and  C_27 
REMARK    8  A    between atoms: C_27  and  O_29 
ROOT
ATOM      1  C   LIG d   1       8.410  -4.574  -4.600  0.00  0.00     0.080 C 
ATOM      2  H   LIG d   1       7.663  -4.156  -3.925  0.00  0.00     0.055 H 
ATOM      3  C   LIG d   1       8.059  -4.208  -6.042  0.00  0.00     0.022 C 
ATOM      4  H   LIG d   1       8.810  -4.625  -6.715  0.00  0.00     0.036 H 
ATOM      5  C   LIG d   1       8.010  -2.699  -6.214  0.00  0.00    -0.035 C 
ATOM      6  C   LIG d   1       6.837  -2.044  -5.519  0.00  0.00     0.018 C 
ATOM      7  H   LIG d   1       6.332  -1.427  -6.263  0.00  0.00     0.038 H 
ATOM      8  C   LIG d   1       7.340  -1.098  -4.429  0.00  0.00     0.089 C 
ATOM      9  H   LIG d   1       7.982  -0.340  -4.880  0.00  0.00     0.065 H 
ATOM     10  C   LIG d   1       6.186  -0.424  -3.738  0.00  0.00     0.014 A 
ATOM     11  C   LIG d   1       6.299   0.885  -3.314  0.00  0.00     0.048 A 
ATOM     12  C   LIG d   1       5.243   1.500  -2.661  0.00  0.00    -0.040 A 
ATOM     13  C   LIG d   1       4.068   0.811  -2.425  0.00  0.00    -0.018 A 
ATOM     14  C   LIG d   1       3.935  -0.502  -2.851  0.00  0.00     0.128 A 
ATOM     15  C   LIG d   1       4.997  -1.122  -3.520  0.00  0.00     0.070 A 
ATOM     16  C   LIG d   1       4.860  -2.502  -4.026  0.00  0.00     0.193 C 
ATOM     17  C   LIG d   1       5.816  -2.982  -4.965  0.00  0.00    -0.003 C 
ATOM     18  C   LIG d   1       5.725  -4.274  -5.338  0.00  0.00    -0.085 C 
ATOM     19  O   LIG d   1       4.780  -5.074  -4.804  0.00  0.00    -0.874 OA
ATOM     20  C   LIG d   1       6.683  -4.799  -6.385  0.00  0.00     0.145 C 
ATOM     21  C   LIG d   1       6.753  -6.299  -6.239  0.00  0.00     0.206 C 
ATOM     22  O   LIG d   1       6.064  -7.008  -6.944  0.00  0.00    -0.288 OA
ATOM     23  C   LIG d   1       7.616  -6.879  -5.286  0.00  0.00     0.121 C 
ATOM     24  C   LIG d   1       8.433  -6.075  -4.461  0.00  0.00     0.189 C 
ATOM     25  O   LIG d   1       9.158  -6.595  -3.638  0.00  0.00    -0.290 OA
ATOM     26  O   LIG d   1       3.954  -3.218  -3.639  0.00  0.00    -0.287 OA
ATOM     27 CL   LIG d   1       7.768   1.762  -3.600  0.00  0.00    -0.083 Cl
ATOM     28  H   LIG d   1       8.932  -2.274  -5.816  0.00  0.00     0.028 H 
ATOM     29  H   LIG d   1       7.955  -2.471  -7.279  0.00  0.00     0.028 H 
ATOM     30  H   LIG d   1       5.338   2.524  -2.333  0.00  0.00     0.063 H 
ATOM     31  H   LIG d   1       3.253   1.296  -1.908  0.00  0.00     0.066 H 
ENDROOT
BRANCH   1  32
ATOM     32  N   LIG d   1       9.734  -4.030  -4.264  0.00  0.00    -0.298 N 
BRANCH  32  33
ATOM     33  C   LIG d   1      10.044  -4.240  -2.843  0.00  0.00    -0.012 C 
ATOM     34  H   LIG d   1       9.381  -5.004  -2.436  0.00  0.00     0.039 H 
ATOM     35  H   LIG d   1      11.079  -4.565  -2.741  0.00  0.00     0.039 H 
ATOM     36  H   LIG d   1       9.901  -3.306  -2.298  0.00  0.00     0.039 H 
ENDBRANCH  32  33
BRANCH  32  37
ATOM     37  C   LIG d   1      10.775  -4.612  -5.121  0.00  0.00    -0.012 C 
ATOM     38  H   LIG d   1      11.734  -4.574  -4.605  0.00  0.00     0.039 H 
ATOM     39  H   LIG d   1      10.524  -5.649  -5.346  0.00  0.00     0.039 H 
ATOM     40  H   LIG d   1      10.839  -4.045  -6.050  0.00  0.00     0.039 H 
ENDBRANCH  32  37
ENDBRANCH   1  32
BRANCH  23  41
ATOM     41  C   LIG d   1       7.663  -8.276  -5.155  0.00  0.00     0.189 C 
ATOM     42  N   LIG d   1       8.122  -9.035  -6.175  0.00  0.00    -0.329 N 
ATOM     43  H   LIG d   1       8.745  -8.660  -6.816  0.00  0.00     0.145 HD
ATOM     44  H   LIG d   1       7.827  -9.955  -6.265  0.00  0.00     0.145 HD
BRANCH  41  45
ATOM     45  O   LIG d   1       7.251  -8.858  -4.016  0.00  0.00    -0.495 OA
ATOM     46  H   LIG d   1       7.914  -9.430  -3.604  0.00  0.00     0.293 HD
ENDBRANCH  41  45
ENDBRANCH  23  41
BRANCH  20  47
ATOM     47  O   LIG d   1       6.285  -4.423  -7.706  0.00  0.00    -0.377 OA
ATOM     48  H   LIG d   1       5.787  -3.596  -7.746  0.00  0.00     0.211 HD
ENDBRANCH  20  47
BRANCH   8  49
ATOM     49  O   LIG d   1       8.094  -1.842  -3.470  0.00  0.00    -0.387 OA
ATOM     50  H   LIG d   1       9.014  -1.556  -3.385  0.00  0.00     0.210 HD
ENDBRANCH   8  49
BRANCH  14  51
ATOM     51  O   LIG d   1       2.784  -1.182  -2.619  0.00  0.00    -0.506 OA
ATOM     52  H   LIG d   1       2.752  -2.055  -3.032  0.00  0.00     0.292 HD
ENDBRANCH  14  51
TORSDOF 8
ENDMDL
MODEL 3
REMARK VINA RESULT:      -6.2      6.822      9.786
REMARK  8 active torsions:
REMARK  status: ('A' for Active; 'I' for Inactive)
REMARK    1  A    between atoms: C_1  and  N_2 
REMARK    2  A    between atoms: N_2  and  C_3 
REMARK    3  A    between atoms: N_2  and  C_4 
REMARK    4  A    between atoms: C_11  and  O_36 
REMARK    5  A    between atoms: C_17  and  O_34 
REMARK    6  A    between atoms: C_23  and  O_32 
REMARK    7  A    between atoms: C_26  and  C_27 
REMARK    8  A    between atoms: C_27  and  O_29 
ROOT
ATOM      1  C   LIG d   1      12.015   7.077  -2.271  0.00  0.00     0.080 C 
ATOM      2  H   LIG d   1      11.941   7.556  -3.246  0.00  0.00     0.055 H 
ATOM      3  C   LIG d   1      10.614   6.756  -1.751  0.00  0.00     0.022 C 
ATOM      4  H   LIG d   1      10.691   6.273  -0.776  0.00  0.00     0.036 H 
ATOM      5  C   LIG d   1       9.886   5.833  -2.714  0.00  0.00    -0.035 C 
ATOM      6  C   LIG d   1       9.500   6.494  -4.019  0.00  0.00     0.018 C 
ATOM      7  H   LIG d   1       8.435   6.313  -4.164  0.00  0.00     0.038 H 
ATOM      8  C   LIG d   1      10.226   5.816  -5.180  0.00  0.00     0.089 C 
ATOM      9  H   LIG d   1       9.959   4.758  -5.202  0.00  0.00     0.065 H 
ATOM     10  C   LIG d   1       9.841   6.451  -6.489  0.00  0.00     0.014 A 
ATOM     11  C   LIG d   1       9.720   5.678  -7.626  0.00  0.00     0.048 A 
ATOM     12  C   LIG d   1       9.383   6.265  -8.836  0.00  0.00    -0.040 A 
ATOM     13  C   LIG d   1       9.169   7.628  -8.918  0.00  0.00    -0.018 A 
ATOM     14  C   LIG d   1       9.280   8.418  -7.783  0.00  0.00     0.128 A 
ATOM     15  C   LIG d   1       9.609   7.825  -6.558  0.00  0.00     0.070 A 
ATOM     16  C   LIG d   1       9.683   8.638  -5.329  0.00  0.00     0.193 C 
ATOM     17  C   LIG d   1       9.701   7.973  -4.070  0.00  0.00    -0.003 C 
ATOM     18  C   LIG d   1       9.866   8.732  -2.969  0.00  0.00    -0.085 C 
ATOM     19  O   LIG d   1      10.042  10.064  -3.078  0.00  0.00    -0.874 OA
ATOM     20  C   LIG d   1       9.822   8.065  -1.612  0.00  0.00     0.145 C 
ATOM     21  C   LIG d   1      10.539   8.959  -0.632  0.00  0.00     0.206 C 
ATOM     22  O   LIG d   1       9.906   9.732   0.059  0.00  0.00    -0.288 OA
ATOM     23  C   LIG d   1      11.944   8.901  -0.516  0.00  0.00     0.121 C 
ATOM     24  C   LIG d   1      12.702   8.006  -1.302  0.00  0.00     0.189 C 
ATOM     25  O   LIG d   1      13.911   7.983  -1.196  0.00  0.00    -0.290 OA
ATOM     26  O   LIG d   1       9.740   9.854  -5.391  0.00  0.00    -0.287 OA
ATOM     27 CL   LIG d   1       9.988   3.965  -7.541  0.00  0.00    -0.083 Cl
ATOM     28  H   LIG d   1      10.529   4.980  -2.933  0.00  0.00     0.028 H 
ATOM     29  H   LIG d   1       8.980   5.467  -2.229  0.00  0.00     0.028 H 
ATOM     30  H   LIG d   1       9.289   5.654  -9.721  0.00  0.00     0.063 H 
ATOM     31  H   LIG d   1       8.914   8.077  -9.866  0.00  0.00     0.066 H 
ENDROOT
BRANCH   1  32
ATOM     32  N   LIG d   1      12.791   5.834  -2.392  0.00  0.00    -0.298 N 
BRANCH  32  33
ATOM     33  C   LIG d   1      14.066   6.075  -3.081  0.00  0.00    -0.012 C 
ATOM     34  H   LIG d   1      14.011   5.676  -4.094  0.00  0.00     0.039 H 
ATOM     35  H   LIG d   1      14.260   7.146  -3.122  0.00  0.00     0.039 H 
ATOM     36  H   LIG d   1      14.872   5.580  -2.538  0.00  0.00     0.039 H 
ENDBRANCH  32  33
BRANCH  32  37
ATOM     37  C   LIG d   1      13.012   5.222  -1.075  0.00  0.00    -0.012 C 
ATOM     38  H   LIG d   1      13.204   6.002  -0.338  0.00  0.00     0.039 H 
ATOM     39  H   LIG d   1      12.126   4.657  -0.783  0.00  0.00     0.039 H 
ATOM     40  H   LIG d   1      13.869   4.550  -1.126  0.00  0.00     0.039 H 
ENDBRANCH  32  37
ENDBRANCH   1  32
BRANCH  23  41
ATOM     41  C   LIG d   1      12.599   9.747   0.393  0.00  0.00     0.189 C 
ATOM     42  N   LIG d   1      12.570  11.086   0.211  0.00  0.00    -0.329 N 
ATOM     43  H   LIG d   1      11.838  11.494  -0.277  0.00  0.00     0.145 HD
ATOM     44  H   LIG d   1      13.283  11.639   0.568  0.00  0.00     0.145 HD
BRANCH  41  45
ATOM     45  O   LIG d   1      13.254   9.226   1.444  0.00  0.00    -0.495 OA
ATOM     46  H   LIG d   1      12.715   9.142   2.243  0.00  0.00     0.293 HD
ENDBRANCH  41  45
ENDBRANCH  23  41
BRANCH  20  47
ATOM     47  O   LIG d   1       8.481   7.803  -1.191  0.00  0.00    -0.377 OA
ATOM     48  H   LIG d   1       8.253   8.196  -0.338  0.00  0.00     0.211 HD
ENDBRANCH  20  47
BRANCH   8  49
ATOM     49  O   LIG d   1      11.637   5.942  -4.992  0.00  0.00    -0.387 OA
ATOM     50  H   LIG d   1      12.023   6.718  -5.421  0.00  0.00     0.210 HD
ENDBRANCH   8  49
BRANCH  14  51
ATOM     51  O   LIG d   1       9.072   9.756  -7.860  0.00  0.00    -0.506 OA
ATOM     52  H   LIG d   1       8.256  10.002  -8.317  0.00  0.00     0.292 HD
ENDBRANCH  14  51
TORSDOF 8
ENDMDL
MODEL 4
REMARK VINA RESULT:      -6.0      4.326      6.701
REMARK  8 active torsions:
REMARK  status: ('A' for Active; 'I' for Inactive)
REMARK    1  A    between atoms: C_1  and  N_2 
REMARK    2  A    between atoms: N_2  and  C_3 
REMARK    3  A    between atoms: N_2  and  C_4 
REMARK    4  A    between atoms: C_11  and  O_36 
REMARK    5  A    between atoms: C_17  and  O_34 
REMARK    6  A    between atoms: C_23  and  O_32 
REMARK    7  A    between atoms: C_26  and  C_27 
REMARK    8  A    between atoms: C_27  and  O_29 
ROOT
ATOM      1  C   LIG d   1       4.205  -1.179  -6.841  0.00  0.00     0.080 C 
ATOM      2  H   LIG d   1       3.784  -2.184  -6.820  0.00  0.00     0.055 H 
ATOM      3  C   LIG d   1       5.707  -1.249  -6.566  0.00  0.00     0.022 C 
ATOM      4  H   LIG d   1       6.128  -0.243  -6.590  0.00  0.00     0.036 H 
ATOM      5  C   LIG d   1       6.402  -2.111  -7.607  0.00  0.00    -0.035 C 
ATOM      6  C   LIG d   1       6.079  -3.584  -7.493  0.00  0.00     0.018 C 
ATOM      7  H   LIG d   1       7.031  -4.116  -7.459  0.00  0.00     0.038 H 
ATOM      8  C   LIG d   1       5.354  -4.057  -8.752  0.00  0.00     0.089 C 
ATOM      9  H   LIG d   1       5.989  -3.878  -9.621  0.00  0.00     0.065 H 
ATOM     10  C   LIG d   1       5.040  -5.526  -8.662  0.00  0.00     0.014 A 
ATOM     11  C   LIG d   1       5.095  -6.318  -9.792  0.00  0.00     0.048 A 
ATOM     12  C   LIG d   1       4.788  -7.667  -9.714  0.00  0.00    -0.040 A 
ATOM     13  C   LIG d   1       4.421  -8.233  -8.508  0.00  0.00    -0.018 A 
ATOM     14  C   LIG d   1       4.367  -7.454  -7.362  0.00  0.00     0.128 A 
ATOM     15  C   LIG d   1       4.688  -6.093  -7.437  0.00  0.00     0.070 A 
ATOM     16  C   LIG d   1       4.686  -5.255  -6.222  0.00  0.00     0.193 C 
ATOM     17  C   LIG d   1       5.316  -3.979  -6.272  0.00  0.00    -0.003 C 
ATOM     18  C   LIG d   1       5.217  -3.195  -5.180  0.00  0.00    -0.085 C 
ATOM     19  O   LIG d   1       4.515  -3.606  -4.105  0.00  0.00    -0.874 OA
ATOM     20  C   LIG d   1       5.932  -1.861  -5.174  0.00  0.00     0.145 C 
ATOM     21  C   LIG d   1       5.263  -0.981  -4.148  0.00  0.00     0.206 C 
ATOM     22  O   LIG d   1       5.727  -0.897  -3.029  0.00  0.00    -0.288 OA
ATOM     23  C   LIG d   1       4.100  -0.257  -4.485  0.00  0.00     0.121 C 
ATOM     24  C   LIG d   1       3.546  -0.332  -5.781  0.00  0.00     0.189 C 
ATOM     25  O   LIG d   1       2.537   0.289  -6.045  0.00  0.00    -0.290 OA
ATOM     26  O   LIG d   1       4.147  -5.644  -5.201  0.00  0.00    -0.287 OA
ATOM     27 CL   LIG d   1       5.552  -5.621 -11.315  0.00  0.00    -0.083 Cl
ATOM     28  H   LIG d   1       6.106  -1.765  -8.598  0.00  0.00     0.028 H 
ATOM     29  H   LIG d   1       7.480  -1.982  -7.504  0.00  0.00     0.028 H 
ATOM     30  H   LIG d   1       4.834  -8.280 -10.601  0.00  0.00     0.063 H 
ATOM     31  H   LIG d   1       4.176  -9.284  -8.458  0.00  0.00     0.066 H 
ENDROOT
BRANCH   1  32
ATOM     32  N   LIG d   1       3.976  -0.578  -8.162  0.00  0.00    -0.298 N 
BRANCH  32  33
ATOM     33  C   LIG d   1       2.542  -0.537  -8.480  0.00  0.00    -0.012 C 
ATOM     34  H   LIG d   1       1.985  -0.211  -7.601  0.00  0.00     0.039 H 
ATOM     35  H   LIG d   1       2.371   0.161  -9.299  0.00  0.00     0.039 H 
ATOM     36  H   LIG d   1       2.206  -1.532  -8.774  0.00  0.00     0.039 H 
ENDBRANCH  32  33
BRANCH  32  37
ATOM     37  C   LIG d   1       4.571   0.763  -8.241  0.00  0.00    -0.012 C 
ATOM     38  H   LIG d   1       5.649   0.675  -8.371  0.00  0.00     0.039 H 
ATOM     39  H   LIG d   1       4.145   1.301  -9.088  0.00  0.00     0.039 H 
ATOM     40  H   LIG d   1       4.359   1.308  -7.321  0.00  0.00     0.039 H 
ENDBRANCH  32  37
ENDBRANCH   1  32
BRANCH  23  41
ATOM     41  C   LIG d   1       3.483   0.550  -3.516  0.00  0.00     0.189 C 
ATOM     42  N   LIG d   1       3.483   1.894  -3.657  0.00  0.00    -0.329 N 
ATOM     43  H   LIG d   1       3.550   2.289  -4.540  0.00  0.00     0.145 HD
ATOM     44  H   LIG d   1       3.416   2.464  -2.874  0.00  0.00     0.145 HD
BRANCH  41  45
ATOM     45  O   LIG d   1       2.894  -0.014  -2.448  0.00  0.00    -0.495 OA
ATOM     46  H   LIG d   1       2.027   0.359  -2.233  0.00  0.00     0.293 HD
ENDBRANCH  41  45
ENDBRANCH  23  41
BRANCH  20  47
ATOM     47  O   LIG d   1       7.328  -2.007  -4.904  0.00  0.00    -0.377 OA
ATOM     48  H   LIG d   1       7.762  -2.690  -5.433  0.00  0.00     0.211 HD
ENDBRANCH  20  47
BRANCH   8  49
ATOM     49  O   LIG d   1       4.137  -3.323  -8.899  0.00  0.00    -0.387 OA
ATOM     50  H   LIG d   1       4.227  -2.375  -8.734  0.00  0.00     0.210 HD
ENDBRANCH   8  49
BRANCH  14  51
ATOM     51  O   LIG d   1       4.006  -8.006  -6.177  0.00  0.00    -0.506 OA
ATOM     52  H   LIG d   1       3.561  -8.860  -6.260  0.00  0.00     0.292 HD
ENDBRANCH  14  51
TORSDOF 8
ENDMDL
MODEL 5
REMARK VINA RESULT:      -5.8      3.745      6.635
REMARK  8 active torsions:
REMARK  status: ('A' for Active; 'I' for Inactive)
REMARK    1  A    between atoms: C_1  and  N_2 
REMARK    2  A    between atoms: N_2  and  C_3 
REMARK    3  A    between atoms: N_2  and  C_4 
REMARK    4  A    between atoms: C_11  and  O_36 
REMARK    5  A    between atoms: C_17  and  O_34 
REMARK    6  A    between atoms: C_23  and  O_32 
REMARK    7  A    between atoms: C_26  and  C_27 
REMARK    8  A    between atoms: C_27  and  O_29 
ROOT
ATOM      1  C   LIG d   1       6.741  -1.173  -5.019  0.00  0.00     0.080 C 
ATOM      2  H   LIG d   1       5.831  -1.624  -5.412  0.00  0.00     0.055 H 
ATOM      3  C   LIG d   1       7.725  -0.926  -6.162  0.00  0.00     0.022 C 
ATOM      4  H   LIG d   1       8.634  -0.471  -5.766  0.00  0.00     0.036 H 
ATOM      5  C   LIG d   1       7.113  -0.005  -7.204  0.00  0.00    -0.035 C 
ATOM      6  C   LIG d   1       5.994  -0.641  -7.999  0.00  0.00     0.018 C 
ATOM      7  H   LIG d   1       6.232  -0.500  -9.053  0.00  0.00     0.038 H 
ATOM      8  C   LIG d   1       4.684   0.102  -7.739  0.00  0.00     0.089 C 
ATOM      9  H   LIG d   1       4.801   1.147  -8.026  0.00  0.00     0.065 H 
ATOM     10  C   LIG d   1       3.562  -0.509  -8.535  0.00  0.00     0.014 A 
ATOM     11  C   LIG d   1       2.570   0.293  -9.064  0.00  0.00     0.048 A 
ATOM     12  C   LIG d   1       1.527  -0.270  -9.781  0.00  0.00    -0.040 A 
ATOM     13  C   LIG d   1       1.465  -1.637  -9.972  0.00  0.00    -0.018 A 
ATOM     14  C   LIG d   1       2.457  -2.457  -9.453  0.00  0.00     0.128 A 
ATOM     15  C   LIG d   1       3.518  -1.888  -8.737  0.00  0.00     0.070 A 
ATOM     16  C   LIG d   1       4.610  -2.735  -8.219  0.00  0.00     0.193 C 
ATOM     17  C   LIG d   1       5.813  -2.108  -7.786  0.00  0.00    -0.003 C 
ATOM     18  C   LIG d   1       6.756  -2.893  -7.229  0.00  0.00    -0.085 C 
ATOM     19  O   LIG d   1       6.536  -4.213  -7.064  0.00  0.00    -0.874 OA
ATOM     20  C   LIG d   1       8.073  -2.270  -6.820  0.00  0.00     0.145 C 
ATOM     21  C   LIG d   1       8.706  -3.164  -5.782  0.00  0.00     0.206 C 
ATOM     22  O   LIG d   1       9.539  -3.982  -6.116  0.00  0.00    -0.288 OA
ATOM     23  C   LIG d   1       8.333  -3.051  -4.427  0.00  0.00     0.121 C 
ATOM     24  C   LIG d   1       7.373  -2.102  -4.013  0.00  0.00     0.189 C 
ATOM     25  O   LIG d   1       7.057  -2.032  -2.843  0.00  0.00    -0.290 OA
ATOM     26  O   LIG d   1       4.480  -3.945  -8.154  0.00  0.00    -0.287 OA
ATOM     27 CL   LIG d   1       2.632   2.012  -8.831  0.00  0.00    -0.083 Cl
ATOM     28  H   LIG d   1       6.723   0.880  -6.701  0.00  0.00     0.028 H 
ATOM     29  H   LIG d   1       7.896   0.308  -7.896  0.00  0.00     0.028 H 
ATOM     30  H   LIG d   1       0.756   0.363 -10.193  0.00  0.00     0.063 H 
ATOM     31  H   LIG d   1       0.644  -2.068 -10.526  0.00  0.00     0.066 H 
ENDROOT
BRANCH   1  32
ATOM     32  N   LIG d   1       6.414   0.104  -4.368  0.00  0.00    -0.298 N 
BRANCH  32  33
ATOM     33  C   LIG d   1       5.429  -0.089  -3.295  0.00  0.00    -0.012 C 
ATOM     34  H   LIG d   1       5.768  -0.883  -2.630  0.00  0.00     0.039 H 
ATOM     35  H   LIG d   1       5.320   0.837  -2.732  0.00  0.00     0.039 H 
ATOM     36  H   LIG d   1       4.467  -0.365  -3.730  0.00  0.00     0.039 H 
ENDBRANCH  32  33
BRANCH  32  37
ATOM     37  C   LIG d   1       7.625   0.761  -3.859  0.00  0.00    -0.012 C 
ATOM     38  H   LIG d   1       8.191   1.178  -4.692  0.00  0.00     0.039 H 
ATOM     39  H   LIG d   1       7.345   1.561  -3.174  0.00  0.00     0.039 H 
ATOM     40  H   LIG d   1       8.240   0.031  -3.332  0.00  0.00     0.039 H 
ENDBRANCH  32  37
ENDBRANCH   1  32
BRANCH  23  41
ATOM     41  C   LIG d   1       8.923  -3.897  -3.474  0.00  0.00     0.189 C 
ATOM     42  N   LIG d   1       8.945  -5.233  -3.678  0.00  0.00    -0.329 N 
ATOM     43  H   LIG d   1       8.916  -5.586  -4.580  0.00  0.00     0.145 HD
ATOM     44  H   LIG d   1       8.990  -5.838  -2.921  0.00  0.00     0.145 HD
BRANCH  41  45
ATOM     45  O   LIG d   1       9.466  -3.378  -2.360  0.00  0.00    -0.495 OA
ATOM     46  H   LIG d   1       9.250  -2.446  -2.213  0.00  0.00     0.293 HD
ENDBRANCH  41  45
ENDBRANCH  23  41
BRANCH  20  47
ATOM     47  O   LIG d   1       8.941  -2.077  -7.939  0.00  0.00    -0.377 OA
ATOM     48  H   LIG d   1       9.681  -2.698  -7.975  0.00  0.00     0.211 HD
ENDBRANCH  20  47
BRANCH   8  49
ATOM     49  O   LIG d   1       4.368   0.029  -6.347  0.00  0.00    -0.387 OA
ATOM     50  H   LIG d   1       5.142   0.047  -5.767  0.00  0.00     0.210 HD
ENDBRANCH   8  49
BRANCH  14  51
ATOM     51  O   LIG d   1       2.399  -3.799  -9.637  0.00  0.00    -0.506 OA
ATOM     52  H   LIG d   1       3.105  -4.151 -10.195  0.00  0.00     0.292 HD
ENDBRANCH  14  51
TORSDOF 8
ENDMDL
MODEL 6
REMARK VINA RESULT:      -5.7      3.431      6.425
REMARK  8 active torsions:
REMARK  status: ('A' for Active; 'I' for Inactive)
REMARK    1  A    between atoms: C_1  and  N_2 
REMARK    2  A    between atoms: N_2  and  C_3 
REMARK    3  A    between atoms: N_2  and  C_4 
REMARK    4  A    between atoms: C_11  and  O_36 
REMARK    5  A    between atoms: C_17  and  O_34 
REMARK    6  A    between atoms: C_23  and  O_32 
REMARK    7  A    between atoms: C_26  and  C_27 
REMARK    8  A    between atoms: C_27  and  O_29 
ROOT
ATOM      1  C   LIG d   1       8.113  -1.778  -5.336  0.00  0.00     0.080 C 
ATOM      2  H   LIG d   1       8.461  -1.111  -4.548  0.00  0.00     0.055 H 
ATOM      3  C   LIG d   1       7.859  -0.975  -6.611  0.00  0.00     0.022 C 
ATOM      4  H   LIG d   1       7.514  -1.646  -7.399  0.00  0.00     0.036 H 
ATOM      5  C   LIG d   1       9.130  -0.277  -7.065  0.00  0.00    -0.035 C 
ATOM      6  C   LIG d   1       9.558   0.858  -6.162  0.00  0.00     0.018 C 
ATOM      7  H   LIG d   1       9.703   1.733  -6.797  0.00  0.00     0.038 H 
ATOM      8  C   LIG d   1      10.914   0.540  -5.533  0.00  0.00     0.089 C 
ATOM      9  H   LIG d   1      11.650   0.390  -6.324  0.00  0.00     0.065 H 
ATOM     10  C   LIG d   1      11.363   1.666  -4.643  0.00  0.00     0.014 A 
ATOM     11  C   LIG d   1      12.701   1.998  -4.565  0.00  0.00     0.048 A 
ATOM     12  C   LIG d   1      13.118   3.024  -3.732  0.00  0.00    -0.040 A 
ATOM     13  C   LIG d   1      12.202   3.722  -2.968  0.00  0.00    -0.018 A 
ATOM     14  C   LIG d   1      10.853   3.407  -3.040  0.00  0.00     0.128 A 
ATOM     15  C   LIG d   1      10.429   2.378  -3.889  0.00  0.00     0.070 A 
ATOM     16  C   LIG d   1       8.994   2.058  -4.019  0.00  0.00     0.193 C 
ATOM     17  C   LIG d   1       8.573   1.244  -5.108  0.00  0.00    -0.003 C 
ATOM     18  C   LIG d   1       7.274   0.887  -5.150  0.00  0.00    -0.085 C 
ATOM     19  O   LIG d   1       6.429   1.267  -4.170  0.00  0.00    -0.874 OA
ATOM     20  C   LIG d   1       6.778   0.079  -6.330  0.00  0.00     0.145 C 
ATOM     21  C   LIG d   1       5.514  -0.628  -5.909  0.00  0.00     0.206 C 
ATOM     22  O   LIG d   1       4.432  -0.141  -6.169  0.00  0.00    -0.288 OA
ATOM     23  C   LIG d   1       5.585  -1.853  -5.212  0.00  0.00     0.121 C 
ATOM     24  C   LIG d   1       6.830  -2.443  -4.905  0.00  0.00     0.189 C 
ATOM     25  O   LIG d   1       6.867  -3.491  -4.292  0.00  0.00    -0.290 OA
ATOM     26  O   LIG d   1       8.190   2.473  -3.204  0.00  0.00    -0.287 OA
ATOM     27 CL   LIG d   1      13.864   1.128  -5.515  0.00  0.00    -0.083 Cl
ATOM     28  H   LIG d   1       9.935  -1.012  -7.107  0.00  0.00     0.028 H 
ATOM     29  H   LIG d   1       8.971   0.119  -8.069  0.00  0.00     0.028 H 
ATOM     30  H   LIG d   1      14.166   3.278  -3.677  0.00  0.00     0.063 H 
ATOM     31  H   LIG d   1      12.537   4.515  -2.316  0.00  0.00     0.066 H 
ENDROOT
BRANCH   1  32
ATOM     32  N   LIG d   1       9.133  -2.804  -5.596  0.00  0.00    -0.298 N 
BRANCH  32  33
ATOM     33  C   LIG d   1       9.506  -3.502  -4.358  0.00  0.00    -0.012 C 
ATOM     34  H   LIG d   1      10.141  -2.854  -3.754  0.00  0.00     0.039 H 
ATOM     35  H   LIG d   1       8.605  -3.754  -3.798  0.00  0.00     0.039 H 
ATOM     36  H   LIG d   1      10.048  -4.415  -4.605  0.00  0.00     0.039 H 
ENDBRANCH  32  33
BRANCH  32  37
ATOM     37  C   LIG d   1       8.675  -3.754  -6.618  0.00  0.00    -0.012 C 
ATOM     38  H   LIG d   1       8.017  -4.493  -6.160  0.00  0.00     0.039 H 
ATOM     39  H   LIG d   1       8.131  -3.218  -7.396  0.00  0.00     0.039 H 
ATOM     40  H   LIG d   1       9.536  -4.257  -7.059  0.00  0.00     0.039 H 
ENDBRANCH  32  37
ENDBRANCH   1  32
BRANCH  23  41
ATOM     41  C   LIG d   1       4.400  -2.494  -4.818  0.00  0.00     0.189 C 
ATOM     42  N   LIG d   1       3.606  -1.931  -3.880  0.00  0.00    -0.329 N 
ATOM     43  H   LIG d   1       3.618  -0.970  -3.749  0.00  0.00     0.145 HD
ATOM     44  H   LIG d   1       3.025  -2.488  -3.339  0.00  0.00     0.145 HD
BRANCH  41  45
ATOM     45  O   LIG d   1       4.055  -3.669  -5.373  0.00  0.00    -0.495 OA
ATOM     46  H   LIG d   1       3.346  -3.602  -6.027  0.00  0.00     0.293 HD
ENDBRANCH  41  45
ENDBRANCH  23  41
BRANCH  20  47
ATOM     47  O   LIG d   1       6.556   0.898  -7.480  0.00  0.00    -0.377 OA
ATOM     48  H   LIG d   1       5.631   0.947  -7.756  0.00  0.00     0.211 HD
ENDBRANCH  20  47
BRANCH   8  49
ATOM     49  O   LIG d   1      10.806  -0.658  -4.759  0.00  0.00    -0.387 OA
ATOM     50  H   LIG d   1      11.647  -1.115  -4.623  0.00  0.00     0.210 HD
ENDBRANCH   8  49
BRANCH  14  51
ATOM     51  O   LIG d   1       9.952   4.089  -2.291  0.00  0.00    -0.506 OA
ATOM     52  H   LIG d   1       9.060   3.717  -2.312  0.00  0.00     0.292 HD
ENDBRANCH  14  51
TORSDOF 8
ENDMDL
MODEL 7
REMARK VINA RESULT:      -5.6      3.443      5.731
REMARK  8 active torsions:
REMARK  status: ('A' for Active; 'I' for Inactive)
REMARK    1  A    between atoms: C_1  and  N_2 
REMARK    2  A    between atoms: N_2  and  C_3 
REMARK    3  A    between atoms: N_2  and  C_4 
REMARK    4  A    between atoms: C_11  and  O_36 
REMARK    5  A    between atoms: C_17  and  O_34 
REMARK    6  A    between atoms: C_23  and  O_32 
REMARK    7  A    between atoms: C_26  and  C_27 
REMARK    8  A    between atoms: C_27  and  O_29 
ROOT
ATOM      1  C   LIG d   1       7.011  -0.380  -6.214  0.00  0.00     0.080 C 
ATOM      2  H   LIG d   1       7.290  -1.388  -6.519  0.00  0.00     0.055 H 
ATOM      3  C   LIG d   1       5.922  -0.452  -5.143  0.00  0.00     0.022 C 
ATOM      4  H   LIG d   1       5.647   0.558  -4.837  0.00  0.00     0.036 H 
ATOM      5  C   LIG d   1       6.414  -1.229  -3.933  0.00  0.00    -0.035 C 
ATOM      6  C   LIG d   1       6.584  -2.710  -4.186  0.00  0.00     0.018 C 
ATOM      7  H   LIG d   1       6.034  -3.232  -3.403  0.00  0.00     0.038 H 
ATOM      8  C   LIG d   1       8.053  -3.100  -4.029  0.00  0.00     0.089 C 
ATOM      9  H   LIG d   1       8.384  -2.851  -3.020  0.00  0.00     0.065 H 
ATOM     10  C   LIG d   1       8.238  -4.575  -4.262  0.00  0.00     0.014 A 
ATOM     11  C   LIG d   1       9.168  -5.282  -3.526  0.00  0.00     0.048 A 
ATOM     12  C   LIG d   1       9.352  -6.637  -3.753  0.00  0.00    -0.040 A 
ATOM     13  C   LIG d   1       8.612  -7.293  -4.718  0.00  0.00    -0.018 A 
ATOM     14  C   LIG d   1       7.668  -6.598  -5.461  0.00  0.00     0.128 A 
ATOM     15  C   LIG d   1       7.474  -5.232  -5.226  0.00  0.00     0.070 A 
ATOM     16  C   LIG d   1       6.441  -4.484  -5.970  0.00  0.00     0.193 C 
ATOM     17  C   LIG d   1       6.052  -3.201  -5.492  0.00  0.00    -0.003 C 
ATOM     18  C   LIG d   1       5.179  -2.499  -6.241  0.00  0.00    -0.085 C 
ATOM     19  O   LIG d   1       4.730  -2.994  -7.413  0.00  0.00    -0.874 OA
ATOM     20  C   LIG d   1       4.691  -1.161  -5.730  0.00  0.00     0.145 C 
ATOM     21  C   LIG d   1       4.196  -0.365  -6.912  0.00  0.00     0.206 C 
ATOM     22  O   LIG d   1       3.012  -0.356  -7.182  0.00  0.00    -0.288 OA
ATOM     23  C   LIG d   1       5.105   0.368  -7.704  0.00  0.00     0.121 C 
ATOM     24  C   LIG d   1       6.484   0.380  -7.405  0.00  0.00     0.189 C 
ATOM     25  O   LIG d   1       7.250   1.007  -8.108  0.00  0.00    -0.290 OA
ATOM     26  O   LIG d   1       5.942  -4.952  -6.978  0.00  0.00    -0.287 OA
ATOM     27 CL   LIG d   1      10.108  -4.472  -2.312  0.00  0.00    -0.083 Cl
ATOM     28  H   LIG d   1       7.374  -0.816  -3.621  0.00  0.00     0.028 H 
ATOM     29  H   LIG d   1       5.700  -1.095  -3.119  0.00  0.00     0.028 H 
ATOM     30  H   LIG d   1      10.080  -7.184  -3.173  0.00  0.00     0.063 H 
ATOM     31  H   LIG d   1       8.767  -8.347  -4.893  0.00  0.00     0.066 H 
ENDROOT
BRANCH   1  32
ATOM     32  N   LIG d   1       8.188   0.312  -5.671  0.00  0.00    -0.298 N 
BRANCH  32  33
ATOM     33  C   LIG d   1       9.297   0.298  -6.635  0.00  0.00    -0.012 C 
ATOM     34  H   LIG d   1       8.927  -0.022  -7.609  0.00  0.00     0.039 H 
ATOM     35  H   LIG d   1       9.719   1.300  -6.717  0.00  0.00     0.039 H 
ATOM     36  H   LIG d   1      10.068  -0.393  -6.293  0.00  0.00     0.039 H 
ENDBRANCH  32  33
BRANCH  32  37
ATOM     37  C   LIG d   1       7.854   1.686  -5.273  0.00  0.00    -0.012 C 
ATOM     38  H   LIG d   1       7.332   1.671  -4.315  0.00  0.00     0.039 H 
ATOM     39  H   LIG d   1       8.768   2.270  -5.178  0.00  0.00     0.039 H 
ATOM     40  H   LIG d   1       7.211   2.137  -6.029  0.00  0.00     0.039 H 
ENDBRANCH  32  37
ENDBRANCH   1  32
BRANCH  23  41
ATOM     41  C   LIG d   1       4.630   1.096  -8.806  0.00  0.00     0.189 C 
ATOM     42  N   LIG d   1       3.796   2.143  -8.616  0.00  0.00    -0.329 N 
ATOM     43  H   LIG d   1       3.812   2.630  -7.778  0.00  0.00     0.145 HD
ATOM     44  H   LIG d   1       3.183   2.408  -9.320  0.00  0.00     0.145 HD
BRANCH  41  45
ATOM     45  O   LIG d   1       5.004   0.752 -10.050  0.00  0.00    -0.495 OA
ATOM     46  H   LIG d   1       5.944   0.886 -10.230  0.00  0.00     0.293 HD
ENDBRANCH  41  45
ENDBRANCH  23  41
BRANCH  20  47
ATOM     47  O   LIG d   1       3.672  -1.309  -4.739  0.00  0.00    -0.377 OA
ATOM     48  H   LIG d   1       3.890  -1.942  -4.042  0.00  0.00     0.211 HD
ENDBRANCH  20  47
BRANCH   8  49
ATOM     49  O   LIG d   1       8.839  -2.371  -4.975  0.00  0.00    -0.387 OA
ATOM     50  H   LIG d   1       9.652  -2.822  -5.241  0.00  0.00     0.210 HD
ENDBRANCH   8  49
BRANCH  14  51
ATOM     51  O   LIG d   1       6.941  -7.239  -6.410  0.00  0.00    -0.506 OA
ATOM     52  H   LIG d   1       6.058  -6.870  -6.545  0.00  0.00     0.292 HD
ENDBRANCH  14  51
TORSDOF 8
ENDMDL
MODEL 8
REMARK VINA RESULT:      -5.6      8.429     11.807
REMARK  8 active torsions:
REMARK  status: ('A' for Active; 'I' for Inactive)
REMARK    1  A    between atoms: C_1  and  N_2 
REMARK    2  A    between atoms: N_2  and  C_3 
REMARK    3  A    between atoms: N_2  and  C_4 
REMARK    4  A    between atoms: C_11  and  O_36 
REMARK    5  A    between atoms: C_17  and  O_34 
REMARK    6  A    between atoms: C_23  and  O_32 
REMARK    7  A    between atoms: C_26  and  C_27 
REMARK    8  A    between atoms: C_27  and  O_29 
ROOT
ATOM      1  C   LIG d   1      10.801   8.883  -1.579  0.00  0.00     0.080 C 
ATOM      2  H   LIG d   1      10.231   9.152  -2.468  0.00  0.00     0.055 H 
ATOM      3  C   LIG d   1      12.295   9.032  -1.865  0.00  0.00     0.022 C 
ATOM      4  H   LIG d   1      12.863   8.765  -0.973  0.00  0.00     0.036 H 
ATOM      5  C   LIG d   1      12.623  10.461  -2.262  0.00  0.00    -0.035 C 
ATOM      6  C   LIG d   1      12.090  10.854  -3.622  0.00  0.00     0.018 C 
ATOM      7  H   LIG d   1      12.929  11.263  -4.186  0.00  0.00     0.038 H 
ATOM      8  C   LIG d   1      11.068  11.980  -3.474  0.00  0.00     0.089 C 
ATOM      9  H   LIG d   1      11.543  12.837  -2.995  0.00  0.00     0.065 H 
ATOM     10  C   LIG d   1      10.538  12.395  -4.820  0.00  0.00     0.014 A 
ATOM     11  C   LIG d   1      10.242  13.720  -5.072  0.00  0.00     0.048 A 
ATOM     12  C   LIG d   1       9.738  14.100  -6.305  0.00  0.00    -0.040 A 
ATOM     13  C   LIG d   1       9.522  13.159  -7.294  0.00  0.00    -0.018 A 
ATOM     14  C   LIG d   1       9.820  11.825  -7.061  0.00  0.00     0.128 A 
ATOM     15  C   LIG d   1      10.340  11.441  -5.819  0.00  0.00     0.070 A 
ATOM     16  C   LIG d   1      10.712  10.035  -5.565  0.00  0.00     0.193 C 
ATOM     17  C   LIG d   1      11.522   9.737  -4.433  0.00  0.00    -0.003 C 
ATOM     18  C   LIG d   1      11.767   8.438  -4.170  0.00  0.00    -0.085 C 
ATOM     19  O   LIG d   1      11.227   7.471  -4.940  0.00  0.00    -0.874 OA
ATOM     20  C   LIG d   1      12.679   8.088  -3.015  0.00  0.00     0.145 C 
ATOM     21  C   LIG d   1      12.376   6.671  -2.597  0.00  0.00     0.206 C 
ATOM     22  O   LIG d   1      13.055   5.757  -3.019  0.00  0.00    -0.288 OA
ATOM     23  C   LIG d   1      11.306   6.405  -1.717  0.00  0.00     0.121 C 
ATOM     24  C   LIG d   1      10.508   7.451  -1.206  0.00  0.00     0.189 C 
ATOM     25  O   LIG d   1       9.584   7.198  -0.460  0.00  0.00    -0.290 OA
ATOM     26  O   LIG d   1      10.323   9.148  -6.304  0.00  0.00    -0.287 OA
ATOM     27 CL   LIG d   1      10.505  14.913  -3.839  0.00  0.00    -0.083 Cl
ATOM     28  H   LIG d   1      12.203  11.135  -1.515  0.00  0.00     0.028 H 
ATOM     29  H   LIG d   1      13.707  10.582  -2.265  0.00  0.00     0.028 H 
ATOM     30  H   LIG d   1       9.510  15.138  -6.494  0.00  0.00     0.063 H 
ATOM     31  H   LIG d   1       9.121  13.464  -8.250  0.00  0.00     0.066 H 
ENDROOT
BRANCH   1  32
ATOM     32  N   LIG d   1      10.423   9.767  -0.467  0.00  0.00    -0.298 N 
BRANCH  32  33
ATOM     33  C   LIG d   1       8.964   9.801  -0.295  0.00  0.00    -0.012 C 
ATOM     34  H   LIG d   1       8.624   8.847   0.109  0.00  0.00     0.039 H 
ATOM     35  H   LIG d   1       8.699  10.603   0.394  0.00  0.00     0.039 H 
ATOM     36  H   LIG d   1       8.488   9.979  -1.260  0.00  0.00     0.039 H 
ENDBRANCH  32  33
BRANCH  32  37
ATOM     37  C   LIG d   1      11.091   9.363   0.777  0.00  0.00    -0.012 C 
ATOM     38  H   LIG d   1      10.487   8.612   1.287  0.00  0.00     0.039 H 
ATOM     39  H   LIG d   1      12.070   8.945   0.545  0.00  0.00     0.039 H 
ATOM     40  H   LIG d   1      11.212  10.232   1.423  0.00  0.00     0.039 H 
ENDBRANCH  32  37
ENDBRANCH   1  32
BRANCH  23  41
ATOM     41  C   LIG d   1      11.030   5.080  -1.344  0.00  0.00     0.189 C 
ATOM     42  N   LIG d   1      10.411   4.249  -2.213  0.00  0.00    -0.329 N 
ATOM     43  H   LIG d   1      10.488   4.401  -3.167  0.00  0.00     0.145 HD
ATOM     44  H   LIG d   1       9.891   3.501  -1.881  0.00  0.00     0.145 HD
BRANCH  41  45
ATOM     45  O   LIG d   1      11.379   4.638  -0.124  0.00  0.00    -0.495 OA
ATOM     46  H   LIG d   1      12.139   5.098   0.259  0.00  0.00     0.293 HD
ENDBRANCH  41  45
ENDBRANCH  23  41
BRANCH  20  47
ATOM     47  O   LIG d   1      14.058   8.245  -3.360  0.00  0.00    -0.377 OA
ATOM     48  H   LIG d   1      14.427   7.500  -3.853  0.00  0.00     0.211 HD
ENDBRANCH  20  47
BRANCH   8  49
ATOM     49  O   LIG d   1       9.983  11.529  -2.660  0.00  0.00    -0.387 OA
ATOM     50  H   LIG d   1       9.278  12.181  -2.548  0.00  0.00     0.210 HD
ENDBRANCH   8  49
BRANCH  14  51
ATOM     51  O   LIG d   1       9.608  10.899  -8.028  0.00  0.00    -0.506 OA
ATOM     52  H   LIG d   1       9.006  10.189  -7.769  0.00  0.00     0.292 HD
ENDBRANCH  14  51
TORSDOF 8
ENDMDL
MODEL 9
REMARK VINA RESULT:      -5.6      4.769      7.732
REMARK  8 active torsions:
REMARK  status: ('A' for Active; 'I' for Inactive)
REMARK    1  A    between atoms: C_1  and  N_2 
REMARK    2  A    between atoms: N_2  and  C_3 
REMARK    3  A    between atoms: N_2  and  C_4 
REMARK    4  A    between atoms: C_11  and  O_36 
REMARK    5  A    between atoms: C_17  and  O_34 
REMARK    6  A    between atoms: C_23  and  O_32 
REMARK    7  A    between atoms: C_26  and  C_27 
REMARK    8  A    between atoms: C_27  and  O_29 
ROOT
ATOM      1  C   LIG d   1       4.494  -0.934  -8.429  0.00  0.00     0.080 C 
ATOM      2  H   LIG d   1       4.449  -1.363  -9.429  0.00  0.00     0.055 H 
ATOM      3  C   LIG d   1       3.398   0.120  -8.274  0.00  0.00     0.022 C 
ATOM      4  H   LIG d   1       3.443   0.546  -7.270  0.00  0.00     0.036 H 
ATOM      5  C   LIG d   1       2.027  -0.498  -8.497  0.00  0.00    -0.035 C 
ATOM      6  C   LIG d   1       1.763  -0.894  -9.932  0.00  0.00     0.018 C 
ATOM      7  H   LIG d   1       0.814  -0.439 -10.218  0.00  0.00     0.038 H 
ATOM      8  C   LIG d   1       1.574  -2.407 -10.029  0.00  0.00     0.089 C 
ATOM      9  H   LIG d   1       0.737  -2.706  -9.396  0.00  0.00     0.065 H 
ATOM     10  C   LIG d   1       1.294  -2.817 -11.449  0.00  0.00     0.014 A 
ATOM     11  C   LIG d   1       0.419  -3.852 -11.713  0.00  0.00     0.048 A 
ATOM     12  C   LIG d   1       0.175  -4.242 -13.020  0.00  0.00    -0.040 A 
ATOM     13  C   LIG d   1       0.804  -3.603 -14.072  0.00  0.00    -0.018 A 
ATOM     14  C   LIG d   1       1.680  -2.556 -13.824  0.00  0.00     0.128 A 
ATOM     15  C   LIG d   1       1.920  -2.154 -12.505  0.00  0.00     0.070 A 
ATOM     16  C   LIG d   1       2.810  -1.011 -12.221  0.00  0.00     0.193 C 
ATOM     17  C   LIG d   1       2.782  -0.431 -10.921  0.00  0.00    -0.003 C 
ATOM     18  C   LIG d   1       3.670   0.547 -10.659  0.00  0.00    -0.085 C 
ATOM     19  O   LIG d   1       4.567   0.925 -11.593  0.00  0.00    -0.874 OA
ATOM     20  C   LIG d   1       3.624   1.231  -9.310  0.00  0.00     0.145 C 
ATOM     21  C   LIG d   1       4.974   1.856  -9.059  0.00  0.00     0.206 C 
ATOM     22  O   LIG d   1       5.155   3.030  -9.314  0.00  0.00    -0.288 OA
ATOM     23  C   LIG d   1       6.026   1.080  -8.531  0.00  0.00     0.121 C 
ATOM     24  C   LIG d   1       5.839  -0.284  -8.219  0.00  0.00     0.189 C 
ATOM     25  O   LIG d   1       6.763  -0.936  -7.777  0.00  0.00    -0.290 OA
ATOM     26  O   LIG d   1       3.560  -0.580 -13.079  0.00  0.00    -0.287 OA
ATOM     27 CL   LIG d   1      -0.377  -4.667 -10.403  0.00  0.00    -0.083 Cl
ATOM     28  H   LIG d   1       1.940  -1.386  -7.869  0.00  0.00     0.028 H 
ATOM     29  H   LIG d   1       1.267   0.220  -8.188  0.00  0.00     0.028 H 
ATOM     30  H   LIG d   1      -0.511  -5.052 -13.219  0.00  0.00     0.063 H 
ATOM     31  H   LIG d   1       0.613  -3.919 -15.087  0.00  0.00     0.066 H 
ENDROOT
BRANCH   1  32
ATOM     32  N   LIG d   1       4.300  -1.995  -7.430  0.00  0.00    -0.298 N 
BRANCH  32  33
ATOM     33  C   LIG d   1       5.225  -3.112  -7.664  0.00  0.00    -0.012 C 
ATOM     34  H   LIG d   1       4.655  -4.017  -7.875  0.00  0.00     0.039 H 
ATOM     35  H   LIG d   1       5.868  -2.880  -8.513  0.00  0.00     0.039 H 
ATOM     36  H   LIG d   1       5.839  -3.268  -6.776  0.00  0.00     0.039 H 
ENDBRANCH  32  33
BRANCH  32  37
ATOM     37  C   LIG d   1       4.446  -1.467  -6.067  0.00  0.00    -0.012 C 
ATOM     38  H   LIG d   1       4.736  -2.274  -5.394  0.00  0.00     0.039 H 
ATOM     39  H   LIG d   1       5.212  -0.692  -6.056  0.00  0.00     0.039 H 
ATOM     40  H   LIG d   1       3.497  -1.044  -5.738  0.00  0.00     0.039 H 
ENDBRANCH  32  37
ENDBRANCH   1  32
BRANCH  23  41
ATOM     41  C   LIG d   1       7.280   1.673  -8.312  0.00  0.00     0.189 C 
ATOM     42  N   LIG d   1       7.783   1.748  -7.060  0.00  0.00    -0.329 N 
ATOM     43  H   LIG d   1       7.509   1.104  -6.388  0.00  0.00     0.145 HD
ATOM     44  H   LIG d   1       8.418   2.445  -6.833  0.00  0.00     0.145 HD
BRANCH  41  45
ATOM     45  O   LIG d   1       7.980   2.167  -9.348  0.00  0.00    -0.495 OA
ATOM     46  H   LIG d   1       8.068   3.130  -9.339  0.00  0.00     0.293 HD
ENDBRANCH  41  45
ENDBRANCH  23  41
BRANCH  20  47
ATOM     47  O   LIG d   1       2.580   2.206  -9.244  0.00  0.00    -0.377 OA
ATOM     48  H   LIG d   1       2.595   2.744  -8.441  0.00  0.00     0.211 HD
ENDBRANCH  20  47
BRANCH   8  49
ATOM     49  O   LIG d   1       2.762  -3.061  -9.576  0.00  0.00    -0.387 OA
ATOM     50  H   LIG d   1       2.601  -3.775  -8.944  0.00  0.00     0.210 HD
ENDBRANCH   8  49
BRANCH  14  51
ATOM     51  O   LIG d   1       2.300  -1.928 -14.854  0.00  0.00    -0.506 OA
ATOM     52  H   LIG d   1       2.136  -2.331 -15.717  0.00  0.00     0.292 HD
ENDBRANCH  14  51
TORSDOF 8
ENDMDL
MODEL 10
REMARK VINA RESULT:      -5.6      4.103      6.507
REMARK  8 active torsions:
REMARK  status: ('A' for Active; 'I' for Inactive)
REMARK    1  A    between atoms: C_1  and  N_2 
REMARK    2  A    between atoms: N_2  and  C_3 
REMARK    3  A    between atoms: N_2  and  C_4 
REMARK    4  A    between atoms: C_11  and  O_36 
REMARK    5  A    between atoms: C_17  and  O_34 
REMARK    6  A    between atoms: C_23  and  O_32 
REMARK    7  A    between atoms: C_26  and  C_27 
REMARK    8  A    between atoms: C_27  and  O_29 
ROOT
ATOM      1  C   LIG d   1       5.653  -1.442  -6.571  0.00  0.00     0.080 C 
ATOM      2  H   LIG d   1       5.235  -2.428  -6.767  0.00  0.00     0.055 H 
ATOM      3  C   LIG d   1       6.715  -1.543  -5.477  0.00  0.00     0.022 C 
ATOM      4  H   LIG d   1       7.134  -0.555  -5.285  0.00  0.00     0.036 H 
ATOM      5  C   LIG d   1       7.828  -2.489  -5.899  0.00  0.00    -0.035 C 
ATOM      6  C   LIG d   1       7.409  -3.941  -5.947  0.00  0.00     0.018 C 
ATOM      7  H   LIG d   1       8.133  -4.500  -5.353  0.00  0.00     0.038 H 
ATOM      8  C   LIG d   1       7.513  -4.466  -7.378  0.00  0.00     0.089 C 
ATOM      9  H   LIG d   1       8.542  -4.359  -7.725  0.00  0.00     0.065 H 
ATOM     10  C   LIG d   1       7.115  -5.915  -7.442  0.00  0.00     0.014 A 
ATOM     11  C   LIG d   1       7.762  -6.775  -8.307  0.00  0.00     0.048 A 
ATOM     12  C   LIG d   1       7.383  -8.106  -8.380  0.00  0.00    -0.040 A 
ATOM     13  C   LIG d   1       6.355  -8.587  -7.591  0.00  0.00    -0.018 A 
ATOM     14  C   LIG d   1       5.700  -7.738  -6.711  0.00  0.00     0.128 A 
ATOM     15  C   LIG d   1       6.088  -6.395  -6.629  0.00  0.00     0.070 A 
ATOM     16  C   LIG d   1       5.439  -5.486  -5.664  0.00  0.00     0.193 C 
ATOM     17  C   LIG d   1       6.060  -4.236  -5.380  0.00  0.00    -0.003 C 
ATOM     18  C   LIG d   1       5.399  -3.385  -4.571  0.00  0.00    -0.085 C 
ATOM     19  O   LIG d   1       4.182  -3.708  -4.087  0.00  0.00    -0.874 OA
ATOM     20  C   LIG d   1       6.060  -2.077  -4.194  0.00  0.00     0.145 C 
ATOM     21  C   LIG d   1       4.978  -1.116  -3.770  0.00  0.00     0.206 C 
ATOM     22  O   LIG d   1       4.717  -0.979  -2.592  0.00  0.00    -0.288 OA
ATOM     23  C   LIG d   1       4.268  -0.376  -4.738  0.00  0.00     0.121 C 
ATOM     24  C   LIG d   1       4.558  -0.511  -6.113  0.00  0.00     0.189 C 
ATOM     25  O   LIG d   1       3.925   0.125  -6.931  0.00  0.00    -0.290 OA
ATOM     26  O   LIG d   1       4.388  -5.795  -5.131  0.00  0.00    -0.287 OA
ATOM     27 CL   LIG d   1       9.053  -6.187  -9.307  0.00  0.00    -0.083 Cl
ATOM     28  H   LIG d   1       8.178  -2.194  -6.889  0.00  0.00     0.028 H 
ATOM     29  H   LIG d   1       8.656  -2.388  -5.195  0.00  0.00     0.028 H 
ATOM     30  H   LIG d   1       7.894  -8.773  -9.058  0.00  0.00     0.063 H 
ATOM     31  H   LIG d   1       6.063  -9.624  -7.659  0.00  0.00     0.066 H 
ENDROOT
BRANCH   1  32
ATOM     32  N   LIG d   1       6.263  -0.914  -7.800  0.00  0.00    -0.298 N 
BRANCH  32  33
ATOM     33  C   LIG d   1       5.305  -0.934  -8.914  0.00  0.00    -0.012 C 
ATOM     34  H   LIG d   1       5.367   0.006  -9.462  0.00  0.00     0.039 H 
ATOM     35  H   LIG d   1       5.541  -1.761  -9.582  0.00  0.00     0.039 H 
ATOM     36  H   LIG d   1       4.295  -1.060  -8.522  0.00  0.00     0.039 H 
ENDBRANCH  32  33
BRANCH  32  37
ATOM     37  C   LIG d   1       6.793   0.439  -7.585  0.00  0.00    -0.012 C 
ATOM     38  H   LIG d   1       6.331   1.127  -8.294  0.00  0.00     0.039 H 
ATOM     39  H   LIG d   1       6.569   0.761  -6.568  0.00  0.00     0.039 H 
ATOM     40  H   LIG d   1       7.873   0.434  -7.735  0.00  0.00     0.039 H 
ENDBRANCH  32  37
ENDBRANCH   1  32
BRANCH  23  41
ATOM     41  C   LIG d   1       3.257   0.508  -4.329  0.00  0.00     0.189 C 
ATOM     42  N   LIG d   1       1.969   0.259  -4.657  0.00  0.00    -0.329 N 
ATOM     43  H   LIG d   1       1.678  -0.650  -4.824  0.00  0.00     0.145 HD
ATOM     44  H   LIG d   1       1.336   0.991  -4.725  0.00  0.00     0.145 HD
BRANCH  41  45
ATOM     45  O   LIG d   1       3.569   1.601  -3.613  0.00  0.00    -0.495 OA
ATOM     46  H   LIG d   1       3.211   2.424  -3.975  0.00  0.00     0.293 HD
ENDBRANCH  41  45
ENDBRANCH  23  41
BRANCH  20  47
ATOM     47  O   LIG d   1       7.034  -2.252  -3.162  0.00  0.00    -0.377 OA
ATOM     48  H   LIG d   1       6.985  -1.590  -2.459  0.00  0.00     0.211 HD
ENDBRANCH  20  47
BRANCH   8  49
ATOM     49  O   LIG d   1       6.650  -3.703  -8.224  0.00  0.00    -0.387 OA
ATOM     50  H   LIG d   1       6.263  -4.210  -8.951  0.00  0.00     0.210 HD
ENDBRANCH   8  49
BRANCH  14  51
ATOM     51  O   LIG d   1       4.690  -8.205  -5.936  0.00  0.00    -0.506 OA
ATOM     52  H   LIG d   1       4.564  -9.162  -5.989  0.00  0.00     0.292 HD
ENDBRANCH  14  51
TORSDOF 8
ENDMDL
