MODEL 1
REMARK VINA RESULT:      -5.4      0.000      0.000
REMARK  10 active torsions:
REMARK  status: ('A' for Active; 'I' for Inactive)
REMARK    1  A    between atoms: C_1  and  O_2 
REMARK    2  A    between atoms: O_2  and  C_3 
REMARK    3  A    between atoms: C_6  and  C_10 
REMARK    4  A    between atoms: C_8  and  O_9 
REMARK    5  A    between atoms: C_11  and  O_25 
REMARK    6  A    between atoms: C_12  and  O_24 
REMARK    7  A    between atoms: C_14  and  O_23 
REMARK    8  A    between atoms: C_15  and  O_21 
REMARK    9  A    between atoms: O_21  and  C_22 
REMARK   10  A    between atoms: O_25  and  C_26 
ROOT
ATOM      1  C   LIG d   1       3.656  -0.435  -7.801  0.00  0.00     0.181 A 
ATOM      2  C   LIG d   1       4.502   0.379  -8.531  0.00  0.00     0.205 A 
ATOM      3  C   LIG d   1       4.478   0.328  -9.930  0.00  0.00     0.177 A 
ATOM      4  C   LIG d   1       3.579  -0.564 -10.554  0.00  0.00     0.108 A 
ATOM      5  C   LIG d   1       3.513  -0.656 -11.960  0.00  0.00     0.177 A 
ATOM      6  C   LIG d   1       2.636  -1.525 -12.544  0.00  0.00     0.209 A 
ATOM      7  C   LIG d   1       1.799  -2.330 -11.747  0.00  0.00     0.227 A 
ATOM      8  O   LIG d   1       0.945  -3.177 -12.327  0.00  0.00    -0.284 OA
ATOM      9  C   LIG d   1       1.857  -2.245 -10.353  0.00  0.00     0.032 A 
ATOM     10  C   LIG d   1       2.739  -1.369  -9.751  0.00  0.00     0.147 A 
ATOM     11  O   LIG d   1       2.808  -1.284  -8.405  0.00  0.00    -0.451 OA
ATOM     12  H   LIG d   1       1.212  -2.864  -9.747  0.00  0.00     0.069 H 
ENDROOT
BRANCH   1  13
ATOM     13  C   LIG d   1       3.688  -0.375  -6.330  0.00  0.00     0.025 A 
ATOM     14  C   LIG d   1       2.785   0.441  -5.641  0.00  0.00    -0.047 A 
ATOM     15  C   LIG d   1       2.817   0.495  -4.265  0.00  0.00    -0.016 A 
ATOM     16  H   LIG d   1       2.061   1.026  -6.188  0.00  0.00     0.063 H 
ATOM     17  C   LIG d   1       3.745  -0.257  -3.558  0.00  0.00     0.161 A 
ATOM     18  H   LIG d   1       2.118   1.125  -3.734  0.00  0.00     0.066 H 
ATOM     19  C   LIG d   1       4.653  -1.067  -4.237  0.00  0.00     0.159 A 
ATOM     20  C   LIG d   1       4.624  -1.132  -5.617  0.00  0.00    -0.006 A 
ATOM     21  H   LIG d   1       5.324  -1.763  -6.145  0.00  0.00     0.066 H 
BRANCH  17  22
ATOM     22  O   LIG d   1       3.772  -0.199  -2.202  0.00  0.00    -0.491 OA
BRANCH  22  23
ATOM     23  C   LIG d   1       4.536   0.856  -1.612  0.00  0.00     0.079 C 
ATOM     24  H   LIG d   1       3.983   1.793  -1.692  0.00  0.00     0.066 H 
ATOM     25  H   LIG d   1       4.718   0.629  -0.562  0.00  0.00     0.066 H 
ATOM     26  H   LIG d   1       5.488   0.951  -2.135  0.00  0.00     0.066 H 
ENDBRANCH  22  23
ENDBRANCH  17  22
BRANCH  19  27
ATOM     27  O   LIG d   1       5.565  -1.798  -3.542  0.00  0.00    -0.503 OA
ATOM     28  H   LIG d   1       5.523  -1.672  -2.585  0.00  0.00     0.292 HD
ENDBRANCH  19  27
ENDBRANCH   1  13
BRANCH   2  29
ATOM     29  O   LIG d   1       5.355   1.226  -7.893  0.00  0.00    -0.488 OA
BRANCH  29  30
ATOM     30  C   LIG d   1       6.731   0.844  -7.839  0.00  0.00     0.079 C 
ATOM     31  H   LIG d   1       7.218   1.358  -7.011  0.00  0.00     0.066 H 
ATOM     32  H   LIG d   1       6.803  -0.234  -7.691  0.00  0.00     0.066 H 
ATOM     33  H   LIG d   1       7.220   1.116  -8.774  0.00  0.00     0.066 H 
ENDBRANCH  29  30
ENDBRANCH   2  29
BRANCH   3  34
ATOM     34  O   LIG d   1       5.295   1.114 -10.666  0.00  0.00    -0.503 OA
ATOM     35  H   LIG d   1       5.783   0.640 -11.354  0.00  0.00     0.292 HD
ENDBRANCH   3  34
BRANCH   5  36
ATOM     36  O   LIG d   1       4.319   0.119 -12.732  0.00  0.00    -0.503 OA
ATOM     37  H   LIG d   1       4.558  -0.283 -13.578  0.00  0.00     0.292 HD
ENDBRANCH   5  36
BRANCH   6  38
ATOM     38  O   LIG d   1       2.571  -1.615 -13.901  0.00  0.00    -0.488 OA
BRANCH  38  39
ATOM     39  C   LIG d   1       3.422  -2.576 -14.530  0.00  0.00     0.079 C 
ATOM     40  H   LIG d   1       4.428  -2.493 -14.120  0.00  0.00     0.066 H 
ATOM     41  H   LIG d   1       3.036  -3.579 -14.345  0.00  0.00     0.066 H 
ATOM     42  H   LIG d   1       3.450  -2.390 -15.603  0.00  0.00     0.066 H 
ENDBRANCH  38  39
ENDBRANCH   6  38
TORSDOF 10
ENDMDL
MODEL 2
REMARK VINA RESULT:      -5.2     11.706     17.491
REMARK  10 active torsions:
REMARK  status: ('A' for Active; 'I' for Inactive)
REMARK    1  A    between atoms: C_1  and  O_2 
REMARK    2  A    between atoms: O_2  and  C_3 
REMARK    3  A    between atoms: C_6  and  C_10 
REMARK    4  A    between atoms: C_8  and  O_9 
REMARK    5  A    between atoms: C_11  and  O_25 
REMARK    6  A    between atoms: C_12  and  O_24 
REMARK    7  A    between atoms: C_14  and  O_23 
REMARK    8  A    between atoms: C_15  and  O_21 
REMARK    9  A    between atoms: O_21  and  C_22 
REMARK   10  A    between atoms: O_25  and  C_26 
ROOT
ATOM      1  C   LIG d   1      11.356   7.488   1.970  0.00  0.00     0.181 A 
ATOM      2  C   LIG d   1      11.792   8.798   2.034  0.00  0.00     0.205 A 
ATOM      3  C   LIG d   1      12.060   9.379   3.280  0.00  0.00     0.177 A 
ATOM      4  C   LIG d   1      11.873   8.597   4.440  0.00  0.00     0.108 A 
ATOM      5  C   LIG d   1      12.129   9.133   5.719  0.00  0.00     0.177 A 
ATOM      6  C   LIG d   1      11.942   8.359   6.830  0.00  0.00     0.209 A 
ATOM      7  C   LIG d   1      11.494   7.030   6.700  0.00  0.00     0.227 A 
ATOM      8  O   LIG d   1      11.314   6.281   7.792  0.00  0.00    -0.284 OA
ATOM      9  C   LIG d   1      11.239   6.490   5.437  0.00  0.00     0.032 A 
ATOM     10  C   LIG d   1      11.426   7.263   4.306  0.00  0.00     0.147 A 
ATOM     11  O   LIG d   1      11.176   6.755   3.081  0.00  0.00    -0.451 OA
ATOM     12  H   LIG d   1      10.897   5.470   5.344  0.00  0.00     0.069 H 
ENDROOT
BRANCH   1  13
ATOM     13  C   LIG d   1      11.076   6.884   0.655  0.00  0.00     0.025 A 
ATOM     14  C   LIG d   1      11.792   5.760   0.233  0.00  0.00    -0.047 A 
ATOM     15  C   LIG d   1      11.529   5.198  -0.997  0.00  0.00    -0.016 A 
ATOM     16  H   LIG d   1      12.551   5.332   0.871  0.00  0.00     0.063 H 
ATOM     17  C   LIG d   1      10.553   5.744  -1.820  0.00  0.00     0.161 A 
ATOM     18  H   LIG d   1      12.082   4.329  -1.322  0.00  0.00     0.066 H 
ATOM     19  C   LIG d   1       9.840   6.869  -1.409  0.00  0.00     0.159 A 
ATOM     20  C   LIG d   1      10.094   7.435  -0.174  0.00  0.00    -0.006 A 
ATOM     21  H   LIG d   1       9.539   8.304   0.148  0.00  0.00     0.066 H 
BRANCH  17  22
ATOM     22  O   LIG d   1      10.298   5.186  -3.031  0.00  0.00    -0.491 OA
BRANCH  22  23
ATOM     23  C   LIG d   1       9.827   3.836  -3.038  0.00  0.00     0.079 C 
ATOM     24  H   LIG d   1      10.289   3.295  -3.864  0.00  0.00     0.066 H 
ATOM     25  H   LIG d   1      10.089   3.356  -2.096  0.00  0.00     0.066 H 
ATOM     26  H   LIG d   1       8.744   3.831  -3.161  0.00  0.00     0.066 H 
ENDBRANCH  22  23
ENDBRANCH  17  22
BRANCH  19  27
ATOM     27  O   LIG d   1       8.889   7.405  -2.219  0.00  0.00    -0.503 OA
ATOM     28  H   LIG d   1       9.208   8.131  -2.772  0.00  0.00     0.292 HD
ENDBRANCH  19  27
ENDBRANCH   1  13
BRANCH   2  29
ATOM     29  O   LIG d   1      11.961   9.520   0.893  0.00  0.00    -0.488 OA
BRANCH  29  30
ATOM     30  C   LIG d   1      13.273   9.541   0.327  0.00  0.00     0.079 C 
ATOM     31  H   LIG d   1      13.771   8.593   0.529  0.00  0.00     0.066 H 
ATOM     32  H   LIG d   1      13.201   9.692  -0.750  0.00  0.00     0.066 H 
ATOM     33  H   LIG d   1      13.846  10.355   0.770  0.00  0.00     0.066 H 
ENDBRANCH  29  30
ENDBRANCH   2  29
BRANCH   3  34
ATOM     34  O   LIG d   1      12.489  10.658   3.369  0.00  0.00    -0.503 OA
ATOM     35  H   LIG d   1      11.823  11.274   3.706  0.00  0.00     0.292 HD
ENDBRANCH   3  34
BRANCH   5  36
ATOM     36  O   LIG d   1      12.560  10.415   5.848  0.00  0.00    -0.503 OA
ATOM     37  H   LIG d   1      12.283  10.842   6.669  0.00  0.00     0.292 HD
ENDBRANCH   5  36
BRANCH   6  38
ATOM     38  O   LIG d   1      12.187   8.874   8.066  0.00  0.00    -0.488 OA
BRANCH  38  39
ATOM     39  C   LIG d   1      13.499   8.682   8.600  0.00  0.00     0.079 C 
ATOM     40  H   LIG d   1      13.653   9.362   9.438  0.00  0.00     0.066 H 
ATOM     41  H   LIG d   1      13.605   7.652   8.943  0.00  0.00     0.066 H 
ATOM     42  H   LIG d   1      14.240   8.886   7.827  0.00  0.00     0.066 H 
ENDBRANCH  38  39
ENDBRANCH   6  38
TORSDOF 10
ENDMDL
MODEL 3
REMARK VINA RESULT:      -5.2     10.403     14.121
REMARK  10 active torsions:
REMARK  status: ('A' for Active; 'I' for Inactive)
REMARK    1  A    between atoms: C_1  and  O_2 
REMARK    2  A    between atoms: O_2  and  C_3 
REMARK    3  A    between atoms: C_6  and  C_10 
REMARK    4  A    between atoms: C_8  and  O_9 
REMARK    5  A    between atoms: C_11  and  O_25 
REMARK    6  A    between atoms: C_12  and  O_24 
REMARK    7  A    between atoms: C_14  and  O_23 
REMARK    8  A    between atoms: C_15  and  O_21 
REMARK    9  A    between atoms: O_21  and  C_22 
REMARK   10  A    between atoms: O_25  and  C_26 
ROOT
ATOM      1  C   LIG d   1       7.138 -10.372  -2.464  0.00  0.00     0.181 A 
ATOM      2  C   LIG d   1       7.773  -9.185  -2.778  0.00  0.00     0.205 A 
ATOM      3  C   LIG d   1       8.920  -8.804  -2.071  0.00  0.00     0.177 A 
ATOM      4  C   LIG d   1       9.393  -9.656  -1.049  0.00  0.00     0.108 A 
ATOM      5  C   LIG d   1      10.544  -9.320  -0.306  0.00  0.00     0.177 A 
ATOM      6  C   LIG d   1      10.985 -10.158   0.679  0.00  0.00     0.209 A 
ATOM      7  C   LIG d   1      10.294 -11.353   0.954  0.00  0.00     0.227 A 
ATOM      8  O   LIG d   1      10.733 -12.166   1.919  0.00  0.00    -0.284 OA
ATOM      9  C   LIG d   1       9.154 -11.695   0.223  0.00  0.00     0.032 A 
ATOM     10  C   LIG d   1       8.698 -10.855  -0.777  0.00  0.00     0.147 A 
ATOM     11  O   LIG d   1       7.593 -11.172  -1.485  0.00  0.00    -0.451 OA
ATOM     12  H   LIG d   1       8.628 -12.613   0.437  0.00  0.00     0.069 H 
ENDROOT
BRANCH   1  13
ATOM     13  C   LIG d   1       5.932 -10.765  -3.213  0.00  0.00     0.025 A 
ATOM     14  C   LIG d   1       6.043 -11.580  -4.344  0.00  0.00    -0.047 A 
ATOM     15  C   LIG d   1       4.914 -11.946  -5.042  0.00  0.00    -0.016 A 
ATOM     16  H   LIG d   1       7.014 -11.923  -4.668  0.00  0.00     0.063 H 
ATOM     17  C   LIG d   1       3.664 -11.509  -4.627  0.00  0.00     0.161 A 
ATOM     18  H   LIG d   1       5.001 -12.577  -5.915  0.00  0.00     0.066 H 
ATOM     19  C   LIG d   1       3.545 -10.690  -3.505  0.00  0.00     0.159 A 
ATOM     20  C   LIG d   1       4.672 -10.323  -2.795  0.00  0.00    -0.006 A 
ATOM     21  H   LIG d   1       4.581  -9.693  -1.923  0.00  0.00     0.066 H 
BRANCH  17  22
ATOM     22  O   LIG d   1       2.554 -11.872  -5.321  0.00  0.00    -0.491 OA
BRANCH  22  23
ATOM     23  C   LIG d   1       2.717 -12.872  -6.329  0.00  0.00     0.079 C 
ATOM     24  H   LIG d   1       2.942 -13.829  -5.859  0.00  0.00     0.066 H 
ATOM     25  H   LIG d   1       1.797 -12.957  -6.908  0.00  0.00     0.066 H 
ATOM     26  H   LIG d   1       3.537 -12.590  -6.990  0.00  0.00     0.066 H 
ENDBRANCH  22  23
ENDBRANCH  17  22
BRANCH  19  27
ATOM     27  O   LIG d   1       2.320 -10.258  -3.105  0.00  0.00    -0.503 OA
ATOM     28  H   LIG d   1       2.113  -9.354  -3.376  0.00  0.00     0.292 HD
ENDBRANCH  19  27
ENDBRANCH   1  13
BRANCH   2  29
ATOM     29  O   LIG d   1       7.287  -8.391  -3.771  0.00  0.00    -0.488 OA
BRANCH  29  30
ATOM     30  C   LIG d   1       7.927  -8.481  -5.046  0.00  0.00     0.079 C 
ATOM     31  H   LIG d   1       8.820  -9.101  -4.961  0.00  0.00     0.066 H 
ATOM     32  H   LIG d   1       7.241  -8.929  -5.765  0.00  0.00     0.066 H 
ATOM     33  H   LIG d   1       8.207  -7.484  -5.383  0.00  0.00     0.066 H 
ENDBRANCH  29  30
ENDBRANCH   2  29
BRANCH   3  34
ATOM     34  O   LIG d   1       9.560  -7.649  -2.361  0.00  0.00    -0.503 OA
ATOM     35  H   LIG d   1       9.749  -7.528  -3.302  0.00  0.00     0.292 HD
ENDBRANCH   3  34
BRANCH   5  36
ATOM     36  O   LIG d   1      11.213  -8.167  -0.569  0.00  0.00    -0.503 OA
ATOM     37  H   LIG d   1      11.647  -7.779   0.203  0.00  0.00     0.292 HD
ENDBRANCH   5  36
BRANCH   6  38
ATOM     38  O   LIG d   1      12.096  -9.836   1.398  0.00  0.00    -0.488 OA
BRANCH  38  39
ATOM     39  C   LIG d   1      11.897  -9.086   2.598  0.00  0.00     0.079 C 
ATOM     40  H   LIG d   1      12.665  -8.316   2.676  0.00  0.00     0.066 H 
ATOM     41  H   LIG d   1      10.913  -8.617   2.575  0.00  0.00     0.066 H 
ATOM     42  H   LIG d   1      11.962  -9.752   3.458  0.00  0.00     0.066 H 
ENDBRANCH  38  39
ENDBRANCH   6  38
TORSDOF 10
ENDMDL
MODEL 4
REMARK VINA RESULT:      -5.1     11.820     15.423
REMARK  10 active torsions:
REMARK  status: ('A' for Active; 'I' for Inactive)
REMARK    1  A    between atoms: C_1  and  O_2 
REMARK    2  A    between atoms: O_2  and  C_3 
REMARK    3  A    between atoms: C_6  and  C_10 
REMARK    4  A    between atoms: C_8  and  O_9 
REMARK    5  A    between atoms: C_11  and  O_25 
REMARK    6  A    between atoms: C_12  and  O_24 
REMARK    7  A    between atoms: C_14  and  O_23 
REMARK    8  A    between atoms: C_15  and  O_21 
REMARK    9  A    between atoms: O_21  and  C_22 
REMARK   10  A    between atoms: O_25  and  C_26 
ROOT
ATOM      1  C   LIG d   1       9.428  -9.821  -0.717  0.00  0.00     0.181 A 
ATOM      2  C   LIG d   1      10.197  -8.778  -1.200  0.00  0.00     0.205 A 
ATOM      3  C   LIG d   1      11.253  -8.280  -0.427  0.00  0.00     0.177 A 
ATOM      4  C   LIG d   1      11.498  -8.867   0.833  0.00  0.00     0.108 A 
ATOM      5  C   LIG d   1      12.549  -8.404   1.652  0.00  0.00     0.177 A 
ATOM      6  C   LIG d   1      12.771  -8.986   2.868  0.00  0.00     0.209 A 
ATOM      7  C   LIG d   1      11.952 -10.045   3.306  0.00  0.00     0.227 A 
ATOM      8  O   LIG d   1      12.176 -10.608   4.496  0.00  0.00    -0.284 OA
ATOM      9  C   LIG d   1      10.909 -10.511   2.501  0.00  0.00     0.032 A 
ATOM     10  C   LIG d   1      10.676  -9.931   1.268  0.00  0.00     0.147 A 
ATOM     11  O   LIG d   1       9.667 -10.368   0.486  0.00  0.00    -0.451 OA
ATOM     12  H   LIG d   1      10.285 -11.324   2.842  0.00  0.00     0.069 H 
ENDROOT
BRANCH   1  13
ATOM     13  C   LIG d   1       8.319 -10.339  -1.537  0.00  0.00     0.025 A 
ATOM     14  C   LIG d   1       7.086  -9.678  -1.546  0.00  0.00    -0.047 A 
ATOM     15  C   LIG d   1       6.051 -10.165  -2.314  0.00  0.00    -0.016 A 
ATOM     16  H   LIG d   1       6.946  -8.788  -0.953  0.00  0.00     0.063 H 
ATOM     17  C   LIG d   1       6.227 -11.309  -3.080  0.00  0.00     0.161 A 
ATOM     18  H   LIG d   1       5.099  -9.654  -2.321  0.00  0.00     0.066 H 
ATOM     19  C   LIG d   1       7.451 -11.977  -3.070  0.00  0.00     0.159 A 
ATOM     20  C   LIG d   1       8.496 -11.492  -2.308  0.00  0.00    -0.006 A 
ATOM     21  H   LIG d   1       9.446 -12.006  -2.303  0.00  0.00     0.066 H 
BRANCH  17  22
ATOM     22  O   LIG d   1       5.202 -11.784  -3.834  0.00  0.00    -0.491 OA
BRANCH  22  23
ATOM     23  C   LIG d   1       3.974 -11.053  -3.795  0.00  0.00     0.079 C 
ATOM     24  H   LIG d   1       3.287 -11.535  -3.099  0.00  0.00     0.066 H 
ATOM     25  H   LIG d   1       4.170 -10.033  -3.467  0.00  0.00     0.066 H 
ATOM     26  H   LIG d   1       3.531 -11.036  -4.791  0.00  0.00     0.066 H 
ENDBRANCH  22  23
ENDBRANCH  17  22
BRANCH  19  27
ATOM     27  O   LIG d   1       7.618 -13.101  -3.816  0.00  0.00    -0.503 OA
ATOM     28  H   LIG d   1       7.793 -13.896  -3.296  0.00  0.00     0.292 HD
ENDBRANCH  19  27
ENDBRANCH   1  13
BRANCH   2  29
ATOM     29  O   LIG d   1       9.929  -8.239  -2.420  0.00  0.00    -0.488 OA
BRANCH  29  30
ATOM     30  C   LIG d   1      10.714  -8.702  -3.521  0.00  0.00     0.079 C 
ATOM     31  H   LIG d   1      10.564  -9.774  -3.647  0.00  0.00     0.066 H 
ATOM     32  H   LIG d   1      10.409  -8.182  -4.429  0.00  0.00     0.066 H 
ATOM     33  H   LIG d   1      11.767  -8.503  -3.325  0.00  0.00     0.066 H 
ENDBRANCH  29  30
ENDBRANCH   2  29
BRANCH   3  34
ATOM     34  O   LIG d   1      12.020  -7.262  -0.877  0.00  0.00    -0.503 OA
ATOM     35  H   LIG d   1      12.950  -7.324  -0.618  0.00  0.00     0.292 HD
ENDBRANCH   3  34
BRANCH   5  36
ATOM     36  O   LIG d   1      13.341  -7.382   1.232  0.00  0.00    -0.503 OA
ATOM     37  H   LIG d   1      13.737  -7.523   0.362  0.00  0.00     0.292 HD
ENDBRANCH   5  36
BRANCH   6  38
ATOM     38  O   LIG d   1      13.785  -8.541   3.660  0.00  0.00    -0.488 OA
BRANCH  38  39
ATOM     39  C   LIG d   1      15.060  -9.165   3.495  0.00  0.00     0.079 C 
ATOM     40  H   LIG d   1      15.507  -9.342   4.473  0.00  0.00     0.066 H 
ATOM     41  H   LIG d   1      14.934 -10.116   2.976  0.00  0.00     0.066 H 
ATOM     42  H   LIG d   1      15.710  -8.515   2.910  0.00  0.00     0.066 H 
ENDBRANCH  38  39
ENDBRANCH   6  38
TORSDOF 10
ENDMDL
MODEL 5
REMARK VINA RESULT:      -5.1      7.994     12.616
REMARK  10 active torsions:
REMARK  status: ('A' for Active; 'I' for Inactive)
REMARK    1  A    between atoms: C_1  and  O_2 
REMARK    2  A    between atoms: O_2  and  C_3 
REMARK    3  A    between atoms: C_6  and  C_10 
REMARK    4  A    between atoms: C_8  and  O_9 
REMARK    5  A    between atoms: C_11  and  O_25 
REMARK    6  A    between atoms: C_12  and  O_24 
REMARK    7  A    between atoms: C_14  and  O_23 
REMARK    8  A    between atoms: C_15  and  O_21 
REMARK    9  A    between atoms: O_21  and  C_22 
REMARK   10  A    between atoms: O_25  and  C_26 
ROOT
ATOM      1  C   LIG d   1       9.918   4.713  -2.975  0.00  0.00     0.181 A 
ATOM      2  C   LIG d   1       9.651   5.875  -3.676  0.00  0.00     0.205 A 
ATOM      3  C   LIG d   1       9.797   7.116  -3.044  0.00  0.00     0.177 A 
ATOM      4  C   LIG d   1      10.217   7.137  -1.696  0.00  0.00     0.108 A 
ATOM      5  C   LIG d   1      10.380   8.360  -1.011  0.00  0.00     0.177 A 
ATOM      6  C   LIG d   1      10.787   8.359   0.293  0.00  0.00     0.209 A 
ATOM      7  C   LIG d   1      11.043   7.142   0.954  0.00  0.00     0.227 A 
ATOM      8  O   LIG d   1      11.440   7.152   2.230  0.00  0.00    -0.284 OA
ATOM      9  C   LIG d   1      10.885   5.927   0.284  0.00  0.00     0.032 A 
ATOM     10  C   LIG d   1      10.474   5.915  -1.036  0.00  0.00     0.147 A 
ATOM     11  O   LIG d   1      10.312   4.746  -1.691  0.00  0.00    -0.451 OA
ATOM     12  H   LIG d   1      11.083   4.997   0.796  0.00  0.00     0.069 H 
ENDROOT
BRANCH   1  13
ATOM     13  C   LIG d   1       9.762   3.413  -3.648  0.00  0.00     0.025 A 
ATOM     14  C   LIG d   1      10.886   2.728  -4.121  0.00  0.00    -0.047 A 
ATOM     15  C   LIG d   1      10.737   1.512  -4.750  0.00  0.00    -0.016 A 
ATOM     16  H   LIG d   1      11.871   3.152  -3.992  0.00  0.00     0.063 H 
ATOM     17  C   LIG d   1       9.473   0.962  -4.917  0.00  0.00     0.161 A 
ATOM     18  H   LIG d   1      11.606   0.983  -5.114  0.00  0.00     0.066 H 
ATOM     19  C   LIG d   1       8.347   1.641  -4.455  0.00  0.00     0.159 A 
ATOM     20  C   LIG d   1       8.489   2.859  -3.818  0.00  0.00    -0.006 A 
ATOM     21  H   LIG d   1       7.617   3.385  -3.455  0.00  0.00     0.066 H 
BRANCH  17  22
ATOM     22  O   LIG d   1       9.333  -0.237  -5.539  0.00  0.00    -0.491 OA
BRANCH  22  23
ATOM     23  C   LIG d   1      10.356  -1.210  -5.312  0.00  0.00     0.079 C 
ATOM     24  H   LIG d   1       9.898  -2.166  -5.056  0.00  0.00     0.066 H 
ATOM     25  H   LIG d   1      10.955  -1.324  -6.216  0.00  0.00     0.066 H 
ATOM     26  H   LIG d   1      10.994  -0.881  -4.492  0.00  0.00     0.066 H 
ENDBRANCH  22  23
ENDBRANCH  17  22
BRANCH  19  27
ATOM     27  O   LIG d   1       7.111   1.103  -4.625  0.00  0.00    -0.503 OA
ATOM     28  H   LIG d   1       6.745   0.697  -3.829  0.00  0.00     0.292 HD
ENDBRANCH  19  27
ENDBRANCH   1  13
BRANCH   2  29
ATOM     29  O   LIG d   1       9.249   5.813  -4.975  0.00  0.00    -0.488 OA
BRANCH  29  30
ATOM     30  C   LIG d   1      10.260   5.960  -5.975  0.00  0.00     0.079 C 
ATOM     31  H   LIG d   1      10.743   4.998  -6.146  0.00  0.00     0.066 H 
ATOM     32  H   LIG d   1       9.805   6.309  -6.902  0.00  0.00     0.066 H 
ATOM     33  H   LIG d   1      11.001   6.684  -5.639  0.00  0.00     0.066 H 
ENDBRANCH  29  30
ENDBRANCH   2  29
BRANCH   3  34
ATOM     34  O   LIG d   1       9.543   8.266  -3.708  0.00  0.00    -0.503 OA
ATOM     35  H   LIG d   1       9.537   8.171  -4.671  0.00  0.00     0.292 HD
ENDBRANCH   3  34
BRANCH   5  36
ATOM     36  O   LIG d   1      10.134   9.535  -1.647  0.00  0.00    -0.503 OA
ATOM     37  H   LIG d   1       9.194   9.746  -1.734  0.00  0.00     0.292 HD
ENDBRANCH   5  36
BRANCH   6  38
ATOM     38  O   LIG d   1      10.945   9.538   0.956  0.00  0.00    -0.488 OA
BRANCH  38  39
ATOM     39  C   LIG d   1      12.229  10.160   0.877  0.00  0.00     0.079 C 
ATOM     40  H   LIG d   1      12.997   9.448   1.180  0.00  0.00     0.066 H 
ATOM     41  H   LIG d   1      12.416  10.479  -0.149  0.00  0.00     0.066 H 
ATOM     42  H   LIG d   1      12.255  11.026   1.537  0.00  0.00     0.066 H 
ENDBRANCH  38  39
ENDBRANCH   6  38
TORSDOF 10
ENDMDL
MODEL 6
REMARK VINA RESULT:      -5.1      1.832      7.657
REMARK  10 active torsions:
REMARK  status: ('A' for Active; 'I' for Inactive)
REMARK    1  A    between atoms: C_1  and  O_2 
REMARK    2  A    between atoms: O_2  and  C_3 
REMARK    3  A    between atoms: C_6  and  C_10 
REMARK    4  A    between atoms: C_8  and  O_9 
REMARK    5  A    between atoms: C_11  and  O_25 
REMARK    6  A    between atoms: C_12  and  O_24 
REMARK    7  A    between atoms: C_14  and  O_23 
REMARK    8  A    between atoms: C_15  and  O_21 
REMARK    9  A    between atoms: O_21  and  C_22 
REMARK   10  A    between atoms: O_25  and  C_26 
ROOT
ATOM      1  C   LIG d   1       3.664  -0.847  -9.351  0.00  0.00     0.181 A 
ATOM      2  C   LIG d   1       3.196   0.295  -8.729  0.00  0.00     0.205 A 
ATOM      3  C   LIG d   1       3.319   0.428  -7.340  0.00  0.00     0.177 A 
ATOM      4  C   LIG d   1       3.925  -0.621  -6.616  0.00  0.00     0.108 A 
ATOM      5  C   LIG d   1       4.074  -0.538  -5.216  0.00  0.00     0.177 A 
ATOM      6  C   LIG d   1       4.664  -1.565  -4.533  0.00  0.00     0.209 A 
ATOM      7  C   LIG d   1       5.121  -2.704  -5.223  0.00  0.00     0.227 A 
ATOM      8  O   LIG d   1       5.695  -3.703  -4.547  0.00  0.00    -0.284 OA
ATOM      9  C   LIG d   1       4.978  -2.795  -6.610  0.00  0.00     0.032 A 
ATOM     10  C   LIG d   1       4.384  -1.762  -7.312  0.00  0.00     0.147 A 
ATOM     11  O   LIG d   1       4.235  -1.842  -8.651  0.00  0.00    -0.451 OA
ATOM     12  H   LIG d   1       5.331  -3.670  -7.134  0.00  0.00     0.069 H 
ENDROOT
BRANCH   1  13
ATOM     13  C   LIG d   1       3.531  -0.979 -10.812  0.00  0.00     0.025 A 
ATOM     14  C   LIG d   1       2.349  -1.482 -11.366  0.00  0.00    -0.047 A 
ATOM     15  C   LIG d   1       2.227  -1.603 -12.732  0.00  0.00    -0.016 A 
ATOM     16  H   LIG d   1       1.532  -1.773 -10.723  0.00  0.00     0.063 H 
ATOM     17  C   LIG d   1       3.274  -1.228 -13.563  0.00  0.00     0.161 A 
ATOM     18  H   LIG d   1       1.313  -1.991 -13.159  0.00  0.00     0.066 H 
ATOM     19  C   LIG d   1       4.457  -0.733 -13.019  0.00  0.00     0.159 A 
ATOM     20  C   LIG d   1       4.586  -0.602 -11.649  0.00  0.00    -0.006 A 
ATOM     21  H   LIG d   1       5.501  -0.214 -11.226  0.00  0.00     0.066 H 
BRANCH  17  22
ATOM     22  O   LIG d   1       3.147  -1.352 -14.910  0.00  0.00    -0.491 OA
BRANCH  22  23
ATOM     23  C   LIG d   1       2.351  -2.437 -15.391  0.00  0.00     0.079 C 
ATOM     24  H   LIG d   1       1.881  -2.944 -14.548  0.00  0.00     0.066 H 
ATOM     25  H   LIG d   1       1.581  -2.053 -16.060  0.00  0.00     0.066 H 
ATOM     26  H   LIG d   1       2.984  -3.140 -15.931  0.00  0.00     0.066 H 
ENDBRANCH  22  23
ENDBRANCH  17  22
BRANCH  19  27
ATOM     27  O   LIG d   1       5.483  -0.373 -13.835  0.00  0.00    -0.503 OA
ATOM     28  H   LIG d   1       5.419   0.531 -14.172  0.00  0.00     0.292 HD
ENDBRANCH  19  27
ENDBRANCH   1  13
BRANCH   2  29
ATOM     29  O   LIG d   1       2.618   1.285  -9.462  0.00  0.00    -0.488 OA
BRANCH  29  30
ATOM     30  C   LIG d   1       3.452   2.381  -9.842  0.00  0.00     0.079 C 
ATOM     31  H   LIG d   1       3.401   2.518 -10.922  0.00  0.00     0.066 H 
ATOM     32  H   LIG d   1       3.108   3.289  -9.345  0.00  0.00     0.066 H 
ATOM     33  H   LIG d   1       4.481   2.174  -9.550  0.00  0.00     0.066 H 
ENDBRANCH  29  30
ENDBRANCH   2  29
BRANCH   3  34
ATOM     34  O   LIG d   1       2.869   1.536  -6.708  0.00  0.00    -0.503 OA
ATOM     35  H   LIG d   1       2.065   1.910  -7.095  0.00  0.00     0.292 HD
ENDBRANCH   3  34
BRANCH   5  36
ATOM     36  O   LIG d   1       3.634   0.560  -4.547  0.00  0.00    -0.503 OA
ATOM     37  H   LIG d   1       3.709   0.490  -3.586  0.00  0.00     0.292 HD
ENDBRANCH   5  36
BRANCH   6  38
ATOM     38  O   LIG d   1       4.809  -1.487  -3.181  0.00  0.00    -0.488 OA
BRANCH  38  39
ATOM     39  C   LIG d   1       3.768  -2.054  -2.383  0.00  0.00     0.079 C 
ATOM     40  H   LIG d   1       4.206  -2.682  -1.608  0.00  0.00     0.066 H 
ATOM     41  H   LIG d   1       3.190  -1.254  -1.919  0.00  0.00     0.066 H 
ATOM     42  H   LIG d   1       3.114  -2.656  -3.013  0.00  0.00     0.066 H 
ENDBRANCH  38  39
ENDBRANCH   6  38
TORSDOF 10
ENDMDL
MODEL 7
REMARK VINA RESULT:      -5.0      8.926     10.945
REMARK  10 active torsions:
REMARK  status: ('A' for Active; 'I' for Inactive)
REMARK    1  A    between atoms: C_1  and  O_2 
REMARK    2  A    between atoms: O_2  and  C_3 
REMARK    3  A    between atoms: C_6  and  C_10 
REMARK    4  A    between atoms: C_8  and  O_9 
REMARK    5  A    between atoms: C_11  and  O_25 
REMARK    6  A    between atoms: C_12  and  O_24 
REMARK    7  A    between atoms: C_14  and  O_23 
REMARK    8  A    between atoms: C_15  and  O_21 
REMARK    9  A    between atoms: O_21  and  C_22 
REMARK   10  A    between atoms: O_25  and  C_26 
ROOT
ATOM      1  C   LIG d   1      10.269   7.347  -4.369  0.00  0.00     0.181 A 
ATOM      2  C   LIG d   1       9.934   8.605  -4.834  0.00  0.00     0.205 A 
ATOM      3  C   LIG d   1       9.555   8.772  -6.172  0.00  0.00     0.177 A 
ATOM      4  C   LIG d   1       9.528   7.635  -7.009  0.00  0.00     0.108 A 
ATOM      5  C   LIG d   1       9.154   7.748  -8.364  0.00  0.00     0.177 A 
ATOM      6  C   LIG d   1       9.134   6.635  -9.158  0.00  0.00     0.209 A 
ATOM      7  C   LIG d   1       9.486   5.380  -8.627  0.00  0.00     0.227 A 
ATOM      8  O   LIG d   1       9.464   4.298  -9.410  0.00  0.00    -0.284 OA
ATOM      9  C   LIG d   1       9.858   5.259  -7.285  0.00  0.00     0.032 A 
ATOM     10  C   LIG d   1       9.881   6.377  -6.472  0.00  0.00     0.147 A 
ATOM     11  O   LIG d   1      10.244   6.274  -5.177  0.00  0.00    -0.451 OA
ATOM     12  H   LIG d   1      10.126   4.293  -6.883  0.00  0.00     0.069 H 
ENDROOT
BRANCH   1  13
ATOM     13  C   LIG d   1      10.666   7.181  -2.961  0.00  0.00     0.025 A 
ATOM     14  C   LIG d   1       9.690   7.030  -1.970  0.00  0.00    -0.047 A 
ATOM     15  C   LIG d   1      10.064   6.874  -0.654  0.00  0.00    -0.016 A 
ATOM     16  H   LIG d   1       8.644   7.034  -2.237  0.00  0.00     0.063 H 
ATOM     17  C   LIG d   1      11.408   6.866  -0.306  0.00  0.00     0.161 A 
ATOM     18  H   LIG d   1       9.310   6.757   0.111  0.00  0.00     0.066 H 
ATOM     19  C   LIG d   1      12.387   7.023  -1.287  0.00  0.00     0.159 A 
ATOM     20  C   LIG d   1      12.020   7.173  -2.610  0.00  0.00    -0.006 A 
ATOM     21  H   LIG d   1      12.777   7.290  -3.372  0.00  0.00     0.066 H 
BRANCH  17  22
ATOM     22  O   LIG d   1      11.771   6.713   0.994  0.00  0.00    -0.491 OA
BRANCH  22  23
ATOM     23  C   LIG d   1      11.022   5.777   1.771  0.00  0.00     0.079 C 
ATOM     24  H   LIG d   1      11.157   4.775   1.362  0.00  0.00     0.066 H 
ATOM     25  H   LIG d   1      11.373   5.799   2.803  0.00  0.00     0.066 H 
ATOM     26  H   LIG d   1       9.965   6.042   1.741  0.00  0.00     0.066 H 
ENDBRANCH  22  23
ENDBRANCH  17  22
BRANCH  19  27
ATOM     27  O   LIG d   1      13.702   7.021  -0.942  0.00  0.00    -0.503 OA
ATOM     28  H   LIG d   1      14.085   7.903  -0.850  0.00  0.00     0.292 HD
ENDBRANCH  19  27
ENDBRANCH   1  13
BRANCH   2  29
ATOM     29  O   LIG d   1       9.971   9.677  -3.996  0.00  0.00    -0.488 OA
BRANCH  29  30
ATOM     30  C   LIG d   1      11.132  10.508  -4.057  0.00  0.00     0.079 C 
ATOM     31  H   LIG d   1      11.121  11.080  -4.984  0.00  0.00     0.066 H 
ATOM     32  H   LIG d   1      11.134  11.192  -3.208  0.00  0.00     0.066 H 
ATOM     33  H   LIG d   1      12.027   9.886  -4.024  0.00  0.00     0.066 H 
ENDBRANCH  29  30
ENDBRANCH   2  29
BRANCH   3  34
ATOM     34  O   LIG d   1       9.222   9.992  -6.650  0.00  0.00    -0.503 OA
ATOM     35  H   LIG d   1       8.817  10.576  -5.994  0.00  0.00     0.292 HD
ENDBRANCH   3  34
BRANCH   5  36
ATOM     36  O   LIG d   1       8.813   8.958  -8.880  0.00  0.00    -0.503 OA
ATOM     37  H   LIG d   1       8.138   8.915  -9.571  0.00  0.00     0.292 HD
ENDBRANCH   5  36
BRANCH   6  38
ATOM     38  O   LIG d   1       8.773   6.741 -10.467  0.00  0.00    -0.488 OA
BRANCH  38  39
ATOM     39  C   LIG d   1       9.817   6.992 -11.410  0.00  0.00     0.079 C 
ATOM     40  H   LIG d   1       9.526   6.603 -12.386  0.00  0.00     0.066 H 
ATOM     41  H   LIG d   1       9.989   8.066 -11.484  0.00  0.00     0.066 H 
ATOM     42  H   LIG d   1      10.731   6.499 -11.080  0.00  0.00     0.066 H 
ENDBRANCH  38  39
ENDBRANCH   6  38
TORSDOF 10
ENDMDL
MODEL 8
REMARK VINA RESULT:      -5.0      7.530     12.140
REMARK  10 active torsions:
REMARK  status: ('A' for Active; 'I' for Inactive)
REMARK    1  A    between atoms: C_1  and  O_2 
REMARK    2  A    between atoms: O_2  and  C_3 
REMARK    3  A    between atoms: C_6  and  C_10 
REMARK    4  A    between atoms: C_8  and  O_9 
REMARK    5  A    between atoms: C_11  and  O_25 
REMARK    6  A    between atoms: C_12  and  O_24 
REMARK    7  A    between atoms: C_14  and  O_23 
REMARK    8  A    between atoms: C_15  and  O_21 
REMARK    9  A    between atoms: O_21  and  C_22 
REMARK   10  A    between atoms: O_25  and  C_26 
ROOT
ATOM      1  C   LIG d   1      10.325   4.808  -5.675  0.00  0.00     0.181 A 
ATOM      2  C   LIG d   1      11.130   3.882  -5.037  0.00  0.00     0.205 A 
ATOM      3  C   LIG d   1      11.324   3.968  -3.653  0.00  0.00     0.177 A 
ATOM      4  C   LIG d   1      10.684   5.011  -2.949  0.00  0.00     0.108 A 
ATOM      5  C   LIG d   1      10.846   5.144  -1.554  0.00  0.00     0.177 A 
ATOM      6  C   LIG d   1      10.218   6.161  -0.891  0.00  0.00     0.209 A 
ATOM      7  C   LIG d   1       9.411   7.074  -1.596  0.00  0.00     0.227 A 
ATOM      8  O   LIG d   1       8.801   8.064  -0.939  0.00  0.00    -0.284 OA
ATOM      9  C   LIG d   1       9.244   6.949  -2.978  0.00  0.00     0.032 A 
ATOM     10  C   LIG d   1       9.874   5.925  -3.659  0.00  0.00     0.147 A 
ATOM     11  O   LIG d   1       9.726   5.799  -4.995  0.00  0.00    -0.451 OA
ATOM     12  H   LIG d   1       8.623   7.652  -3.513  0.00  0.00     0.069 H 
ENDROOT
BRANCH   1  13
ATOM     13  C   LIG d   1      10.126   4.709  -7.130  0.00  0.00     0.025 A 
ATOM     14  C   LIG d   1      10.840   5.545  -7.995  0.00  0.00    -0.047 A 
ATOM     15  C   LIG d   1      10.652   5.451  -9.356  0.00  0.00    -0.016 A 
ATOM     16  H   LIG d   1      11.539   6.265  -7.595  0.00  0.00     0.063 H 
ATOM     17  C   LIG d   1       9.755   4.526  -9.874  0.00  0.00     0.161 A 
ATOM     18  H   LIG d   1      11.204   6.097 -10.023  0.00  0.00     0.066 H 
ATOM     19  C   LIG d   1       9.036   3.693  -9.019  0.00  0.00     0.159 A 
ATOM     20  C   LIG d   1       9.223   3.778  -7.653  0.00  0.00    -0.006 A 
ATOM     21  H   LIG d   1       8.669   3.130  -6.989  0.00  0.00     0.066 H 
BRANCH  17  22
ATOM     22  O   LIG d   1       9.574   4.438 -11.217  0.00  0.00    -0.491 OA
BRANCH  22  23
ATOM     23  C   LIG d   1       9.602   5.660 -11.958  0.00  0.00     0.079 C 
ATOM     24  H   LIG d   1       9.798   5.443 -13.008  0.00  0.00     0.066 H 
ATOM     25  H   LIG d   1       8.639   6.163 -11.864  0.00  0.00     0.066 H 
ATOM     26  H   LIG d   1      10.389   6.304 -11.566  0.00  0.00     0.066 H 
ENDBRANCH  22  23
ENDBRANCH  17  22
BRANCH  19  27
ATOM     27  O   LIG d   1       8.154   2.793  -9.530  0.00  0.00    -0.503 OA
ATOM     28  H   LIG d   1       7.518   2.455  -8.885  0.00  0.00     0.292 HD
ENDBRANCH  19  27
ENDBRANCH   1  13
BRANCH   2  29
ATOM     29  O   LIG d   1      11.730   2.890  -5.751  0.00  0.00    -0.488 OA
BRANCH  29  30
ATOM     30  C   LIG d   1      13.086   3.105  -6.147  0.00  0.00     0.079 C 
ATOM     31  H   LIG d   1      13.260   2.634  -7.114  0.00  0.00     0.066 H 
ATOM     32  H   LIG d   1      13.277   4.176  -6.224  0.00  0.00     0.066 H 
ATOM     33  H   LIG d   1      13.755   2.670  -5.404  0.00  0.00     0.066 H 
ENDBRANCH  29  30
ENDBRANCH   2  29
BRANCH   3  34
ATOM     34  O   LIG d   1      12.106   3.074  -3.006  0.00  0.00    -0.503 OA
ATOM     35  H   LIG d   1      12.721   2.600  -3.583  0.00  0.00     0.292 HD
ENDBRANCH   3  34
BRANCH   5  36
ATOM     36  O   LIG d   1      11.624   4.265  -0.870  0.00  0.00    -0.503 OA
ATOM     37  H   LIG d   1      11.202   3.411  -0.707  0.00  0.00     0.292 HD
ENDBRANCH   5  36
BRANCH   6  38
ATOM     38  O   LIG d   1      10.372   6.291   0.456  0.00  0.00    -0.488 OA
BRANCH  38  39
ATOM     39  C   LIG d   1      11.357   7.223   0.908  0.00  0.00     0.079 C 
ATOM     40  H   LIG d   1      12.352   6.829   0.701  0.00  0.00     0.066 H 
ATOM     41  H   LIG d   1      11.226   8.172   0.388  0.00  0.00     0.066 H 
ATOM     42  H   LIG d   1      11.245   7.379   1.981  0.00  0.00     0.066 H 
ENDBRANCH  38  39
ENDBRANCH   6  38
TORSDOF 10
ENDMDL
MODEL 9
REMARK VINA RESULT:      -4.9      5.773      9.387
REMARK  10 active torsions:
REMARK  status: ('A' for Active; 'I' for Inactive)
REMARK    1  A    between atoms: C_1  and  O_2 
REMARK    2  A    between atoms: O_2  and  C_3 
REMARK    3  A    between atoms: C_6  and  C_10 
REMARK    4  A    between atoms: C_8  and  O_9 
REMARK    5  A    between atoms: C_11  and  O_25 
REMARK    6  A    between atoms: C_12  and  O_24 
REMARK    7  A    between atoms: C_14  and  O_23 
REMARK    8  A    between atoms: C_15  and  O_21 
REMARK    9  A    between atoms: O_21  and  C_22 
REMARK   10  A    between atoms: O_25  and  C_26 
ROOT
ATOM      1  C   LIG d   1       8.277   2.081  -4.069  0.00  0.00     0.181 A 
ATOM      2  C   LIG d   1       8.419   2.412  -5.404  0.00  0.00     0.205 A 
ATOM      3  C   LIG d   1       9.325   3.412  -5.778  0.00  0.00     0.177 A 
ATOM      4  C   LIG d   1      10.071   4.055  -4.767  0.00  0.00     0.108 A 
ATOM      5  C   LIG d   1      10.997   5.069  -5.088  0.00  0.00     0.177 A 
ATOM      6  C   LIG d   1      11.710   5.678  -4.095  0.00  0.00     0.209 A 
ATOM      7  C   LIG d   1      11.522   5.297  -2.752  0.00  0.00     0.227 A 
ATOM      8  O   LIG d   1      12.223   5.898  -1.787  0.00  0.00    -0.284 OA
ATOM      9  C   LIG d   1      10.607   4.293  -2.424  0.00  0.00     0.032 A 
ATOM     10  C   LIG d   1       9.881   3.669  -3.421  0.00  0.00     0.147 A 
ATOM     11  O   LIG d   1       8.989   2.702  -3.115  0.00  0.00    -0.451 OA
ATOM     12  H   LIG d   1      10.468   4.005  -1.393  0.00  0.00     0.069 H 
ENDROOT
BRANCH   1  13
ATOM     13  C   LIG d   1       7.322   1.027  -3.685  0.00  0.00     0.025 A 
ATOM     14  C   LIG d   1       6.076   1.371  -3.152  0.00  0.00    -0.047 A 
ATOM     15  C   LIG d   1       5.185   0.384  -2.793  0.00  0.00    -0.016 A 
ATOM     16  H   LIG d   1       5.812   2.410  -3.022  0.00  0.00     0.063 H 
ATOM     17  C   LIG d   1       5.519  -0.953  -2.960  0.00  0.00     0.161 A 
ATOM     18  H   LIG d   1       4.222   0.650  -2.382  0.00  0.00     0.066 H 
ATOM     19  C   LIG d   1       6.762  -1.304  -3.485  0.00  0.00     0.159 A 
ATOM     20  C   LIG d   1       7.659  -0.320  -3.852  0.00  0.00    -0.006 A 
ATOM     21  H   LIG d   1       8.622  -0.590  -4.263  0.00  0.00     0.066 H 
BRANCH  17  22
ATOM     22  O   LIG d   1       4.636  -1.922  -2.604  0.00  0.00    -0.491 OA
BRANCH  22  23
ATOM     23  C   LIG d   1       3.247  -1.621  -2.754  0.00  0.00     0.079 C 
ATOM     24  H   LIG d   1       3.081  -0.562  -2.553  0.00  0.00     0.066 H 
ATOM     25  H   LIG d   1       2.934  -1.852  -3.772  0.00  0.00     0.066 H 
ATOM     26  H   LIG d   1       2.668  -2.220  -2.051  0.00  0.00     0.066 H 
ENDBRANCH  22  23
ENDBRANCH  17  22
BRANCH  19  27
ATOM     27  O   LIG d   1       7.089  -2.614  -3.641  0.00  0.00    -0.503 OA
ATOM     28  H   LIG d   1       7.890  -2.879  -3.170  0.00  0.00     0.292 HD
ENDBRANCH  19  27
ENDBRANCH   1  13
BRANCH   2  29
ATOM     29  O   LIG d   1       7.681   1.769  -6.350  0.00  0.00    -0.488 OA
BRANCH  29  30
ATOM     30  C   LIG d   1       8.362   0.812  -7.164  0.00  0.00     0.079 C 
ATOM     31  H   LIG d   1       8.207  -0.186  -6.755  0.00  0.00     0.066 H 
ATOM     32  H   LIG d   1       7.969   0.854  -8.180  0.00  0.00     0.066 H 
ATOM     33  H   LIG d   1       9.428   1.039  -7.177  0.00  0.00     0.066 H 
ENDBRANCH  29  30
ENDBRANCH   2  29
BRANCH   3  34
ATOM     34  O   LIG d   1       9.481   3.754  -7.077  0.00  0.00    -0.503 OA
ATOM     35  H   LIG d   1       8.965   4.527  -7.346  0.00  0.00     0.292 HD
ENDBRANCH   3  34
BRANCH   5  36
ATOM     36  O   LIG d   1      11.181   5.439  -6.383  0.00  0.00    -0.503 OA
ATOM     37  H   LIG d   1      10.386   5.785  -6.809  0.00  0.00     0.292 HD
ENDBRANCH   5  36
BRANCH   6  38
ATOM     38  O   LIG d   1      12.605   6.657  -4.402  0.00  0.00    -0.488 OA
BRANCH  38  39
ATOM     39  C   LIG d   1      13.954   6.251  -4.643  0.00  0.00     0.079 C 
ATOM     40  H   LIG d   1      14.057   5.930  -5.680  0.00  0.00     0.066 H 
ATOM     41  H   LIG d   1      14.625   7.090  -4.454  0.00  0.00     0.066 H 
ATOM     42  H   LIG d   1      14.209   5.425  -3.980  0.00  0.00     0.066 H 
ENDBRANCH  38  39
ENDBRANCH   6  38
TORSDOF 10
ENDMDL
MODEL 10
REMARK VINA RESULT:      -4.9      5.408      8.187
REMARK  10 active torsions:
REMARK  status: ('A' for Active; 'I' for Inactive)
REMARK    1  A    between atoms: C_1  and  O_2 
REMARK    2  A    between atoms: O_2  and  C_3 
REMARK    3  A    between atoms: C_6  and  C_10 
REMARK    4  A    between atoms: C_8  and  O_9 
REMARK    5  A    between atoms: C_11  and  O_25 
REMARK    6  A    between atoms: C_12  and  O_24 
REMARK    7  A    between atoms: C_14  and  O_23 
REMARK    8  A    between atoms: C_15  and  O_21 
REMARK    9  A    between atoms: O_21  and  C_22 
REMARK   10  A    between atoms: O_25  and  C_26 
ROOT
ATOM      1  C   LIG d   1       8.735   2.545  -4.144  0.00  0.00     0.181 A 
ATOM      2  C   LIG d   1       9.069   1.873  -5.305  0.00  0.00     0.205 A 
ATOM      3  C   LIG d   1       8.295   0.784  -5.723  0.00  0.00     0.177 A 
ATOM      4  C   LIG d   1       7.186   0.406  -4.935  0.00  0.00     0.108 A 
ATOM      5  C   LIG d   1       6.372  -0.683  -5.311  0.00  0.00     0.177 A 
ATOM      6  C   LIG d   1       5.304  -1.032  -4.535  0.00  0.00     0.209 A 
ATOM      7  C   LIG d   1       5.013  -0.309  -3.362  0.00  0.00     0.227 A 
ATOM      8  O   LIG d   1       3.967  -0.658  -2.610  0.00  0.00    -0.284 OA
ATOM      9  C   LIG d   1       5.813   0.771  -2.982  0.00  0.00     0.032 A 
ATOM     10  C   LIG d   1       6.897   1.135  -3.760  0.00  0.00     0.147 A 
ATOM     11  O   LIG d   1       7.680   2.173  -3.399  0.00  0.00    -0.451 OA
ATOM     12  H   LIG d   1       5.585   1.323  -2.082  0.00  0.00     0.069 H 
ENDROOT
BRANCH   1  13
ATOM     13  C   LIG d   1       9.555   3.689  -3.711  0.00  0.00     0.025 A 
ATOM     14  C   LIG d   1       9.409   4.933  -4.334  0.00  0.00    -0.047 A 
ATOM     15  C   LIG d   1      10.177   6.001  -3.928  0.00  0.00    -0.016 A 
ATOM     16  H   LIG d   1       8.693   5.055  -5.134  0.00  0.00     0.063 H 
ATOM     17  C   LIG d   1      11.097   5.849  -2.899  0.00  0.00     0.161 A 
ATOM     18  H   LIG d   1      10.063   6.962  -4.409  0.00  0.00     0.066 H 
ATOM     19  C   LIG d   1      11.253   4.611  -2.277  0.00  0.00     0.159 A 
ATOM     20  C   LIG d   1      10.482   3.536  -2.675  0.00  0.00    -0.006 A 
ATOM     21  H   LIG d   1      10.599   2.577  -2.191  0.00  0.00     0.066 H 
BRANCH  17  22
ATOM     22  O   LIG d   1      11.852   6.906  -2.503  0.00  0.00    -0.491 OA
BRANCH  22  23
ATOM     23  C   LIG d   1      11.271   8.205  -2.636  0.00  0.00     0.079 C 
ATOM     24  H   LIG d   1      11.345   8.735  -1.686  0.00  0.00     0.066 H 
ATOM     25  H   LIG d   1      11.803   8.763  -3.407  0.00  0.00     0.066 H 
ATOM     26  H   LIG d   1      10.222   8.107  -2.917  0.00  0.00     0.066 H 
ENDBRANCH  22  23
ENDBRANCH  17  22
BRANCH  19  27
ATOM     27  O   LIG d   1      12.159   4.463  -1.275  0.00  0.00    -0.503 OA
ATOM     28  H   LIG d   1      12.617   3.612  -1.280  0.00  0.00     0.292 HD
ENDBRANCH  19  27
ENDBRANCH   1  13
BRANCH   2  29
ATOM     29  O   LIG d   1      10.146   2.268  -6.037  0.00  0.00    -0.488 OA
BRANCH  29  30
ATOM     30  C   LIG d   1      11.378   1.584  -5.801  0.00  0.00     0.079 C 
ATOM     31  H   LIG d   1      11.355   1.127  -4.811  0.00  0.00     0.066 H 
ATOM     32  H   LIG d   1      11.515   0.810  -6.556  0.00  0.00     0.066 H 
ATOM     33  H   LIG d   1      12.204   2.294  -5.855  0.00  0.00     0.066 H 
ENDBRANCH  29  30
ENDBRANCH   2  29
BRANCH   3  34
ATOM     34  O   LIG d   1       8.601   0.111  -6.855  0.00  0.00    -0.503 OA
ATOM     35  H   LIG d   1       7.878   0.069  -7.496  0.00  0.00     0.292 HD
ENDBRANCH   3  34
BRANCH   5  36
ATOM     36  O   LIG d   1       6.650  -1.383  -6.443  0.00  0.00    -0.503 OA
ATOM     37  H   LIG d   1       6.062  -2.135  -6.594  0.00  0.00     0.292 HD
ENDBRANCH   5  36
BRANCH   6  38
ATOM     38  O   LIG d   1       4.517  -2.084  -4.896  0.00  0.00    -0.488 OA
BRANCH  38  39
ATOM     39  C   LIG d   1       4.925  -3.381  -4.457  0.00  0.00     0.079 C 
ATOM     40  H   LIG d   1       5.945  -3.572  -4.790  0.00  0.00     0.066 H 
ATOM     41  H   LIG d   1       4.884  -3.426  -3.368  0.00  0.00     0.066 H 
ATOM     42  H   LIG d   1       4.258  -4.134  -4.876  0.00  0.00     0.066 H 
ENDBRANCH  38  39
ENDBRANCH   6  38
TORSDOF 10
ENDMDL
