MODEL 1
REMARK VINA RESULT:      -4.5      0.000      0.000
REMARK  1 active torsions:
REMARK  status: ('A' for Active; 'I' for Inactive)
REMARK    1  A    between atoms: CB_1  and  CA_2 
REMARK       I    between atoms: CA_2  and  C_4 
REMARK       I    between atoms: CA_2  and  N_6 
REMARK       I    between atoms: N_6  and  C_7 
REMARK       I    between atoms: C_7  and  CA_9 
REMARK       I    between atoms: CA_9  and  N_19 
ROOT
ATOM      1  CA  ALA d   2       3.902  -0.032  -3.685  0.00  0.00     0.060 C 
ATOM      2  HA  ALA d   2       4.886  -0.482  -3.819  0.00  0.00     0.056 H 
ATOM      3  C   ALA d   2       4.020   1.179  -2.796  0.00  0.00     0.062 C 
ATOM      4  O   ALA d   2       3.691   2.266  -3.210  0.00  0.00    -0.548 OA
ATOM      5  N   ALA d   2       3.368   0.368  -4.989  0.00  0.00    -0.303 N 
ATOM      6  H   ALA d   2       2.826   1.168  -5.066  0.00  0.00     0.149 HD
ATOM      7  OXT ALA d   2       4.489   1.052  -1.546  0.00  0.00    -0.548 OA
ATOM      8  C   GLY d   1       3.634  -0.373  -6.083  0.00  0.00     0.259 C 
ATOM      9  O   GLY d   1       4.312  -1.374  -5.986  0.00  0.00    -0.270 OA
ATOM     10  CA  GLY d   1       3.090   0.042  -7.425  0.00  0.00     0.043 C 
ATOM     11  HA1 GLY d   1       2.001   0.068  -7.384  0.00  0.00     0.091 H 
ATOM     12  HA2 GLY d   1       3.467   1.032  -7.680  0.00  0.00     0.091 H 
ATOM     13  H1  GLY d   1       3.235  -1.860  -8.200  0.00  0.00     0.200 HD
ATOM     14  H2  GLY d   1       3.165  -0.667  -9.357  0.00  0.00     0.200 HD
ATOM     15  N   GLY d   1       3.543  -0.920  -8.446  0.00  0.00     0.225 N 
ATOM     16  H3  GLY d   1       4.568  -0.905  -8.492  0.00  0.00     0.200 HD
ENDROOT
BRANCH   1  17
ATOM     17  CB  ALA d   2       2.959  -1.049  -3.038  0.00  0.00    -0.041 C 
ATOM     18  HB1 ALA d   2       3.069  -2.013  -3.534  0.00  0.00     0.025 H 
ATOM     19  HB2 ALA d   2       3.208  -1.155  -1.982  0.00  0.00     0.025 H 
ATOM     20  HB3 ALA d   2       1.931  -0.704  -3.136  0.00  0.00     0.025 H 
ENDBRANCH   1  17
TORSDOF 5
ENDMDL
MODEL 2
REMARK VINA RESULT:      -4.3      2.657      2.791
REMARK  1 active torsions:
REMARK  status: ('A' for Active; 'I' for Inactive)
REMARK    1  A    between atoms: CB_1  and  CA_2 
REMARK       I    between atoms: CA_2  and  C_4 
REMARK       I    between atoms: CA_2  and  N_6 
REMARK       I    between atoms: N_6  and  C_7 
REMARK       I    between atoms: C_7  and  CA_9 
REMARK       I    between atoms: CA_9  and  N_19 
ROOT
ATOM      1  CA  ALA d   2       4.392  -0.589  -2.907  0.00  0.00     0.060 C 
ATOM      2  HA  ALA d   2       4.655  -1.247  -2.079  0.00  0.00     0.056 H 
ATOM      3  C   ALA d   2       5.217   0.670  -2.830  0.00  0.00     0.062 C 
ATOM      4  O   ALA d   2       5.953   0.967  -3.741  0.00  0.00    -0.548 OA
ATOM      5  N   ALA d   2       4.660  -1.272  -4.176  0.00  0.00    -0.303 N 
ATOM      6  H   ALA d   2       4.977  -0.766  -4.941  0.00  0.00     0.149 HD
ATOM      7  OXT ALA d   2       5.134   1.461  -1.750  0.00  0.00    -0.548 OA
ATOM      8  C   GLY d   1       4.472  -2.602  -4.279  0.00  0.00     0.259 C 
ATOM      9  O   GLY d   1       4.076  -3.233  -3.322  0.00  0.00    -0.270 OA
ATOM     10  CA  GLY d   1       4.754  -3.305  -5.581  0.00  0.00     0.043 C 
ATOM     11  HA1 GLY d   1       4.119  -2.888  -6.364  0.00  0.00     0.091 H 
ATOM     12  HA2 GLY d   1       5.800  -3.165  -5.851  0.00  0.00     0.091 H 
ATOM     13  H1  GLY d   1       3.525  -4.892  -5.123  0.00  0.00     0.200 HD
ATOM     14  H2  GLY d   1       4.654  -5.233  -6.296  0.00  0.00     0.200 HD
ATOM     15  N   GLY d   1       4.490  -4.745  -5.417  0.00  0.00     0.225 N 
ATOM     16  H3  GLY d   1       5.120  -5.124  -4.701  0.00  0.00     0.200 HD
ENDROOT
BRANCH   1  17
ATOM     17  CB  ALA d   2       2.907  -0.231  -2.824  0.00  0.00    -0.041 C 
ATOM     18  HB1 ALA d   2       2.668   0.511  -3.586  0.00  0.00     0.025 H 
ATOM     19  HB2 ALA d   2       2.308  -1.127  -2.990  0.00  0.00     0.025 H 
ATOM     20  HB3 ALA d   2       2.686   0.177  -1.838  0.00  0.00     0.025 H 
ENDBRANCH   1  17
TORSDOF 5
ENDMDL
MODEL 3
REMARK VINA RESULT:      -4.0      1.969      2.639
REMARK  1 active torsions:
REMARK  status: ('A' for Active; 'I' for Inactive)
REMARK    1  A    between atoms: CB_1  and  CA_2 
REMARK       I    between atoms: CA_2  and  C_4 
REMARK       I    between atoms: CA_2  and  N_6 
REMARK       I    between atoms: N_6  and  C_7 
REMARK       I    between atoms: C_7  and  CA_9 
REMARK       I    between atoms: CA_9  and  N_19 
ROOT
ATOM      1  CA  ALA d   2       3.956  -0.706  -4.033  0.00  0.00     0.060 C 
ATOM      2  HA  ALA d   2       3.053  -0.165  -3.749  0.00  0.00     0.056 H 
ATOM      3  C   ALA d   2       4.035  -1.995  -3.256  0.00  0.00     0.062 C 
ATOM      4  O   ALA d   2       4.057  -3.052  -3.840  0.00  0.00    -0.548 OA
ATOM      5  N   ALA d   2       3.915  -1.002  -5.467  0.00  0.00    -0.303 N 
ATOM      6  H   ALA d   2       4.292  -1.830  -5.802  0.00  0.00     0.149 HD
ATOM      7  OXT ALA d   2       4.083  -1.969  -1.916  0.00  0.00    -0.548 OA
ATOM      8  C   GLY d   1       3.351  -0.125  -6.321  0.00  0.00     0.259 C 
ATOM      9  O   GLY d   1       2.880   0.912  -5.901  0.00  0.00    -0.270 OA
ATOM     10  CA  GLY d   1       3.303  -0.432  -7.795  0.00  0.00     0.043 C 
ATOM     11  HA1 GLY d   1       4.318  -0.551  -8.174  0.00  0.00     0.091 H 
ATOM     12  HA2 GLY d   1       2.745  -1.353  -7.957  0.00  0.00     0.091 H 
ATOM     13  H1  GLY d   1       3.105   1.549  -8.318  0.00  0.00     0.200 HD
ATOM     14  H2  GLY d   1       2.598   0.490  -9.496  0.00  0.00     0.200 HD
ATOM     15  N   GLY d   1       2.620   0.671  -8.494  0.00  0.00     0.225 N 
ATOM     16  H3  GLY d   1       1.656   0.745  -8.146  0.00  0.00     0.200 HD
ENDROOT
BRANCH   1  17
ATOM     17  CB  ALA d   2       5.184   0.152  -3.723  0.00  0.00    -0.041 C 
ATOM     18  HB1 ALA d   2       5.076   1.126  -4.201  0.00  0.00     0.025 H 
ATOM     19  HB2 ALA d   2       5.272   0.285  -2.645  0.00  0.00     0.025 H 
ATOM     20  HB3 ALA d   2       6.077  -0.342  -4.103  0.00  0.00     0.025 H 
ENDBRANCH   1  17
TORSDOF 5
ENDMDL
MODEL 4
REMARK VINA RESULT:      -3.9      3.166      4.090
REMARK  1 active torsions:
REMARK  status: ('A' for Active; 'I' for Inactive)
REMARK    1  A    between atoms: CB_1  and  CA_2 
REMARK       I    between atoms: CA_2  and  C_4 
REMARK       I    between atoms: CA_2  and  N_6 
REMARK       I    between atoms: N_6  and  C_7 
REMARK       I    between atoms: C_7  and  CA_9 
REMARK       I    between atoms: CA_9  and  N_19 
ROOT
ATOM      1  CA  ALA d   2       4.515  -0.041  -3.194  0.00  0.00     0.060 C 
ATOM      2  HA  ALA d   2       4.331   0.783  -3.884  0.00  0.00     0.056 H 
ATOM      3  C   ALA d   2       3.422  -1.069  -3.337  0.00  0.00     0.062 C 
ATOM      4  O   ALA d   2       3.696  -2.200  -3.663  0.00  0.00    -0.548 OA
ATOM      5  N   ALA d   2       5.808  -0.655  -3.503  0.00  0.00    -0.303 N 
ATOM      6  H   ALA d   2       5.928  -1.612  -3.397  0.00  0.00     0.149 HD
ATOM      7  OXT ALA d   2       2.146  -0.730  -3.102  0.00  0.00    -0.548 OA
ATOM      8  C   GLY d   1       6.830   0.107  -3.939  0.00  0.00     0.259 C 
ATOM      9  O   GLY d   1       6.680   1.304  -4.071  0.00  0.00    -0.270 OA
ATOM     10  CA  GLY d   1       8.159  -0.526  -4.263  0.00  0.00     0.043 C 
ATOM     11  HA1 GLY d   1       8.556  -1.013  -3.372  0.00  0.00     0.091 H 
ATOM     12  HA2 GLY d   1       8.027  -1.265  -5.052  0.00  0.00     0.091 H 
ATOM     13  H1  GLY d   1       9.188   1.241  -4.024  0.00  0.00     0.200 HD
ATOM     14  H2  GLY d   1       9.997   0.111  -4.937  0.00  0.00     0.200 HD
ATOM     15  N   GLY d   1       9.086   0.518  -4.734  0.00  0.00     0.225 N 
ATOM     16  H3  GLY d   1       8.710   0.941  -5.591  0.00  0.00     0.200 HD
ENDROOT
BRANCH   1  17
ATOM     17  CB  ALA d   2       4.531   0.489  -1.758  0.00  0.00    -0.041 C 
ATOM     18  HB1 ALA d   2       3.564   0.934  -1.524  0.00  0.00     0.025 H 
ATOM     19  HB2 ALA d   2       4.729  -0.333  -1.070  0.00  0.00     0.025 H 
ATOM     20  HB3 ALA d   2       5.312   1.243  -1.659  0.00  0.00     0.025 H 
ENDBRANCH   1  17
TORSDOF 5
ENDMDL
MODEL 5
REMARK VINA RESULT:      -3.9      2.952      3.036
REMARK  1 active torsions:
REMARK  status: ('A' for Active; 'I' for Inactive)
REMARK    1  A    between atoms: CB_1  and  CA_2 
REMARK       I    between atoms: CA_2  and  C_4 
REMARK       I    between atoms: CA_2  and  N_6 
REMARK       I    between atoms: N_6  and  C_7 
REMARK       I    between atoms: C_7  and  CA_9 
REMARK       I    between atoms: CA_9  and  N_19 
ROOT
ATOM      1  CA  ALA d   2       5.464  -0.611  -2.670  0.00  0.00     0.060 C 
ATOM      2  HA  ALA d   2       6.410  -0.766  -2.153  0.00  0.00     0.056 H 
ATOM      3  C   ALA d   2       5.016   0.816  -2.481  0.00  0.00     0.062 C 
ATOM      4  O   ALA d   2       4.859   1.532  -3.441  0.00  0.00    -0.548 OA
ATOM      5  N   ALA d   2       5.640  -0.882  -4.100  0.00  0.00    -0.303 N 
ATOM      6  H   ALA d   2       5.151  -0.361  -4.756  0.00  0.00     0.149 HD
ATOM      7  OXT ALA d   2       4.790   1.290  -1.247  0.00  0.00    -0.548 OA
ATOM      8  C   GLY d   1       6.484  -1.852  -4.503  0.00  0.00     0.259 C 
ATOM      9  O   GLY d   1       7.094  -2.504  -3.682  0.00  0.00    -0.270 OA
ATOM     10  CA  GLY d   1       6.670  -2.127  -5.973  0.00  0.00     0.043 C 
ATOM     11  HA1 GLY d   1       5.713  -2.410  -6.413  0.00  0.00     0.091 H 
ATOM     12  HA2 GLY d   1       7.044  -1.230  -6.466  0.00  0.00     0.091 H 
ATOM     13  H1  GLY d   1       7.339  -4.046  -5.647  0.00  0.00     0.200 HD
ATOM     14  H2  GLY d   1       7.775  -3.425  -7.127  0.00  0.00     0.200 HD
ATOM     15  N   GLY d   1       7.654  -3.210  -6.139  0.00  0.00     0.225 N 
ATOM     16  H3  GLY d   1       8.554  -2.911  -5.747  0.00  0.00     0.200 HD
ENDROOT
BRANCH   1  17
ATOM     17  CB  ALA d   2       4.407  -1.557  -2.098  0.00  0.00    -0.041 C 
ATOM     18  HB1 ALA d   2       4.122  -2.286  -2.857  0.00  0.00     0.025 H 
ATOM     19  HB2 ALA d   2       4.816  -2.077  -1.231  0.00  0.00     0.025 H 
ATOM     20  HB3 ALA d   2       3.530  -0.984  -1.797  0.00  0.00     0.025 H 
ENDBRANCH   1  17
TORSDOF 5
ENDMDL
MODEL 6
REMARK VINA RESULT:      -3.8      2.908      3.954
REMARK  1 active torsions:
REMARK  status: ('A' for Active; 'I' for Inactive)
REMARK    1  A    between atoms: CB_1  and  CA_2 
REMARK       I    between atoms: CA_2  and  C_4 
REMARK       I    between atoms: CA_2  and  N_6 
REMARK       I    between atoms: N_6  and  C_7 
REMARK       I    between atoms: C_7  and  CA_9 
REMARK       I    between atoms: CA_9  and  N_19 
ROOT
ATOM      1  CA  ALA d   2       4.182  -0.086  -3.975  0.00  0.00     0.060 C 
ATOM      2  HA  ALA d   2       4.851   0.737  -3.723  0.00  0.00     0.056 H 
ATOM      3  C   ALA d   2       3.291   0.322  -5.120  0.00  0.00     0.062 C 
ATOM      4  O   ALA d   2       3.315  -0.301  -6.155  0.00  0.00    -0.548 OA
ATOM      5  N   ALA d   2       4.975  -1.256  -4.365  0.00  0.00    -0.303 N 
ATOM      6  H   ALA d   2       4.649  -1.853  -5.056  0.00  0.00     0.149 HD
ATOM      7  OXT ALA d   2       2.471   1.375  -4.990  0.00  0.00    -0.548 OA
ATOM      8  C   GLY d   1       6.157  -1.499  -3.766  0.00  0.00     0.259 C 
ATOM      9  O   GLY d   1       6.563  -0.752  -2.901  0.00  0.00    -0.270 OA
ATOM     10  CA  GLY d   1       6.975  -2.698  -4.171  0.00  0.00     0.043 C 
ATOM     11  HA1 GLY d   1       6.399  -3.607  -3.995  0.00  0.00     0.091 H 
ATOM     12  HA2 GLY d   1       7.225  -2.627  -5.229  0.00  0.00     0.091 H 
ATOM     13  H1  GLY d   1       8.005  -2.741  -2.389  0.00  0.00     0.200 HD
ATOM     14  H2  GLY d   1       8.776  -3.535  -3.631  0.00  0.00     0.200 HD
ATOM     15  N   GLY d   1       8.221  -2.718  -3.385  0.00  0.00     0.225 N 
ATOM     16  H3  GLY d   1       8.763  -1.870  -3.591  0.00  0.00     0.200 HD
ENDROOT
BRANCH   1  17
ATOM     17  CB  ALA d   2       3.322  -0.435  -2.759  0.00  0.00    -0.041 C 
ATOM     18  HB1 ALA d   2       3.638   0.165  -1.906  0.00  0.00     0.025 H 
ATOM     19  HB2 ALA d   2       2.275  -0.227  -2.982  0.00  0.00     0.025 H 
ATOM     20  HB3 ALA d   2       3.439  -1.492  -2.522  0.00  0.00     0.025 H 
ENDBRANCH   1  17
TORSDOF 5
ENDMDL
MODEL 7
REMARK VINA RESULT:      -3.8      3.238      4.817
REMARK  1 active torsions:
REMARK  status: ('A' for Active; 'I' for Inactive)
REMARK    1  A    between atoms: CB_1  and  CA_2 
REMARK       I    between atoms: CA_2  and  C_4 
REMARK       I    between atoms: CA_2  and  N_6 
REMARK       I    between atoms: N_6  and  C_7 
REMARK       I    between atoms: C_7  and  CA_9 
REMARK       I    between atoms: CA_9  and  N_19 
ROOT
ATOM      1  CA  ALA d   2       4.893  -2.267  -4.277  0.00  0.00     0.060 C 
ATOM      2  HA  ALA d   2       4.289  -1.742  -5.017  0.00  0.00     0.056 H 
ATOM      3  C   ALA d   2       5.176  -3.666  -4.760  0.00  0.00     0.062 C 
ATOM      4  O   ALA d   2       6.317  -4.029  -4.925  0.00  0.00    -0.548 OA
ATOM      5  N   ALA d   2       6.157  -1.552  -4.083  0.00  0.00    -0.303 N 
ATOM      6  H   ALA d   2       6.972  -2.047  -3.905  0.00  0.00     0.149 HD
ATOM      7  OXT ALA d   2       4.162  -4.510  -5.007  0.00  0.00    -0.548 OA
ATOM      8  C   GLY d   1       6.188  -0.207  -4.156  0.00  0.00     0.259 C 
ATOM      9  O   GLY d   1       5.168   0.412  -4.377  0.00  0.00    -0.270 OA
ATOM     10  CA  GLY d   1       7.489   0.529  -3.962  0.00  0.00     0.043 C 
ATOM     11  HA1 GLY d   1       7.886   0.310  -2.971  0.00  0.00     0.091 H 
ATOM     12  HA2 GLY d   1       8.204   0.208  -4.719  0.00  0.00     0.091 H 
ATOM     13  H1  GLY d   1       6.550   2.285  -3.439  0.00  0.00     0.200 HD
ATOM     14  H2  GLY d   1       8.116   2.490  -3.963  0.00  0.00     0.200 HD
ATOM     15  N   GLY d   1       7.250   1.975  -4.113  0.00  0.00     0.225 N 
ATOM     16  H3  GLY d   1       6.908   2.164  -5.062  0.00  0.00     0.200 HD
ENDROOT
BRANCH   1  17
ATOM     17  CB  ALA d   2       4.133  -2.330  -2.950  0.00  0.00    -0.041 C 
ATOM     18  HB1 ALA d   2       4.321  -1.421  -2.381  0.00  0.00     0.025 H 
ATOM     19  HB2 ALA d   2       3.065  -2.421  -3.148  0.00  0.00     0.025 H 
ATOM     20  HB3 ALA d   2       4.472  -3.194  -2.379  0.00  0.00     0.025 H 
ENDBRANCH   1  17
TORSDOF 5
ENDMDL
MODEL 8
REMARK VINA RESULT:      -3.7      2.942      3.499
REMARK  1 active torsions:
REMARK  status: ('A' for Active; 'I' for Inactive)
REMARK    1  A    between atoms: CB_1  and  CA_2 
REMARK       I    between atoms: CA_2  and  C_4 
REMARK       I    between atoms: CA_2  and  N_6 
REMARK       I    between atoms: N_6  and  C_7 
REMARK       I    between atoms: C_7  and  CA_9 
REMARK       I    between atoms: CA_9  and  N_19 
ROOT
ATOM      1  CA  ALA d   2       6.584  -0.194  -4.460  0.00  0.00     0.060 C 
ATOM      2  HA  ALA d   2       6.503  -0.700  -5.422  0.00  0.00     0.056 H 
ATOM      3  C   ALA d   2       7.682   0.836  -4.525  0.00  0.00     0.062 C 
ATOM      4  O   ALA d   2       7.430   2.002  -4.329  0.00  0.00    -0.548 OA
ATOM      5  N   ALA d   2       5.314   0.466  -4.147  0.00  0.00    -0.303 N 
ATOM      6  H   ALA d   2       5.310   1.312  -3.674  0.00  0.00     0.149 HD
ATOM      7  OXT ALA d   2       8.940   0.460  -4.798  0.00  0.00    -0.548 OA
ATOM      8  C   GLY d   1       4.150  -0.101  -4.521  0.00  0.00     0.259 C 
ATOM      9  O   GLY d   1       4.154  -1.161  -5.112  0.00  0.00    -0.270 OA
ATOM     10  CA  GLY d   1       2.843   0.580  -4.205  0.00  0.00     0.043 C 
ATOM     11  HA1 GLY d   1       2.745   0.695  -3.126  0.00  0.00     0.091 H 
ATOM     12  HA2 GLY d   1       2.821   1.561  -4.678  0.00  0.00     0.091 H 
ATOM     13  H1  GLY d   1       1.767  -1.170  -4.339  0.00  0.00     0.200 HD
ATOM     14  H2  GLY d   1       0.843   0.202  -4.515  0.00  0.00     0.200 HD
ATOM     15  N   GLY d   1       1.736  -0.233  -4.739  0.00  0.00     0.225 N 
ATOM     16  H3  GLY d   1       1.829  -0.301  -5.759  0.00  0.00     0.200 HD
ENDROOT
BRANCH   1  17
ATOM     17  CB  ALA d   2       6.909  -1.218  -3.370  0.00  0.00    -0.041 C 
ATOM     18  HB1 ALA d   2       7.818  -0.918  -2.849  0.00  0.00     0.025 H 
ATOM     19  HB2 ALA d   2       6.083  -1.267  -2.660  0.00  0.00     0.025 H 
ATOM     20  HB3 ALA d   2       7.057  -2.197  -3.825  0.00  0.00     0.025 H 
ENDBRANCH   1  17
TORSDOF 5
ENDMDL
MODEL 9
REMARK VINA RESULT:      -3.7      2.585      4.841
REMARK  1 active torsions:
REMARK  status: ('A' for Active; 'I' for Inactive)
REMARK    1  A    between atoms: CB_1  and  CA_2 
REMARK       I    between atoms: CA_2  and  C_4 
REMARK       I    between atoms: CA_2  and  N_6 
REMARK       I    between atoms: N_6  and  C_7 
REMARK       I    between atoms: C_7  and  CA_9 
REMARK       I    between atoms: CA_9  and  N_19 
ROOT
ATOM      1  CA  ALA d   2       3.025   0.815  -7.698  0.00  0.00     0.060 C 
ATOM      2  HA  ALA d   2       2.266   1.502  -7.325  0.00  0.00     0.056 H 
ATOM      3  C   ALA d   2       3.932   1.540  -8.658  0.00  0.00     0.062 C 
ATOM      4  O   ALA d   2       5.116   1.620  -8.427  0.00  0.00    -0.548 OA
ATOM      5  N   ALA d   2       3.813   0.302  -6.574  0.00  0.00    -0.303 N 
ATOM      6  H   ALA d   2       4.760   0.124  -6.687  0.00  0.00     0.149 HD
ATOM      7  OXT ALA d   2       3.427   2.096  -9.769  0.00  0.00    -0.548 OA
ATOM      8  C   GLY d   1       3.224   0.082  -5.382  0.00  0.00     0.259 C 
ATOM      9  O   GLY d   1       2.039   0.305  -5.242  0.00  0.00    -0.270 OA
ATOM     10  CA  GLY d   1       4.035  -0.438  -4.224  0.00  0.00     0.043 C 
ATOM     11  HA1 GLY d   1       4.464  -1.405  -4.487  0.00  0.00     0.091 H 
ATOM     12  HA2 GLY d   1       4.836   0.264  -3.996  0.00  0.00     0.091 H 
ATOM     13  H1  GLY d   1       2.381  -1.189  -3.254  0.00  0.00     0.200 HD
ATOM     14  H2  GLY d   1       3.689  -0.940  -2.257  0.00  0.00     0.200 HD
ATOM     15  N   GLY d   1       3.161  -0.567  -3.044  0.00  0.00     0.225 N 
ATOM     16  H3  GLY d   1       2.794   0.358  -2.794  0.00  0.00     0.200 HD
ENDROOT
BRANCH   1  17
ATOM     17  CB  ALA d   2       2.347  -0.352  -8.420  0.00  0.00    -0.041 C 
ATOM     18  HB1 ALA d   2       2.020  -1.091  -7.689  0.00  0.00     0.025 H 
ATOM     19  HB2 ALA d   2       1.484   0.016  -8.974  0.00  0.00     0.025 H 
ATOM     20  HB3 ALA d   2       3.054  -0.811  -9.110  0.00  0.00     0.025 H 
ENDBRANCH   1  17
TORSDOF 5
ENDMDL
MODEL 10
REMARK VINA RESULT:      -3.7      2.911      4.800
REMARK  1 active torsions:
REMARK  status: ('A' for Active; 'I' for Inactive)
REMARK    1  A    between atoms: CB_1  and  CA_2 
REMARK       I    between atoms: CA_2  and  C_4 
REMARK       I    between atoms: CA_2  and  N_6 
REMARK       I    between atoms: N_6  and  C_7 
REMARK       I    between atoms: C_7  and  CA_9 
REMARK       I    between atoms: CA_9  and  N_19 
ROOT
ATOM      1  CA  ALA d   2       4.208   0.604  -8.253  0.00  0.00     0.060 C 
ATOM      2  HA  ALA d   2       3.833  -0.291  -8.751  0.00  0.00     0.056 H 
ATOM      3  C   ALA d   2       3.504   1.817  -8.802  0.00  0.00     0.062 C 
ATOM      4  O   ALA d   2       2.858   2.525  -8.066  0.00  0.00    -0.548 OA
ATOM      5  N   ALA d   2       3.956   0.501  -6.813  0.00  0.00    -0.303 N 
ATOM      6  H   ALA d   2       3.738   1.296  -6.302  0.00  0.00     0.149 HD
ATOM      7  OXT ALA d   2       3.594   2.113 -10.107  0.00  0.00    -0.548 OA
ATOM      8  C   GLY d   1       4.024  -0.697  -6.200  0.00  0.00     0.259 C 
ATOM      9  O   GLY d   1       4.298  -1.690  -6.840  0.00  0.00    -0.270 OA
ATOM     10  CA  GLY d   1       3.758  -0.803  -4.721  0.00  0.00     0.043 C 
ATOM     11  HA1 GLY d   1       4.477  -0.189  -4.178  0.00  0.00     0.091 H 
ATOM     12  HA2 GLY d   1       2.749  -0.454  -4.507  0.00  0.00     0.091 H 
ATOM     13  H1  GLY d   1       4.800  -2.569  -4.544  0.00  0.00     0.200 HD
ATOM     14  H2  GLY d   1       3.719  -2.301  -3.309  0.00  0.00     0.200 HD
ATOM     15  N   GLY d   1       3.874  -2.213  -4.312  0.00  0.00     0.225 N 
ATOM     16  H3  GLY d   1       3.167  -2.768  -4.809  0.00  0.00     0.200 HD
ENDROOT
BRANCH   1  17
ATOM     17  CB  ALA d   2       5.713   0.733  -8.500  0.00  0.00    -0.041 C 
ATOM     18  HB1 ALA d   2       6.112  -0.228  -8.824  0.00  0.00     0.025 H 
ATOM     19  HB2 ALA d   2       5.891   1.479  -9.274  0.00  0.00     0.025 H 
ATOM     20  HB3 ALA d   2       6.207   1.039  -7.578  0.00  0.00     0.025 H 
ENDBRANCH   1  17
TORSDOF 5
ENDMDL
