MODEL 1
REMARK VINA RESULT:      -7.2      0.000      0.000
REMARK  5 active torsions:
REMARK  status: ('A' for Active; 'I' for Inactive)
REMARK    1  A    between atoms: C_1  and  C_2 
REMARK    2  A    between atoms: C_6  and  C_8 
REMARK    3  A    between atoms: C_10  and  C_13 
REMARK    4  A    between atoms: N_22  and  C_23 
REMARK    5  A    between atoms: C_23  and  C_24 
ROOT
ATOM      1  C   LIG d   1       9.155   2.028  -7.242  0.00  0.00     0.096 C 
ATOM      2  H   LIG d   1      10.086   1.561  -7.596  0.00  0.00     0.057 H 
ATOM      3  C   LIG d   1       9.427   3.413  -6.637  0.00  0.00     0.014 C 
ATOM      4  C   LIG d   1       9.814   4.339  -7.761  0.00  0.00     0.042 A 
ATOM      5  C   LIG d   1       9.601   4.059  -9.067  0.00  0.00     0.076 A 
ATOM      6  N   LIG d   1      10.065   5.081  -9.786  0.00  0.00    -0.239 NA
ATOM      7  C   LIG d   1      10.556   5.987  -8.980  0.00  0.00     0.094 A 
ATOM      8  N   LIG d   1      10.415   5.556  -7.704  0.00  0.00    -0.348 N 
ATOM      9  C   LIG d   1       8.946   2.787  -9.543  0.00  0.00     0.044 C 
ATOM     10  N   LIG d   1       8.259   2.164  -8.400  0.00  0.00    -0.281 N 
ATOM     11  H   LIG d   1       8.517   3.779  -6.138  0.00  0.00     0.035 H 
ATOM     12  H   LIG d   1      10.242   3.339  -5.904  0.00  0.00     0.035 H 
ATOM     13  H   LIG d   1      10.949   6.828  -9.352  0.00  0.00     0.103 H 
ATOM     14  H   LIG d   1       8.220   3.023 -10.336  0.00  0.00     0.049 H 
ATOM     15  H   LIG d   1       9.713   2.106  -9.940  0.00  0.00     0.049 H 
ATOM     16  H   LIG d   1      10.684   5.992  -6.731  0.00  0.00     0.167 HD
ENDROOT
BRANCH   1  17
ATOM     17  C   LIG d   1       8.506   1.145  -6.206  0.00  0.00     0.245 A 
ATOM     18  N   LIG d   1       7.458   1.440  -5.480  0.00  0.00    -0.190 NA
ATOM     19  C   LIG d   1       7.240   0.358  -4.699  0.00  0.00     0.202 A 
ATOM     20  N   LIG d   1       8.163  -0.521  -4.992  0.00  0.00    -0.056 NA
ATOM     21  O   LIG d   1       8.893  -0.086  -5.858  0.00  0.00    -0.336 OA
BRANCH  19  22
ATOM     22  C   LIG d   1       6.159   0.199  -3.696  0.00  0.00     0.023 A 
ATOM     23  C   LIG d   1       5.766   1.283  -2.914  0.00  0.00    -0.051 A 
ATOM     24  C   LIG d   1       4.760   1.129  -1.980  0.00  0.00    -0.061 A 
ATOM     25  H   LIG d   1       6.247   2.242  -3.038  0.00  0.00     0.062 H 
ATOM     26  C   LIG d   1       4.144  -0.098  -1.820  0.00  0.00    -0.059 A 
ATOM     27  H   LIG d   1       4.455   1.970  -1.374  0.00  0.00     0.062 H 
ATOM     28  C   LIG d   1       4.526  -1.176  -2.598  0.00  0.00    -0.050 A 
ATOM     29  H   LIG d   1       3.358  -0.214  -1.090  0.00  0.00     0.062 H 
ATOM     30  C   LIG d   1       5.534  -1.036  -3.529  0.00  0.00    -0.048 A 
ATOM     31  H   LIG d   1       5.835  -1.879  -4.133  0.00  0.00     0.063 H 
BRANCH  28  32
ATOM     32  C   LIG d   1       3.846  -2.510  -2.422  0.00  0.00    -0.040 C 
ATOM     33  H   LIG d   1       3.955  -3.102  -3.342  0.00  0.00     0.028 H 
ATOM     34  H   LIG d   1       2.777  -2.352  -2.213  0.00  0.00     0.028 H 
ATOM     35  H   LIG d   1       4.308  -3.049  -1.582  0.00  0.00     0.028 H 
ENDBRANCH  28  32
ENDBRANCH  19  22
ENDBRANCH   1  17
BRANCH  10  36
ATOM     36  C   LIG d   1       7.685   0.865  -8.775  0.00  0.00     0.027 C 
ATOM     37  H   LIG d   1       8.350   0.362  -9.491  0.00  0.00     0.048 H 
ATOM     38  H   LIG d   1       7.572   0.240  -7.876  0.00  0.00     0.048 H 
BRANCH  36  39
ATOM     39  C   LIG d   1       6.334   1.078  -9.410  0.00  0.00    -0.015 A 
ATOM     40  C   LIG d   1       5.913   0.267 -10.447  0.00  0.00     0.032 A 
ATOM     41  N   LIG d   1       4.730   0.443 -11.003  0.00  0.00    -0.263 NA
ATOM     42  H   LIG d   1       6.557  -0.523 -10.802  0.00  0.00     0.083 H 
ATOM     43  C   LIG d   1       3.912   1.397 -10.605  0.00  0.00     0.028 A 
ATOM     44  C   LIG d   1       4.267   2.251  -9.577  0.00  0.00    -0.043 A 
ATOM     45  H   LIG d   1       2.953   1.515 -11.088  0.00  0.00     0.083 H 
ATOM     46  C   LIG d   1       5.501   2.093  -8.964  0.00  0.00    -0.054 A 
ATOM     47  H   LIG d   1       3.594   3.031  -9.257  0.00  0.00     0.063 H 
ATOM     48  H   LIG d   1       5.806   2.744  -8.159  0.00  0.00     0.062 H 
ENDBRANCH  36  39
ENDBRANCH  10  36
TORSDOF 5
ENDMDL
MODEL 2
REMARK VINA RESULT:      -7.1      4.585      7.082
REMARK  5 active torsions:
REMARK  status: ('A' for Active; 'I' for Inactive)
REMARK    1  A    between atoms: C_1  and  C_2 
REMARK    2  A    between atoms: C_6  and  C_8 
REMARK    3  A    between atoms: C_10  and  C_13 
REMARK    4  A    between atoms: N_22  and  C_23 
REMARK    5  A    between atoms: C_23  and  C_24 
ROOT
ATOM      1  C   LIG d   1       3.672  -1.257  -9.527  0.00  0.00     0.096 C 
ATOM      2  H   LIG d   1       4.280  -0.776 -10.307  0.00  0.00     0.057 H 
ATOM      3  C   LIG d   1       2.202  -0.820  -9.624  0.00  0.00     0.014 C 
ATOM      4  C   LIG d   1       1.620  -1.431 -10.873  0.00  0.00     0.042 A 
ATOM      5  C   LIG d   1       2.204  -2.446 -11.549  0.00  0.00     0.076 A 
ATOM      6  N   LIG d   1       1.434  -2.737 -12.598  0.00  0.00    -0.239 NA
ATOM      7  C   LIG d   1       0.393  -1.945 -12.599  0.00  0.00     0.094 A 
ATOM      8  N   LIG d   1       0.477  -1.115 -11.533  0.00  0.00    -0.348 N 
ATOM      9  C   LIG d   1       3.504  -3.084 -11.124  0.00  0.00     0.044 C 
ATOM     10  N   LIG d   1       3.766  -2.711  -9.724  0.00  0.00    -0.281 N 
ATOM     11  H   LIG d   1       1.656  -1.173  -8.737  0.00  0.00     0.035 H 
ATOM     12  H   LIG d   1       2.149   0.276  -9.675  0.00  0.00     0.035 H 
ATOM     13  H   LIG d   1      -0.296  -2.025 -13.320  0.00  0.00     0.103 H 
ATOM     14  H   LIG d   1       3.423  -4.178 -11.214  0.00  0.00     0.049 H 
ATOM     15  H   LIG d   1       4.317  -2.723 -11.770  0.00  0.00     0.049 H 
ATOM     16  H   LIG d   1      -0.171  -0.308 -11.158  0.00  0.00     0.167 HD
ENDROOT
BRANCH   1  17
ATOM     17  C   LIG d   1       4.214  -0.898  -8.167  0.00  0.00     0.245 A 
ATOM     18  N   LIG d   1       3.761  -1.321  -7.013  0.00  0.00    -0.190 NA
ATOM     19  C   LIG d   1       4.550  -0.743  -6.080  0.00  0.00     0.202 A 
ATOM     20  N   LIG d   1       5.425  -0.008  -6.716  0.00  0.00    -0.056 NA
ATOM     21  O   LIG d   1       5.248  -0.091  -7.913  0.00  0.00    -0.336 OA
BRANCH  19  22
ATOM     22  C   LIG d   1       4.442  -0.909  -4.610  0.00  0.00     0.023 A 
ATOM     23  C   LIG d   1       4.223  -2.171  -4.063  0.00  0.00    -0.051 A 
ATOM     24  C   LIG d   1       4.122  -2.319  -2.694  0.00  0.00    -0.061 A 
ATOM     25  H   LIG d   1       4.133  -3.032  -4.708  0.00  0.00     0.062 H 
ATOM     26  C   LIG d   1       4.236  -1.218  -1.866  0.00  0.00    -0.059 A 
ATOM     27  H   LIG d   1       3.953  -3.298  -2.269  0.00  0.00     0.062 H 
ATOM     28  C   LIG d   1       4.459   0.037  -2.403  0.00  0.00    -0.050 A 
ATOM     29  H   LIG d   1       4.157  -1.338  -0.796  0.00  0.00     0.062 H 
ATOM     30  C   LIG d   1       4.556   0.198  -3.770  0.00  0.00    -0.048 A 
ATOM     31  H   LIG d   1       4.725   1.179  -4.189  0.00  0.00     0.063 H 
BRANCH  28  32
ATOM     32  C   LIG d   1       4.589   1.233  -1.494  0.00  0.00    -0.040 C 
ATOM     33  H   LIG d   1       4.785   0.893  -0.467  0.00  0.00     0.028 H 
ATOM     34  H   LIG d   1       3.656   1.814  -1.516  0.00  0.00     0.028 H 
ATOM     35  H   LIG d   1       5.422   1.864  -1.837  0.00  0.00     0.028 H 
ENDBRANCH  28  32
ENDBRANCH  19  22
ENDBRANCH   1  17
BRANCH  10  36
ATOM     36  C   LIG d   1       5.072  -3.217  -9.280  0.00  0.00     0.027 C 
ATOM     37  H   LIG d   1       5.534  -3.801 -10.090  0.00  0.00     0.048 H 
ATOM     38  H   LIG d   1       5.725  -2.370  -9.020  0.00  0.00     0.048 H 
BRANCH  36  39
ATOM     39  C   LIG d   1       4.885  -4.096  -8.070  0.00  0.00    -0.015 A 
ATOM     40  C   LIG d   1       3.704  -4.792  -7.887  0.00  0.00     0.032 A 
ATOM     41  N   LIG d   1       3.536  -5.568  -6.834  0.00  0.00    -0.263 NA
ATOM     42  H   LIG d   1       2.913  -4.703  -8.616  0.00  0.00     0.083 H 
ATOM     43  C   LIG d   1       4.472  -5.703  -5.915  0.00  0.00     0.028 A 
ATOM     44  C   LIG d   1       5.676  -5.035  -6.029  0.00  0.00    -0.043 A 
ATOM     45  H   LIG d   1       4.296  -6.344  -5.064  0.00  0.00     0.083 H 
ATOM     46  C   LIG d   1       5.892  -4.213  -7.125  0.00  0.00    -0.054 A 
ATOM     47  H   LIG d   1       6.438  -5.148  -5.273  0.00  0.00     0.063 H 
ATOM     48  H   LIG d   1       6.823  -3.678  -7.240  0.00  0.00     0.062 H 
ENDBRANCH  36  39
ENDBRANCH  10  36
TORSDOF 5
ENDMDL
MODEL 3
REMARK VINA RESULT:      -6.9      3.827      6.126
REMARK  5 active torsions:
REMARK  status: ('A' for Active; 'I' for Inactive)
REMARK    1  A    between atoms: C_1  and  C_2 
REMARK    2  A    between atoms: C_6  and  C_8 
REMARK    3  A    between atoms: C_10  and  C_13 
REMARK    4  A    between atoms: N_22  and  C_23 
REMARK    5  A    between atoms: C_23  and  C_24 
ROOT
ATOM      1  C   LIG d   1      10.708   2.169  -4.825  0.00  0.00     0.096 C 
ATOM      2  H   LIG d   1      11.044   2.320  -5.861  0.00  0.00     0.057 H 
ATOM      3  C   LIG d   1      11.536   1.078  -4.129  0.00  0.00     0.014 C 
ATOM      4  C   LIG d   1      12.926   1.620  -3.914  0.00  0.00     0.042 A 
ATOM      5  C   LIG d   1      13.237   2.933  -4.003  0.00  0.00     0.076 A 
ATOM      6  N   LIG d   1      14.542   3.062  -3.763  0.00  0.00    -0.239 NA
ATOM      7  C   LIG d   1      15.055   1.882  -3.527  0.00  0.00     0.094 A 
ATOM      8  N   LIG d   1      14.071   0.956  -3.612  0.00  0.00    -0.348 N 
ATOM      9  C   LIG d   1      12.224   4.004  -4.322  0.00  0.00     0.044 C 
ATOM     10  N   LIG d   1      10.878   3.444  -4.113  0.00  0.00    -0.281 N 
ATOM     11  H   LIG d   1      11.072   0.826  -3.164  0.00  0.00     0.035 H 
ATOM     12  H   LIG d   1      11.569   0.182  -4.764  0.00  0.00     0.035 H 
ATOM     13  H   LIG d   1      16.030   1.791  -3.325  0.00  0.00     0.103 H 
ATOM     14  H   LIG d   1      12.381   4.867  -3.658  0.00  0.00     0.049 H 
ATOM     15  H   LIG d   1      12.343   4.320  -5.368  0.00  0.00     0.049 H 
ATOM     16  H   LIG d   1      14.057  -0.138  -3.489  0.00  0.00     0.167 HD
ENDROOT
BRANCH   1  17
ATOM     17  C   LIG d   1       9.253   1.779  -4.814  0.00  0.00     0.245 A 
ATOM     18  N   LIG d   1       8.582   1.304  -3.795  0.00  0.00    -0.190 NA
ATOM     19  C   LIG d   1       7.324   1.101  -4.249  0.00  0.00     0.202 A 
ATOM     20  N   LIG d   1       7.307   1.458  -5.507  0.00  0.00    -0.056 NA
ATOM     21  O   LIG d   1       8.403   1.853  -5.844  0.00  0.00    -0.336 OA
BRANCH  19  22
ATOM     22  C   LIG d   1       6.180   0.570  -3.469  0.00  0.00     0.023 A 
ATOM     23  C   LIG d   1       5.506   1.393  -2.569  0.00  0.00    -0.051 A 
ATOM     24  C   LIG d   1       4.442   0.892  -1.844  0.00  0.00    -0.061 A 
ATOM     25  H   LIG d   1       5.815   2.419  -2.438  0.00  0.00     0.062 H 
ATOM     26  C   LIG d   1       4.047  -0.422  -2.009  0.00  0.00    -0.059 A 
ATOM     27  H   LIG d   1       3.919   1.530  -1.146  0.00  0.00     0.062 H 
ATOM     28  C   LIG d   1       4.709  -1.241  -2.906  0.00  0.00    -0.050 A 
ATOM     29  H   LIG d   1       3.214  -0.809  -1.441  0.00  0.00     0.062 H 
ATOM     30  C   LIG d   1       5.777  -0.754  -3.631  0.00  0.00    -0.048 A 
ATOM     31  H   LIG d   1       6.297  -1.396  -4.327  0.00  0.00     0.063 H 
BRANCH  28  32
ATOM     32  C   LIG d   1       4.268  -2.671  -3.085  0.00  0.00    -0.040 C 
ATOM     33  H   LIG d   1       5.152  -3.321  -3.166  0.00  0.00     0.028 H 
ATOM     34  H   LIG d   1       3.665  -2.758  -4.001  0.00  0.00     0.028 H 
ATOM     35  H   LIG d   1       3.664  -2.980  -2.219  0.00  0.00     0.028 H 
ENDBRANCH  28  32
ENDBRANCH  19  22
ENDBRANCH   1  17
BRANCH  10  36
ATOM     36  C   LIG d   1       9.841   4.407  -4.506  0.00  0.00     0.027 C 
ATOM     37  H   LIG d   1      10.008   4.724  -5.546  0.00  0.00     0.048 H 
ATOM     38  H   LIG d   1       8.851   3.935  -4.421  0.00  0.00     0.048 H 
BRANCH  36  39
ATOM     39  C   LIG d   1       9.903   5.610  -3.599  0.00  0.00    -0.015 A 
ATOM     40  C   LIG d   1       9.942   6.886  -4.131  0.00  0.00     0.032 A 
ATOM     41  N   LIG d   1       9.990   7.943  -3.344  0.00  0.00    -0.263 NA
ATOM     42  H   LIG d   1       9.928   7.018  -5.202  0.00  0.00     0.083 H 
ATOM     43  C   LIG d   1      10.014   7.829  -2.031  0.00  0.00     0.028 A 
ATOM     44  C   LIG d   1       9.983   6.586  -1.428  0.00  0.00    -0.043 A 
ATOM     45  H   LIG d   1      10.059   8.718  -1.418  0.00  0.00     0.083 H 
ATOM     46  C   LIG d   1       9.927   5.451  -2.223  0.00  0.00    -0.054 A 
ATOM     47  H   LIG d   1      10.004   6.499  -0.352  0.00  0.00     0.063 H 
ATOM     48  H   LIG d   1       9.902   4.467  -1.779  0.00  0.00     0.062 H 
ENDBRANCH  36  39
ENDBRANCH  10  36
TORSDOF 5
ENDMDL
MODEL 4
REMARK VINA RESULT:      -6.9      2.410      6.750
REMARK  5 active torsions:
REMARK  status: ('A' for Active; 'I' for Inactive)
REMARK    1  A    between atoms: C_1  and  C_2 
REMARK    2  A    between atoms: C_6  and  C_8 
REMARK    3  A    between atoms: C_10  and  C_13 
REMARK    4  A    between atoms: N_22  and  C_23 
REMARK    5  A    between atoms: C_23  and  C_24 
ROOT
ATOM      1  C   LIG d   1       6.749  -0.124  -7.118  0.00  0.00     0.096 C 
ATOM      2  H   LIG d   1       7.189  -1.024  -7.572  0.00  0.00     0.057 H 
ATOM      3  C   LIG d   1       6.043   0.739  -8.174  0.00  0.00     0.014 C 
ATOM      4  C   LIG d   1       4.808   0.000  -8.623  0.00  0.00     0.042 A 
ATOM      5  C   LIG d   1       4.274  -1.042  -7.946  0.00  0.00     0.076 A 
ATOM      6  N   LIG d   1       3.201  -1.460  -8.617  0.00  0.00    -0.239 NA
ATOM      7  C   LIG d   1       3.045  -0.719  -9.684  0.00  0.00     0.094 A 
ATOM      8  N   LIG d   1       4.034   0.206  -9.719  0.00  0.00    -0.348 N 
ATOM      9  C   LIG d   1       4.853  -1.576  -6.660  0.00  0.00     0.044 C 
ATOM     10  N   LIG d   1       5.774  -0.566  -6.112  0.00  0.00    -0.281 N 
ATOM     11  H   LIG d   1       5.767   1.707  -7.731  0.00  0.00     0.035 H 
ATOM     12  H   LIG d   1       6.719   0.904  -9.024  0.00  0.00     0.035 H 
ATOM     13  H   LIG d   1       2.283  -0.893 -10.308  0.00  0.00     0.103 H 
ATOM     14  H   LIG d   1       4.039  -1.773  -5.945  0.00  0.00     0.049 H 
ATOM     15  H   LIG d   1       5.395  -2.511  -6.863  0.00  0.00     0.049 H 
ATOM     16  H   LIG d   1       4.281   1.013 -10.424  0.00  0.00     0.167 HD
ENDROOT
BRANCH   1  17
ATOM     17  C   LIG d   1       7.829   0.686  -6.448  0.00  0.00     0.245 A 
ATOM     18  N   LIG d   1       7.683   1.854  -5.873  0.00  0.00    -0.190 NA
ATOM     19  C   LIG d   1       8.909   2.191  -5.416  0.00  0.00     0.202 A 
ATOM     20  N   LIG d   1       9.722   1.219  -5.740  0.00  0.00    -0.056 NA
ATOM     21  O   LIG d   1       9.117   0.348  -6.328  0.00  0.00    -0.336 OA
BRANCH  19  22
ATOM     22  C   LIG d   1       9.267   3.432  -4.686  0.00  0.00     0.023 A 
ATOM     23  C   LIG d   1       9.642   3.372  -3.346  0.00  0.00    -0.051 A 
ATOM     24  C   LIG d   1       9.973   4.530  -2.672  0.00  0.00    -0.061 A 
ATOM     25  H   LIG d   1       9.672   2.421  -2.835  0.00  0.00     0.062 H 
ATOM     26  C   LIG d   1       9.933   5.749  -3.324  0.00  0.00    -0.059 A 
ATOM     27  H   LIG d   1      10.263   4.484  -1.632  0.00  0.00     0.062 H 
ATOM     28  C   LIG d   1       9.568   5.813  -4.657  0.00  0.00    -0.050 A 
ATOM     29  H   LIG d   1      10.193   6.652  -2.794  0.00  0.00     0.062 H 
ATOM     30  C   LIG d   1       9.229   4.663  -5.339  0.00  0.00    -0.048 A 
ATOM     31  H   LIG d   1       8.939   4.715  -6.378  0.00  0.00     0.063 H 
BRANCH  28  32
ATOM     32  C   LIG d   1       9.533   7.144  -5.363  0.00  0.00    -0.040 C 
ATOM     33  H   LIG d   1       9.502   6.982  -6.451  0.00  0.00     0.028 H 
ATOM     34  H   LIG d   1      10.433   7.722  -5.104  0.00  0.00     0.028 H 
ATOM     35  H   LIG d   1       8.637   7.702  -5.050  0.00  0.00     0.028 H 
ENDBRANCH  28  32
ENDBRANCH  19  22
ENDBRANCH   1  17
BRANCH  10  36
ATOM     36  C   LIG d   1       6.451  -1.069  -4.909  0.00  0.00     0.027 C 
ATOM     37  H   LIG d   1       6.417  -2.168  -4.900  0.00  0.00     0.048 H 
ATOM     38  H   LIG d   1       7.499  -0.734  -4.910  0.00  0.00     0.048 H 
BRANCH  36  39
ATOM     39  C   LIG d   1       5.756  -0.536  -3.682  0.00  0.00    -0.015 A 
ATOM     40  C   LIG d   1       5.913   0.785  -3.306  0.00  0.00     0.032 A 
ATOM     41  N   LIG d   1       5.303   1.260  -2.238  0.00  0.00    -0.263 NA
ATOM     42  H   LIG d   1       6.539   1.437  -3.898  0.00  0.00     0.083 H 
ATOM     43  C   LIG d   1       4.534   0.500  -1.483  0.00  0.00     0.028 A 
ATOM     44  C   LIG d   1       4.334  -0.832  -1.793  0.00  0.00    -0.043 A 
ATOM     45  H   LIG d   1       4.055   0.923  -0.613  0.00  0.00     0.083 H 
ATOM     46  C   LIG d   1       4.955  -1.366  -2.913  0.00  0.00    -0.054 A 
ATOM     47  H   LIG d   1       3.704  -1.450  -1.171  0.00  0.00     0.063 H 
ATOM     48  H   LIG d   1       4.817  -2.403  -3.179  0.00  0.00     0.062 H 
ENDBRANCH  36  39
ENDBRANCH  10  36
TORSDOF 5
ENDMDL
MODEL 5
REMARK VINA RESULT:      -6.8      3.074      6.126
REMARK  5 active torsions:
REMARK  status: ('A' for Active; 'I' for Inactive)
REMARK    1  A    between atoms: C_1  and  C_2 
REMARK    2  A    between atoms: C_6  and  C_8 
REMARK    3  A    between atoms: C_10  and  C_13 
REMARK    4  A    between atoms: N_22  and  C_23 
REMARK    5  A    between atoms: C_23  and  C_24 
ROOT
ATOM      1  C   LIG d   1       2.843   0.095  -9.513  0.00  0.00     0.096 C 
ATOM      2  H   LIG d   1       2.162   0.864  -9.906  0.00  0.00     0.057 H 
ATOM      3  C   LIG d   1       2.320  -1.316  -9.821  0.00  0.00     0.014 C 
ATOM      4  C   LIG d   1       2.447  -1.540 -11.306  0.00  0.00     0.042 A 
ATOM      5  C   LIG d   1       3.207  -0.768 -12.116  0.00  0.00     0.076 A 
ATOM      6  N   LIG d   1       3.089  -1.237 -13.359  0.00  0.00    -0.239 NA
ATOM      7  C   LIG d   1       2.287  -2.270 -13.354  0.00  0.00     0.094 A 
ATOM      8  N   LIG d   1       1.867  -2.489 -12.085  0.00  0.00    -0.348 N 
ATOM      9  C   LIG d   1       4.019   0.402 -11.620  0.00  0.00     0.044 C 
ATOM     10  N   LIG d   1       4.150   0.287 -10.158  0.00  0.00    -0.281 N 
ATOM     11  H   LIG d   1       2.920  -2.057  -9.272  0.00  0.00     0.035 H 
ATOM     12  H   LIG d   1       1.269  -1.393  -9.511  0.00  0.00     0.035 H 
ATOM     13  H   LIG d   1       2.084  -2.751 -14.208  0.00  0.00     0.103 H 
ATOM     14  H   LIG d   1       5.013   0.384 -12.090  0.00  0.00     0.049 H 
ATOM     15  H   LIG d   1       3.507   1.340 -11.881  0.00  0.00     0.049 H 
ATOM     16  H   LIG d   1       1.198  -3.238 -11.635  0.00  0.00     0.167 HD
ENDROOT
BRANCH   1  17
ATOM     17  C   LIG d   1       2.990   0.262  -8.022  0.00  0.00     0.245 A 
ATOM     18  N   LIG d   1       3.491  -0.614  -7.187  0.00  0.00    -0.190 NA
ATOM     19  C   LIG d   1       3.420  -0.035  -5.967  0.00  0.00     0.202 A 
ATOM     20  N   LIG d   1       2.881   1.145  -6.131  0.00  0.00    -0.056 NA
ATOM     21  O   LIG d   1       2.634   1.331  -7.304  0.00  0.00    -0.336 OA
BRANCH  19  22
ATOM     22  C   LIG d   1       3.865  -0.630  -4.683  0.00  0.00     0.023 A 
ATOM     23  C   LIG d   1       2.959  -0.795  -3.638  0.00  0.00    -0.051 A 
ATOM     24  C   LIG d   1       3.379  -1.347  -2.444  0.00  0.00    -0.061 A 
ATOM     25  H   LIG d   1       1.931  -0.491  -3.761  0.00  0.00     0.062 H 
ATOM     26  C   LIG d   1       4.697  -1.735  -2.285  0.00  0.00    -0.059 A 
ATOM     27  H   LIG d   1       2.677  -1.476  -1.633  0.00  0.00     0.062 H 
ATOM     28  C   LIG d   1       5.599  -1.579  -3.321  0.00  0.00    -0.050 A 
ATOM     29  H   LIG d   1       5.021  -2.168  -1.350  0.00  0.00     0.062 H 
ATOM     30  C   LIG d   1       5.192  -1.023  -4.516  0.00  0.00    -0.048 A 
ATOM     31  H   LIG d   1       5.898  -0.897  -5.324  0.00  0.00     0.063 H 
BRANCH  28  32
ATOM     32  C   LIG d   1       7.032  -2.011  -3.142  0.00  0.00    -0.040 C 
ATOM     33  H   LIG d   1       7.701  -1.255  -3.580  0.00  0.00     0.028 H 
ATOM     34  H   LIG d   1       7.191  -2.976  -3.645  0.00  0.00     0.028 H 
ATOM     35  H   LIG d   1       7.252  -2.117  -2.069  0.00  0.00     0.028 H 
ENDBRANCH  28  32
ENDBRANCH  19  22
ENDBRANCH   1  17
BRANCH  10  36
ATOM     36  C   LIG d   1       4.845   1.454  -9.598  0.00  0.00     0.027 C 
ATOM     37  H   LIG d   1       4.901   2.248 -10.358  0.00  0.00     0.048 H 
ATOM     38  H   LIG d   1       4.294   1.824  -8.721  0.00  0.00     0.048 H 
BRANCH  36  39
ATOM     39  C   LIG d   1       6.239   1.057  -9.184  0.00  0.00    -0.015 A 
ATOM     40  C   LIG d   1       6.607  -0.275  -9.150  0.00  0.00     0.032 A 
ATOM     41  N   LIG d   1       7.826  -0.629  -8.795  0.00  0.00    -0.263 NA
ATOM     42  H   LIG d   1       5.889  -1.034  -9.424  0.00  0.00     0.083 H 
ATOM     43  C   LIG d   1       8.734   0.262  -8.449  0.00  0.00     0.028 A 
ATOM     44  C   LIG d   1       8.437   1.612  -8.453  0.00  0.00    -0.043 A 
ATOM     45  H   LIG d   1       9.721  -0.067  -8.159  0.00  0.00     0.083 H 
ATOM     46  C   LIG d   1       7.167   2.023  -8.826  0.00  0.00    -0.054 A 
ATOM     47  H   LIG d   1       9.184   2.337  -8.167  0.00  0.00     0.063 H 
ATOM     48  H   LIG d   1       6.907   3.071  -8.838  0.00  0.00     0.062 H 
ENDBRANCH  36  39
ENDBRANCH  10  36
TORSDOF 5
ENDMDL
MODEL 6
REMARK VINA RESULT:      -6.7      3.692      6.446
REMARK  5 active torsions:
REMARK  status: ('A' for Active; 'I' for Inactive)
REMARK    1  A    between atoms: C_1  and  C_2 
REMARK    2  A    between atoms: C_6  and  C_8 
REMARK    3  A    between atoms: C_10  and  C_13 
REMARK    4  A    between atoms: N_22  and  C_23 
REMARK    5  A    between atoms: C_23  and  C_24 
ROOT
ATOM      1  C   LIG d   1       8.856   1.492  -5.580  0.00  0.00     0.096 C 
ATOM      2  H   LIG d   1       9.488   0.630  -5.839  0.00  0.00     0.057 H 
ATOM      3  C   LIG d   1       8.636   2.403  -6.797  0.00  0.00     0.014 C 
ATOM      4  C   LIG d   1       7.749   1.667  -7.769  0.00  0.00     0.042 A 
ATOM      5  C   LIG d   1       7.022   0.576  -7.437  0.00  0.00     0.076 A 
ATOM      6  N   LIG d   1       6.362   0.176  -8.524  0.00  0.00    -0.239 NA
ATOM      7  C   LIG d   1       6.648   0.977  -9.519  0.00  0.00     0.094 A 
ATOM      8  N   LIG d   1       7.513   1.922  -9.082  0.00  0.00    -0.348 N 
ATOM      9  C   LIG d   1       7.014  -0.023  -6.053  0.00  0.00     0.044 C 
ATOM     10  N   LIG d   1       7.563   0.971  -5.115  0.00  0.00    -0.281 N 
ATOM     11  H   LIG d   1       8.154   3.337  -6.474  0.00  0.00     0.035 H 
ATOM     12  H   LIG d   1       9.605   2.632  -7.263  0.00  0.00     0.035 H 
ATOM     13  H   LIG d   1       6.237   0.825 -10.418  0.00  0.00     0.103 H 
ATOM     14  H   LIG d   1       5.981  -0.279  -5.769  0.00  0.00     0.049 H 
ATOM     15  H   LIG d   1       7.631  -0.933  -6.044  0.00  0.00     0.049 H 
ATOM     16  H   LIG d   1       8.004   2.775  -9.573  0.00  0.00     0.167 HD
ENDROOT
BRANCH   1  17
ATOM     17  C   LIG d   1       9.506   2.283  -4.473  0.00  0.00     0.245 A 
ATOM     18  N   LIG d   1       9.205   3.504  -4.110  0.00  0.00    -0.190 NA
ATOM     19  C   LIG d   1      10.039   3.796  -3.087  0.00  0.00     0.202 A 
ATOM     20  N   LIG d   1      10.794   2.745  -2.893  0.00  0.00    -0.056 NA
ATOM     21  O   LIG d   1      10.496   1.868  -3.677  0.00  0.00    -0.336 OA
BRANCH  19  22
ATOM     22  C   LIG d   1      10.093   5.070  -2.329  0.00  0.00     0.023 A 
ATOM     23  C   LIG d   1       9.597   6.242  -2.896  0.00  0.00    -0.051 A 
ATOM     24  C   LIG d   1       9.650   7.425  -2.186  0.00  0.00    -0.061 A 
ATOM     25  H   LIG d   1       9.173   6.225  -3.888  0.00  0.00     0.062 H 
ATOM     26  C   LIG d   1      10.195   7.448  -0.915  0.00  0.00    -0.059 A 
ATOM     27  H   LIG d   1       9.266   8.334  -2.625  0.00  0.00     0.062 H 
ATOM     28  C   LIG d   1      10.684   6.286  -0.345  0.00  0.00    -0.050 A 
ATOM     29  H   LIG d   1      10.234   8.375  -0.363  0.00  0.00     0.062 H 
ATOM     30  C   LIG d   1      10.641   5.099  -1.047  0.00  0.00    -0.048 A 
ATOM     31  H   LIG d   1      11.027   4.193  -0.604  0.00  0.00     0.063 H 
BRANCH  28  32
ATOM     32  C   LIG d   1      11.270   6.318   1.043  0.00  0.00    -0.040 C 
ATOM     33  H   LIG d   1      11.170   5.326   1.507  0.00  0.00     0.028 H 
ATOM     34  H   LIG d   1      10.735   7.063   1.651  0.00  0.00     0.028 H 
ATOM     35  H   LIG d   1      12.335   6.589   0.985  0.00  0.00     0.028 H 
ENDBRANCH  28  32
ENDBRANCH  19  22
ENDBRANCH   1  17
BRANCH  10  36
ATOM     36  C   LIG d   1       7.678   0.411  -3.762  0.00  0.00     0.027 C 
ATOM     37  H   LIG d   1       8.207  -0.552  -3.806  0.00  0.00     0.048 H 
ATOM     38  H   LIG d   1       8.238   1.109  -3.122  0.00  0.00     0.048 H 
BRANCH  36  39
ATOM     39  C   LIG d   1       6.300   0.200  -3.187  0.00  0.00    -0.015 A 
ATOM     40  C   LIG d   1       5.807  -1.078  -3.003  0.00  0.00     0.032 A 
ATOM     41  N   LIG d   1       4.606  -1.271  -2.495  0.00  0.00    -0.263 NA
ATOM     42  H   LIG d   1       6.414  -1.929  -3.274  0.00  0.00     0.083 H 
ATOM     43  C   LIG d   1       3.827  -0.262  -2.155  0.00  0.00     0.028 A 
ATOM     44  C   LIG d   1       4.250   1.043  -2.315  0.00  0.00    -0.043 A 
ATOM     45  H   LIG d   1       2.847  -0.459  -1.746  0.00  0.00     0.083 H 
ATOM     46  C   LIG d   1       5.510   1.285  -2.842  0.00  0.00    -0.054 A 
ATOM     47  H   LIG d   1       3.608   1.865  -2.036  0.00  0.00     0.063 H 
ATOM     48  H   LIG d   1       5.867   2.295  -2.979  0.00  0.00     0.062 H 
ENDBRANCH  36  39
ENDBRANCH  10  36
TORSDOF 5
ENDMDL
MODEL 7
REMARK VINA RESULT:      -6.6      5.222      7.635
REMARK  5 active torsions:
REMARK  status: ('A' for Active; 'I' for Inactive)
REMARK    1  A    between atoms: C_1  and  C_2 
REMARK    2  A    between atoms: C_6  and  C_8 
REMARK    3  A    between atoms: C_10  and  C_13 
REMARK    4  A    between atoms: N_22  and  C_23 
REMARK    5  A    between atoms: C_23  and  C_24 
ROOT
ATOM      1  C   LIG d   1       5.175  -2.701  -4.681  0.00  0.00     0.096 C 
ATOM      2  H   LIG d   1       6.265  -2.632  -4.555  0.00  0.00     0.057 H 
ATOM      3  C   LIG d   1       4.447  -2.462  -3.350  0.00  0.00     0.014 C 
ATOM      4  C   LIG d   1       4.612  -1.007  -2.988  0.00  0.00     0.042 A 
ATOM      5  C   LIG d   1       5.017  -0.061  -3.866  0.00  0.00     0.076 A 
ATOM      6  N   LIG d   1       5.060   1.105  -3.222  0.00  0.00    -0.239 NA
ATOM      7  C   LIG d   1       4.697   0.923  -1.978  0.00  0.00     0.094 A 
ATOM      8  N   LIG d   1       4.409  -0.388  -1.797  0.00  0.00    -0.348 N 
ATOM      9  C   LIG d   1       5.342  -0.357  -5.309  0.00  0.00     0.044 C 
ATOM     10  N   LIG d   1       4.775  -1.672  -5.652  0.00  0.00    -0.281 N 
ATOM     11  H   LIG d   1       3.381  -2.706  -3.466  0.00  0.00     0.035 H 
ATOM     12  H   LIG d   1       4.888  -3.100  -2.572  0.00  0.00     0.035 H 
ATOM     13  H   LIG d   1       4.670   1.697  -1.346  0.00  0.00     0.103 H 
ATOM     14  H   LIG d   1       4.904   0.422  -5.951  0.00  0.00     0.049 H 
ATOM     15  H   LIG d   1       6.434  -0.370  -5.443  0.00  0.00     0.049 H 
ATOM     16  H   LIG d   1       4.071  -0.969  -0.926  0.00  0.00     0.167 HD
ENDROOT
BRANCH   1  17
ATOM     17  C   LIG d   1       4.811  -4.062  -5.214  0.00  0.00     0.245 A 
ATOM     18  N   LIG d   1       5.563  -5.134  -5.190  0.00  0.00    -0.190 NA
ATOM     19  C   LIG d   1       4.829  -6.108  -5.773  0.00  0.00     0.202 A 
ATOM     20  N   LIG d   1       3.686  -5.574  -6.118  0.00  0.00    -0.056 NA
ATOM     21  O   LIG d   1       3.659  -4.404  -5.800  0.00  0.00    -0.336 OA
BRANCH  19  22
ATOM     22  C   LIG d   1       5.243  -7.516  -5.986  0.00  0.00     0.023 A 
ATOM     23  C   LIG d   1       6.225  -8.085  -5.179  0.00  0.00    -0.051 A 
ATOM     24  C   LIG d   1       6.608  -9.397  -5.382  0.00  0.00    -0.061 A 
ATOM     25  H   LIG d   1       6.687  -7.502  -4.396  0.00  0.00     0.062 H 
ATOM     26  C   LIG d   1       6.018 -10.144  -6.385  0.00  0.00    -0.059 A 
ATOM     27  H   LIG d   1       7.369  -9.839  -4.756  0.00  0.00     0.062 H 
ATOM     28  C   LIG d   1       5.038  -9.585  -7.186  0.00  0.00    -0.050 A 
ATOM     29  H   LIG d   1       6.320 -11.169  -6.540  0.00  0.00     0.062 H 
ATOM     30  C   LIG d   1       4.652  -8.275  -6.995  0.00  0.00    -0.048 A 
ATOM     31  H   LIG d   1       3.890  -7.838  -7.624  0.00  0.00     0.063 H 
BRANCH  28  32
ATOM     32  C   LIG d   1       4.396 -10.408  -8.272  0.00  0.00    -0.040 C 
ATOM     33  H   LIG d   1       4.807 -11.428  -8.253  0.00  0.00     0.028 H 
ATOM     34  H   LIG d   1       4.600  -9.949  -9.251  0.00  0.00     0.028 H 
ATOM     35  H   LIG d   1       3.308 -10.449  -8.107  0.00  0.00     0.028 H 
ENDBRANCH  28  32
ENDBRANCH  19  22
ENDBRANCH   1  17
BRANCH  10  36
ATOM     36  C   LIG d   1       5.146  -2.066  -7.018  0.00  0.00     0.027 C 
ATOM     37  H   LIG d   1       6.012  -1.475  -7.348  0.00  0.00     0.048 H 
ATOM     38  H   LIG d   1       5.403  -3.135  -7.034  0.00  0.00     0.048 H 
BRANCH  36  39
ATOM     39  C   LIG d   1       3.984  -1.815  -7.945  0.00  0.00    -0.015 A 
ATOM     40  C   LIG d   1       3.582  -2.787  -8.842  0.00  0.00     0.032 A 
ATOM     41  N   LIG d   1       2.563  -2.577  -9.651  0.00  0.00    -0.263 NA
ATOM     42  H   LIG d   1       4.104  -3.731  -8.875  0.00  0.00     0.083 H 
ATOM     43  C   LIG d   1       1.898  -1.439  -9.649  0.00  0.00     0.028 A 
ATOM     44  C   LIG d   1       2.247  -0.418  -8.785  0.00  0.00    -0.043 A 
ATOM     45  H   LIG d   1       1.072  -1.301 -10.331  0.00  0.00     0.083 H 
ATOM     46  C   LIG d   1       3.310  -0.604  -7.914  0.00  0.00    -0.054 A 
ATOM     47  H   LIG d   1       1.700   0.513  -8.789  0.00  0.00     0.063 H 
ATOM     48  H   LIG d   1       3.605   0.176  -7.228  0.00  0.00     0.062 H 
ENDBRANCH  36  39
ENDBRANCH  10  36
TORSDOF 5
ENDMDL
MODEL 8
REMARK VINA RESULT:      -6.5      3.711      6.036
REMARK  5 active torsions:
REMARK  status: ('A' for Active; 'I' for Inactive)
REMARK    1  A    between atoms: C_1  and  C_2 
REMARK    2  A    between atoms: C_6  and  C_8 
REMARK    3  A    between atoms: C_10  and  C_13 
REMARK    4  A    between atoms: N_22  and  C_23 
REMARK    5  A    between atoms: C_23  and  C_24 
ROOT
ATOM      1  C   LIG d   1       9.692   4.441  -5.882  0.00  0.00     0.096 C 
ATOM      2  H   LIG d   1       8.844   4.755  -6.508  0.00  0.00     0.057 H 
ATOM      3  C   LIG d   1      10.916   4.095  -6.744  0.00  0.00     0.014 C 
ATOM      4  C   LIG d   1      11.442   5.378  -7.334  0.00  0.00     0.042 A 
ATOM      5  C   LIG d   1      11.097   6.605  -6.881  0.00  0.00     0.076 A 
ATOM      6  N   LIG d   1      11.734   7.510  -7.624  0.00  0.00    -0.239 NA
ATOM      7  C   LIG d   1      12.463   6.896  -8.521  0.00  0.00     0.094 A 
ATOM      8  N   LIG d   1      12.305   5.559  -8.367  0.00  0.00    -0.348 N 
ATOM      9  C   LIG d   1      10.150   6.825  -5.729  0.00  0.00     0.044 C 
ATOM     10  N   LIG d   1      10.021   5.559  -4.987  0.00  0.00    -0.281 N 
ATOM     11  H   LIG d   1      11.684   3.621  -6.115  0.00  0.00     0.035 H 
ATOM     12  H   LIG d   1      10.617   3.401  -7.543  0.00  0.00     0.035 H 
ATOM     13  H   LIG d   1      13.012   7.424  -9.168  0.00  0.00     0.103 H 
ATOM     14  H   LIG d   1      10.550   7.610  -5.069  0.00  0.00     0.049 H 
ATOM     15  H   LIG d   1       9.169   7.137  -6.116  0.00  0.00     0.049 H 
ATOM     16  H   LIG d   1      12.722   4.689  -8.895  0.00  0.00     0.167 HD
ENDROOT
BRANCH   1  17
ATOM     17  C   LIG d   1       9.300   3.239  -5.062  0.00  0.00     0.245 A 
ATOM     18  N   LIG d   1       8.090   2.762  -4.910  0.00  0.00    -0.190 NA
ATOM     19  C   LIG d   1       8.221   1.689  -4.098  0.00  0.00     0.202 A 
ATOM     20  N   LIG d   1       9.491   1.581  -3.804  0.00  0.00    -0.056 NA
ATOM     21  O   LIG d   1      10.122   2.460  -4.353  0.00  0.00    -0.336 OA
BRANCH  19  22
ATOM     22  C   LIG d   1       7.129   0.802  -3.626  0.00  0.00     0.023 A 
ATOM     23  C   LIG d   1       7.287  -0.581  -3.663  0.00  0.00    -0.051 A 
ATOM     24  C   LIG d   1       6.267  -1.402  -3.223  0.00  0.00    -0.061 A 
ATOM     25  H   LIG d   1       8.205  -1.011  -4.035  0.00  0.00     0.062 H 
ATOM     26  C   LIG d   1       5.091  -0.852  -2.748  0.00  0.00    -0.059 A 
ATOM     27  H   LIG d   1       6.389  -2.475  -3.252  0.00  0.00     0.062 H 
ATOM     28  C   LIG d   1       4.931   0.521  -2.704  0.00  0.00    -0.050 A 
ATOM     29  H   LIG d   1       4.296  -1.497  -2.405  0.00  0.00     0.062 H 
ATOM     30  C   LIG d   1       5.941   1.350  -3.146  0.00  0.00    -0.048 A 
ATOM     31  H   LIG d   1       5.814   2.422  -3.116  0.00  0.00     0.063 H 
BRANCH  28  32
ATOM     32  C   LIG d   1       3.648   1.112  -2.178  0.00  0.00    -0.040 C 
ATOM     33  H   LIG d   1       2.931   0.305  -1.968  0.00  0.00     0.028 H 
ATOM     34  H   LIG d   1       3.223   1.794  -2.929  0.00  0.00     0.028 H 
ATOM     35  H   LIG d   1       3.854   1.670  -1.252  0.00  0.00     0.028 H 
ENDBRANCH  28  32
ENDBRANCH  19  22
ENDBRANCH   1  17
BRANCH  10  36
ATOM     36  C   LIG d   1       9.030   5.679  -3.909  0.00  0.00     0.027 C 
ATOM     37  H   LIG d   1       8.374   6.538  -4.108  0.00  0.00     0.048 H 
ATOM     38  H   LIG d   1       8.427   4.760  -3.862  0.00  0.00     0.048 H 
BRANCH  36  39
ATOM     39  C   LIG d   1       9.740   5.882  -2.595  0.00  0.00    -0.015 A 
ATOM     40  C   LIG d   1       9.372   6.915  -1.753  0.00  0.00     0.032 A 
ATOM     41  N   LIG d   1       9.984   7.095  -0.599  0.00  0.00    -0.263 NA
ATOM     42  H   LIG d   1       8.571   7.579  -2.042  0.00  0.00     0.083 H 
ATOM     43  C   LIG d   1      10.970   6.312  -0.207  0.00  0.00     0.028 A 
ATOM     44  C   LIG d   1      11.396   5.262  -0.999  0.00  0.00    -0.043 A 
ATOM     45  H   LIG d   1      11.450   6.493   0.742  0.00  0.00     0.083 H 
ATOM     46  C   LIG d   1      10.773   5.038  -2.217  0.00  0.00    -0.054 A 
ATOM     47  H   LIG d   1      12.204   4.625  -0.673  0.00  0.00     0.063 H 
ATOM     48  H   LIG d   1      11.085   4.225  -2.856  0.00  0.00     0.062 H 
ENDBRANCH  36  39
ENDBRANCH  10  36
TORSDOF 5
ENDMDL
MODEL 9
REMARK VINA RESULT:      -6.4      3.160      7.663
REMARK  5 active torsions:
REMARK  status: ('A' for Active; 'I' for Inactive)
REMARK    1  A    between atoms: C_1  and  C_2 
REMARK    2  A    between atoms: C_6  and  C_8 
REMARK    3  A    between atoms: C_10  and  C_13 
REMARK    4  A    between atoms: N_22  and  C_23 
REMARK    5  A    between atoms: C_23  and  C_24 
ROOT
ATOM      1  C   LIG d   1       6.999  -2.712  -5.945  0.00  0.00     0.096 C 
ATOM      2  H   LIG d   1       7.526  -3.658  -5.752  0.00  0.00     0.057 H 
ATOM      3  C   LIG d   1       6.344  -2.719  -7.335  0.00  0.00     0.014 C 
ATOM      4  C   LIG d   1       5.197  -3.696  -7.299  0.00  0.00     0.042 A 
ATOM      5  C   LIG d   1       4.661  -4.178  -6.154  0.00  0.00     0.076 A 
ATOM      6  N   LIG d   1       3.677  -5.015  -6.482  0.00  0.00    -0.239 NA
ATOM      7  C   LIG d   1       3.577  -5.072  -7.785  0.00  0.00     0.094 A 
ATOM      8  N   LIG d   1       4.513  -4.258  -8.329  0.00  0.00    -0.348 N 
ATOM      9  C   LIG d   1       5.151  -3.785  -4.783  0.00  0.00     0.044 C 
ATOM     10  N   LIG d   1       5.962  -2.563  -4.914  0.00  0.00    -0.281 N 
ATOM     11  H   LIG d   1       5.976  -1.709  -7.571  0.00  0.00     0.035 H 
ATOM     12  H   LIG d   1       7.083  -3.026  -8.087  0.00  0.00     0.035 H 
ATOM     13  H   LIG d   1       2.885  -5.656  -8.209  0.00  0.00     0.103 H 
ATOM     14  H   LIG d   1       4.289  -3.597  -4.125  0.00  0.00     0.049 H 
ATOM     15  H   LIG d   1       5.760  -4.599  -4.364  0.00  0.00     0.049 H 
ATOM     16  H   LIG d   1       4.778  -4.008  -9.367  0.00  0.00     0.167 HD
ENDROOT
BRANCH   1  17
ATOM     17  C   LIG d   1       7.968  -1.562  -5.853  0.00  0.00     0.245 A 
ATOM     18  N   LIG d   1       7.789  -0.354  -6.325  0.00  0.00    -0.190 NA
ATOM     19  C   LIG d   1       8.912   0.330  -6.010  0.00  0.00     0.202 A 
ATOM     20  N   LIG d   1       9.701  -0.496  -5.375  0.00  0.00    -0.056 NA
ATOM     21  O   LIG d   1       9.172  -1.583  -5.273  0.00  0.00    -0.336 OA
BRANCH  19  22
ATOM     22  C   LIG d   1       9.197   1.751  -6.329  0.00  0.00     0.023 A 
ATOM     23  C   LIG d   1       9.383   2.146  -7.652  0.00  0.00    -0.051 A 
ATOM     24  C   LIG d   1       9.649   3.469  -7.944  0.00  0.00    -0.061 A 
ATOM     25  H   LIG d   1       9.319   1.420  -8.448  0.00  0.00     0.062 H 
ATOM     26  C   LIG d   1       9.732   4.401  -6.925  0.00  0.00    -0.059 A 
ATOM     27  H   LIG d   1       9.793   3.777  -8.969  0.00  0.00     0.062 H 
ATOM     28  C   LIG d   1       9.543   4.015  -5.610  0.00  0.00    -0.050 A 
ATOM     29  H   LIG d   1       9.940   5.435  -7.157  0.00  0.00     0.062 H 
ATOM     30  C   LIG d   1       9.282   2.695  -5.307  0.00  0.00    -0.048 A 
ATOM     31  H   LIG d   1       9.140   2.393  -4.280  0.00  0.00     0.063 H 
BRANCH  28  32
ATOM     32  C   LIG d   1       9.629   5.037  -4.506  0.00  0.00    -0.040 C 
ATOM     33  H   LIG d   1       8.755   4.939  -3.846  0.00  0.00     0.028 H 
ATOM     34  H   LIG d   1       9.648   6.047  -4.941  0.00  0.00     0.028 H 
ATOM     35  H   LIG d   1      10.549   4.872  -3.925  0.00  0.00     0.028 H 
ENDBRANCH  28  32
ENDBRANCH  19  22
ENDBRANCH   1  17
BRANCH  10  36
ATOM     36  C   LIG d   1       6.555  -2.184  -3.624  0.00  0.00     0.027 C 
ATOM     37  H   LIG d   1       6.480  -3.028  -2.923  0.00  0.00     0.048 H 
ATOM     38  H   LIG d   1       7.614  -1.921  -3.770  0.00  0.00     0.048 H 
BRANCH  36  39
ATOM     39  C   LIG d   1       5.816  -0.997  -3.061  0.00  0.00    -0.015 A 
ATOM     40  C   LIG d   1       6.349   0.275  -3.170  0.00  0.00     0.032 A 
ATOM     41  N   LIG d   1       5.705   1.319  -2.686  0.00  0.00    -0.263 NA
ATOM     42  H   LIG d   1       7.299   0.415  -3.662  0.00  0.00     0.083 H 
ATOM     43  C   LIG d   1       4.544   1.195  -2.073  0.00  0.00     0.028 A 
ATOM     44  C   LIG d   1       3.953  -0.046  -1.922  0.00  0.00    -0.043 A 
ATOM     45  H   LIG d   1       4.049   2.072  -1.685  0.00  0.00     0.083 H 
ATOM     46  C   LIG d   1       4.598  -1.167  -2.423  0.00  0.00    -0.054 A 
ATOM     47  H   LIG d   1       3.003  -0.141  -1.418  0.00  0.00     0.063 H 
ATOM     48  H   LIG d   1       4.160  -2.148  -2.319  0.00  0.00     0.062 H 
ENDBRANCH  36  39
ENDBRANCH  10  36
TORSDOF 5
ENDMDL
MODEL 10
REMARK VINA RESULT:      -6.3      3.322      7.075
REMARK  5 active torsions:
REMARK  status: ('A' for Active; 'I' for Inactive)
REMARK    1  A    between atoms: C_1  and  C_2 
REMARK    2  A    between atoms: C_6  and  C_8 
REMARK    3  A    between atoms: C_10  and  C_13 
REMARK    4  A    between atoms: N_22  and  C_23 
REMARK    5  A    between atoms: C_23  and  C_24 
ROOT
ATOM      1  C   LIG d   1       7.798  -0.395  -6.823  0.00  0.00     0.096 C 
ATOM      2  H   LIG d   1       8.477   0.455  -6.661  0.00  0.00     0.057 H 
ATOM      3  C   LIG d   1       8.501  -1.527  -7.587  0.00  0.00     0.014 C 
ATOM      4  C   LIG d   1       9.525  -2.138  -6.665  0.00  0.00     0.042 A 
ATOM      5  C   LIG d   1       9.539  -1.940  -5.327  0.00  0.00     0.076 A 
ATOM      6  N   LIG d   1      10.571  -2.615  -4.823  0.00  0.00    -0.239 NA
ATOM      7  C   LIG d   1      11.200  -3.228  -5.793  0.00  0.00     0.094 A 
ATOM      8  N   LIG d   1      10.571  -2.952  -6.960  0.00  0.00    -0.348 N 
ATOM      9  C   LIG d   1       8.524  -1.087  -4.608  0.00  0.00     0.044 C 
ATOM     10  N   LIG d   1       7.373  -0.882  -5.503  0.00  0.00    -0.281 N 
ATOM     11  H   LIG d   1       7.759  -2.282  -7.886  0.00  0.00     0.035 H 
ATOM     12  H   LIG d   1       8.989  -1.117  -8.482  0.00  0.00     0.035 H 
ATOM     13  H   LIG d   1      12.005  -3.787  -5.594  0.00  0.00     0.103 H 
ATOM     14  H   LIG d   1       8.201  -1.598  -3.688  0.00  0.00     0.049 H 
ATOM     15  H   LIG d   1       8.977  -0.119  -4.347  0.00  0.00     0.049 H 
ATOM     16  H   LIG d   1      10.758  -3.253  -8.002  0.00  0.00     0.167 HD
ENDROOT
BRANCH   1  17
ATOM     17  C   LIG d   1       6.591   0.062  -7.602  0.00  0.00     0.245 A 
ATOM     18  N   LIG d   1       5.761  -0.700  -8.268  0.00  0.00    -0.190 NA
ATOM     19  C   LIG d   1       4.843   0.138  -8.800  0.00  0.00     0.202 A 
ATOM     20  N   LIG d   1       5.169   1.350  -8.432  0.00  0.00    -0.056 NA
ATOM     21  O   LIG d   1       6.166   1.321  -7.741  0.00  0.00    -0.336 OA
BRANCH  19  22
ATOM     22  C   LIG d   1       3.686  -0.244  -9.646  0.00  0.00     0.023 A 
ATOM     23  C   LIG d   1       2.398  -0.232  -9.115  0.00  0.00    -0.051 A 
ATOM     24  C   LIG d   1       1.325  -0.589  -9.907  0.00  0.00    -0.061 A 
ATOM     25  H   LIG d   1       2.240   0.056  -8.087  0.00  0.00     0.062 H 
ATOM     26  C   LIG d   1       1.527  -0.960 -11.224  0.00  0.00    -0.059 A 
ATOM     27  H   LIG d   1       0.326  -0.580  -9.496  0.00  0.00     0.062 H 
ATOM     28  C   LIG d   1       2.803  -0.968 -11.758  0.00  0.00    -0.050 A 
ATOM     29  H   LIG d   1       0.685  -1.238 -11.840  0.00  0.00     0.062 H 
ATOM     30  C   LIG d   1       3.883  -0.618 -10.974  0.00  0.00    -0.048 A 
ATOM     31  H   LIG d   1       4.880  -0.629 -11.390  0.00  0.00     0.063 H 
BRANCH  28  32
ATOM     32  C   LIG d   1       3.014  -1.366 -13.196  0.00  0.00    -0.040 C 
ATOM     33  H   LIG d   1       3.613  -0.597 -13.706  0.00  0.00     0.028 H 
ATOM     34  H   LIG d   1       2.040  -1.464 -13.697  0.00  0.00     0.028 H 
ATOM     35  H   LIG d   1       3.545  -2.329 -13.235  0.00  0.00     0.028 H 
ENDBRANCH  28  32
ENDBRANCH  19  22
ENDBRANCH   1  17
BRANCH  10  36
ATOM     36  C   LIG d   1       6.391   0.028  -4.898  0.00  0.00     0.027 C 
ATOM     37  H   LIG d   1       6.915   0.797  -4.311  0.00  0.00     0.048 H 
ATOM     38  H   LIG d   1       5.802   0.512  -5.691  0.00  0.00     0.048 H 
BRANCH  36  39
ATOM     39  C   LIG d   1       5.472  -0.753  -3.995  0.00  0.00    -0.015 A 
ATOM     40  C   LIG d   1       4.849  -1.900  -4.453  0.00  0.00     0.032 A 
ATOM     41  N   LIG d   1       4.049  -2.592  -3.666  0.00  0.00    -0.263 NA
ATOM     42  H   LIG d   1       5.025  -2.235  -5.464  0.00  0.00     0.083 H 
ATOM     43  C   LIG d   1       3.802  -2.219  -2.426  0.00  0.00     0.028 A 
ATOM     44  C   LIG d   1       4.384  -1.080  -1.901  0.00  0.00    -0.043 A 
ATOM     45  H   LIG d   1       3.137  -2.809  -1.813  0.00  0.00     0.083 H 
ATOM     46  C   LIG d   1       5.236  -0.329  -2.696  0.00  0.00    -0.054 A 
ATOM     47  H   LIG d   1       4.177  -0.779  -0.886  0.00  0.00     0.063 H 
ATOM     48  H   LIG d   1       5.705   0.565  -2.313  0.00  0.00     0.062 H 
ENDBRANCH  36  39
ENDBRANCH  10  36
TORSDOF 5
ENDMDL
