MODEL 1
REMARK VINA RESULT:      -4.7      0.000      0.000
REMARK  4 active torsions:
REMARK  status: ('A' for Active; 'I' for Inactive)
REMARK    1  A    between atoms: C_1  and  C_2 
REMARK    2  A    between atoms: C_4  and  O_11 
REMARK    3  A    between atoms: C_6  and  O_10 
REMARK    4  A    between atoms: C_7  and  C_8 
ROOT
ATOM      1  C   LIG d   1       4.879  -1.192  -2.818  0.00  0.00    -0.033 A 
ATOM      2  C   LIG d   1       5.910  -2.017  -3.161  0.00  0.00    -0.016 A 
ATOM      3  C   LIG d   1       7.131  -1.487  -3.569  0.00  0.00     0.121 A 
ATOM      4  C   LIG d   1       7.312  -0.113  -3.633  0.00  0.00     0.022 A 
ATOM      5  C   LIG d   1       6.274   0.737  -3.294  0.00  0.00     0.131 A 
ATOM      6  C   LIG d   1       5.044   0.199  -2.876  0.00  0.00     0.059 A 
ATOM      7  H   LIG d   1       5.778  -3.088  -3.114  0.00  0.00     0.066 H 
ATOM      8  H   LIG d   1       8.261   0.293  -3.951  0.00  0.00     0.069 H 
ENDROOT
BRANCH   1   9
ATOM      9  C   LIG d   1       3.561  -1.776  -2.377  0.00  0.00    -0.039 C 
ATOM     10  H   LIG d   1       3.726  -2.451  -1.537  0.00  0.00     0.028 H 
ATOM     11  H   LIG d   1       2.892  -0.972  -2.072  0.00  0.00     0.028 H 
ATOM     12  H   LIG d   1       3.114  -2.328  -3.204  0.00  0.00     0.028 H 
ENDBRANCH   1   9
BRANCH   6  13
ATOM     13  C   LIG d   1       3.938   1.087  -2.509  0.00  0.00     0.154 C 
ATOM     14  O   LIG d   1       3.591   1.969  -3.268  0.00  0.00    -0.296 OA
ATOM     15  H   LIG d   1       3.429   0.955  -1.566  0.00  0.00     0.108 H 
ENDBRANCH   6  13
BRANCH   5  16
ATOM     16  O   LIG d   1       6.444   2.081  -3.360  0.00  0.00    -0.506 OA
ATOM     17  H   LIG d   1       6.932   2.453  -2.613  0.00  0.00     0.292 HD
ENDBRANCH   5  16
BRANCH   3  18
ATOM     18  O   LIG d   1       8.148  -2.319  -3.908  0.00  0.00    -0.507 OA
ATOM     19  H   LIG d   1       7.955  -2.890  -4.663  0.00  0.00     0.292 HD
ENDBRANCH   3  18
TORSDOF 4
ENDMDL
MODEL 2
REMARK VINA RESULT:      -4.5      1.784      3.017
REMARK  4 active torsions:
REMARK  status: ('A' for Active; 'I' for Inactive)
REMARK    1  A    between atoms: C_1  and  C_2 
REMARK    2  A    between atoms: C_4  and  O_11 
REMARK    3  A    between atoms: C_6  and  O_10 
REMARK    4  A    between atoms: C_7  and  C_8 
ROOT
ATOM      1  C   LIG d   1       4.931   0.463  -2.840  0.00  0.00    -0.033 A 
ATOM      2  C   LIG d   1       6.108   1.121  -3.042  0.00  0.00    -0.016 A 
ATOM      3  C   LIG d   1       7.206   0.453  -3.580  0.00  0.00     0.121 A 
ATOM      4  C   LIG d   1       7.113  -0.890  -3.915  0.00  0.00     0.022 A 
ATOM      5  C   LIG d   1       5.927  -1.573  -3.711  0.00  0.00     0.131 A 
ATOM      6  C   LIG d   1       4.818  -0.894  -3.173  0.00  0.00     0.059 A 
ATOM      7  H   LIG d   1       6.190   2.166  -2.784  0.00  0.00     0.066 H 
ATOM      8  H   LIG d   1       7.967  -1.404  -4.331  0.00  0.00     0.069 H 
ENDROOT
BRANCH   1   9
ATOM      9  C   LIG d   1       3.749   1.196  -2.258  0.00  0.00    -0.039 C 
ATOM     10  H   LIG d   1       3.811   1.179  -1.169  0.00  0.00     0.028 H 
ATOM     11  H   LIG d   1       3.755   2.228  -2.606  0.00  0.00     0.028 H 
ATOM     12  H   LIG d   1       2.827   0.709  -2.576  0.00  0.00     0.028 H 
ENDBRANCH   1   9
BRANCH   6  13
ATOM     13  C   LIG d   1       3.554  -1.603  -2.957  0.00  0.00     0.154 C 
ATOM     14  O   LIG d   1       3.543  -2.648  -2.340  0.00  0.00    -0.296 OA
ATOM     15  H   LIG d   1       2.633  -1.193  -3.342  0.00  0.00     0.108 H 
ENDBRANCH   6  13
BRANCH   5  16
ATOM     16  O   LIG d   1       5.832  -2.887  -4.032  0.00  0.00    -0.506 OA
ATOM     17  H   LIG d   1       5.505  -3.051  -4.927  0.00  0.00     0.292 HD
ENDBRANCH   5  16
BRANCH   3  18
ATOM     18  O   LIG d   1       8.372   1.119  -3.775  0.00  0.00    -0.507 OA
ATOM     19  H   LIG d   1       8.278   1.936  -4.282  0.00  0.00     0.292 HD
ENDBRANCH   3  18
TORSDOF 4
ENDMDL
MODEL 3
REMARK VINA RESULT:      -4.5      1.613      2.499
REMARK  4 active torsions:
REMARK  status: ('A' for Active; 'I' for Inactive)
REMARK    1  A    between atoms: C_1  and  C_2 
REMARK    2  A    between atoms: C_4  and  O_11 
REMARK    3  A    between atoms: C_6  and  O_10 
REMARK    4  A    between atoms: C_7  and  C_8 
ROOT
ATOM      1  C   LIG d   1       4.172  -0.697  -3.127  0.00  0.00    -0.033 A 
ATOM      2  C   LIG d   1       3.828  -1.954  -3.529  0.00  0.00    -0.016 A 
ATOM      3  C   LIG d   1       4.801  -2.838  -3.989  0.00  0.00     0.121 A 
ATOM      4  C   LIG d   1       6.132  -2.449  -4.044  0.00  0.00     0.022 A 
ATOM      5  C   LIG d   1       6.496  -1.175  -3.645  0.00  0.00     0.131 A 
ATOM      6  C   LIG d   1       5.511  -0.286  -3.176  0.00  0.00     0.059 A 
ATOM      7  H   LIG d   1       2.795  -2.266  -3.490  0.00  0.00     0.066 H 
ATOM      8  H   LIG d   1       6.882  -3.139  -4.401  0.00  0.00     0.069 H 
ENDROOT
BRANCH   1   9
ATOM      9  C   LIG d   1       3.111   0.253  -2.632  0.00  0.00    -0.039 C 
ATOM     10  H   LIG d   1       2.133  -0.223  -2.708  0.00  0.00     0.028 H 
ATOM     11  H   LIG d   1       3.311   0.508  -1.591  0.00  0.00     0.028 H 
ATOM     12  H   LIG d   1       3.122   1.158  -3.238  0.00  0.00     0.028 H 
ENDBRANCH   1   9
BRANCH   6  13
ATOM     13  C   LIG d   1       5.884   1.064  -2.746  0.00  0.00     0.154 C 
ATOM     14  O   LIG d   1       6.597   1.750  -3.449  0.00  0.00    -0.296 OA
ATOM     15  H   LIG d   1       5.520   1.450  -1.806  0.00  0.00     0.108 H 
ENDBRANCH   6  13
BRANCH   5  16
ATOM     16  O   LIG d   1       7.794  -0.788  -3.702  0.00  0.00    -0.506 OA
ATOM     17  H   LIG d   1       8.424  -1.520  -3.684  0.00  0.00     0.292 HD
ENDBRANCH   5  16
BRANCH   3  18
ATOM     18  O   LIG d   1       4.445  -4.086  -4.385  0.00  0.00    -0.507 OA
ATOM     19  H   LIG d   1       5.034  -4.783  -4.067  0.00  0.00     0.292 HD
ENDBRANCH   3  18
TORSDOF 4
ENDMDL
MODEL 4
REMARK VINA RESULT:      -4.4      2.106      2.640
REMARK  4 active torsions:
REMARK  status: ('A' for Active; 'I' for Inactive)
REMARK    1  A    between atoms: C_1  and  C_2 
REMARK    2  A    between atoms: C_4  and  O_11 
REMARK    3  A    between atoms: C_6  and  O_10 
REMARK    4  A    between atoms: C_7  and  C_8 
ROOT
ATOM      1  C   LIG d   1       4.552   0.153  -3.042  0.00  0.00    -0.033 A 
ATOM      2  C   LIG d   1       5.729  -0.430  -2.671  0.00  0.00    -0.016 A 
ATOM      3  C   LIG d   1       6.320  -1.399  -3.478  0.00  0.00     0.121 A 
ATOM      4  C   LIG d   1       5.717  -1.783  -4.668  0.00  0.00     0.022 A 
ATOM      5  C   LIG d   1       4.520  -1.205  -5.054  0.00  0.00     0.131 A 
ATOM      6  C   LIG d   1       3.929  -0.223  -4.240  0.00  0.00     0.059 A 
ATOM      7  H   LIG d   1       6.205  -0.137  -1.748  0.00  0.00     0.066 H 
ATOM      8  H   LIG d   1       6.180  -2.535  -5.290  0.00  0.00     0.069 H 
ENDROOT
BRANCH   1   9
ATOM      9  C   LIG d   1       3.920   1.201  -2.161  0.00  0.00    -0.039 C 
ATOM     10  H   LIG d   1       2.999   1.557  -2.623  0.00  0.00     0.028 H 
ATOM     11  H   LIG d   1       3.694   0.767  -1.187  0.00  0.00     0.028 H 
ATOM     12  H   LIG d   1       4.610   2.035  -2.037  0.00  0.00     0.028 H 
ENDBRANCH   1   9
BRANCH   6  13
ATOM     13  C   LIG d   1       2.665   0.401  -4.639  0.00  0.00     0.154 C 
ATOM     14  O   LIG d   1       2.639   1.177  -5.572  0.00  0.00    -0.296 OA
ATOM     15  H   LIG d   1       1.755   0.168  -4.106  0.00  0.00     0.108 H 
ENDBRANCH   6  13
BRANCH   5  16
ATOM     16  O   LIG d   1       3.925  -1.581  -6.213  0.00  0.00    -0.506 OA
ATOM     17  H   LIG d   1       4.180  -2.461  -6.519  0.00  0.00     0.292 HD
ENDBRANCH   5  16
BRANCH   3  18
ATOM     18  O   LIG d   1       7.491  -1.970  -3.099  0.00  0.00    -0.507 OA
ATOM     19  H   LIG d   1       8.138  -1.345  -2.748  0.00  0.00     0.292 HD
ENDBRANCH   3  18
TORSDOF 4
ENDMDL
MODEL 5
REMARK VINA RESULT:      -4.3      1.168      3.507
REMARK  4 active torsions:
REMARK  status: ('A' for Active; 'I' for Inactive)
REMARK    1  A    between atoms: C_1  and  C_2 
REMARK    2  A    between atoms: C_4  and  O_11 
REMARK    3  A    between atoms: C_6  and  O_10 
REMARK    4  A    between atoms: C_7  and  C_8 
ROOT
ATOM      1  C   LIG d   1       4.733  -1.554  -3.098  0.00  0.00    -0.033 A 
ATOM      2  C   LIG d   1       3.850  -0.625  -2.628  0.00  0.00    -0.016 A 
ATOM      3  C   LIG d   1       4.249   0.696  -2.445  0.00  0.00     0.121 A 
ATOM      4  C   LIG d   1       5.549   1.084  -2.736  0.00  0.00     0.022 A 
ATOM      5  C   LIG d   1       6.458   0.152  -3.207  0.00  0.00     0.131 A 
ATOM      6  C   LIG d   1       6.051  -1.181  -3.397  0.00  0.00     0.059 A 
ATOM      7  H   LIG d   1       2.837  -0.917  -2.399  0.00  0.00     0.066 H 
ATOM      8  H   LIG d   1       5.853   2.110  -2.592  0.00  0.00     0.069 H 
ENDROOT
BRANCH   1   9
ATOM      9  C   LIG d   1       4.292  -2.982  -3.293  0.00  0.00    -0.039 C 
ATOM     10  H   LIG d   1       3.292  -2.997  -3.726  0.00  0.00     0.028 H 
ATOM     11  H   LIG d   1       4.986  -3.487  -3.964  0.00  0.00     0.028 H 
ATOM     12  H   LIG d   1       4.278  -3.493  -2.330  0.00  0.00     0.028 H 
ENDBRANCH   1   9
BRANCH   6  13
ATOM     13  C   LIG d   1       7.001  -2.176  -3.901  0.00  0.00     0.154 C 
ATOM     14  O   LIG d   1       7.537  -2.013  -4.978  0.00  0.00    -0.296 OA
ATOM     15  H   LIG d   1       7.228  -3.052  -3.312  0.00  0.00     0.108 H 
ENDBRANCH   6  13
BRANCH   5  16
ATOM     16  O   LIG d   1       7.731   0.523  -3.489  0.00  0.00    -0.506 OA
ATOM     17  H   LIG d   1       7.847   1.476  -3.602  0.00  0.00     0.292 HD
ENDBRANCH   5  16
BRANCH   3  18
ATOM     18  O   LIG d   1       3.361   1.610  -1.977  0.00  0.00    -0.507 OA
ATOM     19  H   LIG d   1       2.868   2.069  -2.670  0.00  0.00     0.292 HD
ENDBRANCH   3  18
TORSDOF 4
ENDMDL
MODEL 6
REMARK VINA RESULT:      -4.2      2.852      4.535
REMARK  4 active torsions:
REMARK  status: ('A' for Active; 'I' for Inactive)
REMARK    1  A    between atoms: C_1  and  C_2 
REMARK    2  A    between atoms: C_4  and  O_11 
REMARK    3  A    between atoms: C_6  and  O_10 
REMARK    4  A    between atoms: C_7  and  C_8 
ROOT
ATOM      1  C   LIG d   1       3.759  -1.488  -3.508  0.00  0.00    -0.033 A 
ATOM      2  C   LIG d   1       3.136  -0.281  -3.638  0.00  0.00    -0.016 A 
ATOM      3  C   LIG d   1       3.100   0.363  -4.872  0.00  0.00     0.121 A 
ATOM      4  C   LIG d   1       3.696  -0.216  -5.983  0.00  0.00     0.022 A 
ATOM      5  C   LIG d   1       4.336  -1.437  -5.866  0.00  0.00     0.131 A 
ATOM      6  C   LIG d   1       4.367  -2.088  -4.619  0.00  0.00     0.059 A 
ATOM      7  H   LIG d   1       2.670   0.177  -2.779  0.00  0.00     0.066 H 
ATOM      8  H   LIG d   1       3.665   0.289  -6.938  0.00  0.00     0.069 H 
ENDROOT
BRANCH   1   9
ATOM      9  C   LIG d   1       3.793  -2.177  -2.167  0.00  0.00    -0.039 C 
ATOM     10  H   LIG d   1       4.174  -1.487  -1.414  0.00  0.00     0.028 H 
ATOM     11  H   LIG d   1       2.786  -2.492  -1.895  0.00  0.00     0.028 H 
ATOM     12  H   LIG d   1       4.445  -3.049  -2.224  0.00  0.00     0.028 H 
ENDBRANCH   1   9
BRANCH   6  13
ATOM     13  C   LIG d   1       5.036  -3.384  -4.481  0.00  0.00     0.154 C 
ATOM     14  O   LIG d   1       4.532  -4.381  -4.957  0.00  0.00    -0.296 OA
ATOM     15  H   LIG d   1       5.979  -3.452  -3.961  0.00  0.00     0.108 H 
ENDBRANCH   6  13
BRANCH   5  16
ATOM     16  O   LIG d   1       4.926  -2.005  -6.946  0.00  0.00    -0.506 OA
ATOM     17  H   LIG d   1       5.671  -2.581  -6.731  0.00  0.00     0.292 HD
ENDBRANCH   5  16
BRANCH   3  18
ATOM     18  O   LIG d   1       2.478   1.564  -4.988  0.00  0.00    -0.507 OA
ATOM     19  H   LIG d   1       1.521   1.525  -4.857  0.00  0.00     0.292 HD
ENDBRANCH   3  18
TORSDOF 4
ENDMDL
MODEL 7
REMARK VINA RESULT:      -4.2      2.358      2.737
REMARK  4 active torsions:
REMARK  status: ('A' for Active; 'I' for Inactive)
REMARK    1  A    between atoms: C_1  and  C_2 
REMARK    2  A    between atoms: C_4  and  O_11 
REMARK    3  A    between atoms: C_6  and  O_10 
REMARK    4  A    between atoms: C_7  and  C_8 
ROOT
ATOM      1  C   LIG d   1       4.307  -1.576  -3.425  0.00  0.00    -0.033 A 
ATOM      2  C   LIG d   1       4.806  -2.620  -4.148  0.00  0.00    -0.016 A 
ATOM      3  C   LIG d   1       4.833  -2.564  -5.539  0.00  0.00     0.121 A 
ATOM      4  C   LIG d   1       4.353  -1.445  -6.205  0.00  0.00     0.022 A 
ATOM      5  C   LIG d   1       3.839  -0.381  -5.486  0.00  0.00     0.131 A 
ATOM      6  C   LIG d   1       3.818  -0.438  -4.080  0.00  0.00     0.059 A 
ATOM      7  H   LIG d   1       5.182  -3.495  -3.639  0.00  0.00     0.066 H 
ATOM      8  H   LIG d   1       4.377  -1.407  -7.284  0.00  0.00     0.069 H 
ENDROOT
BRANCH   1   9
ATOM      9  C   LIG d   1       4.282  -1.647  -1.919  0.00  0.00    -0.039 C 
ATOM     10  H   LIG d   1       3.827  -0.741  -1.520  0.00  0.00     0.028 H 
ATOM     11  H   LIG d   1       3.699  -2.514  -1.607  0.00  0.00     0.028 H 
ATOM     12  H   LIG d   1       5.300  -1.738  -1.542  0.00  0.00     0.028 H 
ENDBRANCH   1   9
BRANCH   6  13
ATOM     13  C   LIG d   1       3.282   0.684  -3.305  0.00  0.00     0.154 C 
ATOM     14  O   LIG d   1       3.718   1.803  -3.477  0.00  0.00    -0.296 OA
ATOM     15  H   LIG d   1       2.495   0.516  -2.585  0.00  0.00     0.108 H 
ENDBRANCH   6  13
BRANCH   5  16
ATOM     16  O   LIG d   1       3.364   0.713  -6.131  0.00  0.00    -0.506 OA
ATOM     17  H   LIG d   1       2.871   1.321  -5.564  0.00  0.00     0.292 HD
ENDBRANCH   5  16
BRANCH   3  18
ATOM     18  O   LIG d   1       5.332  -3.609  -6.247  0.00  0.00    -0.507 OA
ATOM     19  H   LIG d   1       6.297  -3.661  -6.245  0.00  0.00     0.292 HD
ENDBRANCH   3  18
TORSDOF 4
ENDMDL
MODEL 8
REMARK VINA RESULT:      -4.2      1.415      2.140
REMARK  4 active torsions:
REMARK  status: ('A' for Active; 'I' for Inactive)
REMARK    1  A    between atoms: C_1  and  C_2 
REMARK    2  A    between atoms: C_4  and  O_11 
REMARK    3  A    between atoms: C_6  and  O_10 
REMARK    4  A    between atoms: C_7  and  C_8 
ROOT
ATOM      1  C   LIG d   1       5.346  -1.570  -3.681  0.00  0.00    -0.033 A 
ATOM      2  C   LIG d   1       6.627  -1.146  -3.880  0.00  0.00    -0.016 A 
ATOM      3  C   LIG d   1       6.995   0.160  -3.563  0.00  0.00     0.121 A 
ATOM      4  C   LIG d   1       6.061   1.044  -3.043  0.00  0.00     0.022 A 
ATOM      5  C   LIG d   1       4.755   0.631  -2.841  0.00  0.00     0.131 A 
ATOM      6  C   LIG d   1       4.389  -0.690  -3.157  0.00  0.00     0.059 A 
ATOM      7  H   LIG d   1       7.361  -1.826  -4.284  0.00  0.00     0.066 H 
ATOM      8  H   LIG d   1       6.351   2.056  -2.800  0.00  0.00     0.069 H 
ENDROOT
BRANCH   1   9
ATOM      9  C   LIG d   1       4.959  -2.985  -4.027  0.00  0.00    -0.039 C 
ATOM     10  H   LIG d   1       3.931  -3.001  -4.392  0.00  0.00     0.028 H 
ATOM     11  H   LIG d   1       5.625  -3.364  -4.801  0.00  0.00     0.028 H 
ATOM     12  H   LIG d   1       5.038  -3.611  -3.139  0.00  0.00     0.028 H 
ENDBRANCH   1   9
BRANCH   6  13
ATOM     13  C   LIG d   1       3.012  -1.143  -2.943  0.00  0.00     0.154 C 
ATOM     14  O   LIG d   1       2.098  -0.609  -3.538  0.00  0.00    -0.296 OA
ATOM     15  H   LIG d   1       2.810  -1.954  -2.260  0.00  0.00     0.108 H 
ENDBRANCH   6  13
BRANCH   5  16
ATOM     16  O   LIG d   1       3.837   1.492  -2.339  0.00  0.00    -0.506 OA
ATOM     17  H   LIG d   1       3.510   2.138  -2.980  0.00  0.00     0.292 HD
ENDBRANCH   5  16
BRANCH   3  18
ATOM     18  O   LIG d   1       8.273   0.569  -3.766  0.00  0.00    -0.507 OA
ATOM     19  H   LIG d   1       8.365   1.523  -3.891  0.00  0.00     0.292 HD
ENDBRANCH   3  18
TORSDOF 4
ENDMDL
MODEL 9
REMARK VINA RESULT:      -4.1      2.014      3.917
REMARK  4 active torsions:
REMARK  status: ('A' for Active; 'I' for Inactive)
REMARK    1  A    between atoms: C_1  and  C_2 
REMARK    2  A    between atoms: C_4  and  O_11 
REMARK    3  A    between atoms: C_6  and  O_10 
REMARK    4  A    between atoms: C_7  and  C_8 
ROOT
ATOM      1  C   LIG d   1       6.537  -1.756  -3.771  0.00  0.00    -0.033 A 
ATOM      2  C   LIG d   1       6.816  -0.464  -3.431  0.00  0.00    -0.016 A 
ATOM      3  C   LIG d   1       5.787   0.464  -3.286  0.00  0.00     0.121 A 
ATOM      4  C   LIG d   1       4.467   0.084  -3.485  0.00  0.00     0.022 A 
ATOM      5  C   LIG d   1       4.169  -1.221  -3.836  0.00  0.00     0.131 A 
ATOM      6  C   LIG d   1       5.210  -2.158  -3.976  0.00  0.00     0.059 A 
ATOM      7  H   LIG d   1       7.839  -0.159  -3.274  0.00  0.00     0.066 H 
ATOM      8  H   LIG d   1       3.674   0.808  -3.372  0.00  0.00     0.069 H 
ENDROOT
BRANCH   1   9
ATOM      9  C   LIG d   1       7.658  -2.752  -3.926  0.00  0.00    -0.039 C 
ATOM     10  H   LIG d   1       7.300  -3.746  -3.656  0.00  0.00     0.028 H 
ATOM     11  H   LIG d   1       7.997  -2.757  -4.961  0.00  0.00     0.028 H 
ATOM     12  H   LIG d   1       8.484  -2.474  -3.272  0.00  0.00     0.028 H 
ENDBRANCH   1   9
BRANCH   6  13
ATOM     13  C   LIG d   1       4.909  -3.544  -4.341  0.00  0.00     0.154 C 
ATOM     14  O   LIG d   1       4.308  -3.784  -5.368  0.00  0.00    -0.296 OA
ATOM     15  H   LIG d   1       5.224  -4.352  -3.699  0.00  0.00     0.108 H 
ENDBRANCH   6  13
BRANCH   5  16
ATOM     16  O   LIG d   1       2.882  -1.596  -4.037  0.00  0.00    -0.506 OA
ATOM     17  H   LIG d   1       2.329  -1.544  -3.246  0.00  0.00     0.292 HD
ENDBRANCH   5  16
BRANCH   3  18
ATOM     18  O   LIG d   1       6.078   1.745  -2.948  0.00  0.00    -0.507 OA
ATOM     19  H   LIG d   1       6.548   1.834  -2.109  0.00  0.00     0.292 HD
ENDBRANCH   3  18
TORSDOF 4
ENDMDL
MODEL 10
REMARK VINA RESULT:      -4.1      1.408      2.730
REMARK  4 active torsions:
REMARK  status: ('A' for Active; 'I' for Inactive)
REMARK    1  A    between atoms: C_1  and  C_2 
REMARK    2  A    between atoms: C_4  and  O_11 
REMARK    3  A    between atoms: C_6  and  O_10 
REMARK    4  A    between atoms: C_7  and  C_8 
ROOT
ATOM      1  C   LIG d   1       6.087  -0.034  -3.569  0.00  0.00    -0.033 A 
ATOM      2  C   LIG d   1       6.536  -1.245  -4.008  0.00  0.00    -0.016 A 
ATOM      3  C   LIG d   1       5.676  -2.339  -4.059  0.00  0.00     0.121 A 
ATOM      4  C   LIG d   1       4.352  -2.209  -3.662  0.00  0.00     0.022 A 
ATOM      5  C   LIG d   1       3.884  -0.989  -3.209  0.00  0.00     0.131 A 
ATOM      6  C   LIG d   1       4.754   0.116  -3.165  0.00  0.00     0.059 A 
ATOM      7  H   LIG d   1       7.564  -1.356  -4.319  0.00  0.00     0.066 H 
ATOM      8  H   LIG d   1       3.690  -3.061  -3.704  0.00  0.00     0.069 H 
ENDROOT
BRANCH   1   9
ATOM      9  C   LIG d   1       7.026   1.144  -3.518  0.00  0.00    -0.039 C 
ATOM     10  H   LIG d   1       6.516   1.996  -3.067  0.00  0.00     0.028 H 
ATOM     11  H   LIG d   1       7.900   0.886  -2.920  0.00  0.00     0.028 H 
ATOM     12  H   LIG d   1       7.340   1.403  -4.529  0.00  0.00     0.028 H 
ENDBRANCH   1   9
BRANCH   6  13
ATOM     13  C   LIG d   1       4.269   1.416  -2.692  0.00  0.00     0.154 C 
ATOM     14  O   LIG d   1       3.538   2.083  -3.395  0.00  0.00    -0.296 OA
ATOM     15  H   LIG d   1       4.559   1.778  -1.717  0.00  0.00     0.108 H 
ENDBRANCH   6  13
BRANCH   5  16
ATOM     16  O   LIG d   1       2.593  -0.857  -2.816  0.00  0.00    -0.506 OA
ATOM     17  H   LIG d   1       1.965  -1.363  -3.349  0.00  0.00     0.292 HD
ENDBRANCH   5  16
BRANCH   3  18
ATOM     18  O   LIG d   1       6.135  -3.538  -4.498  0.00  0.00    -0.507 OA
ATOM     19  H   LIG d   1       5.452  -4.106  -4.877  0.00  0.00     0.292 HD
ENDBRANCH   3  18
TORSDOF 4
ENDMDL
