MODEL 1
REMARK VINA RESULT:      -6.3      0.000      0.000
REMARK  10 active torsions:
REMARK  status: ('A' for Active; 'I' for Inactive)
REMARK    1  A    between atoms: C_1  and  C_2 
REMARK    2  A    between atoms: C_2  and  C_32 
REMARK    3  A    between atoms: N_16  and  C_19 
REMARK    4  A    between atoms: C_19  and  C_20 
REMARK    5  A    between atoms: C_20  and  O_22 
REMARK    6  A    between atoms: O_22  and  C_23 
REMARK    7  A    between atoms: C_24  and  C_28 
REMARK    8  A    between atoms: C_25  and  N_27 
REMARK    9  A    between atoms: C_28  and  O_30 
REMARK   10  A    between atoms: O_30  and  C_31 
ROOT
ATOM      1  C   LIG d   1       9.580   1.084  -5.560  0.00  0.00    -0.021 C 
ATOM      2  C   LIG d   1       9.831  -0.425  -5.518  0.00  0.00     0.012 C 
ATOM      3  C   LIG d   1       8.531  -1.150  -5.261  0.00  0.00     0.116 C 
ATOM      4  C   LIG d   1       7.365  -0.649  -5.712  0.00  0.00     0.057 C 
ATOM      5  C   LIG d   1       7.316   0.573  -6.409  0.00  0.00     0.165 C 
ATOM      6  O   LIG d   1       6.247   0.988  -6.811  0.00  0.00    -0.292 OA
ATOM      7  C   LIG d   1       8.564   1.373  -6.673  0.00  0.00     0.016 C 
ATOM      8  C   LIG d   1       6.077  -1.395  -5.485  0.00  0.00     0.141 A 
ATOM      9  C   LIG d   1       5.253  -0.725  -4.429  0.00  0.00    -0.002 A 
ATOM     10  C   LIG d   1       5.501  -0.484  -3.095  0.00  0.00    -0.055 A 
ATOM     11  C   LIG d   1       4.507   0.174  -2.379  0.00  0.00    -0.061 A 
ATOM     12  C   LIG d   1       3.328   0.566  -2.979  0.00  0.00    -0.060 A 
ATOM     13  C   LIG d   1       3.072   0.327  -4.320  0.00  0.00    -0.040 A 
ATOM     14  C   LIG d   1       4.062  -0.333  -5.051  0.00  0.00     0.042 A 
ATOM     15  N   LIG d   1       4.073  -0.695  -6.386  0.00  0.00    -0.259 N 
ATOM     16  C   LIG d   1       5.216  -1.323  -6.730  0.00  0.00     0.240 A 
ATOM     17  O   LIG d   1       5.502  -1.751  -7.828  0.00  0.00    -0.274 OA
ATOM     18  C   LIG d   1       6.349  -2.827  -5.128  0.00  0.00     0.117 C 
ATOM     19  C   LIG d   1       7.582  -3.200  -4.697  0.00  0.00     0.195 C 
ATOM     20  O   LIG d   1       8.577  -2.307  -4.576  0.00  0.00    -0.446 OA
ATOM     21  H   LIG d   1      10.537  -0.653  -4.720  0.00  0.00     0.035 H 
ATOM     22  H   LIG d   1      10.245  -0.749  -6.472  0.00  0.00     0.035 H 
ATOM     23  H   LIG d   1       8.953   1.115  -7.556  0.00  0.00     0.035 H 
ATOM     24  H   LIG d   1       8.322   2.436  -6.677  0.00  0.00     0.035 H 
ATOM     25  H   LIG d   1       6.424  -0.791  -2.628  0.00  0.00     0.062 H 
ATOM     26  H   LIG d   1       4.661   0.383  -1.329  0.00  0.00     0.062 H 
ATOM     27  H   LIG d   1       2.582   1.075  -2.386  0.00  0.00     0.062 H 
ATOM     28  H   LIG d   1       2.146   0.638  -4.780  0.00  0.00     0.064 H 
ENDROOT
BRANCH  18  29
ATOM     29  C   LIG d   1       5.327  -3.783  -5.240  0.00  0.00     0.342 C 
ATOM     30  O   LIG d   1       4.470  -3.862  -4.379  0.00  0.00    -0.245 OA
BRANCH  29  31
ATOM     31  O   LIG d   1       5.294  -4.615  -6.304  0.00  0.00    -0.465 OA
BRANCH  31  32
ATOM     32  C   LIG d   1       4.006  -4.958  -6.819  0.00  0.00     0.082 C 
ATOM     33  H   LIG d   1       3.280  -4.202  -6.516  0.00  0.00     0.066 H 
ATOM     34  H   LIG d   1       4.051  -5.002  -7.908  0.00  0.00     0.066 H 
ATOM     35  H   LIG d   1       3.705  -5.929  -6.428  0.00  0.00     0.066 H 
ENDBRANCH  31  32
ENDBRANCH  29  31
ENDBRANCH  18  29
BRANCH  15  36
ATOM     36  C   LIG d   1       2.974  -0.428  -7.316  0.00  0.00     0.117 C 
ATOM     37  H   LIG d   1       2.890  -1.251  -8.026  0.00  0.00     0.058 H 
ATOM     38  H   LIG d   1       2.042  -0.333  -6.760  0.00  0.00     0.058 H 
BRANCH  36  39
ATOM     39  C   LIG d   1       3.247   0.852  -8.063  0.00  0.00     0.325 C 
ATOM     40  O   LIG d   1       2.950   1.914  -7.570  0.00  0.00    -0.249 OA
BRANCH  39  41
ATOM     41  O   LIG d   1       3.819   0.812  -9.277  0.00  0.00    -0.467 OA
BRANCH  41  42
ATOM     42  C   LIG d   1       4.001   2.079  -9.962  0.00  0.00     0.082 C 
ATOM     43  H   LIG d   1       3.469   2.057 -10.913  0.00  0.00     0.066 H 
ATOM     44  H   LIG d   1       3.607   2.885  -9.344  0.00  0.00     0.066 H 
ATOM     45  H   LIG d   1       5.062   2.245 -10.143  0.00  0.00     0.066 H 
ENDBRANCH  41  42
ENDBRANCH  39  41
ENDBRANCH  36  39
ENDBRANCH  15  36
BRANCH  19  46
ATOM     46  N   LIG d   1       7.816  -4.511  -4.380  0.00  0.00    -0.329 N 
ATOM     47  H   LIG d   1       8.427  -4.735  -3.661  0.00  0.00     0.145 HD
ATOM     48  H   LIG d   1       7.369  -5.217  -4.874  0.00  0.00     0.145 HD
ENDBRANCH  19  46
BRANCH   1  49
ATOM     49  C   LIG d   1       9.022   1.549  -4.213  0.00  0.00    -0.059 C 
ATOM     50  H   LIG d   1       9.072   0.730  -3.496  0.00  0.00     0.024 H 
ATOM     51  H   LIG d   1       9.611   2.390  -3.846  0.00  0.00     0.024 H 
ATOM     52  H   LIG d   1       7.985   1.860  -4.337  0.00  0.00     0.024 H 
ENDBRANCH   1  49
BRANCH   1  53
ATOM     53  C   LIG d   1      10.890   1.815  -5.858  0.00  0.00    -0.059 C 
ATOM     54  H   LIG d   1      11.584   1.131  -6.346  0.00  0.00     0.024 H 
ATOM     55  H   LIG d   1      10.692   2.662  -6.516  0.00  0.00     0.024 H 
ATOM     56  H   LIG d   1      11.327   2.174  -4.926  0.00  0.00     0.024 H 
ENDBRANCH   1  53
TORSDOF 10
ENDMDL
MODEL 2
REMARK VINA RESULT:      -5.9      2.137      6.003
REMARK  10 active torsions:
REMARK  status: ('A' for Active; 'I' for Inactive)
REMARK    1  A    between atoms: C_1  and  C_2 
REMARK    2  A    between atoms: C_2  and  C_32 
REMARK    3  A    between atoms: N_16  and  C_19 
REMARK    4  A    between atoms: C_19  and  C_20 
REMARK    5  A    between atoms: C_20  and  O_22 
REMARK    6  A    between atoms: O_22  and  C_23 
REMARK    7  A    between atoms: C_24  and  C_28 
REMARK    8  A    between atoms: C_25  and  N_27 
REMARK    9  A    between atoms: C_28  and  O_30 
REMARK   10  A    between atoms: O_30  and  C_31 
ROOT
ATOM      1  C   LIG d   1       2.228  -1.133 -10.471  0.00  0.00    -0.021 C 
ATOM      2  C   LIG d   1       3.434  -0.230 -10.736  0.00  0.00     0.012 C 
ATOM      3  C   LIG d   1       4.225  -0.050  -9.462  0.00  0.00     0.116 C 
ATOM      4  C   LIG d   1       4.279  -1.034  -8.544  0.00  0.00     0.057 C 
ATOM      5  C   LIG d   1       3.581  -2.243  -8.726  0.00  0.00     0.165 C 
ATOM      6  O   LIG d   1       3.663  -3.112  -7.881  0.00  0.00    -0.292 OA
ATOM      7  C   LIG d   1       2.741  -2.483  -9.952  0.00  0.00     0.016 C 
ATOM      8  C   LIG d   1       5.100  -0.863  -7.293  0.00  0.00     0.141 A 
ATOM      9  C   LIG d   1       4.218  -0.635  -6.105  0.00  0.00    -0.002 A 
ATOM     10  C   LIG d   1       3.324   0.372  -5.812  0.00  0.00    -0.055 A 
ATOM     11  C   LIG d   1       2.652   0.285  -4.598  0.00  0.00    -0.061 A 
ATOM     12  C   LIG d   1       2.872  -0.764  -3.728  0.00  0.00    -0.060 A 
ATOM     13  C   LIG d   1       3.770  -1.780  -4.016  0.00  0.00    -0.040 A 
ATOM     14  C   LIG d   1       4.451  -1.704  -5.232  0.00  0.00     0.042 A 
ATOM     15  N   LIG d   1       5.390  -2.568  -5.768  0.00  0.00    -0.259 N 
ATOM     16  C   LIG d   1       5.826  -2.154  -6.976  0.00  0.00     0.240 A 
ATOM     17  O   LIG d   1       6.645  -2.711  -7.676  0.00  0.00    -0.274 OA
ATOM     18  C   LIG d   1       6.087   0.256  -7.454  0.00  0.00     0.117 C 
ATOM     19  C   LIG d   1       5.918   1.178  -8.439  0.00  0.00     0.195 C 
ATOM     20  O   LIG d   1       4.875   1.114  -9.280  0.00  0.00    -0.446 OA
ATOM     21  H   LIG d   1       3.088   0.742 -11.089  0.00  0.00     0.035 H 
ATOM     22  H   LIG d   1       4.067  -0.687 -11.496  0.00  0.00     0.035 H 
ATOM     23  H   LIG d   1       3.291  -2.926 -10.660  0.00  0.00     0.035 H 
ATOM     24  H   LIG d   1       1.895  -3.120  -9.695  0.00  0.00     0.035 H 
ATOM     25  H   LIG d   1       3.153   1.191  -6.494  0.00  0.00     0.062 H 
ATOM     26  H   LIG d   1       1.942   1.054  -4.329  0.00  0.00     0.062 H 
ATOM     27  H   LIG d   1       2.329  -0.793  -2.795  0.00  0.00     0.062 H 
ATOM     28  H   LIG d   1       3.935  -2.596  -3.328  0.00  0.00     0.064 H 
ENDROOT
BRANCH  18  29
ATOM     29  C   LIG d   1       7.187   0.351  -6.586  0.00  0.00     0.342 C 
ATOM     30  O   LIG d   1       8.268  -0.097  -6.922  0.00  0.00    -0.245 OA
BRANCH  29  31
ATOM     31  O   LIG d   1       7.044   0.941  -5.379  0.00  0.00    -0.465 OA
BRANCH  31  32
ATOM     32  C   LIG d   1       7.428   0.175  -4.235  0.00  0.00     0.082 C 
ATOM     33  H   LIG d   1       7.105   0.688  -3.329  0.00  0.00     0.066 H 
ATOM     34  H   LIG d   1       6.958  -0.808  -4.282  0.00  0.00     0.066 H 
ATOM     35  H   LIG d   1       8.512   0.059  -4.222  0.00  0.00     0.066 H 
ENDBRANCH  31  32
ENDBRANCH  29  31
ENDBRANCH  18  29
BRANCH  15  36
ATOM     36  C   LIG d   1       5.855  -3.787  -5.103  0.00  0.00     0.117 C 
ATOM     37  H   LIG d   1       6.913  -3.937  -5.317  0.00  0.00     0.058 H 
ATOM     38  H   LIG d   1       5.712  -3.691  -4.027  0.00  0.00     0.058 H 
BRANCH  36  39
ATOM     39  C   LIG d   1       5.068  -4.968  -5.611  0.00  0.00     0.325 C 
ATOM     40  O   LIG d   1       4.011  -5.255  -5.100  0.00  0.00    -0.249 OA
BRANCH  39  41
ATOM     41  O   LIG d   1       5.543  -5.702  -6.630  0.00  0.00    -0.467 OA
BRANCH  41  42
ATOM     42  C   LIG d   1       4.644  -6.683  -7.210  0.00  0.00     0.082 C 
ATOM     43  H   LIG d   1       4.097  -7.190  -6.415  0.00  0.00     0.066 H 
ATOM     44  H   LIG d   1       3.938  -6.182  -7.873  0.00  0.00     0.066 H 
ATOM     45  H   LIG d   1       5.219  -7.413  -7.778  0.00  0.00     0.066 H 
ENDBRANCH  41  42
ENDBRANCH  39  41
ENDBRANCH  36  39
ENDBRANCH  15  36
BRANCH  19  46
ATOM     46  N   LIG d   1       6.829   2.189  -8.576  0.00  0.00    -0.329 N 
ATOM     47  H   LIG d   1       6.816   2.751  -9.367  0.00  0.00     0.145 HD
ATOM     48  H   LIG d   1       7.488   2.347  -7.881  0.00  0.00     0.145 HD
ENDBRANCH  19  46
BRANCH   1  49
ATOM     49  C   LIG d   1       1.322  -0.485  -9.422  0.00  0.00    -0.059 C 
ATOM     50  H   LIG d   1       1.816   0.394  -9.007  0.00  0.00     0.024 H 
ATOM     51  H   LIG d   1       0.382  -0.186  -9.889  0.00  0.00     0.024 H 
ATOM     52  H   LIG d   1       1.119  -1.199  -8.625  0.00  0.00     0.024 H 
ENDBRANCH   1  49
BRANCH   1  53
ATOM     53  C   LIG d   1       1.448  -1.346 -11.770  0.00  0.00    -0.059 C 
ATOM     54  H   LIG d   1       0.985  -2.332 -11.758  0.00  0.00     0.024 H 
ATOM     55  H   LIG d   1       0.675  -0.583 -11.858  0.00  0.00     0.024 H 
ATOM     56  H   LIG d   1       2.129  -1.274 -12.619  0.00  0.00     0.024 H 
ENDBRANCH   1  53
TORSDOF 10
ENDMDL
MODEL 3
REMARK VINA RESULT:      -5.8      2.044      4.814
REMARK  10 active torsions:
REMARK  status: ('A' for Active; 'I' for Inactive)
REMARK    1  A    between atoms: C_1  and  C_2 
REMARK    2  A    between atoms: C_2  and  C_32 
REMARK    3  A    between atoms: N_16  and  C_19 
REMARK    4  A    between atoms: C_19  and  C_20 
REMARK    5  A    between atoms: C_20  and  O_22 
REMARK    6  A    between atoms: O_22  and  C_23 
REMARK    7  A    between atoms: C_24  and  C_28 
REMARK    8  A    between atoms: C_25  and  N_27 
REMARK    9  A    between atoms: C_28  and  O_30 
REMARK   10  A    between atoms: O_30  and  C_31 
ROOT
ATOM      1  C   LIG d   1       3.589  -0.003  -9.164  0.00  0.00    -0.021 C 
ATOM      2  C   LIG d   1       4.292  -1.339  -9.414  0.00  0.00     0.012 C 
ATOM      3  C   LIG d   1       5.234  -1.639  -8.272  0.00  0.00     0.116 C 
ATOM      4  C   LIG d   1       4.954  -1.220  -7.023  0.00  0.00     0.057 C 
ATOM      5  C   LIG d   1       3.795  -0.469  -6.747  0.00  0.00     0.165 C 
ATOM      6  O   LIG d   1       3.570  -0.118  -5.605  0.00  0.00    -0.292 OA
ATOM      7  C   LIG d   1       2.826  -0.099  -7.837  0.00  0.00     0.016 C 
ATOM      8  C   LIG d   1       5.879  -1.554  -5.882  0.00  0.00     0.141 A 
ATOM      9  C   LIG d   1       6.656  -0.348  -5.457  0.00  0.00    -0.002 A 
ATOM     10  C   LIG d   1       7.563   0.439  -6.134  0.00  0.00    -0.055 A 
ATOM     11  C   LIG d   1       8.117   1.507  -5.436  0.00  0.00    -0.061 A 
ATOM     12  C   LIG d   1       7.772   1.764  -4.124  0.00  0.00    -0.060 A 
ATOM     13  C   LIG d   1       6.860   0.978  -3.437  0.00  0.00    -0.040 A 
ATOM     14  C   LIG d   1       6.297  -0.097  -4.128  0.00  0.00     0.042 A 
ATOM     15  N   LIG d   1       5.374  -1.033  -3.694  0.00  0.00    -0.259 N 
ATOM     16  C   LIG d   1       5.069  -1.926  -4.658  0.00  0.00     0.240 A 
ATOM     17  O   LIG d   1       4.293  -2.854  -4.562  0.00  0.00    -0.274 OA
ATOM     18  C   LIG d   1       6.796  -2.682  -6.256  0.00  0.00     0.117 C 
ATOM     19  C   LIG d   1       6.977  -3.009  -7.563  0.00  0.00     0.195 C 
ATOM     20  O   LIG d   1       6.351  -2.339  -8.542  0.00  0.00    -0.446 OA
ATOM     21  H   LIG d   1       4.855  -1.284 -10.345  0.00  0.00     0.035 H 
ATOM     22  H   LIG d   1       3.546  -2.131  -9.487  0.00  0.00     0.035 H 
ATOM     23  H   LIG d   1       2.114  -0.796  -7.911  0.00  0.00     0.035 H 
ATOM     24  H   LIG d   1       2.371   0.866  -7.608  0.00  0.00     0.035 H 
ATOM     25  H   LIG d   1       7.831   0.237  -7.160  0.00  0.00     0.062 H 
ATOM     26  H   LIG d   1       8.832   2.149  -5.929  0.00  0.00     0.062 H 
ATOM     27  H   LIG d   1       8.225   2.604  -3.618  0.00  0.00     0.062 H 
ATOM     28  H   LIG d   1       6.597   1.187  -2.411  0.00  0.00     0.064 H 
ENDROOT
BRANCH  18  29
ATOM     29  C   LIG d   1       7.469  -3.399  -5.254  0.00  0.00     0.342 C 
ATOM     30  O   LIG d   1       7.198  -4.571  -5.059  0.00  0.00    -0.245 OA
BRANCH  29  31
ATOM     31  O   LIG d   1       8.415  -2.790  -4.507  0.00  0.00    -0.465 OA
BRANCH  31  32
ATOM     32  C   LIG d   1       9.690  -2.585  -5.119  0.00  0.00     0.082 C 
ATOM     33  H   LIG d   1      10.149  -1.684  -4.711  0.00  0.00     0.066 H 
ATOM     34  H   LIG d   1      10.332  -3.443  -4.919  0.00  0.00     0.066 H 
ATOM     35  H   LIG d   1       9.562  -2.471  -6.196  0.00  0.00     0.066 H 
ENDBRANCH  31  32
ENDBRANCH  29  31
ENDBRANCH  18  29
BRANCH  15  36
ATOM     36  C   LIG d   1       4.796  -1.050  -2.349  0.00  0.00     0.117 C 
ATOM     37  H   LIG d   1       4.577  -2.078  -2.061  0.00  0.00     0.058 H 
ATOM     38  H   LIG d   1       5.505  -0.618  -1.643  0.00  0.00     0.058 H 
BRANCH  36  39
ATOM     39  C   LIG d   1       3.523  -0.244  -2.339  0.00  0.00     0.325 C 
ATOM     40  O   LIG d   1       2.483  -0.752  -2.687  0.00  0.00    -0.249 OA
BRANCH  39  41
ATOM     41  O   LIG d   1       3.543   1.039  -1.944  0.00  0.00    -0.467 OA
BRANCH  41  42
ATOM     42  C   LIG d   1       3.471   2.049  -2.984  0.00  0.00     0.082 C 
ATOM     43  H   LIG d   1       3.913   1.660  -3.901  0.00  0.00     0.066 H 
ATOM     44  H   LIG d   1       2.428   2.309  -3.165  0.00  0.00     0.066 H 
ATOM     45  H   LIG d   1       4.017   2.937  -2.667  0.00  0.00     0.066 H 
ENDBRANCH  41  42
ENDBRANCH  39  41
ENDBRANCH  36  39
ENDBRANCH  15  36
BRANCH  19  46
ATOM     46  N   LIG d   1       7.813  -4.043  -7.886  0.00  0.00    -0.329 N 
ATOM     47  H   LIG d   1       8.576  -3.888  -8.466  0.00  0.00     0.145 HD
ATOM     48  H   LIG d   1       7.645  -4.932  -7.535  0.00  0.00     0.145 HD
ENDBRANCH  19  46
BRANCH   1  49
ATOM     49  C   LIG d   1       4.629   1.117  -9.086  0.00  0.00    -0.059 C 
ATOM     50  H   LIG d   1       5.086   1.259 -10.066  0.00  0.00     0.024 H 
ATOM     51  H   LIG d   1       4.144   2.042  -8.773  0.00  0.00     0.024 H 
ATOM     52  H   LIG d   1       5.398   0.849  -8.362  0.00  0.00     0.024 H 
ENDBRANCH   1  49
BRANCH   1  53
ATOM     53  C   LIG d   1       2.606   0.282 -10.302  0.00  0.00    -0.059 C 
ATOM     54  H   LIG d   1       1.977   1.130 -10.034  0.00  0.00     0.024 H 
ATOM     55  H   LIG d   1       3.161   0.515 -11.212  0.00  0.00     0.024 H 
ATOM     56  H   LIG d   1       1.982  -0.595 -10.472  0.00  0.00     0.024 H 
ENDBRANCH   1  53
TORSDOF 10
ENDMDL
MODEL 4
REMARK VINA RESULT:      -5.8      2.165      4.591
REMARK  10 active torsions:
REMARK  status: ('A' for Active; 'I' for Inactive)
REMARK    1  A    between atoms: C_1  and  C_2 
REMARK    2  A    between atoms: C_2  and  C_32 
REMARK    3  A    between atoms: N_16  and  C_19 
REMARK    4  A    between atoms: C_19  and  C_20 
REMARK    5  A    between atoms: C_20  and  O_22 
REMARK    6  A    between atoms: O_22  and  C_23 
REMARK    7  A    between atoms: C_24  and  C_28 
REMARK    8  A    between atoms: C_25  and  N_27 
REMARK    9  A    between atoms: C_28  and  O_30 
REMARK   10  A    between atoms: O_30  and  C_31 
ROOT
ATOM      1  C   LIG d   1       4.693   0.308  -2.675  0.00  0.00    -0.021 C 
ATOM      2  C   LIG d   1       4.570  -1.208  -2.843  0.00  0.00     0.012 C 
ATOM      3  C   LIG d   1       4.632  -1.564  -4.309  0.00  0.00     0.116 C 
ATOM      4  C   LIG d   1       5.364  -0.824  -5.164  0.00  0.00     0.057 C 
ATOM      5  C   LIG d   1       6.068   0.314  -4.728  0.00  0.00     0.165 C 
ATOM      6  O   LIG d   1       6.727   0.951  -5.526  0.00  0.00    -0.292 OA
ATOM      7  C   LIG d   1       6.026   0.755  -3.289  0.00  0.00     0.016 C 
ATOM      8  C   LIG d   1       5.452  -1.206  -6.619  0.00  0.00     0.141 A 
ATOM      9  C   LIG d   1       4.642  -0.273  -7.463  0.00  0.00    -0.002 A 
ATOM     10  C   LIG d   1       3.291   0.001  -7.482  0.00  0.00    -0.055 A 
ATOM     11  C   LIG d   1       2.851   0.939  -8.410  0.00  0.00    -0.061 A 
ATOM     12  C   LIG d   1       3.729   1.565  -9.271  0.00  0.00    -0.060 A 
ATOM     13  C   LIG d   1       5.089   1.295  -9.258  0.00  0.00    -0.040 A 
ATOM     14  C   LIG d   1       5.543   0.355  -8.330  0.00  0.00     0.042 A 
ATOM     15  N   LIG d   1       6.830  -0.100  -8.100  0.00  0.00    -0.259 N 
ATOM     16  C   LIG d   1       6.872  -1.018  -7.113  0.00  0.00     0.240 A 
ATOM     17  O   LIG d   1       7.860  -1.586  -6.698  0.00  0.00    -0.274 OA
ATOM     18  C   LIG d   1       5.021  -2.629  -6.821  0.00  0.00     0.117 C 
ATOM     19  C   LIG d   1       4.293  -3.264  -5.864  0.00  0.00     0.195 C 
ATOM     20  O   LIG d   1       3.942  -2.640  -4.729  0.00  0.00    -0.446 OA
ATOM     21  H   LIG d   1       3.619  -1.543  -2.428  0.00  0.00     0.035 H 
ATOM     22  H   LIG d   1       5.388  -1.697  -2.315  0.00  0.00     0.035 H 
ATOM     23  H   LIG d   1       6.782   0.341  -2.784  0.00  0.00     0.035 H 
ATOM     24  H   LIG d   1       6.104   1.842  -3.238  0.00  0.00     0.035 H 
ATOM     25  H   LIG d   1       2.606  -0.490  -6.808  0.00  0.00     0.062 H 
ATOM     26  H   LIG d   1       1.799   1.182  -8.458  0.00  0.00     0.062 H 
ATOM     27  H   LIG d   1       3.345   2.288  -9.977  0.00  0.00     0.062 H 
ATOM     28  H   LIG d   1       5.768   1.791  -9.936  0.00  0.00     0.064 H 
ENDROOT
BRANCH  18  29
ATOM     29  C   LIG d   1       5.369  -3.306  -8.001  0.00  0.00     0.342 C 
ATOM     30  O   LIG d   1       6.210  -4.186  -7.972  0.00  0.00    -0.245 OA
BRANCH  29  31
ATOM     31  O   LIG d   1       4.770  -2.981  -9.167  0.00  0.00    -0.465 OA
BRANCH  31  32
ATOM     32  C   LIG d   1       5.615  -2.838 -10.311  0.00  0.00     0.082 C 
ATOM     33  H   LIG d   1       5.443  -3.669 -10.996  0.00  0.00     0.066 H 
ATOM     34  H   LIG d   1       5.388  -1.899 -10.816  0.00  0.00     0.066 H 
ATOM     35  H   LIG d   1       6.658  -2.837  -9.994  0.00  0.00     0.066 H 
ENDBRANCH  31  32
ENDBRANCH  29  31
ENDBRANCH  18  29
BRANCH  15  36
ATOM     36  C   LIG d   1       8.006   0.360  -8.842  0.00  0.00     0.117 C 
ATOM     37  H   LIG d   1       8.738  -0.445  -8.899  0.00  0.00     0.058 H 
ATOM     38  H   LIG d   1       7.709   0.654  -9.848  0.00  0.00     0.058 H 
BRANCH  36  39
ATOM     39  C   LIG d   1       8.616   1.542  -8.133  0.00  0.00     0.325 C 
ATOM     40  O   LIG d   1       8.265   2.663  -8.415  0.00  0.00    -0.249 OA
BRANCH  39  41
ATOM     41  O   LIG d   1       9.550   1.349  -7.188  0.00  0.00    -0.467 OA
BRANCH  41  42
ATOM     42  C   LIG d   1      10.649   0.461  -7.520  0.00  0.00     0.082 C 
ATOM     43  H   LIG d   1      10.574  -0.448  -6.924  0.00  0.00     0.066 H 
ATOM     44  H   LIG d   1      10.602   0.206  -8.578  0.00  0.00     0.066 H 
ATOM     45  H   LIG d   1      11.595   0.958  -7.307  0.00  0.00     0.066 H 
ENDBRANCH  41  42
ENDBRANCH  39  41
ENDBRANCH  36  39
ENDBRANCH  15  36
BRANCH  19  46
ATOM     46  N   LIG d   1       3.911  -4.563  -6.062  0.00  0.00    -0.329 N 
ATOM     47  H   LIG d   1       3.289  -4.985  -5.448  0.00  0.00     0.145 HD
ATOM     48  H   LIG d   1       4.261  -5.062  -6.816  0.00  0.00     0.145 HD
ENDBRANCH  19  46
BRANCH   1  49
ATOM     49  C   LIG d   1       3.532   1.000  -3.393  0.00  0.00    -0.059 C 
ATOM     50  H   LIG d   1       2.646   0.979  -2.758  0.00  0.00     0.024 H 
ATOM     51  H   LIG d   1       3.801   2.035  -3.606  0.00  0.00     0.024 H 
ATOM     52  H   LIG d   1       3.321   0.481  -4.327  0.00  0.00     0.024 H 
ENDBRANCH   1  49
BRANCH   1  53
ATOM     53  C   LIG d   1       4.668   0.665  -1.187  0.00  0.00    -0.059 C 
ATOM     54  H   LIG d   1       4.001   1.512  -1.029  0.00  0.00     0.024 H 
ATOM     55  H   LIG d   1       4.310  -0.191  -0.615  0.00  0.00     0.024 H 
ATOM     56  H   LIG d   1       5.674   0.927  -0.859  0.00  0.00     0.024 H 
ENDBRANCH   1  53
TORSDOF 10
ENDMDL
MODEL 5
REMARK VINA RESULT:      -5.7      2.231      4.609
REMARK  10 active torsions:
REMARK  status: ('A' for Active; 'I' for Inactive)
REMARK    1  A    between atoms: C_1  and  C_2 
REMARK    2  A    between atoms: C_2  and  C_32 
REMARK    3  A    between atoms: N_16  and  C_19 
REMARK    4  A    between atoms: C_19  and  C_20 
REMARK    5  A    between atoms: C_20  and  O_22 
REMARK    6  A    between atoms: O_22  and  C_23 
REMARK    7  A    between atoms: C_24  and  C_28 
REMARK    8  A    between atoms: C_25  and  N_27 
REMARK    9  A    between atoms: C_28  and  O_30 
REMARK   10  A    between atoms: O_30  and  C_31 
ROOT
ATOM      1  C   LIG d   1       9.399   1.859  -5.205  0.00  0.00    -0.021 C 
ATOM      2  C   LIG d   1       8.659   2.048  -3.880  0.00  0.00     0.012 C 
ATOM      3  C   LIG d   1       7.428   1.173  -3.856  0.00  0.00     0.116 C 
ATOM      4  C   LIG d   1       7.414  -0.009  -4.501  0.00  0.00     0.057 C 
ATOM      5  C   LIG d   1       8.528  -0.453  -5.237  0.00  0.00     0.165 C 
ATOM      6  O   LIG d   1       8.483  -1.531  -5.797  0.00  0.00    -0.292 OA
ATOM      7  C   LIG d   1       9.779   0.379  -5.339  0.00  0.00     0.016 C 
ATOM      8  C   LIG d   1       6.196  -0.894  -4.443  0.00  0.00     0.141 A 
ATOM      9  C   LIG d   1       5.457  -0.867  -5.744  0.00  0.00    -0.002 A 
ATOM     10  C   LIG d   1       4.839   0.161  -6.422  0.00  0.00    -0.055 A 
ATOM     11  C   LIG d   1       4.230  -0.157  -7.631  0.00  0.00    -0.061 A 
ATOM     12  C   LIG d   1       4.246  -1.445  -8.128  0.00  0.00    -0.060 A 
ATOM     13  C   LIG d   1       4.867  -2.485  -7.452  0.00  0.00    -0.040 A 
ATOM     14  C   LIG d   1       5.482  -2.178  -6.236  0.00  0.00     0.042 A 
ATOM     15  N   LIG d   1       6.165  -3.007  -5.364  0.00  0.00    -0.259 N 
ATOM     16  C   LIG d   1       6.620  -2.339  -4.284  0.00  0.00     0.240 A 
ATOM     17  O   LIG d   1       7.250  -2.808  -3.359  0.00  0.00    -0.274 OA
ATOM     18  C   LIG d   1       5.302  -0.491  -3.307  0.00  0.00     0.117 C 
ATOM     19  C   LIG d   1       5.434   0.735  -2.735  0.00  0.00     0.195 C 
ATOM     20  O   LIG d   1       6.356   1.609  -3.169  0.00  0.00    -0.446 OA
ATOM     21  H   LIG d   1       8.364   3.092  -3.775  0.00  0.00     0.035 H 
ATOM     22  H   LIG d   1       9.316   1.772  -3.055  0.00  0.00     0.035 H 
ATOM     23  H   LIG d   1      10.414   0.129  -4.609  0.00  0.00     0.035 H 
ATOM     24  H   LIG d   1      10.251   0.210  -6.307  0.00  0.00     0.035 H 
ATOM     25  H   LIG d   1       4.827   1.167  -6.033  0.00  0.00     0.062 H 
ATOM     26  H   LIG d   1       3.733   0.620  -8.195  0.00  0.00     0.062 H 
ATOM     27  H   LIG d   1       3.761  -1.650  -9.071  0.00  0.00     0.062 H 
ATOM     28  H   LIG d   1       4.874  -3.489  -7.848  0.00  0.00     0.064 H 
ENDROOT
BRANCH  18  29
ATOM     29  C   LIG d   1       4.325  -1.383  -2.834  0.00  0.00     0.342 C 
ATOM     30  O   LIG d   1       4.443  -1.885  -1.731  0.00  0.00    -0.245 OA
BRANCH  29  31
ATOM     31  O   LIG d   1       3.256  -1.682  -3.604  0.00  0.00    -0.465 OA
BRANCH  31  32
ATOM     32  C   LIG d   1       2.324  -0.629  -3.856  0.00  0.00     0.082 C 
ATOM     33  H   LIG d   1       1.401  -1.047  -4.257  0.00  0.00     0.066 H 
ATOM     34  H   LIG d   1       2.109  -0.103  -2.925  0.00  0.00     0.066 H 
ATOM     35  H   LIG d   1       2.751   0.069  -4.577  0.00  0.00     0.066 H 
ENDBRANCH  31  32
ENDBRANCH  29  31
ENDBRANCH  18  29
BRANCH  15  36
ATOM     36  C   LIG d   1       6.369  -4.440  -5.587  0.00  0.00     0.117 C 
ATOM     37  H   LIG d   1       6.738  -4.601  -6.600  0.00  0.00     0.058 H 
ATOM     38  H   LIG d   1       7.097  -4.819  -4.870  0.00  0.00     0.058 H 
BRANCH  36  39
ATOM     39  C   LIG d   1       5.062  -5.167  -5.408  0.00  0.00     0.325 C 
ATOM     40  O   LIG d   1       4.249  -4.762  -4.611  0.00  0.00    -0.249 OA
BRANCH  39  41
ATOM     41  O   LIG d   1       4.801  -6.267  -6.132  0.00  0.00    -0.467 OA
BRANCH  41  42
ATOM     42  C   LIG d   1       5.134  -7.546  -5.532  0.00  0.00     0.082 C 
ATOM     43  H   LIG d   1       6.023  -7.954  -6.014  0.00  0.00     0.066 H 
ATOM     44  H   LIG d   1       5.330  -7.408  -4.468  0.00  0.00     0.066 H 
ATOM     45  H   LIG d   1       4.302  -8.237  -5.661  0.00  0.00     0.066 H 
ENDBRANCH  41  42
ENDBRANCH  39  41
ENDBRANCH  36  39
ENDBRANCH  15  36
BRANCH  19  46
ATOM     46  N   LIG d   1       4.614   1.085  -1.698  0.00  0.00    -0.329 N 
ATOM     47  H   LIG d   1       4.951   1.073  -0.788  0.00  0.00     0.145 HD
ATOM     48  H   LIG d   1       3.696   1.346  -1.871  0.00  0.00     0.145 HD
ENDBRANCH  19  46
BRANCH   1  49
ATOM     49  C   LIG d   1       8.489   2.269  -6.365  0.00  0.00    -0.059 C 
ATOM     50  H   LIG d   1       8.865   3.189  -6.814  0.00  0.00     0.024 H 
ATOM     51  H   LIG d   1       8.477   1.477  -7.115  0.00  0.00     0.024 H 
ATOM     52  H   LIG d   1       7.478   2.433  -5.994  0.00  0.00     0.024 H 
ENDBRANCH   1  49
BRANCH   1  53
ATOM     53  C   LIG d   1      10.667   2.717  -5.213  0.00  0.00    -0.059 C 
ATOM     54  H   LIG d   1      11.503   2.132  -4.830  0.00  0.00     0.024 H 
ATOM     55  H   LIG d   1      10.884   3.035  -6.233  0.00  0.00     0.024 H 
ATOM     56  H   LIG d   1      10.517   3.593  -4.582  0.00  0.00     0.024 H 
ENDBRANCH   1  53
TORSDOF 10
ENDMDL
MODEL 6
REMARK VINA RESULT:      -5.7      2.105      5.709
REMARK  10 active torsions:
REMARK  status: ('A' for Active; 'I' for Inactive)
REMARK    1  A    between atoms: C_1  and  C_2 
REMARK    2  A    between atoms: C_2  and  C_32 
REMARK    3  A    between atoms: N_16  and  C_19 
REMARK    4  A    between atoms: C_19  and  C_20 
REMARK    5  A    between atoms: C_20  and  O_22 
REMARK    6  A    between atoms: O_22  and  C_23 
REMARK    7  A    between atoms: C_24  and  C_28 
REMARK    8  A    between atoms: C_25  and  N_27 
REMARK    9  A    between atoms: C_28  and  O_30 
REMARK   10  A    between atoms: O_30  and  C_31 
ROOT
ATOM      1  C   LIG d   1       4.864   0.179  -2.847  0.00  0.00    -0.021 C 
ATOM      2  C   LIG d   1       3.717   0.384  -3.837  0.00  0.00     0.012 C 
ATOM      3  C   LIG d   1       4.054  -0.282  -5.151  0.00  0.00     0.116 C 
ATOM      4  C   LIG d   1       4.812  -1.395  -5.181  0.00  0.00     0.057 C 
ATOM      5  C   LIG d   1       5.335  -1.955  -4.000  0.00  0.00     0.165 C 
ATOM      6  O   LIG d   1       6.005  -2.967  -4.066  0.00  0.00    -0.292 OA
ATOM      7  C   LIG d   1       5.074  -1.329  -2.656  0.00  0.00     0.016 C 
ATOM      8  C   LIG d   1       5.113  -2.076  -6.490  0.00  0.00     0.141 A 
ATOM      9  C   LIG d   1       6.532  -1.834  -6.901  0.00  0.00    -0.002 A 
ATOM     10  C   LIG d   1       7.211  -0.673  -7.198  0.00  0.00    -0.055 A 
ATOM     11  C   LIG d   1       8.551  -0.798  -7.552  0.00  0.00    -0.061 A 
ATOM     12  C   LIG d   1       9.169  -2.031  -7.602  0.00  0.00    -0.060 A 
ATOM     13  C   LIG d   1       8.492  -3.204  -7.303  0.00  0.00    -0.040 A 
ATOM     14  C   LIG d   1       7.147  -3.091  -6.946  0.00  0.00     0.042 A 
ATOM     15  N   LIG d   1       6.244  -4.082  -6.603  0.00  0.00    -0.259 N 
ATOM     16  C   LIG d   1       5.025  -3.578  -6.319  0.00  0.00     0.240 A 
ATOM     17  O   LIG d   1       4.043  -4.209  -5.990  0.00  0.00    -0.274 OA
ATOM     18  C   LIG d   1       4.159  -1.621  -7.556  0.00  0.00     0.117 C 
ATOM     19  C   LIG d   1       3.443  -0.479  -7.389  0.00  0.00     0.195 C 
ATOM     20  O   LIG d   1       3.570   0.267  -6.280  0.00  0.00    -0.446 OA
ATOM     21  H   LIG d   1       3.565   1.451  -4.000  0.00  0.00     0.035 H 
ATOM     22  H   LIG d   1       2.806  -0.055  -3.431  0.00  0.00     0.035 H 
ATOM     23  H   LIG d   1       4.256  -1.731  -2.246  0.00  0.00     0.035 H 
ATOM     24  H   LIG d   1       5.931  -1.498  -2.003  0.00  0.00     0.035 H 
ATOM     25  H   LIG d   1       6.727   0.291  -7.158  0.00  0.00     0.062 H 
ATOM     26  H   LIG d   1       9.120   0.089  -7.793  0.00  0.00     0.062 H 
ATOM     27  H   LIG d   1      10.211  -2.084  -7.881  0.00  0.00     0.062 H 
ATOM     28  H   LIG d   1       8.985  -4.164  -7.345  0.00  0.00     0.064 H 
ENDROOT
BRANCH  18  29
ATOM     29  C   LIG d   1       4.008  -2.378  -8.729  0.00  0.00     0.342 C 
ATOM     30  O   LIG d   1       4.853  -2.320  -9.604  0.00  0.00    -0.245 OA
BRANCH  29  31
ATOM     31  O   LIG d   1       2.925  -3.170  -8.886  0.00  0.00    -0.465 OA
BRANCH  31  32
ATOM     32  C   LIG d   1       3.145  -4.463  -9.453  0.00  0.00     0.082 C 
ATOM     33  H   LIG d   1       3.205  -5.205  -8.657  0.00  0.00     0.066 H 
ATOM     34  H   LIG d   1       2.319  -4.713 -10.120  0.00  0.00     0.066 H 
ATOM     35  H   LIG d   1       4.078  -4.459 -10.017  0.00  0.00     0.066 H 
ENDBRANCH  31  32
ENDBRANCH  29  31
ENDBRANCH  18  29
BRANCH  15  36
ATOM     36  C   LIG d   1       6.572  -5.508  -6.555  0.00  0.00     0.117 C 
ATOM     37  H   LIG d   1       7.651  -5.630  -6.464  0.00  0.00     0.058 H 
ATOM     38  H   LIG d   1       6.081  -5.965  -5.696  0.00  0.00     0.058 H 
BRANCH  36  39
ATOM     39  C   LIG d   1       6.098  -6.176  -7.820  0.00  0.00     0.325 C 
ATOM     40  O   LIG d   1       6.683  -5.986  -8.859  0.00  0.00    -0.249 OA
BRANCH  39  41
ATOM     41  O   LIG d   1       5.023  -6.980  -7.792  0.00  0.00    -0.467 OA
BRANCH  41  42
ATOM     42  C   LIG d   1       4.762  -7.688  -6.551  0.00  0.00     0.082 C 
ATOM     43  H   LIG d   1       5.101  -7.084  -5.710  0.00  0.00     0.066 H 
ATOM     44  H   LIG d   1       3.692  -7.872  -6.458  0.00  0.00     0.066 H 
ATOM     45  H   LIG d   1       5.295  -8.637  -6.555  0.00  0.00     0.066 H 
ENDBRANCH  41  42
ENDBRANCH  39  41
ENDBRANCH  36  39
ENDBRANCH  15  36
BRANCH  19  46
ATOM     46  N   LIG d   1       2.574  -0.081  -8.368  0.00  0.00    -0.329 N 
ATOM     47  H   LIG d   1       2.911   0.341  -9.174  0.00  0.00     0.145 HD
ATOM     48  H   LIG d   1       1.620  -0.221  -8.258  0.00  0.00     0.145 HD
ENDBRANCH  19  46
BRANCH   1  49
ATOM     49  C   LIG d   1       6.141   0.815  -3.401  0.00  0.00    -0.059 C 
ATOM     50  H   LIG d   1       6.836   0.031  -3.703  0.00  0.00     0.024 H 
ATOM     51  H   LIG d   1       5.894   1.434  -4.264  0.00  0.00     0.024 H 
ATOM     52  H   LIG d   1       6.603   1.433  -2.632  0.00  0.00     0.024 H 
ENDBRANCH   1  49
BRANCH   1  53
ATOM     53  C   LIG d   1       4.506   0.820  -1.504  0.00  0.00    -0.059 C 
ATOM     54  H   LIG d   1       5.277   0.582  -0.771  0.00  0.00     0.024 H 
ATOM     55  H   LIG d   1       4.442   1.902  -1.625  0.00  0.00     0.024 H 
ATOM     56  H   LIG d   1       3.546   0.434  -1.161  0.00  0.00     0.024 H 
ENDBRANCH   1  53
TORSDOF 10
ENDMDL
MODEL 7
REMARK VINA RESULT:      -5.6      2.203      4.233
REMARK  10 active torsions:
REMARK  status: ('A' for Active; 'I' for Inactive)
REMARK    1  A    between atoms: C_1  and  C_2 
REMARK    2  A    between atoms: C_2  and  C_32 
REMARK    3  A    between atoms: N_16  and  C_19 
REMARK    4  A    between atoms: C_19  and  C_20 
REMARK    5  A    between atoms: C_20  and  O_22 
REMARK    6  A    between atoms: O_22  and  C_23 
REMARK    7  A    between atoms: C_24  and  C_28 
REMARK    8  A    between atoms: C_25  and  N_27 
REMARK    9  A    between atoms: C_28  and  O_30 
REMARK   10  A    between atoms: O_30  and  C_31 
ROOT
ATOM      1  C   LIG d   1       4.200   0.134  -2.999  0.00  0.00    -0.021 C 
ATOM      2  C   LIG d   1       5.728   0.213  -3.018  0.00  0.00     0.012 C 
ATOM      3  C   LIG d   1       6.274  -0.754  -4.042  0.00  0.00     0.116 C 
ATOM      4  C   LIG d   1       5.576  -1.037  -5.159  0.00  0.00     0.057 C 
ATOM      5  C   LIG d   1       4.310  -0.468  -5.393  0.00  0.00     0.165 C 
ATOM      6  O   LIG d   1       3.715  -0.739  -6.417  0.00  0.00    -0.292 OA
ATOM      7  C   LIG d   1       3.682   0.475  -4.402  0.00  0.00     0.016 C 
ATOM      8  C   LIG d   1       6.143  -1.973  -6.194  0.00  0.00     0.141 A 
ATOM      9  C   LIG d   1       5.445  -3.296  -6.155  0.00  0.00    -0.002 A 
ATOM     10  C   LIG d   1       5.345  -4.246  -5.161  0.00  0.00    -0.055 A 
ATOM     11  C   LIG d   1       4.607  -5.388  -5.453  0.00  0.00    -0.061 A 
ATOM     12  C   LIG d   1       4.003  -5.560  -6.682  0.00  0.00    -0.060 A 
ATOM     13  C   LIG d   1       4.098  -4.608  -7.686  0.00  0.00    -0.040 A 
ATOM     14  C   LIG d   1       4.836  -3.457  -7.405  0.00  0.00     0.042 A 
ATOM     15  N   LIG d   1       5.093  -2.360  -8.210  0.00  0.00    -0.259 N 
ATOM     16  C   LIG d   1       5.852  -1.439  -7.581  0.00  0.00     0.240 A 
ATOM     17  O   LIG d   1       6.231  -0.382  -8.041  0.00  0.00    -0.274 OA
ATOM     18  C   LIG d   1       7.623  -2.139  -6.006  0.00  0.00     0.117 C 
ATOM     19  C   LIG d   1       8.203  -1.798  -4.825  0.00  0.00     0.195 C 
ATOM     20  O   LIG d   1       7.476  -1.312  -3.807  0.00  0.00    -0.446 OA
ATOM     21  H   LIG d   1       6.117  -0.045  -2.033  0.00  0.00     0.035 H 
ATOM     22  H   LIG d   1       6.035   1.227  -3.275  0.00  0.00     0.035 H 
ATOM     23  H   LIG d   1       3.925   1.418  -4.628  0.00  0.00     0.035 H 
ATOM     24  H   LIG d   1       2.598   0.361  -4.427  0.00  0.00     0.035 H 
ATOM     25  H   LIG d   1       5.817  -4.110  -4.200  0.00  0.00     0.062 H 
ATOM     26  H   LIG d   1       4.504  -6.158  -4.702  0.00  0.00     0.062 H 
ATOM     27  H   LIG d   1       3.439  -6.462  -6.867  0.00  0.00     0.062 H 
ATOM     28  H   LIG d   1       3.622  -4.752  -8.644  0.00  0.00     0.064 H 
ENDROOT
BRANCH  18  29
ATOM     29  C   LIG d   1       8.409  -2.648  -7.052  0.00  0.00     0.342 C 
ATOM     30  O   LIG d   1       8.428  -3.846  -7.271  0.00  0.00    -0.245 OA
BRANCH  29  31
ATOM     31  O   LIG d   1       9.144  -1.809  -7.814  0.00  0.00    -0.465 OA
BRANCH  31  32
ATOM     32  C   LIG d   1       9.186  -2.079  -9.217  0.00  0.00     0.082 C 
ATOM     33  H   LIG d   1       9.082  -3.151  -9.385  0.00  0.00     0.066 H 
ATOM     34  H   LIG d   1       8.370  -1.552  -9.713  0.00  0.00     0.066 H 
ATOM     35  H   LIG d   1      10.139  -1.738  -9.624  0.00  0.00     0.066 H 
ENDBRANCH  31  32
ENDBRANCH  29  31
ENDBRANCH  18  29
BRANCH  15  36
ATOM     36  C   LIG d   1       4.599  -2.217  -9.581  0.00  0.00     0.117 C 
ATOM     37  H   LIG d   1       5.362  -1.740 -10.194  0.00  0.00     0.058 H 
ATOM     38  H   LIG d   1       4.368  -3.201  -9.988  0.00  0.00     0.058 H 
BRANCH  36  39
ATOM     39  C   LIG d   1       3.353  -1.369  -9.580  0.00  0.00     0.325 C 
ATOM     40  O   LIG d   1       2.304  -1.836  -9.205  0.00  0.00    -0.249 OA
BRANCH  39  41
ATOM     41  O   LIG d   1       3.410  -0.094  -9.998  0.00  0.00    -0.467 OA
BRANCH  41  42
ATOM     42  C   LIG d   1       2.710   0.894  -9.196  0.00  0.00     0.082 C 
ATOM     43  H   LIG d   1       3.276   1.826  -9.193  0.00  0.00     0.066 H 
ATOM     44  H   LIG d   1       1.722   1.071  -9.620  0.00  0.00     0.066 H 
ATOM     45  H   LIG d   1       2.608   0.528  -8.176  0.00  0.00     0.066 H 
ENDBRANCH  41  42
ENDBRANCH  39  41
ENDBRANCH  36  39
ENDBRANCH  15  36
BRANCH  19  46
ATOM     46  N   LIG d   1       9.554  -1.951  -4.671  0.00  0.00    -0.329 N 
ATOM     47  H   LIG d   1       9.979  -2.788  -4.916  0.00  0.00     0.145 HD
ATOM     48  H   LIG d   1      10.088  -1.222  -4.318  0.00  0.00     0.145 HD
ENDBRANCH  19  46
BRANCH   1  49
ATOM     49  C   LIG d   1       3.764  -1.281  -2.614  0.00  0.00    -0.059 C 
ATOM     50  H   LIG d   1       3.378  -1.795  -3.494  0.00  0.00     0.024 H 
ATOM     51  H   LIG d   1       4.620  -1.831  -2.219  0.00  0.00     0.024 H 
ATOM     52  H   LIG d   1       2.986  -1.228  -1.853  0.00  0.00     0.024 H 
ENDBRANCH   1  49
BRANCH   1  53
ATOM     53  C   LIG d   1       3.646   1.140  -1.988  0.00  0.00    -0.059 C 
ATOM     54  H   LIG d   1       3.020   0.619  -1.264  0.00  0.00     0.024 H 
ATOM     55  H   LIG d   1       4.472   1.627  -1.470  0.00  0.00     0.024 H 
ATOM     56  H   LIG d   1       3.051   1.890  -2.510  0.00  0.00     0.024 H 
ENDBRANCH   1  53
TORSDOF 10
ENDMDL
MODEL 8
REMARK VINA RESULT:      -5.4      2.001      5.376
REMARK  10 active torsions:
REMARK  status: ('A' for Active; 'I' for Inactive)
REMARK    1  A    between atoms: C_1  and  C_2 
REMARK    2  A    between atoms: C_2  and  C_32 
REMARK    3  A    between atoms: N_16  and  C_19 
REMARK    4  A    between atoms: C_19  and  C_20 
REMARK    5  A    between atoms: C_20  and  O_22 
REMARK    6  A    between atoms: O_22  and  C_23 
REMARK    7  A    between atoms: C_24  and  C_28 
REMARK    8  A    between atoms: C_25  and  N_27 
REMARK    9  A    between atoms: C_28  and  O_30 
REMARK   10  A    between atoms: O_30  and  C_31 
ROOT
ATOM      1  C   LIG d   1       5.929  -6.274  -6.578  0.00  0.00    -0.021 C 
ATOM      2  C   LIG d   1       5.232  -5.538  -7.724  0.00  0.00     0.012 C 
ATOM      3  C   LIG d   1       4.979  -4.103  -7.327  0.00  0.00     0.116 C 
ATOM      4  C   LIG d   1       5.823  -3.462  -6.497  0.00  0.00     0.057 C 
ATOM      5  C   LIG d   1       6.947  -4.111  -5.952  0.00  0.00     0.165 C 
ATOM      6  O   LIG d   1       7.692  -3.496  -5.216  0.00  0.00    -0.292 OA
ATOM      7  C   LIG d   1       7.247  -5.551  -6.271  0.00  0.00     0.016 C 
ATOM      8  C   LIG d   1       5.584  -2.019  -6.134  0.00  0.00     0.141 A 
ATOM      9  C   LIG d   1       5.082  -1.900  -4.729  0.00  0.00    -0.002 A 
ATOM     10  C   LIG d   1       3.939  -2.377  -4.125  0.00  0.00    -0.055 A 
ATOM     11  C   LIG d   1       3.769  -2.084  -2.776  0.00  0.00    -0.061 A 
ATOM     12  C   LIG d   1       4.705  -1.349  -2.077  0.00  0.00    -0.060 A 
ATOM     13  C   LIG d   1       5.858  -0.867  -2.677  0.00  0.00    -0.040 A 
ATOM     14  C   LIG d   1       6.040  -1.154  -4.032  0.00  0.00     0.042 A 
ATOM     15  N   LIG d   1       7.082  -0.804  -4.871  0.00  0.00    -0.259 N 
ATOM     16  C   LIG d   1       6.900  -1.269  -6.124  0.00  0.00     0.240 A 
ATOM     17  O   LIG d   1       7.649  -1.116  -7.066  0.00  0.00    -0.274 OA
ATOM     18  C   LIG d   1       4.634  -1.379  -7.103  0.00  0.00     0.117 C 
ATOM     19  C   LIG d   1       3.845  -2.151  -7.896  0.00  0.00     0.195 C 
ATOM     20  O   LIG d   1       3.892  -3.490  -7.832  0.00  0.00    -0.446 OA
ATOM     21  H   LIG d   1       4.284  -6.027  -7.945  0.00  0.00     0.035 H 
ATOM     22  H   LIG d   1       5.868  -5.564  -8.609  0.00  0.00     0.035 H 
ATOM     23  H   LIG d   1       7.851  -5.605  -7.066  0.00  0.00     0.035 H 
ATOM     24  H   LIG d   1       7.729  -6.022  -5.413  0.00  0.00     0.035 H 
ATOM     25  H   LIG d   1       3.208  -2.952  -4.674  0.00  0.00     0.062 H 
ATOM     26  H   LIG d   1       2.886  -2.439  -2.264  0.00  0.00     0.062 H 
ATOM     27  H   LIG d   1       4.534  -1.144  -1.030  0.00  0.00     0.062 H 
ATOM     28  H   LIG d   1       6.584  -0.293  -2.121  0.00  0.00     0.064 H 
ENDROOT
BRANCH  18  29
ATOM     29  C   LIG d   1       4.558   0.021  -7.189  0.00  0.00     0.342 C 
ATOM     30  O   LIG d   1       3.788   0.634  -6.472  0.00  0.00    -0.245 OA
BRANCH  29  31
ATOM     31  O   LIG d   1       5.341   0.686  -8.066  0.00  0.00    -0.465 OA
BRANCH  31  32
ATOM     32  C   LIG d   1       4.691   1.606  -8.945  0.00  0.00     0.082 C 
ATOM     33  H   LIG d   1       5.294   1.738  -9.844  0.00  0.00     0.066 H 
ATOM     34  H   LIG d   1       3.711   1.216  -9.219  0.00  0.00     0.066 H 
ATOM     35  H   LIG d   1       4.573   2.567  -8.443  0.00  0.00     0.066 H 
ENDBRANCH  31  32
ENDBRANCH  29  31
ENDBRANCH  18  29
BRANCH  15  36
ATOM     36  C   LIG d   1       8.246  -0.020  -4.449  0.00  0.00     0.117 C 
ATOM     37  H   LIG d   1       8.519  -0.296  -3.431  0.00  0.00     0.058 H 
ATOM     38  H   LIG d   1       9.082  -0.222  -5.118  0.00  0.00     0.058 H 
BRANCH  36  39
ATOM     39  C   LIG d   1       7.907   1.447  -4.497  0.00  0.00     0.325 C 
ATOM     40  O   LIG d   1       7.798   2.076  -3.472  0.00  0.00    -0.249 OA
BRANCH  39  41
ATOM     41  O   LIG d   1       7.724   2.055  -5.680  0.00  0.00    -0.467 OA
BRANCH  41  42
ATOM     42  C   LIG d   1       8.872   2.134  -6.565  0.00  0.00     0.082 C 
ATOM     43  H   LIG d   1       8.876   1.273  -7.233  0.00  0.00     0.066 H 
ATOM     44  H   LIG d   1       8.814   3.049  -7.154  0.00  0.00     0.066 H 
ATOM     45  H   LIG d   1       9.787   2.140  -5.974  0.00  0.00     0.066 H 
ENDBRANCH  41  42
ENDBRANCH  39  41
ENDBRANCH  36  39
ENDBRANCH  15  36
BRANCH  19  46
ATOM     46  N   LIG d   1       2.986  -1.551  -8.777  0.00  0.00    -0.329 N 
ATOM     47  H   LIG d   1       3.315  -1.226  -9.630  0.00  0.00     0.145 HD
ATOM     48  H   LIG d   1       2.048  -1.452  -8.550  0.00  0.00     0.145 HD
ENDBRANCH  19  46
BRANCH   1  49
ATOM     49  C   LIG d   1       5.030  -6.264  -5.340  0.00  0.00    -0.059 C 
ATOM     50  H   LIG d   1       5.528  -5.726  -4.533  0.00  0.00     0.024 H 
ATOM     51  H   LIG d   1       4.088  -5.770  -5.578  0.00  0.00     0.024 H 
ATOM     52  H   LIG d   1       4.833  -7.288  -5.025  0.00  0.00     0.024 H 
ENDBRANCH   1  49
BRANCH   1  53
ATOM     53  C   LIG d   1       6.221  -7.718  -6.995  0.00  0.00    -0.059 C 
ATOM     54  H   LIG d   1       5.372  -8.349  -6.733  0.00  0.00     0.024 H 
ATOM     55  H   LIG d   1       6.385  -7.758  -8.072  0.00  0.00     0.024 H 
ATOM     56  H   LIG d   1       7.112  -8.073  -6.477  0.00  0.00     0.024 H 
ENDBRANCH   1  53
TORSDOF 10
ENDMDL
MODEL 9
REMARK VINA RESULT:      -5.4      8.732     12.007
REMARK  10 active torsions:
REMARK  status: ('A' for Active; 'I' for Inactive)
REMARK    1  A    between atoms: C_1  and  C_2 
REMARK    2  A    between atoms: C_2  and  C_32 
REMARK    3  A    between atoms: N_16  and  C_19 
REMARK    4  A    between atoms: C_19  and  C_20 
REMARK    5  A    between atoms: C_20  and  O_22 
REMARK    6  A    between atoms: O_22  and  C_23 
REMARK    7  A    between atoms: C_24  and  C_28 
REMARK    8  A    between atoms: C_25  and  N_27 
REMARK    9  A    between atoms: C_28  and  O_30 
REMARK   10  A    between atoms: O_30  and  C_31 
ROOT
ATOM      1  C   LIG d   1      10.038   7.115  -6.393  0.00  0.00    -0.021 C 
ATOM      2  C   LIG d   1       9.876   5.890  -5.491  0.00  0.00     0.012 C 
ATOM      3  C   LIG d   1      10.534   6.150  -4.157  0.00  0.00     0.116 C 
ATOM      4  C   LIG d   1      10.574   7.395  -3.643  0.00  0.00     0.057 C 
ATOM      5  C   LIG d   1      10.033   8.491  -4.341  0.00  0.00     0.165 C 
ATOM      6  O   LIG d   1      10.078   9.598  -3.841  0.00  0.00    -0.292 OA
ATOM      7  C   LIG d   1       9.394   8.319  -5.693  0.00  0.00     0.016 C 
ATOM      8  C   LIG d   1      11.198   7.642  -2.295  0.00  0.00     0.141 A 
ATOM      9  C   LIG d   1      12.526   8.317  -2.440  0.00  0.00    -0.002 A 
ATOM     10  C   LIG d   1      13.693   7.913  -3.051  0.00  0.00    -0.055 A 
ATOM     11  C   LIG d   1      14.768   8.795  -3.005  0.00  0.00    -0.061 A 
ATOM     12  C   LIG d   1      14.667  10.018  -2.373  0.00  0.00    -0.060 A 
ATOM     13  C   LIG d   1      13.496  10.432  -1.756  0.00  0.00    -0.040 A 
ATOM     14  C   LIG d   1      12.410   9.555  -1.797  0.00  0.00     0.042 A 
ATOM     15  N   LIG d   1      11.139   9.707  -1.271  0.00  0.00    -0.259 N 
ATOM     16  C   LIG d   1      10.359   8.634  -1.516  0.00  0.00     0.240 A 
ATOM     17  O   LIG d   1       9.204   8.490  -1.176  0.00  0.00    -0.274 OA
ATOM     18  C   LIG d   1      11.326   6.360  -1.526  0.00  0.00     0.117 C 
ATOM     19  C   LIG d   1      11.252   5.167  -2.173  0.00  0.00     0.195 C 
ATOM     20  O   LIG d   1      11.068   5.105  -3.500  0.00  0.00    -0.446 OA
ATOM     21  H   LIG d   1      10.344   5.027  -5.964  0.00  0.00     0.035 H 
ATOM     22  H   LIG d   1       8.815   5.690  -5.341  0.00  0.00     0.035 H 
ATOM     23  H   LIG d   1       8.413   8.159  -5.588  0.00  0.00     0.035 H 
ATOM     24  H   LIG d   1       9.555   9.217  -6.290  0.00  0.00     0.035 H 
ATOM     25  H   LIG d   1      13.771   6.956  -3.545  0.00  0.00     0.062 H 
ATOM     26  H   LIG d   1      15.702   8.517  -3.472  0.00  0.00     0.062 H 
ATOM     27  H   LIG d   1      15.526  10.673  -2.360  0.00  0.00     0.062 H 
ATOM     28  H   LIG d   1      13.428  11.391  -1.265  0.00  0.00     0.064 H 
ENDROOT
BRANCH  18  29
ATOM     29  C   LIG d   1      11.524   6.393  -0.136  0.00  0.00     0.342 C 
ATOM     30  O   LIG d   1      12.621   6.663   0.316  0.00  0.00    -0.245 OA
BRANCH  29  31
ATOM     31  O   LIG d   1      10.495   6.126   0.698  0.00  0.00    -0.465 OA
BRANCH  31  32
ATOM     32  C   LIG d   1      10.823   5.571   1.973  0.00  0.00     0.082 C 
ATOM     33  H   LIG d   1      10.409   6.199   2.762  0.00  0.00     0.066 H 
ATOM     34  H   LIG d   1      10.405   4.567   2.051  0.00  0.00     0.066 H 
ATOM     35  H   LIG d   1      11.907   5.521   2.080  0.00  0.00     0.066 H 
ENDBRANCH  31  32
ENDBRANCH  29  31
ENDBRANCH  18  29
BRANCH  15  36
ATOM     36  C   LIG d   1      10.693  10.893  -0.536  0.00  0.00     0.117 C 
ATOM     37  H   LIG d   1      11.155  11.782  -0.967  0.00  0.00     0.058 H 
ATOM     38  H   LIG d   1       9.609  10.977  -0.605  0.00  0.00     0.058 H 
BRANCH  36  39
ATOM     39  C   LIG d   1      11.097  10.769   0.910  0.00  0.00     0.325 C 
ATOM     40  O   LIG d   1      11.263  11.761   1.579  0.00  0.00    -0.249 OA
BRANCH  39  41
ATOM     41  O   LIG d   1      11.276   9.555   1.455  0.00  0.00    -0.467 OA
BRANCH  41  42
ATOM     42  C   LIG d   1      12.243   9.451   2.532  0.00  0.00     0.082 C 
ATOM     43  H   LIG d   1      11.936   8.667   3.223  0.00  0.00     0.066 H 
ATOM     44  H   LIG d   1      13.222   9.207   2.118  0.00  0.00     0.066 H 
ATOM     45  H   LIG d   1      12.300  10.401   3.063  0.00  0.00     0.066 H 
ENDBRANCH  41  42
ENDBRANCH  39  41
ENDBRANCH  36  39
ENDBRANCH  15  36
BRANCH  19  46
ATOM     46  N   LIG d   1      11.366   4.006  -1.456  0.00  0.00    -0.329 N 
ATOM     47  H   LIG d   1      11.544   3.169  -1.913  0.00  0.00     0.145 HD
ATOM     48  H   LIG d   1      11.270   4.020  -0.491  0.00  0.00     0.145 HD
ENDBRANCH  19  46
BRANCH   1  49
ATOM     49  C   LIG d   1      11.525   7.386  -6.629  0.00  0.00    -0.059 C 
ATOM     50  H   LIG d   1      11.730   8.447  -6.484  0.00  0.00     0.024 H 
ATOM     51  H   LIG d   1      12.118   6.802  -5.923  0.00  0.00     0.024 H 
ATOM     52  H   LIG d   1      11.791   7.101  -7.646  0.00  0.00     0.024 H 
ENDBRANCH   1  49
BRANCH   1  53
ATOM     53  C   LIG d   1       9.338   6.865  -7.731  0.00  0.00    -0.059 C 
ATOM     54  H   LIG d   1      10.084   6.643  -8.494  0.00  0.00     0.024 H 
ATOM     55  H   LIG d   1       8.657   6.020  -7.632  0.00  0.00     0.024 H 
ATOM     56  H   LIG d   1       8.777   7.753  -8.020  0.00  0.00     0.024 H 
ENDBRANCH   1  53
TORSDOF 10
ENDMDL
MODEL 10
REMARK VINA RESULT:      -5.3      2.169      5.680
REMARK  10 active torsions:
REMARK  status: ('A' for Active; 'I' for Inactive)
REMARK    1  A    between atoms: C_1  and  C_2 
REMARK    2  A    between atoms: C_2  and  C_32 
REMARK    3  A    between atoms: N_16  and  C_19 
REMARK    4  A    between atoms: C_19  and  C_20 
REMARK    5  A    between atoms: C_20  and  O_22 
REMARK    6  A    between atoms: O_22  and  C_23 
REMARK    7  A    between atoms: C_24  and  C_28 
REMARK    8  A    between atoms: C_25  and  N_27 
REMARK    9  A    between atoms: C_28  and  O_30 
REMARK   10  A    between atoms: O_30  and  C_31 
ROOT
ATOM      1  C   LIG d   1       3.120  -0.864  -9.703  0.00  0.00    -0.021 C 
ATOM      2  C   LIG d   1       2.560   0.038  -8.602  0.00  0.00     0.012 C 
ATOM      3  C   LIG d   1       3.302  -0.214  -7.312  0.00  0.00     0.116 C 
ATOM      4  C   LIG d   1       4.600  -0.575  -7.326  0.00  0.00     0.057 C 
ATOM      5  C   LIG d   1       5.295  -0.755  -8.536  0.00  0.00     0.165 C 
ATOM      6  O   LIG d   1       6.468  -1.070  -8.509  0.00  0.00    -0.292 OA
ATOM      7  C   LIG d   1       4.615  -0.559  -9.865  0.00  0.00     0.016 C 
ATOM      8  C   LIG d   1       5.345  -0.789  -6.034  0.00  0.00     0.141 A 
ATOM      9  C   LIG d   1       5.573  -2.247  -5.787  0.00  0.00    -0.002 A 
ATOM     10  C   LIG d   1       4.692  -3.291  -5.603  0.00  0.00    -0.055 A 
ATOM     11  C   LIG d   1       5.241  -4.551  -5.392  0.00  0.00    -0.061 A 
ATOM     12  C   LIG d   1       6.608  -4.744  -5.367  0.00  0.00    -0.060 A 
ATOM     13  C   LIG d   1       7.501  -3.699  -5.552  0.00  0.00    -0.040 A 
ATOM     14  C   LIG d   1       6.961  -2.429  -5.765  0.00  0.00     0.042 A 
ATOM     15  N   LIG d   1       7.608  -1.224  -5.976  0.00  0.00    -0.259 N 
ATOM     16  C   LIG d   1       6.739  -0.206  -6.144  0.00  0.00     0.240 A 
ATOM     17  O   LIG d   1       7.020   0.956  -6.345  0.00  0.00    -0.274 OA
ATOM     18  C   LIG d   1       4.611  -0.156  -4.887  0.00  0.00     0.117 C 
ATOM     19  C   LIG d   1       3.298   0.172  -5.015  0.00  0.00     0.195 C 
ATOM     20  O   LIG d   1       2.630  -0.062  -6.156  0.00  0.00    -0.446 OA
ATOM     21  H   LIG d   1       1.501  -0.178  -8.460  0.00  0.00     0.035 H 
ATOM     22  H   LIG d   1       2.681   1.081  -8.894  0.00  0.00     0.035 H 
ATOM     23  H   LIG d   1       4.732   0.386 -10.171  0.00  0.00     0.035 H 
ATOM     24  H   LIG d   1       5.048  -1.237 -10.600  0.00  0.00     0.035 H 
ATOM     25  H   LIG d   1       3.623  -3.138  -5.623  0.00  0.00     0.062 H 
ATOM     26  H   LIG d   1       4.585  -5.396  -5.243  0.00  0.00     0.062 H 
ATOM     27  H   LIG d   1       6.993  -5.739  -5.200  0.00  0.00     0.062 H 
ATOM     28  H   LIG d   1       8.568  -3.861  -5.531  0.00  0.00     0.064 H 
ENDROOT
BRANCH  18  29
ATOM     29  C   LIG d   1       5.282   0.096  -3.680  0.00  0.00     0.342 C 
ATOM     30  O   LIG d   1       5.551   1.240  -3.361  0.00  0.00    -0.245 OA
BRANCH  29  31
ATOM     31  O   LIG d   1       5.629  -0.930  -2.873  0.00  0.00    -0.465 OA
BRANCH  31  32
ATOM     32  C   LIG d   1       4.580  -1.546  -2.123  0.00  0.00     0.082 C 
ATOM     33  H   LIG d   1       3.708  -1.684  -2.762  0.00  0.00     0.066 H 
ATOM     34  H   LIG d   1       4.918  -2.516  -1.756  0.00  0.00     0.066 H 
ATOM     35  H   LIG d   1       4.316  -0.910  -1.278  0.00  0.00     0.066 H 
ENDBRANCH  31  32
ENDBRANCH  29  31
ENDBRANCH  18  29
BRANCH  15  36
ATOM     36  C   LIG d   1       9.064  -1.072  -6.012  0.00  0.00     0.117 C 
ATOM     37  H   LIG d   1       9.343  -0.130  -5.541  0.00  0.00     0.058 H 
ATOM     38  H   LIG d   1       9.529  -1.899  -5.475  0.00  0.00     0.058 H 
BRANCH  36  39
ATOM     39  C   LIG d   1       9.534  -1.075  -7.443  0.00  0.00     0.325 C 
ATOM     40  O   LIG d   1       9.562  -2.109  -8.068  0.00  0.00    -0.249 OA
BRANCH  39  41
ATOM     41  O   LIG d   1       9.924   0.070  -8.024  0.00  0.00    -0.467 OA
BRANCH  41  42
ATOM     42  C   LIG d   1       9.462   0.312  -9.379  0.00  0.00     0.082 C 
ATOM     43  H   LIG d   1      10.289   0.684  -9.984  0.00  0.00     0.066 H 
ATOM     44  H   LIG d   1       9.090  -0.618  -9.807  0.00  0.00     0.066 H 
ATOM     45  H   LIG d   1       8.662   1.052  -9.365  0.00  0.00     0.066 H 
ENDBRANCH  41  42
ENDBRANCH  39  41
ENDBRANCH  36  39
ENDBRANCH  15  36
BRANCH  19  46
ATOM     46  N   LIG d   1       2.645   0.752  -3.962  0.00  0.00    -0.329 N 
ATOM     47  H   LIG d   1       1.828   1.253  -4.114  0.00  0.00     0.145 HD
ATOM     48  H   LIG d   1       2.998   0.662  -3.063  0.00  0.00     0.145 HD
ENDBRANCH  19  46
BRANCH   1  49
ATOM     49  C   LIG d   1       2.929  -2.331  -9.311  0.00  0.00    -0.059 C 
ATOM     50  H   LIG d   1       2.629  -2.392  -8.265  0.00  0.00     0.024 H 
ATOM     51  H   LIG d   1       2.155  -2.777  -9.937  0.00  0.00     0.024 H 
ATOM     52  H   LIG d   1       3.864  -2.870  -9.453  0.00  0.00     0.024 H 
ENDBRANCH   1  49
BRANCH   1  53
ATOM     53  C   LIG d   1       2.393  -0.581 -11.020  0.00  0.00    -0.059 C 
ATOM     54  H   LIG d   1       2.555   0.457 -11.308  0.00  0.00     0.024 H 
ATOM     55  H   LIG d   1       2.782  -1.239 -11.798  0.00  0.00     0.024 H 
ATOM     56  H   LIG d   1       1.326  -0.761 -10.892  0.00  0.00     0.024 H 
ENDBRANCH   1  53
TORSDOF 10
ENDMDL
