MODEL 1
REMARK VINA RESULT:      -3.9      0.000      0.000
REMARK  7 active torsions:
REMARK  status: ('A' for Active; 'I' for Inactive)
REMARK    1  A    between atoms: C_1  and  C_2 
REMARK    2  A    between atoms: C_2  and  C_4 
REMARK    3  A    between atoms: C_2  and  N_21 
REMARK    4  A    between atoms: C_4  and  C_5 
REMARK    5  A    between atoms: C_5  and  O_7 
REMARK    6  A    between atoms: O_7  and  C_8 
REMARK    7  A    between atoms: C_9  and  N_21 
ROOT
ATOM      1  C   LIG d   1       3.282   0.521  -2.635  0.00  0.00    -0.015 C 
ATOM      2  H   LIG d   1       2.508   1.089  -2.119  0.00  0.00     0.085 H 
ENDROOT
BRANCH   1   3
ATOM      3  C   LIG d   1       2.840  -0.937  -2.767  0.00  0.00    -0.021 C 
ATOM      4  H   LIG d   1       3.208  -1.345  -3.708  0.00  0.00     0.028 H 
ATOM      5  H   LIG d   1       3.246  -1.516  -1.937  0.00  0.00     0.028 H 
ATOM      6  H   LIG d   1       1.752  -0.990  -2.750  0.00  0.00     0.028 H 
ENDBRANCH   1   3
BRANCH   1   7
ATOM      7  C   LIG d   1       4.585   0.589  -1.834  0.00  0.00     0.087 C 
ATOM      8  H   LIG d   1       4.641  -0.265  -1.159  0.00  0.00     0.043 H 
ATOM      9  H   LIG d   1       4.606   1.512  -1.255  0.00  0.00     0.043 H 
BRANCH   7  10
ATOM     10  C   LIG d   1       5.758   0.561  -2.780  0.00  0.00     0.312 C 
ATOM     11  O   LIG d   1       6.218  -0.496  -3.139  0.00  0.00    -0.251 OA
BRANCH  10  12
ATOM     12  O   LIG d   1       6.286   1.711  -3.228  0.00  0.00    -0.468 OA
BRANCH  12  13
ATOM     13  C   LIG d   1       7.598   1.637  -3.843  0.00  0.00     0.082 C 
ATOM     14  H   LIG d   1       8.303   1.183  -3.146  0.00  0.00     0.066 H 
ATOM     15  H   LIG d   1       7.542   1.031  -4.748  0.00  0.00     0.066 H 
ATOM     16  H   LIG d   1       7.937   2.641  -4.099  0.00  0.00     0.066 H 
ENDBRANCH  12  13
ENDBRANCH  10  12
ENDBRANCH   7  10
ENDBRANCH   1   7
BRANCH   1  17
ATOM     17  N   LIG d   1       3.508   1.091  -3.976  0.00  0.00     0.227 N 
ATOM     18  H   LIG d   1       4.487   0.941  -4.247  0.00  0.00     0.201 HD
ATOM     19  H   LIG d   1       3.309   2.098  -3.954  0.00  0.00     0.201 HD
BRANCH  17  20
ATOM     20  C   LIG d   1       2.624   0.443  -4.964  0.00  0.00    -0.045 C 
ATOM     21  H   LIG d   1       1.684   0.176  -4.481  0.00  0.00     0.078 H 
ATOM     22  H   LIG d   1       2.428   1.130  -5.786  0.00  0.00     0.078 H 
ATOM     23  H   LIG d   1       3.103  -0.458  -5.348  0.00  0.00     0.078 H 
ENDBRANCH  17  20
ENDBRANCH   1  17
TORSDOF 7
ENDMDL
MODEL 2
REMARK VINA RESULT:      -3.7      1.707      2.072
REMARK  7 active torsions:
REMARK  status: ('A' for Active; 'I' for Inactive)
REMARK    1  A    between atoms: C_1  and  C_2 
REMARK    2  A    between atoms: C_2  and  C_4 
REMARK    3  A    between atoms: C_2  and  N_21 
REMARK    4  A    between atoms: C_4  and  C_5 
REMARK    5  A    between atoms: C_5  and  O_7 
REMARK    6  A    between atoms: O_7  and  C_8 
REMARK    7  A    between atoms: C_9  and  N_21 
ROOT
ATOM      1  C   LIG d   1       3.120  -1.138  -3.149  0.00  0.00    -0.015 C 
ATOM      2  H   LIG d   1       2.115  -1.560  -3.116  0.00  0.00     0.085 H 
ENDROOT
BRANCH   1   3
ATOM      3  C   LIG d   1       4.036  -1.936  -2.220  0.00  0.00    -0.021 C 
ATOM      4  H   LIG d   1       4.070  -2.976  -2.547  0.00  0.00     0.028 H 
ATOM      5  H   LIG d   1       5.041  -1.513  -2.251  0.00  0.00     0.028 H 
ATOM      6  H   LIG d   1       3.653  -1.888  -1.201  0.00  0.00     0.028 H 
ENDBRANCH   1   3
BRANCH   1   7
ATOM      7  C   LIG d   1       3.076   0.322  -2.692  0.00  0.00     0.087 C 
ATOM      8  H   LIG d   1       2.579   0.385  -1.723  0.00  0.00     0.043 H 
ATOM      9  H   LIG d   1       2.524   0.913  -3.422  0.00  0.00     0.043 H 
BRANCH   7  10
ATOM     10  C   LIG d   1       4.481   0.853  -2.571  0.00  0.00     0.312 C 
ATOM     11  O   LIG d   1       4.923   1.150  -1.487  0.00  0.00    -0.251 OA
BRANCH  10  12
ATOM     12  O   LIG d   1       5.242   0.990  -3.668  0.00  0.00    -0.468 OA
BRANCH  12  13
ATOM     13  C   LIG d   1       6.648   0.652  -3.540  0.00  0.00     0.082 C 
ATOM     14  H   LIG d   1       6.779  -0.058  -2.723  0.00  0.00     0.066 H 
ATOM     15  H   LIG d   1       7.000   0.204  -4.470  0.00  0.00     0.066 H 
ATOM     16  H   LIG d   1       7.222   1.555  -3.332  0.00  0.00     0.066 H 
ENDBRANCH  12  13
ENDBRANCH  10  12
ENDBRANCH   7  10
ENDBRANCH   1   7
BRANCH   1  17
ATOM     17  N   LIG d   1       3.641  -1.198  -4.527  0.00  0.00     0.227 N 
ATOM     18  H   LIG d   1       4.139  -0.326  -4.739  0.00  0.00     0.201 HD
ATOM     19  H   LIG d   1       2.858  -1.314  -5.180  0.00  0.00     0.201 HD
BRANCH  17  20
ATOM     20  C   LIG d   1       4.569  -2.336  -4.674  0.00  0.00    -0.045 C 
ATOM     21  H   LIG d   1       4.648  -2.599  -5.729  0.00  0.00     0.078 H 
ATOM     22  H   LIG d   1       5.552  -2.058  -4.295  0.00  0.00     0.078 H 
ATOM     23  H   LIG d   1       4.192  -3.192  -4.114  0.00  0.00     0.078 H 
ENDBRANCH  17  20
ENDBRANCH   1  17
TORSDOF 7
ENDMDL
MODEL 3
REMARK VINA RESULT:      -3.7      2.544      3.497
REMARK  7 active torsions:
REMARK  status: ('A' for Active; 'I' for Inactive)
REMARK    1  A    between atoms: C_1  and  C_2 
REMARK    2  A    between atoms: C_2  and  C_4 
REMARK    3  A    between atoms: C_2  and  N_21 
REMARK    4  A    between atoms: C_4  and  C_5 
REMARK    5  A    between atoms: C_5  and  O_7 
REMARK    6  A    between atoms: O_7  and  C_8 
REMARK    7  A    between atoms: C_9  and  N_21 
ROOT
ATOM      1  C   LIG d   1       3.270  -1.579  -2.804  0.00  0.00    -0.015 C 
ATOM      2  H   LIG d   1       2.450  -2.123  -2.334  0.00  0.00     0.085 H 
ENDROOT
BRANCH   1   3
ATOM      3  C   LIG d   1       4.504  -1.640  -1.902  0.00  0.00    -0.021 C 
ATOM      4  H   LIG d   1       4.747  -0.637  -1.550  0.00  0.00     0.028 H 
ATOM      5  H   LIG d   1       4.297  -2.285  -1.047  0.00  0.00     0.028 H 
ATOM      6  H   LIG d   1       5.346  -2.041  -2.466  0.00  0.00     0.028 H 
ENDBRANCH   1   3
BRANCH   1   7
ATOM      7  C   LIG d   1       2.860  -0.119  -3.012  0.00  0.00     0.087 C 
ATOM      8  H   LIG d   1       3.336   0.503  -2.254  0.00  0.00     0.043 H 
ATOM      9  H   LIG d   1       1.777  -0.031  -2.927  0.00  0.00     0.043 H 
BRANCH   7  10
ATOM     10  C   LIG d   1       3.296   0.335  -4.381  0.00  0.00     0.312 C 
ATOM     11  O   LIG d   1       4.451   0.628  -4.580  0.00  0.00    -0.251 OA
BRANCH  10  12
ATOM     12  O   LIG d   1       2.403   0.407  -5.380  0.00  0.00    -0.468 OA
BRANCH  12  13
ATOM     13  C   LIG d   1       2.909   0.233  -6.730  0.00  0.00     0.082 C 
ATOM     14  H   LIG d   1       2.883  -0.824  -6.995  0.00  0.00     0.066 H 
ATOM     15  H   LIG d   1       2.287   0.796  -7.426  0.00  0.00     0.066 H 
ATOM     16  H   LIG d   1       3.935   0.597  -6.783  0.00  0.00     0.066 H 
ENDBRANCH  12  13
ENDBRANCH  10  12
ENDBRANCH   7  10
ENDBRANCH   1   7
BRANCH   1  17
ATOM     17  N   LIG d   1       3.584  -2.184  -4.112  0.00  0.00     0.227 N 
ATOM     18  H   LIG d   1       3.663  -1.443  -4.817  0.00  0.00     0.201 HD
ATOM     19  H   LIG d   1       2.832  -2.830  -4.375  0.00  0.00     0.201 HD
BRANCH  17  20
ATOM     20  C   LIG d   1       4.859  -2.924  -4.040  0.00  0.00    -0.045 C 
ATOM     21  H   LIG d   1       4.887  -3.666  -4.838  0.00  0.00     0.078 H 
ATOM     22  H   LIG d   1       5.691  -2.232  -4.158  0.00  0.00     0.078 H 
ATOM     23  H   LIG d   1       4.938  -3.426  -3.075  0.00  0.00     0.078 H 
ENDBRANCH  17  20
ENDBRANCH   1  17
TORSDOF 7
ENDMDL
MODEL 4
REMARK VINA RESULT:      -3.5      2.264      3.705
REMARK  7 active torsions:
REMARK  status: ('A' for Active; 'I' for Inactive)
REMARK    1  A    between atoms: C_1  and  C_2 
REMARK    2  A    between atoms: C_2  and  C_4 
REMARK    3  A    between atoms: C_2  and  N_21 
REMARK    4  A    between atoms: C_4  and  C_5 
REMARK    5  A    between atoms: C_5  and  O_7 
REMARK    6  A    between atoms: O_7  and  C_8 
REMARK    7  A    between atoms: C_9  and  N_21 
ROOT
ATOM      1  C   LIG d   1       4.473  -0.032  -2.869  0.00  0.00    -0.015 C 
ATOM      2  H   LIG d   1       4.853  -1.009  -2.572  0.00  0.00     0.085 H 
ENDROOT
BRANCH   1   3
ATOM      3  C   LIG d   1       4.475   0.905  -1.660  0.00  0.00    -0.021 C 
ATOM      4  H   LIG d   1       3.869   1.784  -1.879  0.00  0.00     0.028 H 
ATOM      5  H   LIG d   1       4.060   0.383  -0.797  0.00  0.00     0.028 H 
ATOM      6  H   LIG d   1       5.497   1.214  -1.441  0.00  0.00     0.028 H 
ENDBRANCH   1   3
BRANCH   1   7
ATOM      7  C   LIG d   1       3.044  -0.180  -3.398  0.00  0.00     0.087 C 
ATOM      8  H   LIG d   1       2.356   0.347  -2.737  0.00  0.00     0.043 H 
ATOM      9  H   LIG d   1       2.778  -1.236  -3.434  0.00  0.00     0.043 H 
BRANCH   7  10
ATOM     10  C   LIG d   1       2.958   0.407  -4.783  0.00  0.00     0.312 C 
ATOM     11  O   LIG d   1       2.551   1.534  -4.938  0.00  0.00    -0.251 OA
BRANCH  10  12
ATOM     12  O   LIG d   1       3.340  -0.320  -5.845  0.00  0.00    -0.468 OA
BRANCH  12  13
ATOM     13  C   LIG d   1       2.932   0.159  -7.153  0.00  0.00     0.082 C 
ATOM     14  H   LIG d   1       1.861   0.360  -7.150  0.00  0.00     0.066 H 
ATOM     15  H   LIG d   1       3.472   1.077  -7.388  0.00  0.00     0.066 H 
ATOM     16  H   LIG d   1       3.158  -0.597  -7.904  0.00  0.00     0.066 H 
ENDBRANCH  12  13
ENDBRANCH  10  12
ENDBRANCH   7  10
ENDBRANCH   1   7
BRANCH   1  17
ATOM     17  N   LIG d   1       5.326   0.533  -3.932  0.00  0.00     0.227 N 
ATOM     18  H   LIG d   1       5.332   1.556  -3.853  0.00  0.00     0.201 HD
ATOM     19  H   LIG d   1       4.950   0.261  -4.847  0.00  0.00     0.201 HD
BRANCH  17  20
ATOM     20  C   LIG d   1       6.706   0.027  -3.802  0.00  0.00    -0.045 C 
ATOM     21  H   LIG d   1       6.941  -0.595  -4.666  0.00  0.00     0.078 H 
ATOM     22  H   LIG d   1       7.400   0.866  -3.759  0.00  0.00     0.078 H 
ATOM     23  H   LIG d   1       6.796  -0.566  -2.892  0.00  0.00     0.078 H 
ENDBRANCH  17  20
ENDBRANCH   1  17
TORSDOF 7
ENDMDL
MODEL 5
REMARK VINA RESULT:      -3.4      2.130      3.046
REMARK  7 active torsions:
REMARK  status: ('A' for Active; 'I' for Inactive)
REMARK    1  A    between atoms: C_1  and  C_2 
REMARK    2  A    between atoms: C_2  and  C_4 
REMARK    3  A    between atoms: C_2  and  N_21 
REMARK    4  A    between atoms: C_4  and  C_5 
REMARK    5  A    between atoms: C_5  and  O_7 
REMARK    6  A    between atoms: O_7  and  C_8 
REMARK    7  A    between atoms: C_9  and  N_21 
ROOT
ATOM      1  C   LIG d   1       4.616   0.386  -2.948  0.00  0.00    -0.015 C 
ATOM      2  H   LIG d   1       5.625   0.783  -2.845  0.00  0.00     0.085 H 
ENDROOT
BRANCH   1   3
ATOM      3  C   LIG d   1       3.619   1.358  -2.315  0.00  0.00    -0.021 C 
ATOM      4  H   LIG d   1       2.775   1.504  -2.989  0.00  0.00     0.028 H 
ATOM      5  H   LIG d   1       3.262   0.947  -1.370  0.00  0.00     0.028 H 
ATOM      6  H   LIG d   1       4.108   2.315  -2.134  0.00  0.00     0.028 H 
ENDBRANCH   1   3
BRANCH   1   7
ATOM      7  C   LIG d   1       4.526  -0.969  -2.242  0.00  0.00     0.087 C 
ATOM      8  H   LIG d   1       3.481  -1.208  -2.046  0.00  0.00     0.043 H 
ATOM      9  H   LIG d   1       5.071  -0.924  -1.300  0.00  0.00     0.043 H 
BRANCH   7  10
ATOM     10  C   LIG d   1       5.129  -2.034  -3.121  0.00  0.00     0.312 C 
ATOM     11  O   LIG d   1       6.324  -2.068  -3.297  0.00  0.00    -0.251 OA
BRANCH  10  12
ATOM     12  O   LIG d   1       4.338  -2.950  -3.703  0.00  0.00    -0.468 OA
BRANCH  12  13
ATOM     13  C   LIG d   1       4.806  -3.527  -4.951  0.00  0.00     0.082 C 
ATOM     14  H   LIG d   1       5.872  -3.741  -4.876  0.00  0.00     0.066 H 
ATOM     15  H   LIG d   1       4.264  -4.452  -5.149  0.00  0.00     0.066 H 
ATOM     16  H   LIG d   1       4.633  -2.823  -5.764  0.00  0.00     0.066 H 
ENDBRANCH  12  13
ENDBRANCH  10  12
ENDBRANCH   7  10
ENDBRANCH   1   7
BRANCH   1  17
ATOM     17  N   LIG d   1       4.293   0.209  -4.376  0.00  0.00     0.227 N 
ATOM     18  H   LIG d   1       4.557  -0.739  -4.668  0.00  0.00     0.201 HD
ATOM     19  H   LIG d   1       4.818   0.897  -4.929  0.00  0.00     0.201 HD
BRANCH  17  20
ATOM     20  C   LIG d   1       2.848   0.403  -4.603  0.00  0.00    -0.045 C 
ATOM     21  H   LIG d   1       2.651   0.400  -5.675  0.00  0.00     0.078 H 
ATOM     22  H   LIG d   1       2.292  -0.405  -4.129  0.00  0.00     0.078 H 
ATOM     23  H   LIG d   1       2.535   1.358  -4.179  0.00  0.00     0.078 H 
ENDBRANCH  17  20
ENDBRANCH   1  17
TORSDOF 7
ENDMDL
MODEL 6
REMARK VINA RESULT:      -3.3      2.202      3.587
REMARK  7 active torsions:
REMARK  status: ('A' for Active; 'I' for Inactive)
REMARK    1  A    between atoms: C_1  and  C_2 
REMARK    2  A    between atoms: C_2  and  C_4 
REMARK    3  A    between atoms: C_2  and  N_21 
REMARK    4  A    between atoms: C_4  and  C_5 
REMARK    5  A    between atoms: C_5  and  O_7 
REMARK    6  A    between atoms: O_7  and  C_8 
REMARK    7  A    between atoms: C_9  and  N_21 
ROOT
ATOM      1  C   LIG d   1       5.571   0.162  -2.571  0.00  0.00    -0.015 C 
ATOM      2  H   LIG d   1       6.121  -0.140  -1.679  0.00  0.00     0.085 H 
ENDROOT
BRANCH   1   3
ATOM      3  C   LIG d   1       6.370   1.226  -3.326  0.00  0.00    -0.021 C 
ATOM      4  H   LIG d   1       5.707   1.769  -3.999  0.00  0.00     0.028 H 
ATOM      5  H   LIG d   1       6.812   1.922  -2.612  0.00  0.00     0.028 H 
ATOM      6  H   LIG d   1       7.160   0.745  -3.903  0.00  0.00     0.028 H 
ENDBRANCH   1   3
BRANCH   1   7
ATOM      7  C   LIG d   1       4.213   0.738  -2.162  0.00  0.00     0.087 C 
ATOM      8  H   LIG d   1       4.279   1.825  -2.113  0.00  0.00     0.043 H 
ATOM      9  H   LIG d   1       3.933   0.347  -1.184  0.00  0.00     0.043 H 
BRANCH   7  10
ATOM     10  C   LIG d   1       3.173   0.342  -3.178  0.00  0.00     0.312 C 
ATOM     11  O   LIG d   1       2.479  -0.628  -2.986  0.00  0.00    -0.251 OA
BRANCH  10  12
ATOM     12  O   LIG d   1       3.014   1.072  -4.293  0.00  0.00    -0.468 OA
BRANCH  12  13
ATOM     13  C   LIG d   1       2.714   0.350  -5.516  0.00  0.00     0.082 C 
ATOM     14  H   LIG d   1       2.590   1.057  -6.336  0.00  0.00     0.066 H 
ATOM     15  H   LIG d   1       3.535  -0.331  -5.746  0.00  0.00     0.066 H 
ATOM     16  H   LIG d   1       1.795  -0.220  -5.386  0.00  0.00     0.066 H 
ENDBRANCH  12  13
ENDBRANCH  10  12
ENDBRANCH   7  10
ENDBRANCH   1   7
BRANCH   1  17
ATOM     17  N   LIG d   1       5.358  -1.007  -3.444  0.00  0.00     0.227 N 
ATOM     18  H   LIG d   1       5.174  -0.685  -4.402  0.00  0.00     0.201 HD
ATOM     19  H   LIG d   1       4.552  -1.542  -3.102  0.00  0.00     0.201 HD
BRANCH  17  20
ATOM     20  C   LIG d   1       6.553  -1.872  -3.443  0.00  0.00    -0.045 C 
ATOM     21  H   LIG d   1       7.387  -1.328  -3.000  0.00  0.00     0.078 H 
ATOM     22  H   LIG d   1       6.354  -2.771  -2.861  0.00  0.00     0.078 H 
ATOM     23  H   LIG d   1       6.805  -2.150  -4.467  0.00  0.00     0.078 H 
ENDBRANCH  17  20
ENDBRANCH   1  17
TORSDOF 7
ENDMDL
MODEL 7
REMARK VINA RESULT:      -3.2      2.761      4.101
REMARK  7 active torsions:
REMARK  status: ('A' for Active; 'I' for Inactive)
REMARK    1  A    between atoms: C_1  and  C_2 
REMARK    2  A    between atoms: C_2  and  C_4 
REMARK    3  A    between atoms: C_2  and  N_21 
REMARK    4  A    between atoms: C_4  and  C_5 
REMARK    5  A    between atoms: C_5  and  O_7 
REMARK    6  A    between atoms: O_7  and  C_8 
REMARK    7  A    between atoms: C_9  and  N_21 
ROOT
ATOM      1  C   LIG d   1       3.418   0.042  -3.991  0.00  0.00    -0.015 C 
ATOM      2  H   LIG d   1       4.258  -0.540  -4.369  0.00  0.00     0.085 H 
ENDROOT
BRANCH   1   3
ATOM      3  C   LIG d   1       2.681  -0.763  -2.919  0.00  0.00    -0.021 C 
ATOM      4  H   LIG d   1       2.592  -0.166  -2.012  0.00  0.00     0.028 H 
ATOM      5  H   LIG d   1       1.686  -1.024  -3.281  0.00  0.00     0.028 H 
ATOM      6  H   LIG d   1       3.240  -1.674  -2.701  0.00  0.00     0.028 H 
ENDBRANCH   1   3
BRANCH   1   7
ATOM      7  C   LIG d   1       2.458   0.359  -5.140  0.00  0.00     0.087 C 
ATOM      8  H   LIG d   1       2.112   1.389  -5.051  0.00  0.00     0.043 H 
ATOM      9  H   LIG d   1       1.605  -0.316  -5.097  0.00  0.00     0.043 H 
BRANCH   7  10
ATOM     10  C   LIG d   1       3.174   0.182  -6.455  0.00  0.00     0.312 C 
ATOM     11  O   LIG d   1       4.375   0.298  -6.509  0.00  0.00    -0.251 OA
BRANCH  10  12
ATOM     12  O   LIG d   1       2.476  -0.112  -7.563  0.00  0.00    -0.468 OA
BRANCH  12  13
ATOM     13  C   LIG d   1       2.686   0.741  -8.719  0.00  0.00     0.082 C 
ATOM     14  H   LIG d   1       2.110   1.659  -8.603  0.00  0.00     0.066 H 
ATOM     15  H   LIG d   1       3.745   0.986  -8.803  0.00  0.00     0.066 H 
ATOM     16  H   LIG d   1       2.361   0.220  -9.619  0.00  0.00     0.066 H 
ENDBRANCH  12  13
ENDBRANCH  10  12
ENDBRANCH   7  10
ENDBRANCH   1   7
BRANCH   1  17
ATOM     17  N   LIG d   1       3.908   1.305  -3.408  0.00  0.00     0.227 N 
ATOM     18  H   LIG d   1       3.143   1.989  -3.389  0.00  0.00     0.201 HD
ATOM     19  H   LIG d   1       4.678   1.667  -3.983  0.00  0.00     0.201 HD
BRANCH  17  20
ATOM     20  C   LIG d   1       4.393   1.080  -2.032  0.00  0.00    -0.045 C 
ATOM     21  H   LIG d   1       5.286   1.683  -1.865  0.00  0.00     0.078 H 
ATOM     22  H   LIG d   1       3.621   1.369  -1.320  0.00  0.00     0.078 H 
ATOM     23  H   LIG d   1       4.636   0.026  -1.897  0.00  0.00     0.078 H 
ENDBRANCH  17  20
ENDBRANCH   1  17
TORSDOF 7
ENDMDL
MODEL 8
REMARK VINA RESULT:      -3.2      1.923      2.449
REMARK  7 active torsions:
REMARK  status: ('A' for Active; 'I' for Inactive)
REMARK    1  A    between atoms: C_1  and  C_2 
REMARK    2  A    between atoms: C_2  and  C_4 
REMARK    3  A    between atoms: C_2  and  N_21 
REMARK    4  A    between atoms: C_4  and  C_5 
REMARK    5  A    between atoms: C_5  and  O_7 
REMARK    6  A    between atoms: O_7  and  C_8 
REMARK    7  A    between atoms: C_9  and  N_21 
ROOT
ATOM      1  C   LIG d   1       3.683  -1.294  -2.384  0.00  0.00    -0.015 C 
ATOM      2  H   LIG d   1       3.225  -1.776  -1.521  0.00  0.00     0.085 H 
ENDROOT
BRANCH   1   3
ATOM      3  C   LIG d   1       2.593  -0.672  -3.259  0.00  0.00    -0.021 C 
ATOM      4  H   LIG d   1       2.937   0.288  -3.642  0.00  0.00     0.028 H 
ATOM      5  H   LIG d   1       2.373  -1.339  -4.094  0.00  0.00     0.028 H 
ATOM      6  H   LIG d   1       1.691  -0.524  -2.665  0.00  0.00     0.028 H 
ENDBRANCH   1   3
BRANCH   1   7
ATOM      7  C   LIG d   1       4.458  -2.334  -3.197  0.00  0.00     0.087 C 
ATOM      8  H   LIG d   1       3.857  -2.650  -4.050  0.00  0.00     0.043 H 
ATOM      9  H   LIG d   1       4.678  -3.196  -2.568  0.00  0.00     0.043 H 
BRANCH   7  10
ATOM     10  C   LIG d   1       5.748  -1.728  -3.688  0.00  0.00     0.312 C 
ATOM     11  O   LIG d   1       6.787  -1.985  -3.129  0.00  0.00    -0.251 OA
BRANCH  10  12
ATOM     12  O   LIG d   1       5.742  -0.908  -4.751  0.00  0.00    -0.468 OA
BRANCH  12  13
ATOM     13  C   LIG d   1       6.796   0.088  -4.821  0.00  0.00     0.082 C 
ATOM     14  H   LIG d   1       6.561   0.812  -5.601  0.00  0.00     0.066 H 
ATOM     15  H   LIG d   1       6.875   0.601  -3.862  0.00  0.00     0.066 H 
ATOM     16  H   LIG d   1       7.742  -0.400  -5.051  0.00  0.00     0.066 H 
ENDBRANCH  12  13
ENDBRANCH  10  12
ENDBRANCH   7  10
ENDBRANCH   1   7
BRANCH   1  17
ATOM     17  N   LIG d   1       4.613  -0.242  -1.933  0.00  0.00     0.227 N 
ATOM     18  H   LIG d   1       5.480  -0.300  -2.479  0.00  0.00     0.201 HD
ATOM     19  H   LIG d   1       4.823  -0.380  -0.938  0.00  0.00     0.201 HD
BRANCH  17  20
ATOM     20  C   LIG d   1       4.008   1.091  -2.122  0.00  0.00    -0.045 C 
ATOM     21  H   LIG d   1       3.658   1.182  -3.150  0.00  0.00     0.078 H 
ATOM     22  H   LIG d   1       3.167   1.211  -1.440  0.00  0.00     0.078 H 
ATOM     23  H   LIG d   1       4.751   1.863  -1.921  0.00  0.00     0.078 H 
ENDBRANCH  17  20
ENDBRANCH   1  17
TORSDOF 7
ENDMDL
MODEL 9
REMARK VINA RESULT:      -3.1      2.267      3.217
REMARK  7 active torsions:
REMARK  status: ('A' for Active; 'I' for Inactive)
REMARK    1  A    between atoms: C_1  and  C_2 
REMARK    2  A    between atoms: C_2  and  C_4 
REMARK    3  A    between atoms: C_2  and  N_21 
REMARK    4  A    between atoms: C_4  and  C_5 
REMARK    5  A    between atoms: C_5  and  O_7 
REMARK    6  A    between atoms: O_7  and  C_8 
REMARK    7  A    between atoms: C_9  and  N_21 
ROOT
ATOM      1  C   LIG d   1       5.328  -1.572  -4.429  0.00  0.00    -0.015 C 
ATOM      2  H   LIG d   1       5.417  -2.242  -5.283  0.00  0.00     0.085 H 
ENDROOT
BRANCH   1   3
ATOM      3  C   LIG d   1       6.703  -1.380  -3.787  0.00  0.00    -0.021 C 
ATOM      4  H   LIG d   1       7.151  -2.353  -3.588  0.00  0.00     0.028 H 
ATOM      5  H   LIG d   1       7.345  -0.817  -4.466  0.00  0.00     0.028 H 
ATOM      6  H   LIG d   1       6.594  -0.832  -2.852  0.00  0.00     0.028 H 
ENDBRANCH   1   3
BRANCH   1   7
ATOM      7  C   LIG d   1       4.366  -2.177  -3.403  0.00  0.00     0.087 C 
ATOM      8  H   LIG d   1       4.922  -2.814  -2.715  0.00  0.00     0.043 H 
ATOM      9  H   LIG d   1       3.612  -2.771  -3.920  0.00  0.00     0.043 H 
BRANCH   7  10
ATOM     10  C   LIG d   1       3.693  -1.071  -2.632  0.00  0.00     0.312 C 
ATOM     11  O   LIG d   1       2.578  -0.717  -2.932  0.00  0.00    -0.251 OA
BRANCH  10  12
ATOM     12  O   LIG d   1       4.331  -0.484  -1.608  0.00  0.00    -0.468 OA
BRANCH  12  13
ATOM     13  C   LIG d   1       4.497   0.957  -1.673  0.00  0.00     0.082 C 
ATOM     14  H   LIG d   1       5.369   1.251  -1.089  0.00  0.00     0.066 H 
ATOM     15  H   LIG d   1       4.637   1.260  -2.712  0.00  0.00     0.066 H 
ATOM     16  H   LIG d   1       3.609   1.444  -1.270  0.00  0.00     0.066 H 
ENDBRANCH  12  13
ENDBRANCH  10  12
ENDBRANCH   7  10
ENDBRANCH   1   7
BRANCH   1  17
ATOM     17  N   LIG d   1       4.804  -0.266  -4.872  0.00  0.00     0.227 N 
ATOM     18  H   LIG d   1       5.584   0.393  -4.978  0.00  0.00     0.201 HD
ATOM     19  H   LIG d   1       4.146   0.091  -4.169  0.00  0.00     0.201 HD
BRANCH  17  20
ATOM     20  C   LIG d   1       4.106  -0.407  -6.165  0.00  0.00    -0.045 C 
ATOM     21  H   LIG d   1       4.551   0.278  -6.887  0.00  0.00     0.078 H 
ATOM     22  H   LIG d   1       4.207  -1.430  -6.525  0.00  0.00     0.078 H 
ATOM     23  H   LIG d   1       3.051  -0.167  -6.039  0.00  0.00     0.078 H 
ENDBRANCH  17  20
ENDBRANCH   1  17
TORSDOF 7
ENDMDL
MODEL 10
REMARK VINA RESULT:      -3.0      1.925      2.637
REMARK  7 active torsions:
REMARK  status: ('A' for Active; 'I' for Inactive)
REMARK    1  A    between atoms: C_1  and  C_2 
REMARK    2  A    between atoms: C_2  and  C_4 
REMARK    3  A    between atoms: C_2  and  N_21 
REMARK    4  A    between atoms: C_4  and  C_5 
REMARK    5  A    between atoms: C_5  and  O_7 
REMARK    6  A    between atoms: O_7  and  C_8 
REMARK    7  A    between atoms: C_9  and  N_21 
ROOT
ATOM      1  C   LIG d   1       4.977   1.238  -3.013  0.00  0.00    -0.015 C 
ATOM      2  H   LIG d   1       4.924   2.323  -3.090  0.00  0.00     0.085 H 
ENDROOT
BRANCH   1   3
ATOM      3  C   LIG d   1       4.575   0.808  -1.601  0.00  0.00    -0.021 C 
ATOM      4  H   LIG d   1       4.018  -0.128  -1.650  0.00  0.00     0.028 H 
ATOM      5  H   LIG d   1       5.471   0.666  -0.996  0.00  0.00     0.028 H 
ATOM      6  H   LIG d   1       3.950   1.579  -1.150  0.00  0.00     0.028 H 
ENDBRANCH   1   3
BRANCH   1   7
ATOM      7  C   LIG d   1       6.407   0.774  -3.300  0.00  0.00     0.087 C 
ATOM      8  H   LIG d   1       6.744   0.118  -2.497  0.00  0.00     0.043 H 
ATOM      9  H   LIG d   1       7.063   1.641  -3.362  0.00  0.00     0.043 H 
BRANCH   7  10
ATOM     10  C   LIG d   1       6.439   0.024  -4.607  0.00  0.00     0.312 C 
ATOM     11  O   LIG d   1       6.602   0.624  -5.643  0.00  0.00    -0.251 OA
BRANCH  10  12
ATOM     12  O   LIG d   1       6.292  -1.310  -4.619  0.00  0.00    -0.468 OA
BRANCH  12  13
ATOM     13  C   LIG d   1       5.951  -1.924  -5.889  0.00  0.00     0.082 C 
ATOM     14  H   LIG d   1       5.636  -2.954  -5.723  0.00  0.00     0.066 H 
ATOM     15  H   LIG d   1       5.137  -1.367  -6.355  0.00  0.00     0.066 H 
ATOM     16  H   LIG d   1       6.821  -1.911  -6.545  0.00  0.00     0.066 H 
ENDBRANCH  12  13
ENDBRANCH  10  12
ENDBRANCH   7  10
ENDBRANCH   1   7
BRANCH   1  17
ATOM     17  N   LIG d   1       4.062   0.623  -3.994  0.00  0.00     0.227 N 
ATOM     18  H   LIG d   1       4.588  -0.037  -4.579  0.00  0.00     0.201 HD
ATOM     19  H   LIG d   1       3.657   1.358  -4.585  0.00  0.00     0.201 HD
BRANCH  17  20
ATOM     20  C   LIG d   1       2.978  -0.098  -3.301  0.00  0.00    -0.045 C 
ATOM     21  H   LIG d   1       2.928   0.240  -2.266  0.00  0.00     0.078 H 
ATOM     22  H   LIG d   1       2.029   0.105  -3.796  0.00  0.00     0.078 H 
ATOM     23  H   LIG d   1       3.177  -1.170  -3.323  0.00  0.00     0.078 H 
ENDBRANCH  17  20
ENDBRANCH   1  17
TORSDOF 7
ENDMDL
