MODEL 1
REMARK VINA RESULT:      -6.6      0.000      0.000
REMARK  6 active torsions:
REMARK  status: ('A' for Active; 'I' for Inactive)
REMARK    1  A    between atoms: C_1  and  C_2 
REMARK    2  A    between atoms: C_5  and  O_33 
REMARK    3  A    between atoms: C_17  and  C_32 
REMARK    4  A    between atoms: C_22  and  C_23 
REMARK    5  A    between atoms: C_22  and  O_31 
REMARK    6  A    between atoms: C_24  and  C_25 
ROOT
ATOM      1  C   LIG d   1       3.276  -2.695 -12.655  0.00  0.00    -0.008 C 
ATOM      2  C   LIG d   1       4.257  -2.233 -13.725  0.00  0.00    -0.041 C 
ATOM      3  C   LIG d   1       3.514  -1.932 -15.027  0.00  0.00    -0.026 C 
ATOM      4  C   LIG d   1       2.621  -3.091 -15.455  0.00  0.00     0.059 C 
ATOM      5  H   LIG d   1       2.165  -2.852 -16.421  0.00  0.00     0.060 H 
ATOM      6  C   LIG d   1       1.511  -3.320 -14.422  0.00  0.00    -0.005 C 
ATOM      7  C   LIG d   1       1.870  -2.519 -13.181  0.00  0.00    -0.065 C 
ATOM      8  C   LIG d   1       0.976  -1.746 -12.647  0.00  0.00    -0.084 C 
ATOM      9  C   LIG d   1       1.243  -0.887 -11.435  0.00  0.00    -0.031 C 
ATOM     10  C   LIG d   1       2.746  -0.602 -11.421  0.00  0.00    -0.030 C 
ATOM     11  H   LIG d   1       3.008  -0.142 -12.394  0.00  0.00     0.031 H 
ATOM     12  C   LIG d   1       3.461  -1.958 -11.337  0.00  0.00    -0.029 C 
ATOM     13  H   LIG d   1       2.984  -2.576 -10.571  0.00  0.00     0.031 H 
ATOM     14  C   LIG d   1       4.922  -1.741 -10.975  0.00  0.00    -0.049 C 
ATOM     15  C   LIG d   1       5.058  -1.205  -9.541  0.00  0.00    -0.043 C 
ATOM     16  C   LIG d   1       3.829  -0.438  -9.130  0.00  0.00     0.011 C 
ATOM     17  C   LIG d   1       3.201   0.307 -10.327  0.00  0.00    -0.029 C 
ATOM     18  H   LIG d   1       3.957   1.007 -10.739  0.00  0.00     0.031 H 
ATOM     19  C   LIG d   1       2.126   1.157  -9.627  0.00  0.00    -0.046 C 
ATOM     20  C   LIG d   1       2.888   1.689  -8.379  0.00  0.00    -0.012 C 
ATOM     21  C   LIG d   1       4.101   0.745  -8.175  0.00  0.00     0.132 C 
ATOM     22  H   LIG d   1       4.996  -3.015 -13.904  0.00  0.00     0.027 H 
ATOM     23  H   LIG d   1       4.769  -1.330 -13.392  0.00  0.00     0.027 H 
ATOM     24  H   LIG d   1       4.248  -1.740 -15.814  0.00  0.00     0.029 H 
ATOM     25  H   LIG d   1       2.906  -1.037 -14.893  0.00  0.00     0.029 H 
ATOM     26  H   LIG d   1       1.425  -4.379 -14.184  0.00  0.00     0.034 H 
ATOM     27  H   LIG d   1       0.558  -2.964 -14.823  0.00  0.00     0.034 H 
ATOM     28  H   LIG d   1      -0.007  -1.714 -13.086  0.00  0.00     0.057 H 
ATOM     29  H   LIG d   1       0.947  -1.424 -10.540  0.00  0.00     0.031 H 
ATOM     30  H   LIG d   1       0.687   0.043 -11.523  0.00  0.00     0.031 H 
ATOM     31  H   LIG d   1       5.471  -2.682 -11.058  0.00  0.00     0.027 H 
ATOM     32  H   LIG d   1       5.369  -1.020 -11.666  0.00  0.00     0.027 H 
ATOM     33  H   LIG d   1       5.944  -0.563  -9.483  0.00  0.00     0.027 H 
ATOM     34  H   LIG d   1       5.213  -2.049  -8.856  0.00  0.00     0.027 H 
ATOM     35  H   LIG d   1       1.830   1.990 -10.268  0.00  0.00     0.027 H 
ATOM     36  H   LIG d   1       1.263   0.569  -9.345  0.00  0.00     0.027 H 
ATOM     37  H   LIG d   1       3.230   2.707  -8.557  0.00  0.00     0.030 H 
ATOM     38  H   LIG d   1       2.239   1.655  -7.505  0.00  0.00     0.030 H 
ENDROOT
BRANCH  21  39
ATOM     39  C   LIG d   1       4.154   0.265  -6.789  0.00  0.00    -0.062 C 
ATOM     40  C   LIG d   1       4.197  -0.117  -5.680  0.00  0.00    -0.063 C 
BRANCH  40  41
ATOM     41  C   LIG d   1       4.248  -0.585  -4.327  0.00  0.00     0.025 A 
ATOM     42  C   LIG d   1       4.074  -1.941  -4.046  0.00  0.00    -0.046 A 
ATOM     43  C   LIG d   1       4.127  -2.385  -2.742  0.00  0.00    -0.061 A 
ATOM     44  H   LIG d   1       3.899  -2.641  -4.850  0.00  0.00     0.063 H 
ATOM     45  C   LIG d   1       4.351  -1.489  -1.711  0.00  0.00    -0.062 A 
ATOM     46  H   LIG d   1       3.992  -3.434  -2.524  0.00  0.00     0.062 H 
ATOM     47  C   LIG d   1       4.524  -0.143  -1.982  0.00  0.00    -0.061 A 
ATOM     48  H   LIG d   1       4.390  -1.841  -0.691  0.00  0.00     0.062 H 
ATOM     49  C   LIG d   1       4.480   0.312  -3.284  0.00  0.00    -0.046 A 
ATOM     50  H   LIG d   1       4.697   0.551  -1.174  0.00  0.00     0.062 H 
ATOM     51  H   LIG d   1       4.620   1.362  -3.494  0.00  0.00     0.063 H 
ENDBRANCH  40  41
ENDBRANCH  21  39
BRANCH  21  52
ATOM     52  O   LIG d   1       5.311   1.405  -8.535  0.00  0.00    -0.376 OA
ATOM     53  H   LIG d   1       5.804   1.760  -7.784  0.00  0.00     0.211 HD
ENDBRANCH  21  52
BRANCH  16  54
ATOM     54  C   LIG d   1       2.827  -1.354  -8.419  0.00  0.00    -0.056 C 
ATOM     55  H   LIG d   1       2.096  -1.720  -9.139  0.00  0.00     0.024 H 
ATOM     56  H   LIG d   1       3.357  -2.197  -7.978  0.00  0.00     0.024 H 
ATOM     57  H   LIG d   1       2.318  -0.795  -7.635  0.00  0.00     0.024 H 
ENDBRANCH  16  54
BRANCH   1  58
ATOM     58  C   LIG d   1       3.507  -4.188 -12.391  0.00  0.00    -0.056 C 
ATOM     59  H   LIG d   1       2.614  -4.748 -12.665  0.00  0.00     0.024 H 
ATOM     60  H   LIG d   1       4.351  -4.535 -12.988  0.00  0.00     0.024 H 
ATOM     61  H   LIG d   1       3.722  -4.342 -11.333  0.00  0.00     0.024 H 
ENDBRANCH   1  58
BRANCH   4  62
ATOM     62  O   LIG d   1       3.403  -4.278 -15.597  0.00  0.00    -0.392 OA
ATOM     63  H   LIG d   1       4.341  -4.113 -15.767  0.00  0.00     0.210 HD
ENDBRANCH   4  62
TORSDOF 6
ENDMDL
MODEL 2
REMARK VINA RESULT:      -6.5      7.909     10.518
REMARK  6 active torsions:
REMARK  status: ('A' for Active; 'I' for Inactive)
REMARK    1  A    between atoms: C_1  and  C_2 
REMARK    2  A    between atoms: C_5  and  O_33 
REMARK    3  A    between atoms: C_17  and  C_32 
REMARK    4  A    between atoms: C_22  and  C_23 
REMARK    5  A    between atoms: C_22  and  O_31 
REMARK    6  A    between atoms: C_24  and  C_25 
ROOT
ATOM      1  C   LIG d   1      10.283   6.895  -7.582  0.00  0.00    -0.008 C 
ATOM      2  C   LIG d   1      11.123   6.645  -8.829  0.00  0.00    -0.041 C 
ATOM      3  C   LIG d   1      12.309   7.608  -8.868  0.00  0.00    -0.026 C 
ATOM      4  C   LIG d   1      11.873   9.058  -8.687  0.00  0.00     0.059 C 
ATOM      5  H   LIG d   1      12.746   9.709  -8.789  0.00  0.00     0.060 H 
ATOM      6  C   LIG d   1      11.256   9.262  -7.298  0.00  0.00    -0.005 C 
ATOM      7  C   LIG d   1      11.011   7.885  -6.702  0.00  0.00    -0.065 C 
ATOM      8  C   LIG d   1      11.425   7.636  -5.498  0.00  0.00    -0.084 C 
ATOM      9  C   LIG d   1      11.258   6.292  -4.829  0.00  0.00    -0.031 C 
ATOM     10  C   LIG d   1      11.183   5.251  -5.946  0.00  0.00    -0.030 C 
ATOM     11  H   LIG d   1      12.093   5.360  -6.568  0.00  0.00     0.031 H 
ATOM     12  C   LIG d   1       9.974   5.615  -6.821  0.00  0.00    -0.029 C 
ATOM     13  H   LIG d   1       9.115   5.839  -6.182  0.00  0.00     0.031 H 
ATOM     14  C   LIG d   1       9.635   4.446  -7.733  0.00  0.00    -0.049 C 
ATOM     15  C   LIG d   1       9.110   3.251  -6.921  0.00  0.00    -0.043 C 
ATOM     16  C   LIG d   1       9.659   3.265  -5.519  0.00  0.00     0.011 C 
ATOM     17  C   LIG d   1      11.093   3.835  -5.479  0.00  0.00    -0.029 C 
ATOM     18  H   LIG d   1      11.739   3.207  -6.126  0.00  0.00     0.031 H 
ATOM     19  C   LIG d   1      11.493   3.551  -4.021  0.00  0.00    -0.046 C 
ATOM     20  C   LIG d   1      10.964   2.102  -3.810  0.00  0.00    -0.012 C 
ATOM     21  C   LIG d   1       9.898   1.865  -4.910  0.00  0.00     0.132 C 
ATOM     22  H   LIG d   1      10.507   6.794  -9.717  0.00  0.00     0.027 H 
ATOM     23  H   LIG d   1      11.497   5.622  -8.822  0.00  0.00     0.027 H 
ATOM     24  H   LIG d   1      12.812   7.506  -9.833  0.00  0.00     0.029 H 
ATOM     25  H   LIG d   1      13.012   7.342  -8.079  0.00  0.00     0.029 H 
ATOM     26  H   LIG d   1      10.325   9.820  -7.373  0.00  0.00     0.034 H 
ATOM     27  H   LIG d   1      11.957   9.814  -6.665  0.00  0.00     0.034 H 
ATOM     28  H   LIG d   1      11.910   8.422  -4.945  0.00  0.00     0.057 H 
ATOM     29  H   LIG d   1      10.344   6.292  -4.243  0.00  0.00     0.031 H 
ATOM     30  H   LIG d   1      12.118   6.098  -4.193  0.00  0.00     0.031 H 
ATOM     31  H   LIG d   1       8.876   4.746  -8.459  0.00  0.00     0.027 H 
ATOM     32  H   LIG d   1      10.530   4.136  -8.280  0.00  0.00     0.027 H 
ATOM     33  H   LIG d   1       9.391   2.322  -7.431  0.00  0.00     0.027 H 
ATOM     34  H   LIG d   1       8.013   3.295  -6.889  0.00  0.00     0.027 H 
ATOM     35  H   LIG d   1      12.580   3.571  -3.919  0.00  0.00     0.027 H 
ATOM     36  H   LIG d   1      11.034   4.245  -3.329  0.00  0.00     0.027 H 
ATOM     37  H   LIG d   1      11.779   1.389  -3.918  0.00  0.00     0.030 H 
ATOM     38  H   LIG d   1      10.510   2.012  -2.825  0.00  0.00     0.030 H 
ENDROOT
BRANCH  21  39
ATOM     39  C   LIG d   1       8.653   1.359  -4.321  0.00  0.00    -0.062 C 
ATOM     40  C   LIG d   1       7.657   0.952  -3.849  0.00  0.00    -0.063 C 
BRANCH  40  41
ATOM     41  C   LIG d   1       6.443   0.458  -3.273  0.00  0.00     0.025 A 
ATOM     42  C   LIG d   1       6.189  -0.915  -3.243  0.00  0.00    -0.046 A 
ATOM     43  C   LIG d   1       5.018  -1.385  -2.686  0.00  0.00    -0.061 A 
ATOM     44  H   LIG d   1       6.910  -1.606  -3.654  0.00  0.00     0.063 H 
ATOM     45  C   LIG d   1       4.095  -0.499  -2.159  0.00  0.00    -0.062 A 
ATOM     46  H   LIG d   1       4.821  -2.446  -2.662  0.00  0.00     0.062 H 
ATOM     47  C   LIG d   1       4.340   0.863  -2.186  0.00  0.00    -0.061 A 
ATOM     48  H   LIG d   1       3.179  -0.872  -1.724  0.00  0.00     0.062 H 
ATOM     49  C   LIG d   1       5.510   1.345  -2.735  0.00  0.00    -0.046 A 
ATOM     50  H   LIG d   1       3.615   1.549  -1.774  0.00  0.00     0.062 H 
ATOM     51  H   LIG d   1       5.702   2.407  -2.751  0.00  0.00     0.063 H 
ENDBRANCH  40  41
ENDBRANCH  21  39
BRANCH  21  52
ATOM     52  O   LIG d   1      10.396   0.971  -5.902  0.00  0.00    -0.376 OA
ATOM     53  H   LIG d   1       9.955   0.111  -5.913  0.00  0.00     0.211 HD
ENDBRANCH  21  52
BRANCH  16  54
ATOM     54  C   LIG d   1       8.709   4.000  -4.569  0.00  0.00    -0.056 C 
ATOM     55  H   LIG d   1       9.260   4.332  -3.690  0.00  0.00     0.024 H 
ATOM     56  H   LIG d   1       8.283   4.863  -5.079  0.00  0.00     0.024 H 
ATOM     57  H   LIG d   1       7.908   3.326  -4.264  0.00  0.00     0.024 H 
ENDBRANCH  16  54
BRANCH   1  58
ATOM     58  C   LIG d   1       8.949   7.520  -8.007  0.00  0.00    -0.056 C 
ATOM     59  H   LIG d   1       8.212   7.375  -7.218  0.00  0.00     0.024 H 
ATOM     60  H   LIG d   1       9.088   8.587  -8.182  0.00  0.00     0.024 H 
ATOM     61  H   LIG d   1       8.600   7.044  -8.923  0.00  0.00     0.024 H 
ENDBRANCH   1  58
BRANCH   4  62
ATOM     62  O   LIG d   1      10.921   9.406  -9.695  0.00  0.00    -0.392 OA
ATOM     63  H   LIG d   1      10.038   9.598  -9.352  0.00  0.00     0.210 HD
ENDBRANCH   4  62
TORSDOF 6
ENDMDL
MODEL 3
REMARK VINA RESULT:      -6.4      8.055     12.373
REMARK  6 active torsions:
REMARK  status: ('A' for Active; 'I' for Inactive)
REMARK    1  A    between atoms: C_1  and  C_2 
REMARK    2  A    between atoms: C_5  and  O_33 
REMARK    3  A    between atoms: C_17  and  C_32 
REMARK    4  A    between atoms: C_22  and  C_23 
REMARK    5  A    between atoms: C_22  and  O_31 
REMARK    6  A    between atoms: C_24  and  C_25 
ROOT
ATOM      1  C   LIG d   1      12.179   6.814  -3.299  0.00  0.00    -0.008 C 
ATOM      2  C   LIG d   1      12.343   7.761  -4.482  0.00  0.00    -0.041 C 
ATOM      3  C   LIG d   1      13.817   8.118  -4.671  0.00  0.00    -0.026 C 
ATOM      4  C   LIG d   1      14.453   8.616  -3.378  0.00  0.00     0.059 C 
ATOM      5  H   LIG d   1      15.485   8.920  -3.582  0.00  0.00     0.060 H 
ATOM      6  C   LIG d   1      14.459   7.505  -2.322  0.00  0.00    -0.005 C 
ATOM      7  C   LIG d   1      13.551   6.394  -2.825  0.00  0.00    -0.065 C 
ATOM      8  C   LIG d   1      13.986   5.171  -2.820  0.00  0.00    -0.084 C 
ATOM      9  C   LIG d   1      13.175   4.004  -3.327  0.00  0.00    -0.031 C 
ATOM     10  C   LIG d   1      12.195   4.564  -4.359  0.00  0.00    -0.030 C 
ATOM     11  H   LIG d   1      12.787   5.099  -5.128  0.00  0.00     0.031 H 
ATOM     12  C   LIG d   1      11.324   5.602  -3.636  0.00  0.00    -0.029 C 
ATOM     13  H   LIG d   1      10.984   5.192  -2.681  0.00  0.00     0.031 H 
ATOM     14  C   LIG d   1      10.119   5.944  -4.498  0.00  0.00    -0.049 C 
ATOM     15  C   LIG d   1       9.170   4.740  -4.617  0.00  0.00    -0.043 C 
ATOM     16  C   LIG d   1       9.919   3.442  -4.460  0.00  0.00     0.011 C 
ATOM     17  C   LIG d   1      11.346   3.540  -5.039  0.00  0.00    -0.029 C 
ATOM     18  H   LIG d   1      11.272   3.800  -6.115  0.00  0.00     0.031 H 
ATOM     19  C   LIG d   1      11.810   2.076  -4.953  0.00  0.00    -0.046 C 
ATOM     20  C   LIG d   1      10.556   1.303  -5.455  0.00  0.00    -0.012 C 
ATOM     21  C   LIG d   1       9.357   2.273  -5.298  0.00  0.00     0.132 C 
ATOM     22  H   LIG d   1      11.770   8.672  -4.300  0.00  0.00     0.027 H 
ATOM     23  H   LIG d   1      11.974   7.284  -5.389  0.00  0.00     0.027 H 
ATOM     24  H   LIG d   1      13.894   8.902  -5.429  0.00  0.00     0.029 H 
ATOM     25  H   LIG d   1      14.356   7.240  -5.024  0.00  0.00     0.029 H 
ATOM     26  H   LIG d   1      14.106   7.886  -1.366  0.00  0.00     0.034 H 
ATOM     27  H   LIG d   1      15.475   7.119  -2.202  0.00  0.00     0.034 H 
ATOM     28  H   LIG d   1      14.972   4.976  -2.435  0.00  0.00     0.057 H 
ATOM     29  H   LIG d   1      12.640   3.549  -2.499  0.00  0.00     0.031 H 
ATOM     30  H   LIG d   1      13.838   3.281  -3.795  0.00  0.00     0.031 H 
ATOM     31  H   LIG d   1       9.574   6.785  -4.063  0.00  0.00     0.027 H 
ATOM     32  H   LIG d   1      10.452   6.231  -5.499  0.00  0.00     0.027 H 
ATOM     33  H   LIG d   1       8.670   4.775  -5.592  0.00  0.00     0.027 H 
ATOM     34  H   LIG d   1       8.396   4.816  -3.842  0.00  0.00     0.027 H 
ATOM     35  H   LIG d   1      12.649   1.908  -5.632  0.00  0.00     0.027 H 
ATOM     36  H   LIG d   1      12.075   1.790  -3.944  0.00  0.00     0.027 H 
ATOM     37  H   LIG d   1      10.681   1.028  -6.501  0.00  0.00     0.030 H 
ATOM     38  H   LIG d   1      10.399   0.414  -4.846  0.00  0.00     0.030 H 
ENDROOT
BRANCH  21  39
ATOM     39  C   LIG d   1       8.259   1.622  -4.572  0.00  0.00    -0.062 C 
ATOM     40  C   LIG d   1       7.381   1.103  -3.991  0.00  0.00    -0.063 C 
BRANCH  40  41
ATOM     41  C   LIG d   1       6.310   0.469  -3.283  0.00  0.00     0.025 A 
ATOM     42  C   LIG d   1       6.199  -0.922  -3.278  0.00  0.00    -0.046 A 
ATOM     43  C   LIG d   1       5.165  -1.527  -2.593  0.00  0.00    -0.061 A 
ATOM     44  H   LIG d   1       6.921  -1.524  -3.810  0.00  0.00     0.063 H 
ATOM     45  C   LIG d   1       4.239  -0.756  -1.911  0.00  0.00    -0.062 A 
ATOM     46  H   LIG d   1       5.078  -2.603  -2.589  0.00  0.00     0.062 H 
ATOM     47  C   LIG d   1       4.343   0.623  -1.912  0.00  0.00    -0.061 A 
ATOM     48  H   LIG d   1       3.431  -1.234  -1.377  0.00  0.00     0.062 H 
ATOM     49  C   LIG d   1       5.376   1.239  -2.589  0.00  0.00    -0.046 A 
ATOM     50  H   LIG d   1       3.617   1.219  -1.380  0.00  0.00     0.062 H 
ATOM     51  H   LIG d   1       5.459   2.316  -2.585  0.00  0.00     0.063 H 
ENDBRANCH  40  41
ENDBRANCH  21  39
BRANCH  21  52
ATOM     52  O   LIG d   1       8.923   2.739  -6.573  0.00  0.00    -0.376 OA
ATOM     53  H   LIG d   1       9.190   3.647  -6.771  0.00  0.00     0.211 HD
ENDBRANCH  21  52
BRANCH  16  54
ATOM     54  C   LIG d   1       9.909   2.981  -3.000  0.00  0.00    -0.056 C 
ATOM     55  H   LIG d   1       8.915   2.617  -2.741  0.00  0.00     0.024 H 
ATOM     56  H   LIG d   1      10.635   2.179  -2.868  0.00  0.00     0.024 H 
ATOM     57  H   LIG d   1      10.169   3.818  -2.353  0.00  0.00     0.024 H 
ENDBRANCH  16  54
BRANCH   1  58
ATOM     58  C   LIG d   1      11.488   7.571  -2.158  0.00  0.00    -0.056 C 
ATOM     59  H   LIG d   1      10.564   8.018  -2.525  0.00  0.00     0.024 H 
ATOM     60  H   LIG d   1      11.259   6.877  -1.349  0.00  0.00     0.024 H 
ATOM     61  H   LIG d   1      12.149   8.355  -1.788  0.00  0.00     0.024 H 
ENDBRANCH   1  58
BRANCH   4  62
ATOM     62  O   LIG d   1      13.730   9.748  -2.886  0.00  0.00    -0.392 OA
ATOM     63  H   LIG d   1      13.983  10.584  -3.299  0.00  0.00     0.210 HD
ENDBRANCH   4  62
TORSDOF 6
ENDMDL
MODEL 4
REMARK VINA RESULT:      -6.3      1.576      2.002
REMARK  6 active torsions:
REMARK  status: ('A' for Active; 'I' for Inactive)
REMARK    1  A    between atoms: C_1  and  C_2 
REMARK    2  A    between atoms: C_5  and  O_33 
REMARK    3  A    between atoms: C_17  and  C_32 
REMARK    4  A    between atoms: C_22  and  C_23 
REMARK    5  A    between atoms: C_22  and  O_31 
REMARK    6  A    between atoms: C_24  and  C_25 
ROOT
ATOM      1  C   LIG d   1       5.659  -1.883 -13.300  0.00  0.00    -0.008 C 
ATOM      2  C   LIG d   1       6.580  -0.924 -14.046  0.00  0.00    -0.041 C 
ATOM      3  C   LIG d   1       6.075  -0.713 -15.474  0.00  0.00    -0.026 C 
ATOM      4  C   LIG d   1       5.832  -2.035 -16.194  0.00  0.00     0.059 C 
ATOM      5  H   LIG d   1       5.537  -1.829 -17.227  0.00  0.00     0.060 H 
ATOM      6  C   LIG d   1       4.712  -2.822 -15.502  0.00  0.00    -0.005 C 
ATOM      7  C   LIG d   1       4.448  -2.156 -14.162  0.00  0.00    -0.065 C 
ATOM      8  C   LIG d   1       3.228  -1.866 -13.830  0.00  0.00    -0.084 C 
ATOM      9  C   LIG d   1       2.864  -1.177 -12.537  0.00  0.00    -0.031 C 
ATOM     10  C   LIG d   1       4.088  -0.362 -12.114  0.00  0.00    -0.030 C 
ATOM     11  H   LIG d   1       4.348   0.312 -12.953  0.00  0.00     0.031 H 
ATOM     12  C   LIG d   1       5.248  -1.353 -11.935  0.00  0.00    -0.029 C 
ATOM     13  H   LIG d   1       4.904  -2.218 -11.361  0.00  0.00     0.031 H 
ATOM     14  C   LIG d   1       6.387  -0.673 -11.192  0.00  0.00    -0.049 C 
ATOM     15  C   LIG d   1       5.988  -0.364  -9.740  0.00  0.00    -0.043 C 
ATOM     16  C   LIG d   1       4.498  -0.182  -9.614  0.00  0.00     0.011 C 
ATOM     17  C   LIG d   1       3.898   0.461 -10.882  0.00  0.00    -0.029 C 
ATOM     18  H   LIG d   1       4.382   1.448 -11.038  0.00  0.00     0.031 H 
ATOM     19  C   LIG d   1       2.451   0.728 -10.433  0.00  0.00    -0.046 C 
ATOM     20  C   LIG d   1       2.651   1.295  -8.998  0.00  0.00    -0.012 C 
ATOM     21  C   LIG d   1       4.065   0.847  -8.547  0.00  0.00     0.132 C 
ATOM     22  H   LIG d   1       7.588  -1.339 -14.077  0.00  0.00     0.027 H 
ATOM     23  H   LIG d   1       6.605   0.037 -13.533  0.00  0.00     0.027 H 
ATOM     24  H   LIG d   1       6.822  -0.139 -16.028  0.00  0.00     0.029 H 
ATOM     25  H   LIG d   1       5.149  -0.141 -15.445  0.00  0.00     0.029 H 
ATOM     26  H   LIG d   1       5.006  -3.861 -15.365  0.00  0.00     0.034 H 
ATOM     27  H   LIG d   1       3.806  -2.783 -16.114  0.00  0.00     0.034 H 
ATOM     28  H   LIG d   1       2.432  -2.128 -14.507  0.00  0.00     0.057 H 
ATOM     29  H   LIG d   1       2.622  -1.922 -11.787  0.00  0.00     0.031 H 
ATOM     30  H   LIG d   1       2.017  -0.517 -12.706  0.00  0.00     0.031 H 
ATOM     31  H   LIG d   1       7.270  -1.317 -11.189  0.00  0.00     0.027 H 
ATOM     32  H   LIG d   1       6.647   0.263 -11.694  0.00  0.00     0.027 H 
ATOM     33  H   LIG d   1       6.511   0.542  -9.412  0.00  0.00     0.027 H 
ATOM     34  H   LIG d   1       6.315  -1.189  -9.095  0.00  0.00     0.027 H 
ATOM     35  H   LIG d   1       1.993   1.485 -11.074  0.00  0.00     0.027 H 
ATOM     36  H   LIG d   1       1.854  -0.174 -10.424  0.00  0.00     0.027 H 
ATOM     37  H   LIG d   1       2.589   2.382  -9.014  0.00  0.00     0.030 H 
ATOM     38  H   LIG d   1       1.898   0.883  -8.328  0.00  0.00     0.030 H 
ENDROOT
BRANCH  21  39
ATOM     39  C   LIG d   1       4.007   0.203  -7.229  0.00  0.00    -0.062 C 
ATOM     40  C   LIG d   1       3.959  -0.312  -6.175  0.00  0.00    -0.063 C 
BRANCH  40  41
ATOM     41  C   LIG d   1       3.901  -0.940  -4.889  0.00  0.00     0.025 A 
ATOM     42  C   LIG d   1       4.672  -2.073  -4.627  0.00  0.00    -0.046 A 
ATOM     43  C   LIG d   1       4.613  -2.673  -3.386  0.00  0.00    -0.061 A 
ATOM     44  H   LIG d   1       5.314  -2.479  -5.395  0.00  0.00     0.063 H 
ATOM     45  C   LIG d   1       3.790  -2.153  -2.402  0.00  0.00    -0.062 A 
ATOM     46  H   LIG d   1       5.209  -3.550  -3.183  0.00  0.00     0.062 H 
ATOM     47  C   LIG d   1       3.023  -1.030  -2.655  0.00  0.00    -0.061 A 
ATOM     48  H   LIG d   1       3.747  -2.626  -1.432  0.00  0.00     0.062 H 
ATOM     49  C   LIG d   1       3.078  -0.418  -3.890  0.00  0.00    -0.046 A 
ATOM     50  H   LIG d   1       2.383  -0.630  -1.884  0.00  0.00     0.062 H 
ATOM     51  H   LIG d   1       2.482   0.462  -4.085  0.00  0.00     0.063 H 
ENDBRANCH  40  41
ENDBRANCH  21  39
BRANCH  21  52
ATOM     52  O   LIG d   1       4.959   1.956  -8.536  0.00  0.00    -0.376 OA
ATOM     53  H   LIG d   1       4.723   2.646  -7.902  0.00  0.00     0.211 HD
ENDBRANCH  21  52
BRANCH  16  54
ATOM     54  C   LIG d   1       3.817  -1.505  -9.250  0.00  0.00    -0.056 C 
ATOM     55  H   LIG d   1       4.150  -2.285  -9.934  0.00  0.00     0.024 H 
ATOM     56  H   LIG d   1       4.081  -1.779  -8.229  0.00  0.00     0.024 H 
ATOM     57  H   LIG d   1       2.736  -1.390  -9.327  0.00  0.00     0.024 H 
ENDBRANCH  16  54
BRANCH   1  58
ATOM     58  C   LIG d   1       6.403  -3.206 -13.083  0.00  0.00    -0.056 C 
ATOM     59  H   LIG d   1       6.762  -3.257 -12.056  0.00  0.00     0.024 H 
ATOM     60  H   LIG d   1       5.724  -4.039 -13.273  0.00  0.00     0.024 H 
ATOM     61  H   LIG d   1       7.249  -3.265 -13.768  0.00  0.00     0.024 H 
ENDBRANCH   1  58
BRANCH   4  62
ATOM     62  O   LIG d   1       7.033  -2.810 -16.204  0.00  0.00    -0.392 OA
ATOM     63  H   LIG d   1       7.475  -2.861 -15.346  0.00  0.00     0.210 HD
ENDBRANCH   4  62
TORSDOF 6
ENDMDL
MODEL 5
REMARK VINA RESULT:      -6.1      6.331      8.122
REMARK  6 active torsions:
REMARK  status: ('A' for Active; 'I' for Inactive)
REMARK    1  A    between atoms: C_1  and  C_2 
REMARK    2  A    between atoms: C_5  and  O_33 
REMARK    3  A    between atoms: C_17  and  C_32 
REMARK    4  A    between atoms: C_22  and  C_23 
REMARK    5  A    between atoms: C_22  and  O_31 
REMARK    6  A    between atoms: C_24  and  C_25 
ROOT
ATOM      1  C   LIG d   1       5.998  -9.542  -5.685  0.00  0.00    -0.008 C 
ATOM      2  C   LIG d   1       7.312 -10.238  -6.017  0.00  0.00    -0.041 C 
ATOM      3  C   LIG d   1       7.094 -11.280  -7.113  0.00  0.00    -0.026 C 
ATOM      4  C   LIG d   1       5.950 -12.231  -6.778  0.00  0.00     0.059 C 
ATOM      5  H   LIG d   1       5.879 -12.994  -7.559  0.00  0.00     0.060 H 
ATOM      6  C   LIG d   1       4.624 -11.465  -6.705  0.00  0.00    -0.005 C 
ATOM      7  C   LIG d   1       4.953  -9.982  -6.685  0.00  0.00    -0.065 C 
ATOM      8  C   LIG d   1       4.337  -9.187  -7.504  0.00  0.00    -0.084 C 
ATOM      9  C   LIG d   1       4.615  -7.705  -7.584  0.00  0.00    -0.031 C 
ATOM     10  C   LIG d   1       6.054  -7.502  -7.106  0.00  0.00    -0.030 C 
ATOM     11  H   LIG d   1       6.708  -8.141  -7.732  0.00  0.00     0.031 H 
ATOM     12  C   LIG d   1       6.129  -8.027  -5.665  0.00  0.00    -0.029 C 
ATOM     13  H   LIG d   1       5.274  -7.652  -5.095  0.00  0.00     0.031 H 
ATOM     14  C   LIG d   1       7.418  -7.548  -5.016  0.00  0.00    -0.049 C 
ATOM     15  C   LIG d   1       7.398  -6.025  -4.813  0.00  0.00    -0.043 C 
ATOM     16  C   LIG d   1       6.513  -5.354  -5.831  0.00  0.00     0.011 C 
ATOM     17  C   LIG d   1       6.548  -6.094  -7.185  0.00  0.00    -0.029 C 
ATOM     18  H   LIG d   1       7.595  -6.106  -7.551  0.00  0.00     0.031 H 
ATOM     19  C   LIG d   1       5.761  -5.123  -8.083  0.00  0.00    -0.046 C 
ATOM     20  C   LIG d   1       6.338  -3.742  -7.659  0.00  0.00    -0.012 C 
ATOM     21  C   LIG d   1       6.987  -3.950  -6.268  0.00  0.00     0.132 C 
ATOM     22  H   LIG d   1       7.699 -10.729  -5.123  0.00  0.00     0.027 H 
ATOM     23  H   LIG d   1       8.040  -9.505  -6.364  0.00  0.00     0.027 H 
ATOM     24  H   LIG d   1       8.013 -11.860  -7.234  0.00  0.00     0.029 H 
ATOM     25  H   LIG d   1       6.878 -10.772  -8.053  0.00  0.00     0.029 H 
ATOM     26  H   LIG d   1       4.070 -11.748  -5.811  0.00  0.00     0.034 H 
ATOM     27  H   LIG d   1       4.021 -11.693  -7.589  0.00  0.00     0.034 H 
ATOM     28  H   LIG d   1       3.589  -9.599  -8.159  0.00  0.00     0.057 H 
ATOM     29  H   LIG d   1       3.920  -7.172  -6.943  0.00  0.00     0.031 H 
ATOM     30  H   LIG d   1       4.513  -7.374  -8.615  0.00  0.00     0.031 H 
ATOM     31  H   LIG d   1       7.551  -8.035  -4.047  0.00  0.00     0.027 H 
ATOM     32  H   LIG d   1       8.269  -7.809  -5.651  0.00  0.00     0.027 H 
ATOM     33  H   LIG d   1       8.422  -5.641  -4.887  0.00  0.00     0.027 H 
ATOM     34  H   LIG d   1       7.031  -5.802  -3.802  0.00  0.00     0.027 H 
ATOM     35  H   LIG d   1       5.987  -5.318  -9.134  0.00  0.00     0.027 H 
ATOM     36  H   LIG d   1       4.695  -5.179  -7.907  0.00  0.00     0.027 H 
ATOM     37  H   LIG d   1       7.088  -3.415  -8.378  0.00  0.00     0.030 H 
ATOM     38  H   LIG d   1       5.536  -3.009  -7.591  0.00  0.00     0.030 H 
ENDROOT
BRANCH  21  39
ATOM     39  C   LIG d   1       6.503  -2.942  -5.316  0.00  0.00    -0.062 C 
ATOM     40  C   LIG d   1       6.114  -2.137  -4.556  0.00  0.00    -0.063 C 
BRANCH  40  41
ATOM     41  C   LIG d   1       5.641  -1.153  -3.628  0.00  0.00     0.025 A 
ATOM     42  C   LIG d   1       6.046   0.177  -3.749  0.00  0.00    -0.046 A 
ATOM     43  C   LIG d   1       5.585   1.119  -2.853  0.00  0.00    -0.061 A 
ATOM     44  H   LIG d   1       6.718   0.467  -4.543  0.00  0.00     0.063 H 
ATOM     45  C   LIG d   1       4.724   0.748  -1.835  0.00  0.00    -0.062 A 
ATOM     46  H   LIG d   1       5.898   2.148  -2.946  0.00  0.00     0.062 H 
ATOM     47  C   LIG d   1       4.319  -0.569  -1.710  0.00  0.00    -0.061 A 
ATOM     48  H   LIG d   1       4.367   1.489  -1.136  0.00  0.00     0.062 H 
ATOM     49  C   LIG d   1       4.768  -1.520  -2.604  0.00  0.00    -0.046 A 
ATOM     50  H   LIG d   1       3.648  -0.853  -0.913  0.00  0.00     0.062 H 
ATOM     51  H   LIG d   1       4.447  -2.547  -2.507  0.00  0.00     0.063 H 
ENDBRANCH  40  41
ENDBRANCH  21  39
BRANCH  21  52
ATOM     52  O   LIG d   1       8.408  -3.917  -6.370  0.00  0.00    -0.376 OA
ATOM     53  H   LIG d   1       8.743  -4.103  -7.257  0.00  0.00     0.211 HD
ENDBRANCH  21  52
BRANCH  16  54
ATOM     54  C   LIG d   1       5.090  -5.188  -5.291  0.00  0.00    -0.056 C 
ATOM     55  H   LIG d   1       4.847  -4.127  -5.229  0.00  0.00     0.024 H 
ATOM     56  H   LIG d   1       4.387  -5.683  -5.960  0.00  0.00     0.024 H 
ATOM     57  H   LIG d   1       5.024  -5.635  -4.299  0.00  0.00     0.024 H 
ENDBRANCH  16  54
BRANCH   1  58
ATOM     58  C   LIG d   1       5.545  -9.990  -4.290  0.00  0.00    -0.056 C 
ATOM     59  H   LIG d   1       4.511 -10.328  -4.334  0.00  0.00     0.024 H 
ATOM     60  H   LIG d   1       6.181 -10.807  -3.947  0.00  0.00     0.024 H 
ATOM     61  H   LIG d   1       5.624  -9.153  -3.595  0.00  0.00     0.024 H 
ENDBRANCH   1  58
BRANCH   4  62
ATOM     62  O   LIG d   1       6.207 -12.875  -5.528  0.00  0.00    -0.392 OA
ATOM     63  H   LIG d   1       6.276 -12.268  -4.779  0.00  0.00     0.210 HD
ENDBRANCH   4  62
TORSDOF 6
ENDMDL
MODEL 6
REMARK VINA RESULT:      -5.9      1.909      8.858
REMARK  6 active torsions:
REMARK  status: ('A' for Active; 'I' for Inactive)
REMARK    1  A    between atoms: C_1  and  C_2 
REMARK    2  A    between atoms: C_5  and  O_33 
REMARK    3  A    between atoms: C_17  and  C_32 
REMARK    4  A    between atoms: C_22  and  C_23 
REMARK    5  A    between atoms: C_22  and  O_31 
REMARK    6  A    between atoms: C_24  and  C_25 
ROOT
ATOM      1  C   LIG d   1       3.960  -0.582  -4.707  0.00  0.00    -0.008 C 
ATOM      2  C   LIG d   1       4.982   0.460  -4.271  0.00  0.00    -0.041 C 
ATOM      3  C   LIG d   1       5.734  -0.025  -3.031  0.00  0.00    -0.026 C 
ATOM      4  C   LIG d   1       4.783  -0.470  -1.926  0.00  0.00     0.059 C 
ATOM      5  H   LIG d   1       5.366  -0.743  -1.042  0.00  0.00     0.060 H 
ATOM      6  C   LIG d   1       3.965  -1.684  -2.380  0.00  0.00    -0.005 C 
ATOM      7  C   LIG d   1       4.162  -1.831  -3.880  0.00  0.00    -0.065 C 
ATOM      8  C   LIG d   1       4.483  -2.991  -4.365  0.00  0.00    -0.084 C 
ATOM      9  C   LIG d   1       4.732  -3.232  -5.835  0.00  0.00    -0.031 C 
ATOM     10  C   LIG d   1       5.181  -1.896  -6.430  0.00  0.00    -0.030 C 
ATOM     11  H   LIG d   1       6.060  -1.551  -5.851  0.00  0.00     0.031 H 
ATOM     12  C   LIG d   1       4.042  -0.893  -6.194  0.00  0.00    -0.029 C 
ATOM     13  H   LIG d   1       3.088  -1.353  -6.464  0.00  0.00     0.031 H 
ATOM     14  C   LIG d   1       4.268   0.343  -7.050  0.00  0.00    -0.049 C 
ATOM     15  C   LIG d   1       4.114   0.012  -8.543  0.00  0.00    -0.043 C 
ATOM     16  C   LIG d   1       4.440  -1.434  -8.814  0.00  0.00     0.011 C 
ATOM     17  C   LIG d   1       5.552  -1.948  -7.876  0.00  0.00    -0.029 C 
ATOM     18  H   LIG d   1       6.458  -1.326  -8.031  0.00  0.00     0.031 H 
ATOM     19  C   LIG d   1       5.841  -3.334  -8.477  0.00  0.00    -0.046 C 
ATOM     20  C   LIG d   1       5.852  -3.035 -10.004  0.00  0.00    -0.012 C 
ATOM     21  C   LIG d   1       5.091  -1.697 -10.190  0.00  0.00     0.132 C 
ATOM     22  H   LIG d   1       4.472   1.396  -4.041  0.00  0.00     0.027 H 
ATOM     23  H   LIG d   1       5.698   0.634  -5.074  0.00  0.00     0.027 H 
ATOM     24  H   LIG d   1       6.357   0.791  -2.656  0.00  0.00     0.029 H 
ATOM     25  H   LIG d   1       6.381  -0.857  -3.308  0.00  0.00     0.029 H 
ATOM     26  H   LIG d   1       2.912  -1.545  -2.143  0.00  0.00     0.034 H 
ATOM     27  H   LIG d   1       4.332  -2.582  -1.875  0.00  0.00     0.034 H 
ATOM     28  H   LIG d   1       4.577  -3.824  -3.690  0.00  0.00     0.057 H 
ATOM     29  H   LIG d   1       3.814  -3.572  -6.304  0.00  0.00     0.031 H 
ATOM     30  H   LIG d   1       5.517  -3.976  -5.949  0.00  0.00     0.031 H 
ATOM     31  H   LIG d   1       3.549   1.121  -6.781  0.00  0.00     0.027 H 
ATOM     32  H   LIG d   1       5.276   0.731  -6.876  0.00  0.00     0.027 H 
ATOM     33  H   LIG d   1       4.775   0.666  -9.124  0.00  0.00     0.027 H 
ATOM     34  H   LIG d   1       3.082   0.222  -8.852  0.00  0.00     0.027 H 
ATOM     35  H   LIG d   1       6.825  -3.684  -8.158  0.00  0.00     0.027 H 
ATOM     36  H   LIG d   1       5.079  -4.057  -8.220  0.00  0.00     0.027 H 
ATOM     37  H   LIG d   1       6.877  -2.936 -10.358  0.00  0.00     0.030 H 
ATOM     38  H   LIG d   1       5.341  -3.832 -10.542  0.00  0.00     0.030 H 
ENDROOT
BRANCH  21  39
ATOM     39  C   LIG d   1       4.051  -1.833 -11.217  0.00  0.00    -0.062 C 
ATOM     40  C   LIG d   1       3.219  -1.943 -12.038  0.00  0.00    -0.063 C 
BRANCH  40  41
ATOM     41  C   LIG d   1       2.205  -2.076 -13.040  0.00  0.00     0.025 A 
ATOM     42  C   LIG d   1       0.858  -2.101 -12.675  0.00  0.00    -0.046 A 
ATOM     43  C   LIG d   1      -0.115  -2.229 -13.645  0.00  0.00    -0.061 A 
ATOM     44  H   LIG d   1       0.578  -2.021 -11.635  0.00  0.00     0.063 H 
ATOM     45  C   LIG d   1       0.243  -2.332 -14.978  0.00  0.00    -0.062 A 
ATOM     46  H   LIG d   1      -1.157  -2.249 -13.363  0.00  0.00     0.062 H 
ATOM     47  C   LIG d   1       1.576  -2.307 -15.347  0.00  0.00    -0.061 A 
ATOM     48  H   LIG d   1      -0.522  -2.432 -15.734  0.00  0.00     0.062 H 
ATOM     49  C   LIG d   1       2.558  -2.174 -14.386  0.00  0.00    -0.046 A 
ATOM     50  H   LIG d   1       1.849  -2.389 -16.388  0.00  0.00     0.062 H 
ATOM     51  H   LIG d   1       3.598  -2.151 -14.676  0.00  0.00     0.063 H 
ENDBRANCH  40  41
ENDBRANCH  21  39
BRANCH  21  52
ATOM     52  O   LIG d   1       6.000  -0.649 -10.517  0.00  0.00    -0.376 OA
ATOM     53  H   LIG d   1       6.563  -0.840 -11.278  0.00  0.00     0.211 HD
ENDBRANCH  21  52
BRANCH  16  54
ATOM     54  C   LIG d   1       3.177  -2.297  -8.755  0.00  0.00    -0.056 C 
ATOM     55  H   LIG d   1       3.377  -3.265  -9.213  0.00  0.00     0.024 H 
ATOM     56  H   LIG d   1       2.884  -2.440  -7.715  0.00  0.00     0.024 H 
ATOM     57  H   LIG d   1       2.371  -1.799  -9.294  0.00  0.00     0.024 H 
ENDBRANCH  16  54
BRANCH   1  58
ATOM     58  C   LIG d   1       2.554  -0.039  -4.421  0.00  0.00    -0.056 C 
ATOM     59  H   LIG d   1       2.437   0.118  -3.349  0.00  0.00     0.024 H 
ATOM     60  H   LIG d   1       2.418   0.908  -4.944  0.00  0.00     0.024 H 
ATOM     61  H   LIG d   1       1.810  -0.756  -4.767  0.00  0.00     0.024 H 
ENDBRANCH   1  58
BRANCH   4  62
ATOM     62  O   LIG d   1       3.904   0.604  -1.581  0.00  0.00    -0.392 OA
ATOM     63  H   LIG d   1       3.051   0.574  -2.035  0.00  0.00     0.210 HD
ENDBRANCH   4  62
TORSDOF 6
ENDMDL
MODEL 7
REMARK VINA RESULT:      -5.9      7.157      8.443
REMARK  6 active torsions:
REMARK  status: ('A' for Active; 'I' for Inactive)
REMARK    1  A    between atoms: C_1  and  C_2 
REMARK    2  A    between atoms: C_5  and  O_33 
REMARK    3  A    between atoms: C_17  and  C_32 
REMARK    4  A    between atoms: C_22  and  C_23 
REMARK    5  A    between atoms: C_22  and  O_31 
REMARK    6  A    between atoms: C_24  and  C_25 
ROOT
ATOM      1  C   LIG d   1      11.390   2.202  -9.644  0.00  0.00    -0.008 C 
ATOM      2  C   LIG d   1      12.893   1.968  -9.552  0.00  0.00    -0.041 C 
ATOM      3  C   LIG d   1      13.644   3.067 -10.303  0.00  0.00    -0.026 C 
ATOM      4  C   LIG d   1      13.124   3.244 -11.725  0.00  0.00     0.059 C 
ATOM      5  H   LIG d   1      13.735   3.993 -12.239  0.00  0.00     0.060 H 
ATOM      6  C   LIG d   1      11.665   3.719 -11.706  0.00  0.00    -0.005 C 
ATOM      7  C   LIG d   1      11.150   3.549 -10.286  0.00  0.00    -0.065 C 
ATOM      8  C   LIG d   1      10.543   4.541  -9.711  0.00  0.00    -0.084 C 
ATOM      9  C   LIG d   1      10.023   4.483  -8.295  0.00  0.00    -0.031 C 
ATOM     10  C   LIG d   1      10.876   3.451  -7.555  0.00  0.00    -0.030 C 
ATOM     11  H   LIG d   1      11.936   3.757  -7.659  0.00  0.00     0.031 H 
ATOM     12  C   LIG d   1      10.703   2.114  -8.290  0.00  0.00    -0.029 C 
ATOM     13  H   LIG d   1       9.642   1.945  -8.495  0.00  0.00     0.031 H 
ATOM     14  C   LIG d   1      11.237   0.985  -7.422  0.00  0.00    -0.049 C 
ATOM     15  C   LIG d   1      10.363   0.793  -6.173  0.00  0.00    -0.043 C 
ATOM     16  C   LIG d   1       9.680   2.079  -5.785  0.00  0.00     0.011 C 
ATOM     17  C   LIG d   1      10.563   3.305  -6.102  0.00  0.00    -0.029 C 
ATOM     18  H   LIG d   1      11.516   3.205  -5.543  0.00  0.00     0.031 H 
ATOM     19  C   LIG d   1       9.759   4.437  -5.440  0.00  0.00    -0.046 C 
ATOM     20  C   LIG d   1       9.349   3.799  -4.081  0.00  0.00    -0.012 C 
ATOM     21  C   LIG d   1       9.478   2.265  -4.265  0.00  0.00     0.132 C 
ATOM     22  H   LIG d   1      13.137   0.999  -9.990  0.00  0.00     0.027 H 
ATOM     23  H   LIG d   1      13.204   1.975  -8.508  0.00  0.00     0.027 H 
ATOM     24  H   LIG d   1      14.704   2.803 -10.344  0.00  0.00     0.029 H 
ATOM     25  H   LIG d   1      13.540   4.006  -9.761  0.00  0.00     0.029 H 
ATOM     26  H   LIG d   1      11.067   3.137 -12.404  0.00  0.00     0.034 H 
ATOM     27  H   LIG d   1      11.620   4.775 -11.986  0.00  0.00     0.034 H 
ATOM     28  H   LIG d   1      10.400   5.451 -10.268  0.00  0.00     0.057 H 
ATOM     29  H   LIG d   1       8.981   4.182  -8.306  0.00  0.00     0.031 H 
ATOM     30  H   LIG d   1      10.132   5.461  -7.831  0.00  0.00     0.031 H 
ATOM     31  H   LIG d   1      11.254   0.052  -7.992  0.00  0.00     0.027 H 
ATOM     32  H   LIG d   1      12.258   1.215  -7.107  0.00  0.00     0.027 H 
ATOM     33  H   LIG d   1      10.992   0.433  -5.349  0.00  0.00     0.027 H 
ATOM     34  H   LIG d   1       9.609   0.022  -6.377  0.00  0.00     0.027 H 
ATOM     35  H   LIG d   1      10.404   5.303  -5.267  0.00  0.00     0.027 H 
ATOM     36  H   LIG d   1       8.894   4.719  -6.024  0.00  0.00     0.027 H 
ATOM     37  H   LIG d   1      10.018   4.140  -3.292  0.00  0.00     0.030 H 
ATOM     38  H   LIG d   1       8.319   4.060  -3.844  0.00  0.00     0.030 H 
ENDROOT
BRANCH  21  39
ATOM     39  C   LIG d   1       8.247   1.589  -3.839  0.00  0.00    -0.062 C 
ATOM     40  C   LIG d   1       7.261   1.049  -3.499  0.00  0.00    -0.063 C 
BRANCH  40  41
ATOM     41  C   LIG d   1       6.059   0.390  -3.084  0.00  0.00     0.025 A 
ATOM     42  C   LIG d   1       5.972  -1.002  -3.129  0.00  0.00    -0.046 A 
ATOM     43  C   LIG d   1       4.812  -1.631  -2.727  0.00  0.00    -0.061 A 
ATOM     44  H   LIG d   1       6.811  -1.585  -3.478  0.00  0.00     0.063 H 
ATOM     45  C   LIG d   1       3.736  -0.884  -2.280  0.00  0.00    -0.062 A 
ATOM     46  H   LIG d   1       4.743  -2.708  -2.762  0.00  0.00     0.062 H 
ATOM     47  C   LIG d   1       3.816   0.496  -2.233  0.00  0.00    -0.061 A 
ATOM     48  H   LIG d   1       2.830  -1.381  -1.966  0.00  0.00     0.062 H 
ATOM     49  C   LIG d   1       4.973   1.136  -2.627  0.00  0.00    -0.046 A 
ATOM     50  H   LIG d   1       2.973   1.073  -1.884  0.00  0.00     0.062 H 
ATOM     51  H   LIG d   1       5.036   2.214  -2.585  0.00  0.00     0.063 H 
ENDBRANCH  40  41
ENDBRANCH  21  39
BRANCH  21  52
ATOM     52  O   LIG d   1      10.608   1.771  -3.551  0.00  0.00    -0.376 OA
ATOM     53  H   LIG d   1      11.267   2.445  -3.343  0.00  0.00     0.211 HD
ENDBRANCH  21  52
BRANCH  16  54
ATOM     54  C   LIG d   1       8.293   2.173  -6.427  0.00  0.00    -0.056 C 
ATOM     55  H   LIG d   1       8.312   1.695  -7.406  0.00  0.00     0.024 H 
ATOM     56  H   LIG d   1       7.564   1.671  -5.791  0.00  0.00     0.024 H 
ATOM     57  H   LIG d   1       8.016   3.221  -6.540  0.00  0.00     0.024 H 
ENDBRANCH  16  54
BRANCH   1  58
ATOM     58  C   LIG d   1      10.780   1.123 -10.548  0.00  0.00    -0.056 C 
ATOM     59  H   LIG d   1      10.332   1.593 -11.422  0.00  0.00     0.024 H 
ATOM     60  H   LIG d   1      11.562   0.433 -10.866  0.00  0.00     0.024 H 
ATOM     61  H   LIG d   1      10.015   0.576  -9.996  0.00  0.00     0.024 H 
ENDBRANCH   1  58
BRANCH   4  62
ATOM     62  O   LIG d   1      13.221   2.007 -12.435  0.00  0.00    -0.392 OA
ATOM     63  H   LIG d   1      13.894   2.004 -13.129  0.00  0.00     0.210 HD
ENDBRANCH   4  62
TORSDOF 6
ENDMDL
MODEL 8
REMARK VINA RESULT:      -5.9      7.830     11.098
REMARK  6 active torsions:
REMARK  status: ('A' for Active; 'I' for Inactive)
REMARK    1  A    between atoms: C_1  and  C_2 
REMARK    2  A    between atoms: C_5  and  O_33 
REMARK    3  A    between atoms: C_17  and  C_32 
REMARK    4  A    between atoms: C_22  and  C_23 
REMARK    5  A    between atoms: C_22  and  O_31 
REMARK    6  A    between atoms: C_24  and  C_25 
ROOT
ATOM      1  C   LIG d   1      13.677  -5.008  -3.917  0.00  0.00    -0.008 C 
ATOM      2  C   LIG d   1      14.416  -5.111  -5.246  0.00  0.00    -0.041 C 
ATOM      3  C   LIG d   1      15.148  -6.450  -5.339  0.00  0.00    -0.026 C 
ATOM      4  C   LIG d   1      16.021  -6.708  -4.116  0.00  0.00     0.059 C 
ATOM      5  H   LIG d   1      16.572  -7.643  -4.261  0.00  0.00     0.060 H 
ATOM      6  C   LIG d   1      15.154  -6.830  -2.857  0.00  0.00    -0.005 C 
ATOM      7  C   LIG d   1      13.760  -6.343  -3.215  0.00  0.00    -0.065 C 
ATOM      8  C   LIG d   1      12.735  -7.077  -2.905  0.00  0.00    -0.084 C 
ATOM      9  C   LIG d   1      11.314  -6.697  -3.245  0.00  0.00    -0.031 C 
ATOM     10  C   LIG d   1      11.383  -5.790  -4.475  0.00  0.00    -0.030 C 
ATOM     11  H   LIG d   1      11.928  -6.341  -5.267  0.00  0.00     0.031 H 
ATOM     12  C   LIG d   1      12.231  -4.570  -4.087  0.00  0.00    -0.029 C 
ATOM     13  H   LIG d   1      11.907  -4.195  -3.112  0.00  0.00     0.031 H 
ATOM     14  C   LIG d   1      12.057  -3.478  -5.132  0.00  0.00    -0.049 C 
ATOM     15  C   LIG d   1      10.628  -2.913  -5.102  0.00  0.00    -0.043 C 
ATOM     16  C   LIG d   1       9.649  -3.939  -4.594  0.00  0.00     0.011 C 
ATOM     17  C   LIG d   1      10.057  -5.367  -5.016  0.00  0.00    -0.029 C 
ATOM     18  H   LIG d   1      10.098  -5.406  -6.124  0.00  0.00     0.031 H 
ATOM     19  C   LIG d   1       8.827  -6.178  -4.575  0.00  0.00    -0.046 C 
ATOM     20  C   LIG d   1       7.650  -5.273  -5.041  0.00  0.00    -0.012 C 
ATOM     21  C   LIG d   1       8.242  -3.852  -5.226  0.00  0.00     0.132 C 
ATOM     22  H   LIG d   1      15.138  -4.298  -5.325  0.00  0.00     0.027 H 
ATOM     23  H   LIG d   1      13.706  -5.037  -6.069  0.00  0.00     0.027 H 
ATOM     24  H   LIG d   1      15.781  -6.443  -6.231  0.00  0.00     0.029 H 
ATOM     25  H   LIG d   1      14.417  -7.252  -5.438  0.00  0.00     0.029 H 
ATOM     26  H   LIG d   1      15.573  -6.236  -2.047  0.00  0.00     0.034 H 
ATOM     27  H   LIG d   1      15.106  -7.878  -2.546  0.00  0.00     0.034 H 
ATOM     28  H   LIG d   1      12.903  -8.002  -2.380  0.00  0.00     0.057 H 
ATOM     29  H   LIG d   1      10.871  -6.171  -2.405  0.00  0.00     0.031 H 
ATOM     30  H   LIG d   1      10.746  -7.596  -3.474  0.00  0.00     0.031 H 
ATOM     31  H   LIG d   1      12.765  -2.667  -4.946  0.00  0.00     0.027 H 
ATOM     32  H   LIG d   1      12.254  -3.886  -6.127  0.00  0.00     0.027 H 
ATOM     33  H   LIG d   1      10.350  -2.590  -6.112  0.00  0.00     0.027 H 
ATOM     34  H   LIG d   1      10.605  -2.028  -4.452  0.00  0.00     0.027 H 
ATOM     35  H   LIG d   1       8.797  -7.133  -5.105  0.00  0.00     0.027 H 
ATOM     36  H   LIG d   1       8.806  -6.337  -3.505  0.00  0.00     0.027 H 
ATOM     37  H   LIG d   1       7.250  -5.638  -5.985  0.00  0.00     0.030 H 
ATOM     38  H   LIG d   1       6.871  -5.256  -4.281  0.00  0.00     0.030 H 
ENDROOT
BRANCH  21  39
ATOM     39  C   LIG d   1       7.434  -2.859  -4.508  0.00  0.00    -0.062 C 
ATOM     40  C   LIG d   1       6.787  -2.064  -3.936  0.00  0.00    -0.063 C 
BRANCH  40  41
ATOM     41  C   LIG d   1       5.998  -1.094  -3.236  0.00  0.00     0.025 A 
ATOM     42  C   LIG d   1       6.327   0.260  -3.307  0.00  0.00    -0.046 A 
ATOM     43  C   LIG d   1       5.562   1.189  -2.632  0.00  0.00    -0.061 A 
ATOM     44  H   LIG d   1       7.178   0.580  -3.890  0.00  0.00     0.063 H 
ATOM     45  C   LIG d   1       4.471   0.780  -1.885  0.00  0.00    -0.062 A 
ATOM     46  H   LIG d   1       5.816   2.237  -2.686  0.00  0.00     0.062 H 
ATOM     47  C   LIG d   1       4.140  -0.561  -1.811  0.00  0.00    -0.061 A 
ATOM     48  H   LIG d   1       3.876   1.511  -1.358  0.00  0.00     0.062 H 
ATOM     49  C   LIG d   1       4.893  -1.499  -2.487  0.00  0.00    -0.046 A 
ATOM     50  H   LIG d   1       3.288  -0.874  -1.226  0.00  0.00     0.062 H 
ATOM     51  H   LIG d   1       4.631  -2.545  -2.432  0.00  0.00     0.063 H 
ENDBRANCH  40  41
ENDBRANCH  21  39
BRANCH  21  52
ATOM     52  O   LIG d   1       8.340  -3.529  -6.611  0.00  0.00    -0.376 OA
ATOM     53  H   LIG d   1       7.921  -4.174  -7.195  0.00  0.00     0.211 HD
ENDBRANCH  21  52
BRANCH  16  54
ATOM     54  C   LIG d   1       9.458  -3.808  -3.080  0.00  0.00    -0.056 C 
ATOM     55  H   LIG d   1       9.574  -2.764  -2.789  0.00  0.00     0.024 H 
ATOM     56  H   LIG d   1       8.461  -4.153  -2.808  0.00  0.00     0.024 H 
ATOM     57  H   LIG d   1      10.204  -4.413  -2.566  0.00  0.00     0.024 H 
ENDBRANCH  16  54
BRANCH   1  58
ATOM     58  C   LIG d   1      14.382  -3.962  -3.045  0.00  0.00    -0.056 C 
ATOM     59  H   LIG d   1      13.644  -3.431  -2.445  0.00  0.00     0.024 H 
ATOM     60  H   LIG d   1      15.095  -4.459  -2.388  0.00  0.00     0.024 H 
ATOM     61  H   LIG d   1      14.911  -3.252  -3.683  0.00  0.00     0.024 H 
ENDBRANCH   1  58
BRANCH   4  62
ATOM     62  O   LIG d   1      16.960  -5.642  -3.956  0.00  0.00    -0.392 OA
ATOM     63  H   LIG d   1      16.849  -4.922  -4.592  0.00  0.00     0.210 HD
ENDBRANCH   4  62
TORSDOF 6
ENDMDL
MODEL 9
REMARK VINA RESULT:      -5.9     11.081     13.966
REMARK  6 active torsions:
REMARK  status: ('A' for Active; 'I' for Inactive)
REMARK    1  A    between atoms: C_1  and  C_2 
REMARK    2  A    between atoms: C_5  and  O_33 
REMARK    3  A    between atoms: C_17  and  C_32 
REMARK    4  A    between atoms: C_22  and  C_23 
REMARK    5  A    between atoms: C_22  and  O_31 
REMARK    6  A    between atoms: C_24  and  C_25 
ROOT
ATOM      1  C   LIG d   1      10.617   8.558  -6.887  0.00  0.00    -0.008 C 
ATOM      2  C   LIG d   1       9.235   8.580  -7.529  0.00  0.00    -0.041 C 
ATOM      3  C   LIG d   1       9.153   7.533  -8.640  0.00  0.00    -0.026 C 
ATOM      4  C   LIG d   1      10.306   7.660  -9.630  0.00  0.00     0.059 C 
ATOM      5  H   LIG d   1      10.165   6.935 -10.437  0.00  0.00     0.060 H 
ATOM      6  C   LIG d   1      11.642   7.380  -8.933  0.00  0.00    -0.005 C 
ATOM      7  C   LIG d   1      11.385   7.377  -7.435  0.00  0.00    -0.065 C 
ATOM      8  C   LIG d   1      11.827   6.390  -6.720  0.00  0.00    -0.084 C 
ATOM      9  C   LIG d   1      11.596   6.279  -5.232  0.00  0.00    -0.031 C 
ATOM     10  C   LIG d   1      10.314   7.057  -4.927  0.00  0.00    -0.030 C 
ATOM     11  H   LIG d   1       9.510   6.640  -5.563  0.00  0.00     0.031 H 
ATOM     12  C   LIG d   1      10.553   8.509  -5.368  0.00  0.00    -0.029 C 
ATOM     13  H   LIG d   1      11.531   8.843  -5.009  0.00  0.00     0.031 H 
ATOM     14  C   LIG d   1       9.468   9.402  -4.787  0.00  0.00    -0.049 C 
ATOM     15  C   LIG d   1       9.594   9.495  -3.258  0.00  0.00    -0.043 C 
ATOM     16  C   LIG d   1      10.246   8.260  -2.692  0.00  0.00     0.011 C 
ATOM     17  C   LIG d   1       9.872   7.001  -3.501  0.00  0.00    -0.029 C 
ATOM     18  H   LIG d   1       8.768   6.884  -3.478  0.00  0.00     0.031 H 
ATOM     19  C   LIG d   1      10.468   5.887  -2.624  0.00  0.00    -0.046 C 
ATOM     20  C   LIG d   1      10.059   6.339  -1.193  0.00  0.00    -0.012 C 
ATOM     21  C   LIG d   1       9.740   7.853  -1.290  0.00  0.00     0.132 C 
ATOM     22  H   LIG d   1       9.045   9.568  -7.949  0.00  0.00     0.027 H 
ATOM     23  H   LIG d   1       8.476   8.361  -6.778  0.00  0.00     0.027 H 
ATOM     24  H   LIG d   1       8.209   7.662  -9.175  0.00  0.00     0.029 H 
ATOM     25  H   LIG d   1       9.167   6.538  -8.195  0.00  0.00     0.029 H 
ATOM     26  H   LIG d   1      12.376   8.140  -9.196  0.00  0.00     0.034 H 
ATOM     27  H   LIG d   1      12.016   6.399  -9.241  0.00  0.00     0.034 H 
ATOM     28  H   LIG d   1      12.387   5.610  -7.206  0.00  0.00     0.057 H 
ATOM     29  H   LIG d   1      12.440   6.709  -4.703  0.00  0.00     0.031 H 
ATOM     30  H   LIG d   1      11.471   5.233  -4.964  0.00  0.00     0.031 H 
ATOM     31  H   LIG d   1       9.542  10.405  -5.213  0.00  0.00     0.027 H 
ATOM     32  H   LIG d   1       8.484   8.994  -5.036  0.00  0.00     0.027 H 
ATOM     33  H   LIG d   1       8.596   9.630  -2.825  0.00  0.00     0.027 H 
ATOM     34  H   LIG d   1      10.192  10.379  -3.001  0.00  0.00     0.027 H 
ATOM     35  H   LIG d   1       9.998   4.929  -2.863  0.00  0.00     0.027 H 
ATOM     36  H   LIG d   1      11.543   5.818  -2.727  0.00  0.00     0.027 H 
ATOM     37  H   LIG d   1       9.177   5.790  -0.866  0.00  0.00     0.030 H 
ATOM     38  H   LIG d   1      10.883   6.176  -0.501  0.00  0.00     0.030 H 
ENDROOT
BRANCH  21  39
ATOM     39  C   LIG d   1      10.469   8.601  -0.259  0.00  0.00    -0.062 C 
ATOM     40  C   LIG d   1      11.052   9.200   0.566  0.00  0.00    -0.063 C 
BRANCH  40  41
ATOM     41  C   LIG d   1      11.763   9.929   1.572  0.00  0.00     0.025 A 
ATOM     42  C   LIG d   1      12.145  11.252   1.341  0.00  0.00    -0.046 A 
ATOM     43  C   LIG d   1      12.829  11.950   2.315  0.00  0.00    -0.061 A 
ATOM     44  H   LIG d   1      11.906  11.727   0.401  0.00  0.00     0.063 H 
ATOM     45  C   LIG d   1      13.136  11.341   3.520  0.00  0.00    -0.062 A 
ATOM     46  H   LIG d   1      13.125  12.972   2.137  0.00  0.00     0.062 H 
ATOM     47  C   LIG d   1      12.760  10.031   3.755  0.00  0.00    -0.061 A 
ATOM     48  H   LIG d   1      13.672  11.892   4.279  0.00  0.00     0.062 H 
ATOM     49  C   LIG d   1      12.071   9.324   2.791  0.00  0.00    -0.046 A 
ATOM     50  H   LIG d   1      13.003   9.561   4.696  0.00  0.00     0.062 H 
ATOM     51  H   LIG d   1      11.774   8.303   2.978  0.00  0.00     0.063 H 
ENDBRANCH  40  41
ENDBRANCH  21  39
BRANCH  21  52
ATOM     52  O   LIG d   1       8.336   8.074  -1.187  0.00  0.00    -0.376 OA
ATOM     53  H   LIG d   1       8.073   8.995  -1.318  0.00  0.00     0.211 HD
ENDBRANCH  21  52
BRANCH  16  54
ATOM     54  C   LIG d   1      11.761   8.451  -2.572  0.00  0.00    -0.056 C 
ATOM     55  H   LIG d   1      12.210   8.421  -3.564  0.00  0.00     0.024 H 
ATOM     56  H   LIG d   1      11.970   9.414  -2.108  0.00  0.00     0.024 H 
ATOM     57  H   LIG d   1      12.180   7.654  -1.958  0.00  0.00     0.024 H 
ENDBRANCH  16  54
BRANCH   1  58
ATOM     58  C   LIG d   1      11.360   9.840  -7.282  0.00  0.00    -0.056 C 
ATOM     59  H   LIG d   1      11.975   9.648  -8.160  0.00  0.00     0.024 H 
ATOM     60  H   LIG d   1      10.637  10.623  -7.509  0.00  0.00     0.024 H 
ATOM     61  H   LIG d   1      11.996  10.161  -6.456  0.00  0.00     0.024 H 
ENDBRANCH   1  58
BRANCH   4  62
ATOM     62  O   LIG d   1      10.318   8.975 -10.191  0.00  0.00    -0.392 OA
ATOM     63  H   LIG d   1      10.844   9.612  -9.688  0.00  0.00     0.210 HD
ENDBRANCH   4  62
TORSDOF 6
ENDMDL
MODEL 10
REMARK VINA RESULT:      -5.7     13.524     15.536
REMARK  6 active torsions:
REMARK  status: ('A' for Active; 'I' for Inactive)
REMARK    1  A    between atoms: C_1  and  C_2 
REMARK    2  A    between atoms: C_5  and  O_33 
REMARK    3  A    between atoms: C_17  and  C_32 
REMARK    4  A    between atoms: C_22  and  C_23 
REMARK    5  A    between atoms: C_22  and  O_31 
REMARK    6  A    between atoms: C_24  and  C_25 
ROOT
ATOM      1  C   LIG d   1      10.287  10.329  -3.959  0.00  0.00    -0.008 C 
ATOM      2  C   LIG d   1       9.328   9.647  -4.928  0.00  0.00    -0.041 C 
ATOM      3  C   LIG d   1       9.899   9.679  -6.345  0.00  0.00    -0.026 C 
ATOM      4  C   LIG d   1      10.315  11.085  -6.761  0.00  0.00     0.059 C 
ATOM      5  H   LIG d   1      10.653  11.064  -7.802  0.00  0.00     0.060 H 
ATOM      6  C   LIG d   1      11.459  11.590  -5.874  0.00  0.00    -0.005 C 
ATOM      7  C   LIG d   1      11.572  10.640  -4.692  0.00  0.00    -0.065 C 
ATOM      8  C   LIG d   1      12.734  10.159  -4.377  0.00  0.00    -0.084 C 
ATOM      9  C   LIG d   1      12.946   9.185  -3.242  0.00  0.00    -0.031 C 
ATOM     10  C   LIG d   1      11.624   8.438  -3.052  0.00  0.00    -0.030 C 
ATOM     11  H   LIG d   1      11.355   7.981  -4.024  0.00  0.00     0.031 H 
ATOM     12  C   LIG d   1      10.557   9.491  -2.719  0.00  0.00    -0.029 C 
ATOM     13  H   LIG d   1      10.945  10.178  -1.963  0.00  0.00     0.031 H 
ATOM     14  C   LIG d   1       9.312   8.800  -2.184  0.00  0.00    -0.049 C 
ATOM     15  C   LIG d   1       9.586   8.160  -0.813  0.00  0.00    -0.043 C 
ATOM     16  C   LIG d   1      11.041   7.798  -0.665  0.00  0.00     0.011 C 
ATOM     17  C   LIG d   1      11.655   7.366  -2.013  0.00  0.00    -0.029 C 
ATOM     18  H   LIG d   1      11.089   6.489  -2.392  0.00  0.00     0.031 H 
ATOM     19  C   LIG d   1      13.038   6.859  -1.568  0.00  0.00    -0.046 C 
ATOM     20  C   LIG d   1      12.693   6.036  -0.293  0.00  0.00    -0.012 C 
ATOM     21  C   LIG d   1      11.303   6.532   0.181  0.00  0.00     0.132 C 
ATOM     22  H   LIG d   1       8.368  10.165  -4.914  0.00  0.00     0.027 H 
ATOM     23  H   LIG d   1       9.177   8.611  -4.629  0.00  0.00     0.027 H 
ATOM     24  H   LIG d   1       9.138   9.314  -7.039  0.00  0.00     0.029 H 
ATOM     25  H   LIG d   1      10.763   9.016  -6.397  0.00  0.00     0.029 H 
ATOM     26  H   LIG d   1      11.258  12.604  -5.534  0.00  0.00     0.034 H 
ATOM     27  H   LIG d   1      12.394  11.579  -6.441  0.00  0.00     0.034 H 
ATOM     28  H   LIG d   1      13.593  10.466  -4.950  0.00  0.00     0.057 H 
ATOM     29  H   LIG d   1      13.210   9.732  -2.343  0.00  0.00     0.031 H 
ATOM     30  H   LIG d   1      13.735   8.487  -3.510  0.00  0.00     0.031 H 
ATOM     31  H   LIG d   1       8.498   9.522  -2.084  0.00  0.00     0.027 H 
ATOM     32  H   LIG d   1       8.996   8.019  -2.881  0.00  0.00     0.027 H 
ATOM     33  H   LIG d   1       8.958   7.268  -0.704  0.00  0.00     0.027 H 
ATOM     34  H   LIG d   1       9.299   8.867  -0.024  0.00  0.00     0.027 H 
ATOM     35  H   LIG d   1      13.461   6.203  -2.333  0.00  0.00     0.027 H 
ATOM     36  H   LIG d   1      13.717   7.670  -1.345  0.00  0.00     0.027 H 
ATOM     37  H   LIG d   1      12.651   4.975  -0.534  0.00  0.00     0.030 H 
ATOM     38  H   LIG d   1      13.437   6.219   0.479  0.00  0.00     0.030 H 
ENDROOT
BRANCH  21  39
ATOM     39  C   LIG d   1      11.339   6.883   1.606  0.00  0.00    -0.062 C 
ATOM     40  C   LIG d   1      11.369   7.165   2.745  0.00  0.00    -0.063 C 
BRANCH  40  41
ATOM     41  C   LIG d   1      11.404   7.508   4.135  0.00  0.00     0.025 A 
ATOM     42  C   LIG d   1      10.809   6.671   5.079  0.00  0.00    -0.046 A 
ATOM     43  C   LIG d   1      10.848   7.006   6.417  0.00  0.00    -0.061 A 
ATOM     44  H   LIG d   1      10.319   5.761   4.763  0.00  0.00     0.063 H 
ATOM     45  C   LIG d   1      11.475   8.171   6.823  0.00  0.00    -0.062 A 
ATOM     46  H   LIG d   1      10.387   6.359   7.148  0.00  0.00     0.062 H 
ATOM     47  C   LIG d   1      12.067   9.006   5.892  0.00  0.00    -0.061 A 
ATOM     48  H   LIG d   1      11.502   8.430   7.871  0.00  0.00     0.062 H 
ATOM     49  C   LIG d   1      12.040   8.678   4.552  0.00  0.00    -0.046 A 
ATOM     50  H   LIG d   1      12.553   9.914   6.215  0.00  0.00     0.062 H 
ATOM     51  H   LIG d   1      12.506   9.328   3.827  0.00  0.00     0.063 H 
ENDBRANCH  40  41
ENDBRANCH  21  39
BRANCH  21  52
ATOM     52  O   LIG d   1      10.307   5.547  -0.079  0.00  0.00    -0.376 OA
ATOM     53  H   LIG d   1      10.076   5.009   0.690  0.00  0.00     0.211 HD
ENDBRANCH  21  52
BRANCH  16  54
ATOM     54  C   LIG d   1      11.821   8.937  -0.003  0.00  0.00    -0.056 C 
ATOM     55  H   LIG d   1      11.537   9.010   1.046  0.00  0.00     0.024 H 
ATOM     56  H   LIG d   1      12.889   8.736  -0.077  0.00  0.00     0.024 H 
ATOM     57  H   LIG d   1      11.592   9.875  -0.508  0.00  0.00     0.024 H 
ENDBRANCH  16  54
BRANCH   1  58
ATOM     58  C   LIG d   1       9.662  11.653  -3.501  0.00  0.00    -0.056 C 
ATOM     59  H   LIG d   1       9.863  11.802  -2.441  0.00  0.00     0.024 H 
ATOM     60  H   LIG d   1      10.094  12.474  -4.073  0.00  0.00     0.024 H 
ATOM     61  H   LIG d   1       8.585  11.623  -3.667  0.00  0.00     0.024 H 
ENDBRANCH   1  58
BRANCH   4  62
ATOM     62  O   LIG d   1       9.197  11.971  -6.661  0.00  0.00    -0.392 OA
ATOM     63  H   LIG d   1       9.376  12.867  -6.976  0.00  0.00     0.210 HD
ENDBRANCH   4  62
TORSDOF 6
ENDMDL
