MODEL 1
REMARK VINA RESULT:      -5.7      0.000      0.000
REMARK  13 active torsions:
REMARK  status: ('A' for Active; 'I' for Inactive)
REMARK    1  A    between atoms: C_1  and  C_2 
REMARK    2  A    between atoms: C_2  and  C_3 
REMARK    3  A    between atoms: C_2  and  N_4 
REMARK       I    between atoms: N_4  and  C_5 
REMARK       I    between atoms: C_5  and  N_7 
REMARK    4  A    between atoms: N_7  and  C_8 
REMARK    5  A    between atoms: C_8  and  C_9 
REMARK    6  A    between atoms: C_11  and  O_32 
REMARK    7  A    between atoms: C_13  and  O_31 
REMARK    8  A    between atoms: C_15  and  C_18 
REMARK    9  A    between atoms: C_18  and  C_19 
REMARK       I    between atoms: C_19  and  N_21 
REMARK   10  A    between atoms: N_21  and  C_22 
REMARK   11  A    between atoms: C_22  and  C_23 
REMARK   12  A    between atoms: C_26  and  O_29 
REMARK   13  A    between atoms: O_29  and  C_30 
ROOT
ATOM      1  C   LIG d   1       3.227  -0.769  -8.577  0.00  0.00     0.103 C 
ATOM      2  H   LIG d   1       3.981  -0.281  -9.195  0.00  0.00     0.064 H 
ATOM      3  C   LIG d   1       2.119  -1.395  -9.460  0.00  0.00     0.111 C 
ATOM      4  H   LIG d   1       1.212  -1.572  -8.880  0.00  0.00     0.065 H 
ATOM      5  C   LIG d   1       2.766  -2.734  -9.893  0.00  0.00     0.110 C 
ATOM      6  H   LIG d   1       2.031  -3.537  -9.873  0.00  0.00     0.065 H 
ATOM      7  C   LIG d   1       3.865  -2.980  -8.840  0.00  0.00     0.096 C 
ATOM      8  H   LIG d   1       4.843  -2.985  -9.319  0.00  0.00     0.063 H 
ATOM      9  O   LIG d   1       3.792  -1.905  -7.888  0.00  0.00    -0.366 OA
ENDROOT
BRANCH   7  10
ATOM     10  C   LIG d   1       3.620  -4.316  -8.136  0.00  0.00     0.053 C 
ATOM     11  H   LIG d   1       2.553  -4.435  -7.943  0.00  0.00     0.038 H 
ATOM     12  H   LIG d   1       3.967  -5.131  -8.772  0.00  0.00     0.038 H 
BRANCH  10  13
ATOM     13  C   LIG d   1       4.372  -4.341  -6.831  0.00  0.00     0.216 C 
ATOM     14  O   LIG d   1       3.859  -4.825  -5.844  0.00  0.00    -0.276 OA
ATOM     15  N   LIG d   1       5.616  -3.826  -6.760  0.00  0.00    -0.311 N 
ATOM     16  H   LIG d   1       6.026  -3.439  -7.549  0.00  0.00     0.149 HD
BRANCH  15  17
ATOM     17  C   LIG d   1       6.347  -3.849  -5.491  0.00  0.00     0.037 C 
ATOM     18  H   LIG d   1       5.736  -4.331  -4.728  0.00  0.00     0.051 H 
ATOM     19  H   LIG d   1       7.276  -4.405  -5.617  0.00  0.00     0.051 H 
BRANCH  17  20
ATOM     20  C   LIG d   1       6.659  -2.438  -5.065  0.00  0.00    -0.030 A 
ATOM     21  C   LIG d   1       6.784  -1.442  -6.017  0.00  0.00    -0.054 A 
ATOM     22  C   LIG d   1       7.069  -0.147  -5.629  0.00  0.00    -0.020 A 
ATOM     23  H   LIG d   1       6.658  -1.676  -7.063  0.00  0.00     0.062 H 
ATOM     24  C   LIG d   1       7.231   0.154  -4.284  0.00  0.00     0.120 A 
ATOM     25  H   LIG d   1       7.165   0.631  -6.372  0.00  0.00     0.065 H 
ATOM     26  C   LIG d   1       7.106  -0.848  -3.332  0.00  0.00    -0.020 A 
ATOM     27  C   LIG d   1       6.815  -2.139  -3.724  0.00  0.00    -0.054 A 
ATOM     28  H   LIG d   1       7.232  -0.616  -2.285  0.00  0.00     0.065 H 
ATOM     29  H   LIG d   1       6.712  -2.918  -2.982  0.00  0.00     0.062 H 
BRANCH  24  30
ATOM     30  O   LIG d   1       7.512   1.427  -3.901  0.00  0.00    -0.495 OA
BRANCH  30  31
ATOM     31  C   LIG d   1       8.888   1.813  -3.893  0.00  0.00     0.079 C 
ATOM     32  H   LIG d   1       9.516   0.922  -3.887  0.00  0.00     0.066 H 
ATOM     33  H   LIG d   1       9.105   2.404  -4.782  0.00  0.00     0.066 H 
ATOM     34  H   LIG d   1       9.093   2.407  -3.002  0.00  0.00     0.066 H 
ENDBRANCH  30  31
ENDBRANCH  24  30
ENDBRANCH  17  20
ENDBRANCH  15  17
ENDBRANCH  10  13
ENDBRANCH   7  10
BRANCH   5  35
ATOM     35  O   LIG d   1       3.340  -2.615 -11.196  0.00  0.00    -0.387 OA
ATOM     36  H   LIG d   1       3.340  -1.714 -11.547  0.00  0.00     0.210 HD
ENDBRANCH   5  35
BRANCH   3  37
ATOM     37  O   LIG d   1       1.843  -0.572 -10.595  0.00  0.00    -0.387 OA
ATOM     38  H   LIG d   1       1.141  -0.911 -11.167  0.00  0.00     0.210 HD
ENDBRANCH   3  37
BRANCH   1  39
ATOM     39  C   LIG d   1       2.625   0.222  -7.578  0.00  0.00     0.042 C 
ATOM     40  H   LIG d   1       2.474   1.184  -8.069  0.00  0.00     0.049 H 
ATOM     41  H   LIG d   1       1.667  -0.157  -7.222  0.00  0.00     0.049 H 
BRANCH  39  42
ATOM     42  N   LIG d   1       3.537   0.388  -6.445  0.00  0.00    -0.297 N 
ATOM     43  C   LIG d   1       3.080   0.245  -5.186  0.00  0.00     0.300 C 
ATOM     44  N   LIG d   1       3.920   0.398  -4.142  0.00  0.00    -0.297 N 
ATOM     45  O   LIG d   1       1.911  -0.024  -4.991  0.00  0.00    -0.253 OA
ATOM     46  H   LIG d   1       4.853   0.611  -4.298  0.00  0.00     0.150 HD
ATOM     47  H   LIG d   1       4.470   0.603  -6.601  0.00  0.00     0.150 HD
BRANCH  44  48
ATOM     48  C   LIG d   1       3.422   0.241  -2.773  0.00  0.00     0.019 C 
ATOM     49  H   LIG d   1       2.386   0.576  -2.722  0.00  0.00     0.049 H 
BRANCH  48  50
ATOM     50  C   LIG d   1       3.503  -1.232  -2.366  0.00  0.00    -0.047 C 
ATOM     51  H   LIG d   1       4.548  -1.532  -2.294  0.00  0.00     0.025 H 
ATOM     52  H   LIG d   1       3.018  -1.368  -1.400  0.00  0.00     0.025 H 
ATOM     53  H   LIG d   1       3.001  -1.844  -3.115  0.00  0.00     0.025 H 
ENDBRANCH  48  50
BRANCH  48  54
ATOM     54  C   LIG d   1       4.276   1.081  -1.821  0.00  0.00    -0.047 C 
ATOM     55  H   LIG d   1       3.671   1.395  -0.970  0.00  0.00     0.025 H 
ATOM     56  H   LIG d   1       5.118   0.487  -1.467  0.00  0.00     0.025 H 
ATOM     57  H   LIG d   1       4.647   1.960  -2.346  0.00  0.00     0.025 H 
ENDBRANCH  48  54
ENDBRANCH  44  48
ENDBRANCH  39  42
ENDBRANCH   1  39
TORSDOF 13
ENDMDL
MODEL 2
REMARK VINA RESULT:      -5.6      2.401      7.101
REMARK  13 active torsions:
REMARK  status: ('A' for Active; 'I' for Inactive)
REMARK    1  A    between atoms: C_1  and  C_2 
REMARK    2  A    between atoms: C_2  and  C_3 
REMARK    3  A    between atoms: C_2  and  N_4 
REMARK       I    between atoms: N_4  and  C_5 
REMARK       I    between atoms: C_5  and  N_7 
REMARK    4  A    between atoms: N_7  and  C_8 
REMARK    5  A    between atoms: C_8  and  C_9 
REMARK    6  A    between atoms: C_11  and  O_32 
REMARK    7  A    between atoms: C_13  and  O_31 
REMARK    8  A    between atoms: C_15  and  C_18 
REMARK    9  A    between atoms: C_18  and  C_19 
REMARK       I    between atoms: C_19  and  N_21 
REMARK   10  A    between atoms: N_21  and  C_22 
REMARK   11  A    between atoms: C_22  and  C_23 
REMARK   12  A    between atoms: C_26  and  O_29 
REMARK   13  A    between atoms: O_29  and  C_30 
ROOT
ATOM      1  C   LIG d   1       6.159   0.214  -3.784  0.00  0.00     0.103 C 
ATOM      2  H   LIG d   1       6.482   0.582  -2.810  0.00  0.00     0.064 H 
ATOM      3  C   LIG d   1       5.891  -1.311  -3.731  0.00  0.00     0.111 C 
ATOM      4  H   LIG d   1       5.909  -1.744  -4.731  0.00  0.00     0.065 H 
ATOM      5  C   LIG d   1       4.466  -1.369  -3.129  0.00  0.00     0.110 C 
ATOM      6  H   LIG d   1       3.872  -2.135  -3.627  0.00  0.00     0.065 H 
ATOM      7  C   LIG d   1       3.882   0.030  -3.404  0.00  0.00     0.096 C 
ATOM      8  H   LIG d   1       3.664   0.533  -2.462  0.00  0.00     0.063 H 
ATOM      9  O   LIG d   1       4.874   0.771  -4.136  0.00  0.00    -0.366 OA
ENDROOT
BRANCH   7  10
ATOM     10  C   LIG d   1       2.605  -0.094  -4.238  0.00  0.00     0.053 C 
ATOM     11  H   LIG d   1       2.565  -1.084  -4.695  0.00  0.00     0.038 H 
ATOM     12  H   LIG d   1       1.735   0.045  -3.596  0.00  0.00     0.038 H 
BRANCH  10  13
ATOM     13  C   LIG d   1       2.606   0.958  -5.318  0.00  0.00     0.216 C 
ATOM     14  O   LIG d   1       2.326   2.107  -5.046  0.00  0.00    -0.276 OA
ATOM     15  N   LIG d   1       2.919   0.622  -6.585  0.00  0.00    -0.311 N 
ATOM     16  H   LIG d   1       3.143  -0.296  -6.803  0.00  0.00     0.149 HD
BRANCH  15  17
ATOM     17  C   LIG d   1       2.919   1.645  -7.634  0.00  0.00     0.037 C 
ATOM     18  H   LIG d   1       2.008   2.237  -7.565  0.00  0.00     0.051 H 
ATOM     19  H   LIG d   1       3.786   2.294  -7.508  0.00  0.00     0.051 H 
BRANCH  17  20
ATOM     20  C   LIG d   1       2.984   0.978  -8.984  0.00  0.00    -0.030 A 
ATOM     21  C   LIG d   1       3.795   1.502  -9.975  0.00  0.00    -0.054 A 
ATOM     22  C   LIG d   1       3.855   0.892 -11.213  0.00  0.00    -0.020 A 
ATOM     23  H   LIG d   1       4.379   2.388  -9.781  0.00  0.00     0.062 H 
ATOM     24  C   LIG d   1       3.104  -0.247 -11.462  0.00  0.00     0.120 A 
ATOM     25  H   LIG d   1       4.489   1.301 -11.986  0.00  0.00     0.065 H 
ATOM     26  C   LIG d   1       2.291  -0.770 -10.466  0.00  0.00    -0.020 A 
ATOM     27  C   LIG d   1       2.238  -0.160  -9.228  0.00  0.00    -0.054 A 
ATOM     28  H   LIG d   1       1.705  -1.657 -10.658  0.00  0.00     0.065 H 
ATOM     29  H   LIG d   1       1.609  -0.571  -8.451  0.00  0.00     0.062 H 
BRANCH  24  30
ATOM     30  O   LIG d   1       3.163  -0.849 -12.679  0.00  0.00    -0.495 OA
BRANCH  30  31
ATOM     31  C   LIG d   1       3.274  -2.274 -12.693  0.00  0.00     0.079 C 
ATOM     32  H   LIG d   1       2.315  -2.710 -12.973  0.00  0.00     0.066 H 
ATOM     33  H   LIG d   1       4.034  -2.572 -13.414  0.00  0.00     0.066 H 
ATOM     34  H   LIG d   1       3.555  -2.626 -11.700  0.00  0.00     0.066 H 
ENDBRANCH  30  31
ENDBRANCH  24  30
ENDBRANCH  17  20
ENDBRANCH  15  17
ENDBRANCH  10  13
ENDBRANCH   7  10
BRANCH   5  35
ATOM     35  O   LIG d   1       4.524  -1.619  -1.723  0.00  0.00    -0.387 OA
ATOM     36  H   LIG d   1       4.616  -0.821  -1.185  0.00  0.00     0.210 HD
ENDBRANCH   5  35
BRANCH   3  37
ATOM     37  O   LIG d   1       6.832  -1.965  -2.877  0.00  0.00    -0.387 OA
ATOM     38  H   LIG d   1       7.743  -1.935  -3.199  0.00  0.00     0.210 HD
ENDBRANCH   3  37
BRANCH   1  39
ATOM     39  C   LIG d   1       7.199   0.542  -4.857  0.00  0.00     0.042 C 
ATOM     40  H   LIG d   1       6.917   1.464  -5.366  0.00  0.00     0.049 H 
ATOM     41  H   LIG d   1       8.175   0.672  -4.389  0.00  0.00     0.049 H 
BRANCH  39  42
ATOM     42  N   LIG d   1       7.264  -0.553  -5.828  0.00  0.00    -0.297 N 
ATOM     43  C   LIG d   1       6.645  -0.435  -7.018  0.00  0.00     0.300 C 
ATOM     44  N   LIG d   1       6.705  -1.444  -7.911  0.00  0.00    -0.297 N 
ATOM     45  O   LIG d   1       6.035   0.581  -7.289  0.00  0.00    -0.253 OA
ATOM     46  H   LIG d   1       7.193  -2.254  -7.696  0.00  0.00     0.150 HD
ATOM     47  H   LIG d   1       7.751  -1.363  -5.611  0.00  0.00     0.150 HD
BRANCH  44  48
ATOM     48  C   LIG d   1       6.032  -1.315  -9.207  0.00  0.00     0.019 C 
ATOM     49  H   LIG d   1       5.290  -0.519  -9.153  0.00  0.00     0.049 H 
BRANCH  48  50
ATOM     50  C   LIG d   1       7.064  -0.980 -10.286  0.00  0.00    -0.047 C 
ATOM     51  H   LIG d   1       7.733  -1.829 -10.424  0.00  0.00     0.025 H 
ATOM     52  H   LIG d   1       6.551  -0.765 -11.224  0.00  0.00     0.025 H 
ATOM     53  H   LIG d   1       7.641  -0.108  -9.979  0.00  0.00     0.025 H 
ENDBRANCH  48  50
BRANCH  48  54
ATOM     54  C   LIG d   1       5.340  -2.634  -9.555  0.00  0.00    -0.047 C 
ATOM     55  H   LIG d   1       6.062  -3.449  -9.502  0.00  0.00     0.025 H 
ATOM     56  H   LIG d   1       4.532  -2.819  -8.848  0.00  0.00     0.025 H 
ATOM     57  H   LIG d   1       4.933  -2.576 -10.565  0.00  0.00     0.025 H 
ENDBRANCH  48  54
ENDBRANCH  44  48
ENDBRANCH  39  42
ENDBRANCH   1  39
TORSDOF 13
ENDMDL
MODEL 3
REMARK VINA RESULT:      -5.5      4.737      8.762
REMARK  13 active torsions:
REMARK  status: ('A' for Active; 'I' for Inactive)
REMARK    1  A    between atoms: C_1  and  C_2 
REMARK    2  A    between atoms: C_2  and  C_3 
REMARK    3  A    between atoms: C_2  and  N_4 
REMARK       I    between atoms: N_4  and  C_5 
REMARK       I    between atoms: C_5  and  N_7 
REMARK    4  A    between atoms: N_7  and  C_8 
REMARK    5  A    between atoms: C_8  and  C_9 
REMARK    6  A    between atoms: C_11  and  O_32 
REMARK    7  A    between atoms: C_13  and  O_31 
REMARK    8  A    between atoms: C_15  and  C_18 
REMARK    9  A    between atoms: C_18  and  C_19 
REMARK       I    between atoms: C_19  and  N_21 
REMARK   10  A    between atoms: N_21  and  C_22 
REMARK   11  A    between atoms: C_22  and  C_23 
REMARK   12  A    between atoms: C_26  and  O_29 
REMARK   13  A    between atoms: O_29  and  C_30 
ROOT
ATOM      1  C   LIG d   1       2.403  -0.661  -8.175  0.00  0.00     0.103 C 
ATOM      2  H   LIG d   1       1.692  -1.137  -7.499  0.00  0.00     0.064 H 
ATOM      3  C   LIG d   1       3.484  -1.672  -8.631  0.00  0.00     0.111 C 
ATOM      4  H   LIG d   1       4.367  -1.155  -9.007  0.00  0.00     0.065 H 
ATOM      5  C   LIG d   1       2.760  -2.430  -9.771  0.00  0.00     0.110 C 
ATOM      6  H   LIG d   1       3.442  -2.612 -10.601  0.00  0.00     0.065 H 
ATOM      7  C   LIG d   1       1.630  -1.474 -10.201  0.00  0.00     0.096 C 
ATOM      8  H   LIG d   1       0.662  -1.940 -10.021  0.00  0.00     0.063 H 
ATOM      9  O   LIG d   1       1.754  -0.281  -9.408  0.00  0.00    -0.366 OA
ENDROOT
BRANCH   7  10
ATOM     10  C   LIG d   1       1.777  -1.130 -11.685  0.00  0.00     0.053 C 
ATOM     11  H   LIG d   1       1.785  -0.046 -11.808  0.00  0.00     0.038 H 
ATOM     12  H   LIG d   1       2.711  -1.545 -12.064  0.00  0.00     0.038 H 
BRANCH  10  13
ATOM     13  C   LIG d   1       0.619  -1.714 -12.453  0.00  0.00     0.216 C 
ATOM     14  O   LIG d   1       0.745  -2.775 -13.028  0.00  0.00    -0.276 OA
ATOM     15  N   LIG d   1      -0.557  -1.058 -12.500  0.00  0.00    -0.311 N 
ATOM     16  H   LIG d   1      -0.659  -0.209 -12.041  0.00  0.00     0.149 HD
BRANCH  15  17
ATOM     17  C   LIG d   1      -1.683  -1.625 -13.247  0.00  0.00     0.037 C 
ATOM     18  H   LIG d   1      -1.360  -1.873 -14.257  0.00  0.00     0.051 H 
ATOM     19  H   LIG d   1      -2.034  -2.526 -12.745  0.00  0.00     0.051 H 
BRANCH  17  20
ATOM     20  C   LIG d   1      -2.801  -0.617 -13.310  0.00  0.00    -0.030 A 
ATOM     21  C   LIG d   1      -4.115  -1.047 -13.369  0.00  0.00    -0.054 A 
ATOM     22  C   LIG d   1      -5.142  -0.124 -13.426  0.00  0.00    -0.020 A 
ATOM     23  H   LIG d   1      -4.337  -2.103 -13.370  0.00  0.00     0.062 H 
ATOM     24  C   LIG d   1      -4.855   1.233 -13.425  0.00  0.00     0.120 A 
ATOM     25  H   LIG d   1      -6.167  -0.460 -13.471  0.00  0.00     0.065 H 
ATOM     26  C   LIG d   1      -3.537   1.661 -13.367  0.00  0.00    -0.020 A 
ATOM     27  C   LIG d   1      -2.514   0.735 -13.304  0.00  0.00    -0.054 A 
ATOM     28  H   LIG d   1      -3.311   2.717 -13.365  0.00  0.00     0.065 H 
ATOM     29  H   LIG d   1      -1.487   1.068 -13.253  0.00  0.00     0.062 H 
BRANCH  24  30
ATOM     30  O   LIG d   1      -5.864   2.141 -13.481  0.00  0.00    -0.495 OA
BRANCH  30  31
ATOM     31  C   LIG d   1      -5.551   3.483 -13.099  0.00  0.00     0.079 C 
ATOM     32  H   LIG d   1      -6.007   3.702 -12.134  0.00  0.00     0.066 H 
ATOM     33  H   LIG d   1      -4.470   3.597 -13.026  0.00  0.00     0.066 H 
ATOM     34  H   LIG d   1      -5.940   4.173 -13.848  0.00  0.00     0.066 H 
ENDBRANCH  30  31
ENDBRANCH  24  30
ENDBRANCH  17  20
ENDBRANCH  15  17
ENDBRANCH  10  13
ENDBRANCH   7  10
BRANCH   5  35
ATOM     35  O   LIG d   1       2.218  -3.661  -9.291  0.00  0.00    -0.387 OA
ATOM     36  H   LIG d   1       2.622  -3.977  -8.471  0.00  0.00     0.210 HD
ENDBRANCH   5  35
BRANCH   3  37
ATOM     37  O   LIG d   1       3.831  -2.562  -7.568  0.00  0.00    -0.387 OA
ATOM     38  H   LIG d   1       4.695  -2.983  -7.673  0.00  0.00     0.210 HD
ENDBRANCH   3  37
BRANCH   1  39
ATOM     39  C   LIG d   1       3.048   0.556  -7.509  0.00  0.00     0.042 C 
ATOM     40  H   LIG d   1       3.646   1.096  -8.243  0.00  0.00     0.049 H 
ATOM     41  H   LIG d   1       2.270   1.213  -7.121  0.00  0.00     0.049 H 
BRANCH  39  42
ATOM     42  N   LIG d   1       3.907   0.114  -6.408  0.00  0.00    -0.297 N 
ATOM     43  C   LIG d   1       3.409   0.022  -5.160  0.00  0.00     0.300 C 
ATOM     44  N   LIG d   1       4.200  -0.385  -4.147  0.00  0.00    -0.297 N 
ATOM     45  O   LIG d   1       2.246   0.306  -4.947  0.00  0.00    -0.253 OA
ATOM     46  H   LIG d   1       5.127  -0.613  -4.317  0.00  0.00     0.150 HD
ATOM     47  H   LIG d   1       4.835  -0.113  -6.579  0.00  0.00     0.150 HD
BRANCH  44  48
ATOM     48  C   LIG d   1       3.658  -0.485  -2.789  0.00  0.00     0.019 C 
ATOM     49  H   LIG d   1       2.595  -0.240  -2.804  0.00  0.00     0.049 H 
BRANCH  48  50
ATOM     50  C   LIG d   1       3.847  -1.911  -2.268  0.00  0.00    -0.047 C 
ATOM     51  H   LIG d   1       2.964  -2.504  -2.502  0.00  0.00     0.025 H 
ATOM     52  H   LIG d   1       4.721  -2.357  -2.743  0.00  0.00     0.025 H 
ATOM     53  H   LIG d   1       3.993  -1.886  -1.188  0.00  0.00     0.025 H 
ENDBRANCH  48  50
BRANCH  48  54
ATOM     54  C   LIG d   1       4.393   0.495  -1.873  0.00  0.00    -0.047 C 
ATOM     55  H   LIG d   1       3.997   0.415  -0.861  0.00  0.00     0.025 H 
ATOM     56  H   LIG d   1       5.457   0.259  -1.866  0.00  0.00     0.025 H 
ATOM     57  H   LIG d   1       4.250   1.512  -2.239  0.00  0.00     0.025 H 
ENDBRANCH  48  54
ENDBRANCH  44  48
ENDBRANCH  39  42
ENDBRANCH   1  39
TORSDOF 13
ENDMDL
MODEL 4
REMARK VINA RESULT:      -5.4      2.492      7.603
REMARK  13 active torsions:
REMARK  status: ('A' for Active; 'I' for Inactive)
REMARK    1  A    between atoms: C_1  and  C_2 
REMARK    2  A    between atoms: C_2  and  C_3 
REMARK    3  A    between atoms: C_2  and  N_4 
REMARK       I    between atoms: N_4  and  C_5 
REMARK       I    between atoms: C_5  and  N_7 
REMARK    4  A    between atoms: N_7  and  C_8 
REMARK    5  A    between atoms: C_8  and  C_9 
REMARK    6  A    between atoms: C_11  and  O_32 
REMARK    7  A    between atoms: C_13  and  O_31 
REMARK    8  A    between atoms: C_15  and  C_18 
REMARK    9  A    between atoms: C_18  and  C_19 
REMARK       I    between atoms: C_19  and  N_21 
REMARK   10  A    between atoms: N_21  and  C_22 
REMARK   11  A    between atoms: C_22  and  C_23 
REMARK   12  A    between atoms: C_26  and  O_29 
REMARK   13  A    between atoms: O_29  and  C_30 
ROOT
ATOM      1  C   LIG d   1       4.830  -1.700  -4.130  0.00  0.00     0.103 C 
ATOM      2  H   LIG d   1       5.699  -1.180  -3.727  0.00  0.00     0.064 H 
ATOM      3  C   LIG d   1       3.644  -1.632  -3.136  0.00  0.00     0.111 C 
ATOM      4  H   LIG d   1       2.911  -2.410  -3.349  0.00  0.00     0.065 H 
ATOM      5  C   LIG d   1       3.057  -0.228  -3.425  0.00  0.00     0.110 C 
ATOM      6  H   LIG d   1       1.968  -0.260  -3.414  0.00  0.00     0.065 H 
ATOM      7  C   LIG d   1       3.574   0.113  -4.837  0.00  0.00     0.096 C 
ATOM      8  H   LIG d   1       4.214   0.993  -4.795  0.00  0.00     0.063 H 
ATOM      9  O   LIG d   1       4.328  -1.020  -5.301  0.00  0.00    -0.366 OA
ENDROOT
BRANCH   7  10
ATOM     10  C   LIG d   1       2.392   0.370  -5.774  0.00  0.00     0.053 C 
ATOM     11  H   LIG d   1       1.789  -0.535  -5.856  0.00  0.00     0.038 H 
ATOM     12  H   LIG d   1       1.780   1.179  -5.375  0.00  0.00     0.038 H 
BRANCH  10  13
ATOM     13  C   LIG d   1       2.907   0.755  -7.137  0.00  0.00     0.216 C 
ATOM     14  O   LIG d   1       2.950   1.923  -7.463  0.00  0.00    -0.276 OA
ATOM     15  N   LIG d   1       3.321  -0.199  -7.995  0.00  0.00    -0.311 N 
ATOM     16  H   LIG d   1       3.288  -1.133  -7.735  0.00  0.00     0.149 HD
BRANCH  15  17
ATOM     17  C   LIG d   1       3.822   0.175  -9.320  0.00  0.00     0.037 C 
ATOM     18  H   LIG d   1       3.785   1.258  -9.430  0.00  0.00     0.051 H 
ATOM     19  H   LIG d   1       4.850  -0.167  -9.430  0.00  0.00     0.051 H 
BRANCH  17  20
ATOM     20  C   LIG d   1       2.963  -0.466 -10.380  0.00  0.00    -0.030 A 
ATOM     21  C   LIG d   1       3.501  -0.760 -11.619  0.00  0.00    -0.054 A 
ATOM     22  C   LIG d   1       2.716  -1.349 -12.592  0.00  0.00    -0.020 A 
ATOM     23  H   LIG d   1       4.535  -0.531 -11.827  0.00  0.00     0.062 H 
ATOM     24  C   LIG d   1       1.387  -1.644 -12.324  0.00  0.00     0.120 A 
ATOM     25  H   LIG d   1       3.136  -1.579 -13.559  0.00  0.00     0.065 H 
ATOM     26  C   LIG d   1       0.850  -1.347 -11.080  0.00  0.00    -0.020 A 
ATOM     27  C   LIG d   1       1.640  -0.764 -10.109  0.00  0.00    -0.054 A 
ATOM     28  H   LIG d   1      -0.184  -1.576 -10.870  0.00  0.00     0.065 H 
ATOM     29  H   LIG d   1       1.224  -0.538  -9.138  0.00  0.00     0.062 H 
BRANCH  24  30
ATOM     30  O   LIG d   1       0.613  -2.223 -13.280  0.00  0.00    -0.495 OA
BRANCH  30  31
ATOM     31  C   LIG d   1      -0.744  -1.783 -13.369  0.00  0.00     0.079 C 
ATOM     32  H   LIG d   1      -1.393  -2.641 -13.546  0.00  0.00     0.066 H 
ATOM     33  H   LIG d   1      -1.030  -1.296 -12.438  0.00  0.00     0.066 H 
ATOM     34  H   LIG d   1      -0.843  -1.079 -14.195  0.00  0.00     0.066 H 
ENDBRANCH  30  31
ENDBRANCH  24  30
ENDBRANCH  17  20
ENDBRANCH  15  17
ENDBRANCH  10  13
ENDBRANCH   7  10
BRANCH   5  35
ATOM     35  O   LIG d   1       3.538   0.723  -2.474  0.00  0.00    -0.387 OA
ATOM     36  H   LIG d   1       2.841   1.234  -2.039  0.00  0.00     0.210 HD
ENDBRANCH   5  35
BRANCH   3  37
ATOM     37  O   LIG d   1       4.103  -1.724  -1.786  0.00  0.00    -0.387 OA
ATOM     38  H   LIG d   1       4.575  -0.939  -1.476  0.00  0.00     0.210 HD
ENDBRANCH   3  37
BRANCH   1  39
ATOM     39  C   LIG d   1       5.176  -3.154  -4.459  0.00  0.00     0.042 C 
ATOM     40  H   LIG d   1       6.132  -3.190  -4.980  0.00  0.00     0.049 H 
ATOM     41  H   LIG d   1       5.244  -3.728  -3.535  0.00  0.00     0.049 H 
BRANCH  39  42
ATOM     42  N   LIG d   1       4.131  -3.724  -5.313  0.00  0.00    -0.297 N 
ATOM     43  C   LIG d   1       4.420  -4.092  -6.575  0.00  0.00     0.300 C 
ATOM     44  N   LIG d   1       3.459  -4.617  -7.361  0.00  0.00    -0.297 N 
ATOM     45  O   LIG d   1       5.548  -3.953  -7.006  0.00  0.00    -0.253 OA
ATOM     46  H   LIG d   1       2.559  -4.730  -7.018  0.00  0.00     0.150 HD
ATOM     47  H   LIG d   1       3.231  -3.835  -4.968  0.00  0.00     0.150 HD
BRANCH  44  48
ATOM     48  C   LIG d   1       3.774  -5.019  -8.735  0.00  0.00     0.019 C 
ATOM     49  H   LIG d   1       4.810  -4.766  -8.958  0.00  0.00     0.049 H 
BRANCH  48  50
ATOM     50  C   LIG d   1       3.571  -6.528  -8.885  0.00  0.00    -0.047 C 
ATOM     51  H   LIG d   1       3.773  -7.017  -7.932  0.00  0.00     0.025 H 
ATOM     52  H   LIG d   1       2.542  -6.727  -9.185  0.00  0.00     0.025 H 
ATOM     53  H   LIG d   1       4.253  -6.912  -9.643  0.00  0.00     0.025 H 
ENDBRANCH  48  50
BRANCH  48  54
ATOM     54  C   LIG d   1       2.849  -4.281  -9.706  0.00  0.00    -0.047 C 
ATOM     55  H   LIG d   1       2.657  -3.275  -9.332  0.00  0.00     0.025 H 
ATOM     56  H   LIG d   1       3.324  -4.220 -10.685  0.00  0.00     0.025 H 
ATOM     57  H   LIG d   1       1.907  -4.822  -9.793  0.00  0.00     0.025 H 
ENDBRANCH  48  54
ENDBRANCH  44  48
ENDBRANCH  39  42
ENDBRANCH   1  39
TORSDOF 13
ENDMDL
MODEL 5
REMARK VINA RESULT:      -5.3      2.575      4.755
REMARK  13 active torsions:
REMARK  status: ('A' for Active; 'I' for Inactive)
REMARK    1  A    between atoms: C_1  and  C_2 
REMARK    2  A    between atoms: C_2  and  C_3 
REMARK    3  A    between atoms: C_2  and  N_4 
REMARK       I    between atoms: N_4  and  C_5 
REMARK       I    between atoms: C_5  and  N_7 
REMARK    4  A    between atoms: N_7  and  C_8 
REMARK    5  A    between atoms: C_8  and  C_9 
REMARK    6  A    between atoms: C_11  and  O_32 
REMARK    7  A    between atoms: C_13  and  O_31 
REMARK    8  A    between atoms: C_15  and  C_18 
REMARK    9  A    between atoms: C_18  and  C_19 
REMARK       I    between atoms: C_19  and  N_21 
REMARK   10  A    between atoms: N_21  and  C_22 
REMARK   11  A    between atoms: C_22  and  C_23 
REMARK   12  A    between atoms: C_26  and  O_29 
REMARK   13  A    between atoms: O_29  and  C_30 
ROOT
ATOM      1  C   LIG d   1       5.229   0.046  -8.186  0.00  0.00     0.103 C 
ATOM      2  H   LIG d   1       5.104  -0.748  -8.922  0.00  0.00     0.064 H 
ATOM      3  C   LIG d   1       4.618   1.372  -8.703  0.00  0.00     0.111 C 
ATOM      4  H   LIG d   1       5.025   2.227  -8.162  0.00  0.00     0.065 H 
ATOM      5  C   LIG d   1       3.114   1.183  -8.385  0.00  0.00     0.110 C 
ATOM      6  H   LIG d   1       2.684   2.112  -8.011  0.00  0.00     0.065 H 
ATOM      7  C   LIG d   1       3.094   0.099  -7.290  0.00  0.00     0.096 C 
ATOM      8  H   LIG d   1       2.564  -0.783  -7.650  0.00  0.00     0.063 H 
ATOM      9  O   LIG d   1       4.461  -0.238  -6.997  0.00  0.00    -0.366 OA
ENDROOT
BRANCH   7  10
ATOM     10  C   LIG d   1       2.411   0.642  -6.033  0.00  0.00     0.053 C 
ATOM     11  H   LIG d   1       2.432   1.732  -6.050  0.00  0.00     0.038 H 
ATOM     12  H   LIG d   1       1.376   0.299  -6.004  0.00  0.00     0.038 H 
BRANCH  10  13
ATOM     13  C   LIG d   1       3.139   0.145  -4.811  0.00  0.00     0.216 C 
ATOM     14  O   LIG d   1       3.722   0.928  -4.091  0.00  0.00    -0.276 OA
ATOM     15  N   LIG d   1       3.142  -1.171  -4.517  0.00  0.00    -0.311 N 
ATOM     16  H   LIG d   1       2.676  -1.798  -5.093  0.00  0.00     0.149 HD
BRANCH  15  17
ATOM     17  C   LIG d   1       3.851  -1.654  -3.330  0.00  0.00     0.037 C 
ATOM     18  H   LIG d   1       4.064  -0.816  -2.668  0.00  0.00     0.051 H 
ATOM     19  H   LIG d   1       3.230  -2.382  -2.808  0.00  0.00     0.051 H 
BRANCH  17  20
ATOM     20  C   LIG d   1       5.144  -2.306  -3.748  0.00  0.00    -0.030 A 
ATOM     21  C   LIG d   1       6.348  -1.811  -3.282  0.00  0.00    -0.054 A 
ATOM     22  C   LIG d   1       7.535  -2.408  -3.663  0.00  0.00    -0.020 A 
ATOM     23  H   LIG d   1       6.361  -0.959  -2.620  0.00  0.00     0.062 H 
ATOM     24  C   LIG d   1       7.517  -3.504  -4.514  0.00  0.00     0.120 A 
ATOM     25  H   LIG d   1       8.475  -2.022  -3.298  0.00  0.00     0.065 H 
ATOM     26  C   LIG d   1       6.307  -3.997  -4.980  0.00  0.00    -0.020 A 
ATOM     27  C   LIG d   1       5.124  -3.401  -4.592  0.00  0.00    -0.054 A 
ATOM     28  H   LIG d   1       6.291  -4.850  -5.643  0.00  0.00     0.065 H 
ATOM     29  H   LIG d   1       4.181  -3.789  -4.950  0.00  0.00     0.062 H 
BRANCH  24  30
ATOM     30  O   LIG d   1       8.683  -4.091  -4.890  0.00  0.00    -0.495 OA
BRANCH  30  31
ATOM     31  C   LIG d   1       8.950  -5.395  -4.368  0.00  0.00     0.079 C 
ATOM     32  H   LIG d   1       9.901  -5.756  -4.759  0.00  0.00     0.066 H 
ATOM     33  H   LIG d   1       8.997  -5.348  -3.281  0.00  0.00     0.066 H 
ATOM     34  H   LIG d   1       8.153  -6.076  -4.669  0.00  0.00     0.066 H 
ENDBRANCH  30  31
ENDBRANCH  24  30
ENDBRANCH  17  20
ENDBRANCH  15  17
ENDBRANCH  10  13
ENDBRANCH   7  10
BRANCH   5  35
ATOM     35  O   LIG d   1       2.407   0.737  -9.544  0.00  0.00    -0.387 OA
ATOM     36  H   LIG d   1       2.915   0.803 -10.365  0.00  0.00     0.210 HD
ENDBRANCH   5  35
BRANCH   3  37
ATOM     37  O   LIG d   1       4.827   1.516 -10.110  0.00  0.00    -0.387 OA
ATOM     38  H   LIG d   1       4.543   0.753 -10.631  0.00  0.00     0.210 HD
ENDBRANCH   3  37
BRANCH   1  39
ATOM     39  C   LIG d   1       6.708   0.233  -7.840  0.00  0.00     0.042 C 
ATOM     40  H   LIG d   1       7.170  -0.743  -7.687  0.00  0.00     0.049 H 
ATOM     41  H   LIG d   1       7.211   0.747  -8.659  0.00  0.00     0.049 H 
BRANCH  39  42
ATOM     42  N   LIG d   1       6.827   1.028  -6.616  0.00  0.00    -0.297 N 
ATOM     43  C   LIG d   1       8.015   1.564  -6.274  0.00  0.00     0.300 C 
ATOM     44  N   LIG d   1       8.124   2.297  -5.148  0.00  0.00    -0.297 N 
ATOM     45  O   LIG d   1       8.987   1.389  -6.982  0.00  0.00    -0.253 OA
ATOM     46  H   LIG d   1       7.349   2.438  -4.583  0.00  0.00     0.150 HD
ATOM     47  H   LIG d   1       6.051   1.168  -6.052  0.00  0.00     0.150 HD
BRANCH  44  48
ATOM     48  C   LIG d   1       9.417   2.880  -4.776  0.00  0.00     0.019 C 
ATOM     49  H   LIG d   1      10.185   2.526  -5.463  0.00  0.00     0.049 H 
BRANCH  48  50
ATOM     50  C   LIG d   1       9.327   4.406  -4.851  0.00  0.00    -0.047 C 
ATOM     51  H   LIG d   1      10.089   4.781  -5.533  0.00  0.00     0.025 H 
ATOM     52  H   LIG d   1       8.340   4.694  -5.214  0.00  0.00     0.025 H 
ATOM     53  H   LIG d   1       9.487   4.828  -3.858  0.00  0.00     0.025 H 
ENDBRANCH  48  50
BRANCH  48  54
ATOM     54  C   LIG d   1       9.775   2.459  -3.350  0.00  0.00    -0.047 C 
ATOM     55  H   LIG d   1      10.845   2.592  -3.189  0.00  0.00     0.025 H 
ATOM     56  H   LIG d   1       9.222   3.073  -2.639  0.00  0.00     0.025 H 
ATOM     57  H   LIG d   1       9.514   1.411  -3.204  0.00  0.00     0.025 H 
ENDBRANCH  48  54
ENDBRANCH  44  48
ENDBRANCH  39  42
ENDBRANCH   1  39
TORSDOF 13
ENDMDL
MODEL 6
REMARK VINA RESULT:      -5.3      2.709      5.451
REMARK  13 active torsions:
REMARK  status: ('A' for Active; 'I' for Inactive)
REMARK    1  A    between atoms: C_1  and  C_2 
REMARK    2  A    between atoms: C_2  and  C_3 
REMARK    3  A    between atoms: C_2  and  N_4 
REMARK       I    between atoms: N_4  and  C_5 
REMARK       I    between atoms: C_5  and  N_7 
REMARK    4  A    between atoms: N_7  and  C_8 
REMARK    5  A    between atoms: C_8  and  C_9 
REMARK    6  A    between atoms: C_11  and  O_32 
REMARK    7  A    between atoms: C_13  and  O_31 
REMARK    8  A    between atoms: C_15  and  C_18 
REMARK    9  A    between atoms: C_18  and  C_19 
REMARK       I    between atoms: C_19  and  N_21 
REMARK   10  A    between atoms: N_21  and  C_22 
REMARK   11  A    between atoms: C_22  and  C_23 
REMARK   12  A    between atoms: C_26  and  O_29 
REMARK   13  A    between atoms: O_29  and  C_30 
ROOT
ATOM      1  C   LIG d   1       4.918  -5.790  -5.794  0.00  0.00     0.103 C 
ATOM      2  H   LIG d   1       4.367  -6.300  -5.004  0.00  0.00     0.064 H 
ATOM      3  C   LIG d   1       6.099  -6.662  -6.287  0.00  0.00     0.111 C 
ATOM      4  H   LIG d   1       6.843  -6.054  -6.804  0.00  0.00     0.065 H 
ATOM      5  C   LIG d   1       5.399  -7.632  -7.270  0.00  0.00     0.110 C 
ATOM      6  H   LIG d   1       6.015  -7.788  -8.156  0.00  0.00     0.065 H 
ATOM      7  C   LIG d   1       4.089  -6.911  -7.644  0.00  0.00     0.096 C 
ATOM      8  H   LIG d   1       3.234  -7.501  -7.316  0.00  0.00     0.063 H 
ATOM      9  O   LIG d   1       4.095  -5.640  -6.972  0.00  0.00    -0.366 OA
ENDROOT
BRANCH   7  10
ATOM     10  C   LIG d   1       4.027  -6.698  -9.158  0.00  0.00     0.053 C 
ATOM     11  H   LIG d   1       4.977  -6.289  -9.507  0.00  0.00     0.038 H 
ATOM     12  H   LIG d   1       3.838  -7.651  -9.652  0.00  0.00     0.038 H 
BRANCH  10  13
ATOM     13  C   LIG d   1       2.916  -5.733  -9.484  0.00  0.00     0.216 C 
ATOM     14  O   LIG d   1       1.774  -6.132  -9.578  0.00  0.00    -0.276 OA
ATOM     15  N   LIG d   1       3.191  -4.427  -9.671  0.00  0.00    -0.311 N 
ATOM     16  H   LIG d   1       4.104  -4.107  -9.596  0.00  0.00     0.149 HD
BRANCH  15  17
ATOM     17  C   LIG d   1       2.111  -3.489  -9.988  0.00  0.00     0.037 C 
ATOM     18  H   LIG d   1       1.961  -3.460 -11.067  0.00  0.00     0.051 H 
ATOM     19  H   LIG d   1       1.192  -3.816  -9.502  0.00  0.00     0.051 H 
BRANCH  17  20
ATOM     20  C   LIG d   1       2.479  -2.114  -9.494  0.00  0.00    -0.030 A 
ATOM     21  C   LIG d   1       3.468  -1.966  -8.539  0.00  0.00    -0.054 A 
ATOM     22  C   LIG d   1       3.808  -0.705  -8.085  0.00  0.00    -0.020 A 
ATOM     23  H   LIG d   1       3.975  -2.834  -8.148  0.00  0.00     0.062 H 
ATOM     24  C   LIG d   1       3.156   0.411  -8.589  0.00  0.00     0.120 A 
ATOM     25  H   LIG d   1       4.581  -0.590  -7.340  0.00  0.00     0.065 H 
ATOM     26  C   LIG d   1       2.165   0.259  -9.547  0.00  0.00    -0.020 A 
ATOM     27  C   LIG d   1       1.833  -1.002 -10.001  0.00  0.00    -0.054 A 
ATOM     28  H   LIG d   1       1.657   1.127  -9.941  0.00  0.00     0.065 H 
ATOM     29  H   LIG d   1       1.064  -1.120 -10.752  0.00  0.00     0.062 H 
BRANCH  24  30
ATOM     30  O   LIG d   1       3.490   1.651  -8.144  0.00  0.00    -0.495 OA
BRANCH  30  31
ATOM     31  C   LIG d   1       4.008   2.569  -9.110  0.00  0.00     0.079 C 
ATOM     32  H   LIG d   1       4.940   2.179  -9.518  0.00  0.00     0.066 H 
ATOM     33  H   LIG d   1       3.284   2.697  -9.914  0.00  0.00     0.066 H 
ATOM     34  H   LIG d   1       4.195   3.531  -8.633  0.00  0.00     0.066 H 
ENDBRANCH  30  31
ENDBRANCH  24  30
ENDBRANCH  17  20
ENDBRANCH  15  17
ENDBRANCH  10  13
ENDBRANCH   7  10
BRANCH   5  35
ATOM     35  O   LIG d   1       5.118  -8.879  -6.631  0.00  0.00    -0.387 OA
ATOM     36  H   LIG d   1       4.366  -9.355  -7.009  0.00  0.00     0.210 HD
ENDBRANCH   5  35
BRANCH   3  37
ATOM     37  O   LIG d   1       6.694  -7.377  -5.202  0.00  0.00    -0.387 OA
ATOM     38  H   LIG d   1       7.660  -7.333  -5.184  0.00  0.00     0.210 HD
ENDBRANCH   3  37
BRANCH   1  39
ATOM     39  C   LIG d   1       5.418  -4.427  -5.310  0.00  0.00     0.042 C 
ATOM     40  H   LIG d   1       6.170  -4.572  -4.534  0.00  0.00     0.049 H 
ATOM     41  H   LIG d   1       5.859  -3.885  -6.146  0.00  0.00     0.049 H 
BRANCH  39  42
ATOM     42  N   LIG d   1       4.295  -3.659  -4.767  0.00  0.00    -0.297 N 
ATOM     43  C   LIG d   1       4.384  -2.319  -4.663  0.00  0.00     0.300 C 
ATOM     44  N   LIG d   1       3.350  -1.612  -4.163  0.00  0.00    -0.297 N 
ATOM     45  O   LIG d   1       5.395  -1.747  -5.020  0.00  0.00    -0.253 OA
ATOM     46  H   LIG d   1       2.543  -2.068  -3.879  0.00  0.00     0.150 HD
ATOM     47  H   LIG d   1       3.488  -4.116  -4.482  0.00  0.00     0.150 HD
BRANCH  44  48
ATOM     48  C   LIG d   1       3.447  -0.154  -4.050  0.00  0.00     0.019 C 
ATOM     49  H   LIG d   1       4.418   0.175  -4.421  0.00  0.00     0.049 H 
BRANCH  48  50
ATOM     50  C   LIG d   1       2.336   0.496  -4.878  0.00  0.00    -0.047 C 
ATOM     51  H   LIG d   1       2.182   1.520  -4.538  0.00  0.00     0.025 H 
ATOM     52  H   LIG d   1       2.624   0.501  -5.929  0.00  0.00     0.025 H 
ATOM     53  H   LIG d   1       1.413  -0.071  -4.756  0.00  0.00     0.025 H 
ENDBRANCH  48  50
BRANCH  48  54
ATOM     54  C   LIG d   1       3.296   0.255  -2.584  0.00  0.00    -0.047 C 
ATOM     55  H   LIG d   1       2.628   1.114  -2.512  0.00  0.00     0.025 H 
ATOM     56  H   LIG d   1       2.880  -0.576  -2.015  0.00  0.00     0.025 H 
ATOM     57  H   LIG d   1       4.272   0.520  -2.178  0.00  0.00     0.025 H 
ENDBRANCH  48  54
ENDBRANCH  44  48
ENDBRANCH  39  42
ENDBRANCH   1  39
TORSDOF 13
ENDMDL
MODEL 7
REMARK VINA RESULT:      -5.3      4.163      7.968
REMARK  13 active torsions:
REMARK  status: ('A' for Active; 'I' for Inactive)
REMARK    1  A    between atoms: C_1  and  C_2 
REMARK    2  A    between atoms: C_2  and  C_3 
REMARK    3  A    between atoms: C_2  and  N_4 
REMARK       I    between atoms: N_4  and  C_5 
REMARK       I    between atoms: C_5  and  N_7 
REMARK    4  A    between atoms: N_7  and  C_8 
REMARK    5  A    between atoms: C_8  and  C_9 
REMARK    6  A    between atoms: C_11  and  O_32 
REMARK    7  A    between atoms: C_13  and  O_31 
REMARK    8  A    between atoms: C_15  and  C_18 
REMARK    9  A    between atoms: C_18  and  C_19 
REMARK       I    between atoms: C_19  and  N_21 
REMARK   10  A    between atoms: N_21  and  C_22 
REMARK   11  A    between atoms: C_22  and  C_23 
REMARK   12  A    between atoms: C_26  and  O_29 
REMARK   13  A    between atoms: O_29  and  C_30 
ROOT
ATOM      1  C   LIG d   1       4.195  -0.996  -8.692  0.00  0.00     0.103 C 
ATOM      2  H   LIG d   1       5.166  -0.827  -9.158  0.00  0.00     0.064 H 
ATOM      3  C   LIG d   1       3.505   0.351  -8.363  0.00  0.00     0.111 C 
ATOM      4  H   LIG d   1       2.728   0.217  -7.611  0.00  0.00     0.065 H 
ATOM      5  C   LIG d   1       2.889   0.742  -9.729  0.00  0.00     0.110 C 
ATOM      6  H   LIG d   1       1.893   1.164  -9.592  0.00  0.00     0.065 H 
ATOM      7  C   LIG d   1       2.809  -0.589 -10.502  0.00  0.00     0.096 C 
ATOM      8  H   LIG d   1       3.436  -0.539 -11.392  0.00  0.00     0.063 H 
ATOM      9  O   LIG d   1       3.287  -1.622  -9.624  0.00  0.00    -0.366 OA
ENDROOT
BRANCH   7  10
ATOM     10  C   LIG d   1       1.359  -0.873 -10.900  0.00  0.00     0.053 C 
ATOM     11  H   LIG d   1       0.695  -0.584 -10.084  0.00  0.00     0.038 H 
ATOM     12  H   LIG d   1       1.108  -0.302 -11.793  0.00  0.00     0.038 H 
BRANCH  10  13
ATOM     13  C   LIG d   1       1.195  -2.345 -11.181  0.00  0.00     0.216 C 
ATOM     14  O   LIG d   1       1.600  -2.812 -12.225  0.00  0.00    -0.276 OA
ATOM     15  N   LIG d   1       0.599  -3.143 -10.273  0.00  0.00    -0.311 N 
ATOM     16  H   LIG d   1       0.276  -2.770  -9.438  0.00  0.00     0.149 HD
BRANCH  15  17
ATOM     17  C   LIG d   1       0.440  -4.573 -10.547  0.00  0.00     0.037 C 
ATOM     18  H   LIG d   1       0.937  -4.821 -11.484  0.00  0.00     0.051 H 
ATOM     19  H   LIG d   1       0.883  -5.150  -9.736  0.00  0.00     0.051 H 
BRANCH  17  20
ATOM     20  C   LIG d   1      -1.027  -4.903 -10.654  0.00  0.00    -0.030 A 
ATOM     21  C   LIG d   1      -1.733  -4.547 -11.789  0.00  0.00    -0.054 A 
ATOM     22  C   LIG d   1      -3.078  -4.849 -11.889  0.00  0.00    -0.020 A 
ATOM     23  H   LIG d   1      -1.234  -4.034 -12.596  0.00  0.00     0.062 H 
ATOM     24  C   LIG d   1      -3.719  -5.509 -10.851  0.00  0.00     0.120 A 
ATOM     25  H   LIG d   1      -3.628  -4.572 -12.776  0.00  0.00     0.065 H 
ATOM     26  C   LIG d   1      -3.008  -5.864  -9.714  0.00  0.00    -0.020 A 
ATOM     27  C   LIG d   1      -1.663  -5.565  -9.621  0.00  0.00    -0.054 A 
ATOM     28  H   LIG d   1      -3.505  -6.379  -8.905  0.00  0.00     0.065 H 
ATOM     29  H   LIG d   1      -1.107  -5.847  -8.738  0.00  0.00     0.062 H 
BRANCH  24  30
ATOM     30  O   LIG d   1      -5.041  -5.807 -10.949  0.00  0.00    -0.495 OA
BRANCH  30  31
ATOM     31  C   LIG d   1      -5.387  -6.995 -11.666  0.00  0.00     0.079 C 
ATOM     32  H   LIG d   1      -6.061  -7.601 -11.061  0.00  0.00     0.066 H 
ATOM     33  H   LIG d   1      -5.879  -6.724 -12.600  0.00  0.00     0.066 H 
ATOM     34  H   LIG d   1      -4.483  -7.564 -11.882  0.00  0.00     0.066 H 
ENDBRANCH  30  31
ENDBRANCH  24  30
ENDBRANCH  17  20
ENDBRANCH  15  17
ENDBRANCH  10  13
ENDBRANCH   7  10
BRANCH   5  35
ATOM     35  O   LIG d   1       3.733   1.669 -10.415  0.00  0.00    -0.387 OA
ATOM     36  H   LIG d   1       3.253   2.330 -10.932  0.00  0.00     0.210 HD
ENDBRANCH   5  35
BRANCH   3  37
ATOM     37  O   LIG d   1       4.461   1.324  -7.939  0.00  0.00    -0.387 OA
ATOM     38  H   LIG d   1       4.933   1.756  -8.664  0.00  0.00     0.210 HD
ENDBRANCH   3  37
BRANCH   1  39
ATOM     39  C   LIG d   1       4.344  -1.849  -7.430  0.00  0.00     0.042 C 
ATOM     40  H   LIG d   1       3.837  -2.803  -7.576  0.00  0.00     0.049 H 
ATOM     41  H   LIG d   1       5.401  -2.026  -7.234  0.00  0.00     0.049 H 
BRANCH  39  42
ATOM     42  N   LIG d   1       3.747  -1.146  -6.292  0.00  0.00    -0.297 N 
ATOM     43  C   LIG d   1       4.426  -1.040  -5.134  0.00  0.00     0.300 C 
ATOM     44  N   LIG d   1       3.876  -0.394  -4.087  0.00  0.00    -0.297 N 
ATOM     45  O   LIG d   1       5.536  -1.526  -5.034  0.00  0.00    -0.253 OA
ATOM     46  H   LIG d   1       2.992  -0.005  -4.167  0.00  0.00     0.150 HD
ATOM     47  H   LIG d   1       2.861  -0.758  -6.373  0.00  0.00     0.150 HD
BRANCH  44  48
ATOM     48  C   LIG d   1       4.616  -0.277  -2.827  0.00  0.00     0.019 C 
ATOM     49  H   LIG d   1       5.686  -0.252  -3.036  0.00  0.00     0.049 H 
BRANCH  48  50
ATOM     50  C   LIG d   1       4.205   1.011  -2.111  0.00  0.00    -0.047 C 
ATOM     51  H   LIG d   1       3.276   0.843  -1.567  0.00  0.00     0.025 H 
ATOM     52  H   LIG d   1       4.988   1.302  -1.411  0.00  0.00     0.025 H 
ATOM     53  H   LIG d   1       4.059   1.803  -2.844  0.00  0.00     0.025 H 
ENDBRANCH  48  50
BRANCH  48  54
ATOM     54  C   LIG d   1       4.298  -1.480  -1.936  0.00  0.00    -0.047 C 
ATOM     55  H   LIG d   1       3.347  -1.918  -2.241  0.00  0.00     0.025 H 
ATOM     56  H   LIG d   1       5.088  -2.224  -2.034  0.00  0.00     0.025 H 
ATOM     57  H   LIG d   1       4.232  -1.156  -0.898  0.00  0.00     0.025 H 
ENDBRANCH  48  54
ENDBRANCH  44  48
ENDBRANCH  39  42
ENDBRANCH   1  39
TORSDOF 13
ENDMDL
MODEL 8
REMARK VINA RESULT:      -5.2      6.270     10.403
REMARK  13 active torsions:
REMARK  status: ('A' for Active; 'I' for Inactive)
REMARK    1  A    between atoms: C_1  and  C_2 
REMARK    2  A    between atoms: C_2  and  C_3 
REMARK    3  A    between atoms: C_2  and  N_4 
REMARK       I    between atoms: N_4  and  C_5 
REMARK       I    between atoms: C_5  and  N_7 
REMARK    4  A    between atoms: N_7  and  C_8 
REMARK    5  A    between atoms: C_8  and  C_9 
REMARK    6  A    between atoms: C_11  and  O_32 
REMARK    7  A    between atoms: C_13  and  O_31 
REMARK    8  A    between atoms: C_15  and  C_18 
REMARK    9  A    between atoms: C_18  and  C_19 
REMARK       I    between atoms: C_19  and  N_21 
REMARK   10  A    between atoms: N_21  and  C_22 
REMARK   11  A    between atoms: C_22  and  C_23 
REMARK   12  A    between atoms: C_26  and  O_29 
REMARK   13  A    between atoms: O_29  and  C_30 
ROOT
ATOM      1  C   LIG d   1       9.408   6.762  -4.777  0.00  0.00     0.103 C 
ATOM      2  H   LIG d   1       8.352   7.031  -4.767  0.00  0.00     0.064 H 
ATOM      3  C   LIG d   1      10.172   7.508  -3.655  0.00  0.00     0.111 C 
ATOM      4  H   LIG d   1      11.243   7.528  -3.859  0.00  0.00     0.065 H 
ATOM      5  C   LIG d   1       9.862   6.635  -2.414  0.00  0.00     0.110 C 
ATOM      6  H   LIG d   1      10.749   6.532  -1.789  0.00  0.00     0.065 H 
ATOM      7  C   LIG d   1       9.455   5.271  -3.004  0.00  0.00     0.096 C 
ATOM      8  H   LIG d   1       8.423   5.045  -2.737  0.00  0.00     0.063 H 
ATOM      9  O   LIG d   1       9.580   5.370  -4.433  0.00  0.00    -0.366 OA
ENDROOT
BRANCH   7  10
ATOM     10  C   LIG d   1      10.384   4.177  -2.474  0.00  0.00     0.053 C 
ATOM     11  H   LIG d   1      11.422   4.476  -2.627  0.00  0.00     0.038 H 
ATOM     12  H   LIG d   1      10.202   4.029  -1.410  0.00  0.00     0.038 H 
BRANCH  10  13
ATOM     13  C   LIG d   1      10.119   2.891  -3.214  0.00  0.00     0.216 C 
ATOM     14  O   LIG d   1      11.035   2.140  -3.473  0.00  0.00    -0.276 OA
ATOM     15  N   LIG d   1       8.863   2.575  -3.586  0.00  0.00    -0.311 N 
ATOM     16  H   LIG d   1       8.129   3.176  -3.379  0.00  0.00     0.149 HD
BRANCH  15  17
ATOM     17  C   LIG d   1       8.605   1.325  -4.306  0.00  0.00     0.037 C 
ATOM     18  H   LIG d   1       8.454   1.539  -5.363  0.00  0.00     0.051 H 
ATOM     19  H   LIG d   1       9.456   0.656  -4.188  0.00  0.00     0.051 H 
BRANCH  17  20
ATOM     20  C   LIG d   1       7.369   0.670  -3.746  0.00  0.00    -0.030 A 
ATOM     21  C   LIG d   1       6.342   1.448  -3.244  0.00  0.00    -0.054 A 
ATOM     22  C   LIG d   1       5.208   0.849  -2.731  0.00  0.00    -0.020 A 
ATOM     23  H   LIG d   1       6.426   2.524  -3.254  0.00  0.00     0.062 H 
ATOM     24  C   LIG d   1       5.099  -0.534  -2.719  0.00  0.00     0.120 A 
ATOM     25  H   LIG d   1       4.405   1.458  -2.340  0.00  0.00     0.065 H 
ATOM     26  C   LIG d   1       6.131  -1.312  -3.222  0.00  0.00    -0.020 A 
ATOM     27  C   LIG d   1       7.261  -0.708  -3.740  0.00  0.00    -0.054 A 
ATOM     28  H   LIG d   1       6.049  -2.389  -3.214  0.00  0.00     0.065 H 
ATOM     29  H   LIG d   1       8.062  -1.314  -4.137  0.00  0.00     0.062 H 
BRANCH  24  30
ATOM     30  O   LIG d   1       3.984  -1.125  -2.214  0.00  0.00    -0.495 OA
BRANCH  30  31
ATOM     31  C   LIG d   1       2.758  -0.898  -2.914  0.00  0.00     0.079 C 
ATOM     32  H   LIG d   1       2.173  -1.817  -2.928  0.00  0.00     0.066 H 
ATOM     33  H   LIG d   1       2.193  -0.115  -2.411  0.00  0.00     0.066 H 
ATOM     34  H   LIG d   1       2.975  -0.591  -3.937  0.00  0.00     0.066 H 
ENDBRANCH  30  31
ENDBRANCH  24  30
ENDBRANCH  17  20
ENDBRANCH  15  17
ENDBRANCH  10  13
ENDBRANCH   7  10
BRANCH   5  35
ATOM     35  O   LIG d   1       8.785   7.196  -1.661  0.00  0.00    -0.387 OA
ATOM     36  H   LIG d   1       8.486   8.058  -1.983  0.00  0.00     0.210 HD
ENDBRANCH   5  35
BRANCH   3  37
ATOM     37  O   LIG d   1       9.663   8.833  -3.485  0.00  0.00    -0.387 OA
ATOM     38  H   LIG d   1       9.165   9.164  -4.245  0.00  0.00     0.210 HD
ENDBRANCH   3  37
BRANCH   1  39
ATOM     39  C   LIG d   1      10.028   7.060  -6.143  0.00  0.00     0.042 C 
ATOM     40  H   LIG d   1      11.107   7.175  -6.034  0.00  0.00     0.049 H 
ATOM     41  H   LIG d   1       9.819   6.236  -6.824  0.00  0.00     0.049 H 
BRANCH  39  42
ATOM     42  N   LIG d   1       9.456   8.296  -6.681  0.00  0.00    -0.297 N 
ATOM     43  C   LIG d   1      10.178   9.433  -6.669  0.00  0.00     0.300 C 
ATOM     44  N   LIG d   1       9.651  10.571  -7.164  0.00  0.00    -0.297 N 
ATOM     45  O   LIG d   1      11.305   9.434  -6.214  0.00  0.00    -0.253 OA
ATOM     46  H   LIG d   1       8.752  10.571  -7.529  0.00  0.00     0.150 HD
ATOM     47  H   LIG d   1       8.557   8.295  -7.045  0.00  0.00     0.150 HD
BRANCH  44  48
ATOM     48  C   LIG d   1      10.437  11.808  -7.153  0.00  0.00     0.019 C 
ATOM     49  H   LIG d   1      11.115  11.799  -6.299  0.00  0.00     0.049 H 
BRANCH  48  50
ATOM     50  C   LIG d   1      11.245  11.912  -8.448  0.00  0.00    -0.047 C 
ATOM     51  H   LIG d   1      12.272  11.601  -8.260  0.00  0.00     0.025 H 
ATOM     52  H   LIG d   1      10.801  11.264  -9.204  0.00  0.00     0.025 H 
ATOM     53  H   LIG d   1      11.234  12.943  -8.801  0.00  0.00     0.025 H 
ENDBRANCH  48  50
BRANCH  48  54
ATOM     54  C   LIG d   1       9.495  13.009  -7.042  0.00  0.00    -0.047 C 
ATOM     55  H   LIG d   1       9.671  13.688  -7.876  0.00  0.00     0.025 H 
ATOM     56  H   LIG d   1       8.462  12.665  -7.065  0.00  0.00     0.025 H 
ATOM     57  H   LIG d   1       9.682  13.532  -6.104  0.00  0.00     0.025 H 
ENDBRANCH  48  54
ENDBRANCH  44  48
ENDBRANCH  39  42
ENDBRANCH   1  39
TORSDOF 13
ENDMDL
MODEL 9
REMARK VINA RESULT:      -5.1      2.576      6.897
REMARK  13 active torsions:
REMARK  status: ('A' for Active; 'I' for Inactive)
REMARK    1  A    between atoms: C_1  and  C_2 
REMARK    2  A    between atoms: C_2  and  C_3 
REMARK    3  A    between atoms: C_2  and  N_4 
REMARK       I    between atoms: N_4  and  C_5 
REMARK       I    between atoms: C_5  and  N_7 
REMARK    4  A    between atoms: N_7  and  C_8 
REMARK    5  A    between atoms: C_8  and  C_9 
REMARK    6  A    between atoms: C_11  and  O_32 
REMARK    7  A    between atoms: C_13  and  O_31 
REMARK    8  A    between atoms: C_15  and  C_18 
REMARK    9  A    between atoms: C_18  and  C_19 
REMARK       I    between atoms: C_19  and  N_21 
REMARK   10  A    between atoms: N_21  and  C_22 
REMARK   11  A    between atoms: C_22  and  C_23 
REMARK   12  A    between atoms: C_26  and  O_29 
REMARK   13  A    between atoms: O_29  and  C_30 
ROOT
ATOM      1  C   LIG d   1       5.982  -0.683  -4.870  0.00  0.00     0.103 C 
ATOM      2  H   LIG d   1       6.593  -0.853  -3.983  0.00  0.00     0.064 H 
ATOM      3  C   LIG d   1       5.296  -1.997  -5.321  0.00  0.00     0.111 C 
ATOM      4  H   LIG d   1       4.979  -1.933  -6.362  0.00  0.00     0.065 H 
ATOM      5  C   LIG d   1       4.073  -2.066  -4.373  0.00  0.00     0.110 C 
ATOM      6  H   LIG d   1       3.192  -2.411  -4.914  0.00  0.00     0.065 H 
ATOM      7  C   LIG d   1       3.881  -0.613  -3.898  0.00  0.00     0.096 C 
ATOM      8  H   LIG d   1       4.020  -0.554  -2.819  0.00  0.00     0.063 H 
ATOM      9  O   LIG d   1       4.873   0.189  -4.563  0.00  0.00    -0.366 OA
ENDROOT
BRANCH   7  10
ATOM     10  C   LIG d   1       2.480  -0.124  -4.273  0.00  0.00     0.053 C 
ATOM     11  H   LIG d   1       1.889  -0.963  -4.642  0.00  0.00     0.038 H 
ATOM     12  H   LIG d   1       1.997   0.302  -3.394  0.00  0.00     0.038 H 
BRANCH  10  13
ATOM     13  C   LIG d   1       2.586   0.927  -5.348  0.00  0.00     0.216 C 
ATOM     14  O   LIG d   1       2.402   2.095  -5.075  0.00  0.00    -0.276 OA
ATOM     15  N   LIG d   1       2.887   0.570  -6.612  0.00  0.00    -0.311 N 
ATOM     16  H   LIG d   1       3.034  -0.364  -6.830  0.00  0.00     0.149 HD
BRANCH  15  17
ATOM     17  C   LIG d   1       2.989   1.591  -7.657  0.00  0.00     0.037 C 
ATOM     18  H   LIG d   1       2.123   2.250  -7.608  0.00  0.00     0.051 H 
ATOM     19  H   LIG d   1       3.899   2.173  -7.508  0.00  0.00     0.051 H 
BRANCH  17  20
ATOM     20  C   LIG d   1       3.037   0.924  -9.008  0.00  0.00    -0.030 A 
ATOM     21  C   LIG d   1       2.222  -0.163  -9.270  0.00  0.00    -0.054 A 
ATOM     22  C   LIG d   1       2.264  -0.775 -10.507  0.00  0.00    -0.020 A 
ATOM     23  H   LIG d   1       1.555  -0.533  -8.507  0.00  0.00     0.062 H 
ATOM     24  C   LIG d   1       3.123  -0.299 -11.488  0.00  0.00     0.120 A 
ATOM     25  H   LIG d   1       1.627  -1.623 -10.712  0.00  0.00     0.065 H 
ATOM     26  C   LIG d   1       3.938   0.791 -11.222  0.00  0.00    -0.020 A 
ATOM     27  C   LIG d   1       3.889   1.403  -9.985  0.00  0.00    -0.054 A 
ATOM     28  H   LIG d   1       4.607   1.164 -11.984  0.00  0.00     0.065 H 
ATOM     29  H   LIG d   1       4.520   2.256  -9.780  0.00  0.00     0.062 H 
BRANCH  24  30
ATOM     30  O   LIG d   1       3.164  -0.900 -12.706  0.00  0.00    -0.495 OA
BRANCH  30  31
ATOM     31  C   LIG d   1       4.296  -0.615 -13.531  0.00  0.00     0.079 C 
ATOM     32  H   LIG d   1       4.538  -1.493 -14.131  0.00  0.00     0.066 H 
ATOM     33  H   LIG d   1       4.065   0.222 -14.188  0.00  0.00     0.066 H 
ATOM     34  H   LIG d   1       5.149  -0.361 -12.902  0.00  0.00     0.066 H 
ENDBRANCH  30  31
ENDBRANCH  24  30
ENDBRANCH  17  20
ENDBRANCH  15  17
ENDBRANCH  10  13
ENDBRANCH   7  10
BRANCH   5  35
ATOM     35  O   LIG d   1       4.345  -2.924  -3.263  0.00  0.00    -0.387 OA
ATOM     36  H   LIG d   1       3.803  -3.725  -3.243  0.00  0.00     0.210 HD
ENDBRANCH   5  35
BRANCH   3  37
ATOM     37  O   LIG d   1       6.160  -3.118  -5.121  0.00  0.00    -0.387 OA
ATOM     38  H   LIG d   1       6.824  -3.232  -5.813  0.00  0.00     0.210 HD
ENDBRANCH   3  37
BRANCH   1  39
ATOM     39  C   LIG d   1       6.828  -0.099  -6.004  0.00  0.00     0.042 C 
ATOM     40  H   LIG d   1       6.799  -0.772  -6.861  0.00  0.00     0.049 H 
ATOM     41  H   LIG d   1       6.426   0.872  -6.293  0.00  0.00     0.049 H 
BRANCH  39  42
ATOM     42  N   LIG d   1       8.211   0.060  -5.551  0.00  0.00    -0.297 N 
ATOM     43  C   LIG d   1       8.669   1.276  -5.198  0.00  0.00     0.300 C 
ATOM     44  N   LIG d   1       9.943   1.422  -4.781  0.00  0.00    -0.297 N 
ATOM     45  O   LIG d   1       7.934   2.243  -5.254  0.00  0.00    -0.253 OA
ATOM     46  H   LIG d   1      10.530   0.651  -4.735  0.00  0.00     0.150 HD
ATOM     47  H   LIG d   1       8.798  -0.712  -5.506  0.00  0.00     0.150 HD
BRANCH  44  48
ATOM     48  C   LIG d   1      10.441   2.746  -4.396  0.00  0.00     0.019 C 
ATOM     49  H   LIG d   1       9.798   3.514  -4.825  0.00  0.00     0.049 H 
BRANCH  48  50
ATOM     50  C   LIG d   1      10.437   2.868  -2.871  0.00  0.00    -0.047 C 
ATOM     51  H   LIG d   1      11.225   3.553  -2.560  0.00  0.00     0.025 H 
ATOM     52  H   LIG d   1       9.471   3.251  -2.541  0.00  0.00     0.025 H 
ATOM     53  H   LIG d   1      10.610   1.888  -2.428  0.00  0.00     0.025 H 
ENDBRANCH  48  50
BRANCH  48  54
ATOM     54  C   LIG d   1      11.868   2.925  -4.919  0.00  0.00    -0.047 C 
ATOM     55  H   LIG d   1      12.293   3.841  -4.508  0.00  0.00     0.025 H 
ATOM     56  H   LIG d   1      12.476   2.074  -4.615  0.00  0.00     0.025 H 
ATOM     57  H   LIG d   1      11.850   2.990  -6.007  0.00  0.00     0.025 H 
ENDBRANCH  48  54
ENDBRANCH  44  48
ENDBRANCH  39  42
ENDBRANCH   1  39
TORSDOF 13
ENDMDL
