MODEL 1
REMARK VINA RESULT:      -6.6      0.000      0.000
REMARK  11 active torsions:
REMARK  status: ('A' for Active; 'I' for Inactive)
REMARK    1  A    between atoms: C_1  and  C_2 
REMARK    2  A    between atoms: C_2  and  O_3 
REMARK    3  A    between atoms: O_3  and  C_4 
REMARK    4  A    between atoms: C_4  and  C_6 
REMARK    5  A    between atoms: C_9  and  N_12 
REMARK       I    between atoms: N_12  and  C_13 
REMARK    6  A    between atoms: C_13  and  C_15 
REMARK    7  A    between atoms: C_18  and  C_32 
REMARK    8  A    between atoms: C_24  and  C_31 
REMARK    9  A    between atoms: C_25  and  C_30 
REMARK   10  A    between atoms: C_32  and  C_34 
REMARK   11  A    between atoms: C_32  and  O_35 
ROOT
ATOM      1  C   LIG d   1       7.634  -1.727  -6.130  0.00  0.00     0.100 C 
ATOM      2  H   LIG d   1       7.336  -1.919  -7.161  0.00  0.00     0.046 H 
ATOM      3  C   LIG d   1       8.933  -2.497  -5.793  0.00  0.00     0.010 C 
ATOM      4  C   LIG d   1       8.682  -2.982  -4.342  0.00  0.00     0.006 C 
ATOM      5  H   LIG d   1       8.896  -2.188  -3.627  0.00  0.00     0.088 H 
ATOM      6  C   LIG d   1       6.586  -2.281  -5.160  0.00  0.00     0.105 A 
ATOM      7  C   LIG d   1       6.011  -1.187  -4.301  0.00  0.00     0.034 A 
ATOM      8  C   LIG d   1       6.564  -0.303  -3.401  0.00  0.00    -0.050 A 
ATOM      9  C   LIG d   1       5.760   0.613  -2.748  0.00  0.00    -0.058 A 
ATOM     10  C   LIG d   1       4.401   0.639  -3.000  0.00  0.00    -0.046 A 
ATOM     11  C   LIG d   1       3.843  -0.244  -3.901  0.00  0.00    -0.026 A 
ATOM     12  C   LIG d   1       4.646  -1.170  -4.564  0.00  0.00     0.046 A 
ATOM     13  N   LIG d   1       4.322  -2.149  -5.505  0.00  0.00    -0.280 N 
ATOM     14  C   LIG d   1       5.403  -2.844  -5.906  0.00  0.00     0.274 A 
ATOM     15  O   LIG d   1       5.422  -3.749  -6.713  0.00  0.00    -0.269 OA
ATOM     16  H   LIG d   1       9.797  -1.833  -5.833  0.00  0.00     0.033 H 
ATOM     17  H   LIG d   1       9.069  -3.344  -6.465  0.00  0.00     0.033 H 
ATOM     18  H   LIG d   1       7.626  -0.325  -3.206  0.00  0.00     0.062 H 
ATOM     19  H   LIG d   1       6.192   1.307  -2.042  0.00  0.00     0.062 H 
ATOM     20  H   LIG d   1       3.424  -2.310  -5.832  0.00  0.00     0.155 HD
ATOM     21  N   LIG d   1       7.245  -3.295  -4.350  0.00  0.00     0.246 N 
ATOM     22  H   LIG d   1       6.876  -3.276  -3.393  0.00  0.00     0.203 HD
ATOM     23  H   LIG d   1       7.091  -4.225  -4.758  0.00  0.00     0.203 HD
ENDROOT
BRANCH   1  24
ATOM     24  C   LIG d   1       7.828  -0.250  -5.906  0.00  0.00     0.227 C 
ATOM     25  N   LIG d   1       8.997   0.211  -5.415  0.00  0.00    -0.285 N 
ATOM     26  H   LIG d   1       9.736  -0.400  -5.274  0.00  0.00     0.155 HD
ATOM     27  O   LIG d   1       6.933   0.526  -6.168  0.00  0.00    -0.275 OA
BRANCH  25  28
ATOM     28  C   LIG d   1       9.140   1.563  -5.112  0.00  0.00     0.033 A 
ATOM     29  C   LIG d   1       9.100   1.986  -3.787  0.00  0.00    -0.040 A 
ATOM     30  C   LIG d   1       9.241   3.322  -3.484  0.00  0.00    -0.046 A 
ATOM     31  H   LIG d   1       8.957   1.266  -2.995  0.00  0.00     0.064 H 
ATOM     32  C   LIG d   1       9.426   4.253  -4.510  0.00  0.00     0.059 A 
ATOM     33  H   LIG d   1       9.210   3.649  -2.455  0.00  0.00     0.063 H 
ATOM     34  C   LIG d   1       9.467   3.825  -5.840  0.00  0.00    -0.046 A 
ATOM     35  C   LIG d   1       9.330   2.488  -6.135  0.00  0.00    -0.040 A 
ATOM     36  H   LIG d   1       9.611   4.542  -6.635  0.00  0.00     0.063 H 
ATOM     37  H   LIG d   1       9.366   2.156  -7.162  0.00  0.00     0.064 H 
BRANCH  32  38
ATOM     38  C   LIG d   1       9.580   5.685  -4.189  0.00  0.00     0.339 C 
ATOM     39  O   LIG d   1       9.084   6.526  -4.913  0.00  0.00    -0.245 OA
BRANCH  38  40
ATOM     40  O   LIG d   1      10.270   6.059  -3.094  0.00  0.00    -0.461 OA
BRANCH  40  41
ATOM     41  C   LIG d   1       9.545   6.807  -2.081  0.00  0.00     0.090 C 
ATOM     42  H   LIG d   1       9.447   7.846  -2.397  0.00  0.00     0.070 H 
ATOM     43  H   LIG d   1       8.554   6.372  -1.950  0.00  0.00     0.070 H 
BRANCH  41  44
ATOM     44  C   LIG d   1      10.309   6.744  -0.758  0.00  0.00    -0.031 C 
ATOM     45  H   LIG d   1      10.995   5.897  -0.774  0.00  0.00     0.026 H 
ATOM     46  H   LIG d   1      10.874   7.666  -0.620  0.00  0.00     0.026 H 
ATOM     47  H   LIG d   1       9.603   6.624   0.064  0.00  0.00     0.026 H 
ENDBRANCH  41  44
ENDBRANCH  40  41
ENDBRANCH  38  40
ENDBRANCH  32  38
ENDBRANCH  25  28
ENDBRANCH   1  24
BRANCH   4  48
ATOM     48  C   LIG d   1       9.522  -4.223  -4.035  0.00  0.00     0.095 C 
ATOM     49  H   LIG d   1       8.979  -5.116  -4.344  0.00  0.00     0.065 H 
BRANCH  48  50
ATOM     50  C   LIG d   1       9.802  -4.292  -2.532  0.00  0.00    -0.034 C 
ATOM     51  H   LIG d   1      10.332  -3.392  -2.220  0.00  0.00     0.026 H 
ATOM     52  H   LIG d   1       8.858  -4.364  -1.991  0.00  0.00     0.026 H 
ATOM     53  H   LIG d   1      10.413  -5.168  -2.316  0.00  0.00     0.026 H 
ENDBRANCH  48  50
BRANCH  48  54
ATOM     54  O   LIG d   1      10.759  -4.148  -4.747  0.00  0.00    -0.387 OA
ATOM     55  H   LIG d   1      11.084  -5.003  -5.063  0.00  0.00     0.210 HD
ENDBRANCH  48  54
ENDBRANCH   4  48
BRANCH  11  56
ATOM     56  C   LIG d   1       2.360  -0.207  -4.169  0.00  0.00    -0.038 C 
ATOM     57  H   LIG d   1       2.083   0.779  -4.542  0.00  0.00     0.028 H 
ATOM     58  H   LIG d   1       2.106  -0.963  -4.913  0.00  0.00     0.028 H 
ATOM     59  H   LIG d   1       1.818  -0.411  -3.246  0.00  0.00     0.028 H 
ENDBRANCH  11  56
BRANCH  10  60
ATOM     60  C   LIG d   1       3.524   1.636  -2.286  0.00  0.00    -0.039 C 
ATOM     61  H   LIG d   1       3.022   2.268  -3.019  0.00  0.00     0.028 H 
ATOM     62  H   LIG d   1       2.780   1.106  -1.692  0.00  0.00     0.028 H 
ATOM     63  H   LIG d   1       4.137   2.256  -1.632  0.00  0.00     0.028 H 
ENDBRANCH  10  60
TORSDOF 11
ENDMDL
MODEL 2
REMARK VINA RESULT:      -6.5      3.897      9.240
REMARK  11 active torsions:
REMARK  status: ('A' for Active; 'I' for Inactive)
REMARK    1  A    between atoms: C_1  and  C_2 
REMARK    2  A    between atoms: C_2  and  O_3 
REMARK    3  A    between atoms: O_3  and  C_4 
REMARK    4  A    between atoms: C_4  and  C_6 
REMARK    5  A    between atoms: C_9  and  N_12 
REMARK       I    between atoms: N_12  and  C_13 
REMARK    6  A    between atoms: C_13  and  C_15 
REMARK    7  A    between atoms: C_18  and  C_32 
REMARK    8  A    between atoms: C_24  and  C_31 
REMARK    9  A    between atoms: C_25  and  C_30 
REMARK   10  A    between atoms: C_32  and  C_34 
REMARK   11  A    between atoms: C_32  and  O_35 
ROOT
ATOM      1  C   LIG d   1       4.764  -1.630  -5.180  0.00  0.00     0.100 C 
ATOM      2  H   LIG d   1       4.401  -1.465  -6.195  0.00  0.00     0.046 H 
ATOM      3  C   LIG d   1       3.750  -1.076  -4.150  0.00  0.00     0.010 C 
ATOM      4  C   LIG d   1       4.663  -0.448  -3.067  0.00  0.00     0.006 C 
ATOM      5  H   LIG d   1       5.033  -1.211  -2.383  0.00  0.00     0.088 H 
ATOM      6  C   LIG d   1       6.048  -0.829  -4.936  0.00  0.00     0.105 A 
ATOM      7  C   LIG d   1       7.193  -1.739  -4.581  0.00  0.00     0.034 A 
ATOM      8  C   LIG d   1       7.405  -2.636  -3.559  0.00  0.00    -0.050 A 
ATOM      9  C   LIG d   1       8.591  -3.346  -3.496  0.00  0.00    -0.058 A 
ATOM     10  C   LIG d   1       9.562  -3.151  -4.461  0.00  0.00    -0.046 A 
ATOM     11  C   LIG d   1       9.353  -2.254  -5.488  0.00  0.00    -0.026 A 
ATOM     12  C   LIG d   1       8.161  -1.535  -5.559  0.00  0.00     0.046 A 
ATOM     13  N   LIG d   1       7.721  -0.587  -6.485  0.00  0.00    -0.280 N 
ATOM     14  C   LIG d   1       6.492  -0.125  -6.193  0.00  0.00     0.274 A 
ATOM     15  O   LIG d   1       5.862   0.700  -6.820  0.00  0.00    -0.269 OA
ATOM     16  H   LIG d   1       3.150  -1.882  -3.728  0.00  0.00     0.033 H 
ATOM     17  H   LIG d   1       3.110  -0.318  -4.603  0.00  0.00     0.033 H 
ATOM     18  H   LIG d   1       6.645  -2.786  -2.806  0.00  0.00     0.062 H 
ATOM     19  H   LIG d   1       8.759  -4.050  -2.695  0.00  0.00     0.062 H 
ATOM     20  H   LIG d   1       8.241  -0.297  -7.250  0.00  0.00     0.155 HD
ATOM     21  N   LIG d   1       5.769   0.111  -3.861  0.00  0.00     0.246 N 
ATOM     22  H   LIG d   1       6.600   0.229  -3.271  0.00  0.00     0.203 HD
ATOM     23  H   LIG d   1       5.495   1.020  -4.252  0.00  0.00     0.203 HD
ENDROOT
BRANCH   1  24
ATOM     24  C   LIG d   1       5.006  -3.097  -4.940  0.00  0.00     0.227 C 
ATOM     25  N   LIG d   1       5.631  -3.839  -5.877  0.00  0.00    -0.285 N 
ATOM     26  H   LIG d   1       5.988  -3.415  -6.672  0.00  0.00     0.155 HD
ATOM     27  O   LIG d   1       4.640  -3.611  -3.905  0.00  0.00    -0.275 OA
BRANCH  25  28
ATOM     28  C   LIG d   1       5.764  -5.215  -5.700  0.00  0.00     0.033 A 
ATOM     29  C   LIG d   1       7.021  -5.768  -5.477  0.00  0.00    -0.040 A 
ATOM     30  C   LIG d   1       7.157  -7.127  -5.303  0.00  0.00    -0.046 A 
ATOM     31  H   LIG d   1       7.892  -5.131  -5.441  0.00  0.00     0.064 H 
ATOM     32  C   LIG d   1       6.028  -7.951  -5.350  0.00  0.00     0.059 A 
ATOM     33  H   LIG d   1       8.133  -7.556  -5.129  0.00  0.00     0.063 H 
ATOM     34  C   LIG d   1       4.767  -7.392  -5.574  0.00  0.00    -0.046 A 
ATOM     35  C   LIG d   1       4.639  -6.032  -5.743  0.00  0.00    -0.040 A 
ATOM     36  H   LIG d   1       3.893  -8.026  -5.610  0.00  0.00     0.063 H 
ATOM     37  H   LIG d   1       3.664  -5.599  -5.911  0.00  0.00     0.064 H 
BRANCH  32  38
ATOM     38  C   LIG d   1       6.169  -9.407  -5.162  0.00  0.00     0.339 C 
ATOM     39  O   LIG d   1       6.541 -10.106  -6.083  0.00  0.00    -0.245 OA
BRANCH  38  40
ATOM     40  O   LIG d   1       5.883  -9.963  -3.968  0.00  0.00    -0.461 OA
BRANCH  40  41
ATOM     41  C   LIG d   1       4.720 -10.831  -3.906  0.00  0.00     0.090 C 
ATOM     42  H   LIG d   1       4.422 -11.112  -4.916  0.00  0.00     0.070 H 
ATOM     43  H   LIG d   1       4.966 -11.728  -3.337  0.00  0.00     0.070 H 
BRANCH  41  44
ATOM     44  C   LIG d   1       3.569 -10.091  -3.221  0.00  0.00    -0.031 C 
ATOM     45  H   LIG d   1       2.666 -10.185  -3.824  0.00  0.00     0.026 H 
ATOM     46  H   LIG d   1       3.395 -10.522  -2.235  0.00  0.00     0.026 H 
ATOM     47  H   LIG d   1       3.827  -9.037  -3.116  0.00  0.00     0.026 H 
ENDBRANCH  41  44
ENDBRANCH  40  41
ENDBRANCH  38  40
ENDBRANCH  32  38
ENDBRANCH  25  28
ENDBRANCH   1  24
BRANCH   4  48
ATOM     48  C   LIG d   1       3.918   0.647  -2.300  0.00  0.00     0.095 C 
ATOM     49  H   LIG d   1       3.024   0.224  -1.843  0.00  0.00     0.065 H 
BRANCH  48  50
ATOM     50  C   LIG d   1       3.517   1.764  -3.266  0.00  0.00    -0.034 C 
ATOM     51  H   LIG d   1       3.993   2.696  -2.961  0.00  0.00     0.026 H 
ATOM     52  H   LIG d   1       3.837   1.504  -4.275  0.00  0.00     0.026 H 
ATOM     53  H   LIG d   1       2.433   1.887  -3.249  0.00  0.00     0.026 H 
ENDBRANCH  48  50
BRANCH  48  54
ATOM     54  O   LIG d   1       4.769   1.178  -1.283  0.00  0.00    -0.387 OA
ATOM     55  H   LIG d   1       5.390   1.849  -1.601  0.00  0.00     0.210 HD
ENDBRANCH  48  54
ENDBRANCH   4  48
BRANCH  11  56
ATOM     56  C   LIG d   1      10.417  -2.050  -6.536  0.00  0.00    -0.038 C 
ATOM     57  H   LIG d   1      10.009  -1.464  -7.359  0.00  0.00     0.028 H 
ATOM     58  H   LIG d   1      11.263  -1.520  -6.096  0.00  0.00     0.028 H 
ATOM     59  H   LIG d   1      10.751  -3.018  -6.908  0.00  0.00     0.028 H 
ENDBRANCH  11  56
BRANCH  10  60
ATOM     60  C   LIG d   1      10.854  -3.923  -4.392  0.00  0.00    -0.039 C 
ATOM     61  H   LIG d   1      11.585  -3.469  -5.060  0.00  0.00     0.028 H 
ATOM     62  H   LIG d   1      11.234  -3.904  -3.371  0.00  0.00     0.028 H 
ATOM     63  H   LIG d   1      10.678  -4.955  -4.695  0.00  0.00     0.028 H 
ENDBRANCH  10  60
TORSDOF 11
ENDMDL
MODEL 3
REMARK VINA RESULT:      -6.5      4.020      9.333
REMARK  11 active torsions:
REMARK  status: ('A' for Active; 'I' for Inactive)
REMARK    1  A    between atoms: C_1  and  C_2 
REMARK    2  A    between atoms: C_2  and  O_3 
REMARK    3  A    between atoms: O_3  and  C_4 
REMARK    4  A    between atoms: C_4  and  C_6 
REMARK    5  A    between atoms: C_9  and  N_12 
REMARK       I    between atoms: N_12  and  C_13 
REMARK    6  A    between atoms: C_13  and  C_15 
REMARK    7  A    between atoms: C_18  and  C_32 
REMARK    8  A    between atoms: C_24  and  C_31 
REMARK    9  A    between atoms: C_25  and  C_30 
REMARK   10  A    between atoms: C_32  and  C_34 
REMARK   11  A    between atoms: C_32  and  O_35 
ROOT
ATOM      1  C   LIG d   1       4.912  -1.918  -4.502  0.00  0.00     0.100 C 
ATOM      2  H   LIG d   1       4.058  -1.988  -3.827  0.00  0.00     0.046 H 
ATOM      3  C   LIG d   1       6.198  -1.585  -3.709  0.00  0.00     0.010 C 
ATOM      4  C   LIG d   1       6.933  -0.591  -4.644  0.00  0.00     0.006 C 
ATOM      5  H   LIG d   1       7.479  -1.123  -5.423  0.00  0.00     0.088 H 
ATOM      6  C   LIG d   1       4.731  -0.743  -5.469  0.00  0.00     0.105 A 
ATOM      7  C   LIG d   1       4.723  -1.216  -6.899  0.00  0.00     0.034 A 
ATOM      8  C   LIG d   1       5.640  -1.884  -7.678  0.00  0.00    -0.050 A 
ATOM      9  C   LIG d   1       5.340  -2.189  -8.993  0.00  0.00    -0.058 A 
ATOM     10  C   LIG d   1       4.117  -1.819  -9.523  0.00  0.00    -0.046 A 
ATOM     11  C   LIG d   1       3.195  -1.150  -8.746  0.00  0.00    -0.026 A 
ATOM     12  C   LIG d   1       3.490  -0.840  -7.419  0.00  0.00     0.046 A 
ATOM     13  N   LIG d   1       2.734  -0.182  -6.447  0.00  0.00    -0.280 N 
ATOM     14  C   LIG d   1       3.389  -0.085  -5.275  0.00  0.00     0.274 A 
ATOM     15  O   LIG d   1       2.978   0.433  -4.258  0.00  0.00    -0.269 OA
ATOM     16  H   LIG d   1       6.798  -2.482  -3.553  0.00  0.00     0.033 H 
ATOM     17  H   LIG d   1       5.958  -1.114  -2.757  0.00  0.00     0.033 H 
ATOM     18  H   LIG d   1       6.595  -2.172  -7.261  0.00  0.00     0.062 H 
ATOM     19  H   LIG d   1       6.059  -2.713  -9.605  0.00  0.00     0.062 H 
ATOM     20  H   LIG d   1       1.841   0.164  -6.598  0.00  0.00     0.155 HD
ATOM     21  N   LIG d   1       5.827   0.184  -5.227  0.00  0.00     0.246 N 
ATOM     22  H   LIG d   1       6.126   0.614  -6.109  0.00  0.00     0.203 HD
ATOM     23  H   LIG d   1       5.528   0.916  -4.572  0.00  0.00     0.203 HD
ENDROOT
BRANCH   1  24
ATOM     24  C   LIG d   1       5.084  -3.205  -5.265  0.00  0.00     0.227 C 
ATOM     25  N   LIG d   1       4.001  -3.898  -5.673  0.00  0.00    -0.285 N 
ATOM     26  H   LIG d   1       3.113  -3.532  -5.537  0.00  0.00     0.155 HD
ATOM     27  O   LIG d   1       6.196  -3.619  -5.514  0.00  0.00    -0.275 OA
BRANCH  25  28
ATOM     28  C   LIG d   1       4.158  -5.138  -6.288  0.00  0.00     0.033 A 
ATOM     29  C   LIG d   1       3.853  -5.288  -7.637  0.00  0.00    -0.040 A 
ATOM     30  C   LIG d   1       4.006  -6.512  -8.248  0.00  0.00    -0.046 A 
ATOM     31  H   LIG d   1       3.494  -4.444  -8.206  0.00  0.00     0.064 H 
ATOM     32  C   LIG d   1       4.472  -7.606  -7.510  0.00  0.00     0.059 A 
ATOM     33  H   LIG d   1       3.770  -6.628  -9.295  0.00  0.00     0.063 H 
ATOM     34  C   LIG d   1       4.778  -7.452  -6.155  0.00  0.00    -0.046 A 
ATOM     35  C   LIG d   1       4.626  -6.223  -5.553  0.00  0.00    -0.040 A 
ATOM     36  H   LIG d   1       5.138  -8.294  -5.583  0.00  0.00     0.063 H 
ATOM     37  H   LIG d   1       4.867  -6.102  -4.506  0.00  0.00     0.064 H 
BRANCH  32  38
ATOM     38  C   LIG d   1       4.640  -8.918  -8.161  0.00  0.00     0.339 C 
ATOM     39  O   LIG d   1       4.262  -9.082  -9.304  0.00  0.00    -0.245 OA
BRANCH  38  40
ATOM     40  O   LIG d   1       5.211  -9.936  -7.488  0.00  0.00    -0.461 OA
BRANCH  40  41
ATOM     41  C   LIG d   1       4.364 -11.072  -7.167  0.00  0.00     0.090 C 
ATOM     42  H   LIG d   1       3.378 -10.926  -7.608  0.00  0.00     0.070 H 
ATOM     43  H   LIG d   1       4.810 -11.982  -7.569  0.00  0.00     0.070 H 
BRANCH  41  44
ATOM     44  C   LIG d   1       4.232 -11.195  -5.648  0.00  0.00    -0.031 C 
ATOM     45  H   LIG d   1       5.155 -11.602  -5.234  0.00  0.00     0.026 H 
ATOM     46  H   LIG d   1       4.044 -10.211  -5.218  0.00  0.00     0.026 H 
ATOM     47  H   LIG d   1       3.402 -11.861  -5.409  0.00  0.00     0.026 H 
ENDBRANCH  41  44
ENDBRANCH  40  41
ENDBRANCH  38  40
ENDBRANCH  32  38
ENDBRANCH  25  28
ENDBRANCH   1  24
BRANCH   4  48
ATOM     48  C   LIG d   1       7.880   0.305  -3.841  0.00  0.00     0.095 C 
ATOM     49  H   LIG d   1       7.944  -0.061  -2.817  0.00  0.00     0.065 H 
BRANCH  48  50
ATOM     50  C   LIG d   1       7.345   1.739  -3.838  0.00  0.00    -0.034 C 
ATOM     51  H   LIG d   1       6.664   1.871  -2.997  0.00  0.00     0.026 H 
ATOM     52  H   LIG d   1       8.178   2.436  -3.745  0.00  0.00     0.026 H 
ATOM     53  H   LIG d   1       6.813   1.929  -4.770  0.00  0.00     0.026 H 
ENDBRANCH  48  50
BRANCH  48  54
ATOM     54  O   LIG d   1       9.177   0.281  -4.439  0.00  0.00    -0.387 OA
ATOM     55  H   LIG d   1       9.164   0.235  -5.406  0.00  0.00     0.210 HD
ENDBRANCH  48  54
ENDBRANCH   4  48
BRANCH  11  56
ATOM     56  C   LIG d   1       1.865  -0.753  -9.333  0.00  0.00    -0.038 C 
ATOM     57  H   LIG d   1       1.883   0.305  -9.591  0.00  0.00     0.028 H 
ATOM     58  H   LIG d   1       1.674  -1.343 -10.231  0.00  0.00     0.028 H 
ATOM     59  H   LIG d   1       1.076  -0.937  -8.604  0.00  0.00     0.028 H 
ENDBRANCH  11  56
BRANCH  10  60
ATOM     60  C   LIG d   1       3.791  -2.149 -10.957  0.00  0.00    -0.039 C 
ATOM     61  H   LIG d   1       2.711  -2.240 -11.071  0.00  0.00     0.028 H 
ATOM     62  H   LIG d   1       4.160  -1.356 -11.605  0.00  0.00     0.028 H 
ATOM     63  H   LIG d   1       4.265  -3.092 -11.230  0.00  0.00     0.028 H 
ENDBRANCH  10  60
TORSDOF 11
ENDMDL
MODEL 4
REMARK VINA RESULT:      -6.4      1.847      2.396
REMARK  11 active torsions:
REMARK  status: ('A' for Active; 'I' for Inactive)
REMARK    1  A    between atoms: C_1  and  C_2 
REMARK    2  A    between atoms: C_2  and  O_3 
REMARK    3  A    between atoms: O_3  and  C_4 
REMARK    4  A    between atoms: C_4  and  C_6 
REMARK    5  A    between atoms: C_9  and  N_12 
REMARK       I    between atoms: N_12  and  C_13 
REMARK    6  A    between atoms: C_13  and  C_15 
REMARK    7  A    between atoms: C_18  and  C_32 
REMARK    8  A    between atoms: C_24  and  C_31 
REMARK    9  A    between atoms: C_25  and  C_30 
REMARK   10  A    between atoms: C_32  and  C_34 
REMARK   11  A    between atoms: C_32  and  O_35 
ROOT
ATOM      1  C   LIG d   1       7.159  -2.693  -6.614  0.00  0.00     0.100 C 
ATOM      2  H   LIG d   1       7.119  -2.375  -7.657  0.00  0.00     0.046 H 
ATOM      3  C   LIG d   1       7.890  -4.052  -6.494  0.00  0.00     0.010 C 
ATOM      4  C   LIG d   1       7.062  -4.797  -5.417  0.00  0.00     0.006 C 
ATOM      5  H   LIG d   1       7.357  -4.481  -4.416  0.00  0.00     0.088 H 
ATOM      6  C   LIG d   1       5.746  -2.959  -6.084  0.00  0.00     0.105 A 
ATOM      7  C   LIG d   1       5.431  -2.068  -4.912  0.00  0.00     0.034 A 
ATOM      8  C   LIG d   1       6.005  -1.900  -3.672  0.00  0.00    -0.050 A 
ATOM      9  C   LIG d   1       5.479  -0.979  -2.785  0.00  0.00    -0.058 A 
ATOM     10  C   LIG d   1       4.376  -0.227  -3.147  0.00  0.00    -0.046 A 
ATOM     11  C   LIG d   1       3.799  -0.391  -4.389  0.00  0.00    -0.026 A 
ATOM     12  C   LIG d   1       4.323  -1.317  -5.289  0.00  0.00     0.046 A 
ATOM     13  N   LIG d   1       3.924  -1.659  -6.582  0.00  0.00    -0.280 N 
ATOM     14  C   LIG d   1       4.707  -2.613  -7.119  0.00  0.00     0.274 A 
ATOM     15  O   LIG d   1       4.597  -3.101  -8.224  0.00  0.00    -0.269 OA
ATOM     16  H   LIG d   1       8.917  -3.909  -6.160  0.00  0.00     0.033 H 
ATOM     17  H   LIG d   1       7.866  -4.592  -7.441  0.00  0.00     0.033 H 
ATOM     18  H   LIG d   1       6.867  -2.489  -3.392  0.00  0.00     0.062 H 
ATOM     19  H   LIG d   1       5.928  -0.846  -1.812  0.00  0.00     0.062 H 
ATOM     20  H   LIG d   1       3.170  -1.256  -7.040  0.00  0.00     0.155 HD
ATOM     21  N   LIG d   1       5.687  -4.364  -5.708  0.00  0.00     0.246 N 
ATOM     22  H   LIG d   1       5.097  -4.481  -4.877  0.00  0.00     0.203 HD
ATOM     23  H   LIG d   1       5.301  -4.918  -6.482  0.00  0.00     0.203 HD
ENDROOT
BRANCH   1  24
ATOM     24  C   LIG d   1       7.848  -1.651  -5.773  0.00  0.00     0.227 C 
ATOM     25  N   LIG d   1       7.665  -0.341  -6.038  0.00  0.00    -0.285 N 
ATOM     26  H   LIG d   1       7.034  -0.069  -6.722  0.00  0.00     0.155 HD
ATOM     27  O   LIG d   1       8.568  -1.988  -4.858  0.00  0.00    -0.275 OA
BRANCH  25  28
ATOM     28  C   LIG d   1       8.381   0.620  -5.327  0.00  0.00     0.033 A 
ATOM     29  C   LIG d   1       9.724   0.841  -5.617  0.00  0.00    -0.040 A 
ATOM     30  C   LIG d   1      10.435   1.789  -4.917  0.00  0.00    -0.046 A 
ATOM     31  H   LIG d   1      10.210   0.267  -6.392  0.00  0.00     0.064 H 
ATOM     32  C   LIG d   1       9.804   2.532  -3.914  0.00  0.00     0.059 A 
ATOM     33  H   LIG d   1      11.477   1.960  -5.143  0.00  0.00     0.063 H 
ATOM     34  C   LIG d   1       8.455   2.309  -3.625  0.00  0.00    -0.046 A 
ATOM     35  C   LIG d   1       7.750   1.362  -4.333  0.00  0.00    -0.040 A 
ATOM     36  H   LIG d   1       7.965   2.882  -2.852  0.00  0.00     0.063 H 
ATOM     37  H   LIG d   1       6.705   1.192  -4.114  0.00  0.00     0.064 H 
BRANCH  32  38
ATOM     38  C   LIG d   1      10.562   3.551  -3.163  0.00  0.00     0.339 C 
ATOM     39  O   LIG d   1      11.759   3.422  -3.003  0.00  0.00    -0.245 OA
BRANCH  38  40
ATOM     40  O   LIG d   1       9.925   4.624  -2.654  0.00  0.00    -0.461 OA
BRANCH  40  41
ATOM     41  C   LIG d   1      10.212   5.911  -3.263  0.00  0.00     0.090 C 
ATOM     42  H   LIG d   1      10.126   6.696  -2.511  0.00  0.00     0.070 H 
ATOM     43  H   LIG d   1      11.225   5.904  -3.667  0.00  0.00     0.070 H 
BRANCH  41  44
ATOM     44  C   LIG d   1       9.214   6.173  -4.392  0.00  0.00    -0.031 C 
ATOM     45  H   LIG d   1       9.417   7.146  -4.839  0.00  0.00     0.026 H 
ATOM     46  H   LIG d   1       9.312   5.397  -5.151  0.00  0.00     0.026 H 
ATOM     47  H   LIG d   1       8.200   6.162  -3.990  0.00  0.00     0.026 H 
ENDBRANCH  41  44
ENDBRANCH  40  41
ENDBRANCH  38  40
ENDBRANCH  32  38
ENDBRANCH  25  28
ENDBRANCH   1  24
BRANCH   4  48
ATOM     48  C   LIG d   1       7.215  -6.312  -5.570  0.00  0.00     0.095 C 
ATOM     49  H   LIG d   1       7.725  -6.532  -6.507  0.00  0.00     0.065 H 
BRANCH  48  50
ATOM     50  C   LIG d   1       5.832  -6.966  -5.575  0.00  0.00    -0.034 C 
ATOM     51  H   LIG d   1       5.406  -6.925  -4.573  0.00  0.00     0.026 H 
ATOM     52  H   LIG d   1       5.181  -6.433  -6.268  0.00  0.00     0.026 H 
ATOM     53  H   LIG d   1       5.924  -8.006  -5.889  0.00  0.00     0.026 H 
ENDBRANCH  48  50
BRANCH  48  54
ATOM     54  O   LIG d   1       7.981  -6.825  -4.478  0.00  0.00    -0.387 OA
ATOM     55  H   LIG d   1       7.762  -6.427  -3.623  0.00  0.00     0.210 HD
ENDBRANCH  48  54
ENDBRANCH   4  48
BRANCH  11  56
ATOM     56  C   LIG d   1       2.597   0.434  -4.773  0.00  0.00    -0.038 C 
ATOM     57  H   LIG d   1       2.072   0.752  -3.873  0.00  0.00     0.028 H 
ATOM     58  H   LIG d   1       2.923   1.311  -5.334  0.00  0.00     0.028 H 
ATOM     59  H   LIG d   1       1.929  -0.164  -5.392  0.00  0.00     0.028 H 
ENDBRANCH  11  56
BRANCH  10  60
ATOM     60  C   LIG d   1       3.801   0.775  -2.180  0.00  0.00    -0.039 C 
ATOM     61  H   LIG d   1       2.730   0.876  -2.355  0.00  0.00     0.028 H 
ATOM     62  H   LIG d   1       3.973   0.435  -1.159  0.00  0.00     0.028 H 
ATOM     63  H   LIG d   1       4.285   1.741  -2.327  0.00  0.00     0.028 H 
ENDBRANCH  10  60
TORSDOF 11
ENDMDL
MODEL 5
REMARK VINA RESULT:      -6.3      2.076      4.654
REMARK  11 active torsions:
REMARK  status: ('A' for Active; 'I' for Inactive)
REMARK    1  A    between atoms: C_1  and  C_2 
REMARK    2  A    between atoms: C_2  and  O_3 
REMARK    3  A    between atoms: O_3  and  C_4 
REMARK    4  A    between atoms: C_4  and  C_6 
REMARK    5  A    between atoms: C_9  and  N_12 
REMARK       I    between atoms: N_12  and  C_13 
REMARK    6  A    between atoms: C_13  and  C_15 
REMARK    7  A    between atoms: C_18  and  C_32 
REMARK    8  A    between atoms: C_24  and  C_31 
REMARK    9  A    between atoms: C_25  and  C_30 
REMARK   10  A    between atoms: C_32  and  C_34 
REMARK   11  A    between atoms: C_32  and  O_35 
ROOT
ATOM      1  C   LIG d   1       7.452  -0.451  -3.643  0.00  0.00     0.100 C 
ATOM      2  H   LIG d   1       8.186  -0.831  -2.931  0.00  0.00     0.046 H 
ATOM      3  C   LIG d   1       6.023  -0.585  -3.066  0.00  0.00     0.010 C 
ATOM      4  C   LIG d   1       5.190  -1.013  -4.301  0.00  0.00     0.006 C 
ATOM      5  H   LIG d   1       4.928  -0.147  -4.909  0.00  0.00     0.088 H 
ATOM      6  C   LIG d   1       7.447  -1.309  -4.912  0.00  0.00     0.105 A 
ATOM      7  C   LIG d   1       7.789  -0.485  -6.124  0.00  0.00     0.034 A 
ATOM      8  C   LIG d   1       7.210   0.617  -6.712  0.00  0.00    -0.050 A 
ATOM      9  C   LIG d   1       7.769   1.169  -7.850  0.00  0.00    -0.058 A 
ATOM     10  C   LIG d   1       8.910   0.610  -8.397  0.00  0.00    -0.046 A 
ATOM     11  C   LIG d   1       9.494  -0.493  -7.811  0.00  0.00    -0.026 A 
ATOM     12  C   LIG d   1       8.938  -1.055  -6.663  0.00  0.00     0.046 A 
ATOM     13  N   LIG d   1       9.338  -2.152  -5.898  0.00  0.00    -0.280 N 
ATOM     14  C   LIG d   1       8.518  -2.368  -4.853  0.00  0.00     0.274 A 
ATOM     15  O   LIG d   1       8.621  -3.246  -4.022  0.00  0.00    -0.269 OA
ATOM     16  H   LIG d   1       5.672   0.370  -2.677  0.00  0.00     0.033 H 
ATOM     17  H   LIG d   1       5.986  -1.352  -2.292  0.00  0.00     0.033 H 
ATOM     18  H   LIG d   1       6.319   1.052  -6.283  0.00  0.00     0.062 H 
ATOM     19  H   LIG d   1       7.316   2.034  -8.312  0.00  0.00     0.062 H 
ATOM     20  H   LIG d   1      10.116  -2.695  -6.097  0.00  0.00     0.155 HD
ATOM     21  N   LIG d   1       6.118  -1.892  -5.029  0.00  0.00     0.246 N 
ATOM     22  H   LIG d   1       5.845  -1.950  -6.017  0.00  0.00     0.203 HD
ATOM     23  H   LIG d   1       6.110  -2.831  -4.615  0.00  0.00     0.203 HD
ENDROOT
BRANCH   1  24
ATOM     24  C   LIG d   1       7.747   0.987  -3.982  0.00  0.00     0.227 C 
ATOM     25  N   LIG d   1       9.025   1.407  -4.088  0.00  0.00    -0.285 N 
ATOM     26  H   LIG d   1       9.751   0.769  -4.017  0.00  0.00     0.155 HD
ATOM     27  O   LIG d   1       6.837   1.768  -4.161  0.00  0.00    -0.275 OA
BRANCH  25  28
ATOM     28  C   LIG d   1       9.299   2.757  -4.301  0.00  0.00     0.033 A 
ATOM     29  C   LIG d   1       9.347   3.260  -5.597  0.00  0.00    -0.040 A 
ATOM     30  C   LIG d   1       9.618   4.593  -5.811  0.00  0.00    -0.046 A 
ATOM     31  H   LIG d   1       9.172   2.605  -6.437  0.00  0.00     0.064 H 
ATOM     32  C   LIG d   1       9.844   5.441  -4.722  0.00  0.00     0.059 A 
ATOM     33  H   LIG d   1       9.655   4.983  -6.817  0.00  0.00     0.063 H 
ATOM     34  C   LIG d   1       9.795   4.932  -3.421  0.00  0.00    -0.046 A 
ATOM     35  C   LIG d   1       9.518   3.600  -3.216  0.00  0.00    -0.040 A 
ATOM     36  H   LIG d   1       9.968   5.585  -2.578  0.00  0.00     0.063 H 
ATOM     37  H   LIG d   1       9.475   3.207  -2.210  0.00  0.00     0.064 H 
BRANCH  32  38
ATOM     38  C   LIG d   1      10.133   6.870  -4.946  0.00  0.00     0.339 C 
ATOM     39  O   LIG d   1      11.250   7.302  -4.747  0.00  0.00    -0.245 OA
BRANCH  38  40
ATOM     40  O   LIG d   1       9.157   7.696  -5.372  0.00  0.00    -0.461 OA
BRANCH  40  41
ATOM     41  C   LIG d   1       9.526   8.702  -6.352  0.00  0.00     0.090 C 
ATOM     42  H   LIG d   1       9.031   9.643  -6.111  0.00  0.00     0.070 H 
ATOM     43  H   LIG d   1      10.606   8.845  -6.337  0.00  0.00     0.070 H 
BRANCH  41  44
ATOM     44  C   LIG d   1       9.092   8.239  -7.744  0.00  0.00    -0.031 C 
ATOM     45  H   LIG d   1       9.332   9.011  -8.476  0.00  0.00     0.026 H 
ATOM     46  H   LIG d   1       9.615   7.319  -8.001  0.00  0.00     0.026 H 
ATOM     47  H   LIG d   1       8.016   8.059  -7.748  0.00  0.00     0.026 H 
ENDBRANCH  41  44
ENDBRANCH  40  41
ENDBRANCH  38  40
ENDBRANCH  32  38
ENDBRANCH  25  28
ENDBRANCH   1  24
BRANCH   4  48
ATOM     48  C   LIG d   1       3.931  -1.767  -3.868  0.00  0.00     0.095 C 
ATOM     49  H   LIG d   1       3.049  -1.192  -4.148  0.00  0.00     0.065 H 
BRANCH  48  50
ATOM     50  C   LIG d   1       3.951  -1.966  -2.351  0.00  0.00    -0.034 C 
ATOM     51  H   LIG d   1       2.931  -1.930  -1.967  0.00  0.00     0.026 H 
ATOM     52  H   LIG d   1       4.394  -2.933  -2.118  0.00  0.00     0.026 H 
ATOM     53  H   LIG d   1       4.541  -1.174  -1.890  0.00  0.00     0.026 H 
ENDBRANCH  48  50
BRANCH  48  54
ATOM     54  O   LIG d   1       3.894  -3.041  -4.515  0.00  0.00    -0.387 OA
ATOM     55  H   LIG d   1       3.019  -3.455  -4.519  0.00  0.00     0.210 HD
ENDBRANCH  48  54
ENDBRANCH   4  48
BRANCH  11  56
ATOM     56  C   LIG d   1      10.738  -1.094  -8.414  0.00  0.00    -0.038 C 
ATOM     57  H   LIG d   1      11.609  -0.519  -8.099  0.00  0.00     0.028 H 
ATOM     58  H   LIG d   1      10.843  -2.126  -8.078  0.00  0.00     0.028 H 
ATOM     59  H   LIG d   1      10.662  -1.073  -9.501  0.00  0.00     0.028 H 
ENDBRANCH  11  56
BRANCH  10  60
ATOM     60  C   LIG d   1       9.518   1.210  -9.639  0.00  0.00    -0.039 C 
ATOM     61  H   LIG d   1       8.744   1.719 -10.212  0.00  0.00     0.028 H 
ATOM     62  H   LIG d   1      10.291   1.924  -9.356  0.00  0.00     0.028 H 
ATOM     63  H   LIG d   1       9.958   0.418 -10.246  0.00  0.00     0.028 H 
ENDBRANCH  10  60
TORSDOF 11
ENDMDL
MODEL 6
REMARK VINA RESULT:      -6.3      2.955      8.198
REMARK  11 active torsions:
REMARK  status: ('A' for Active; 'I' for Inactive)
REMARK    1  A    between atoms: C_1  and  C_2 
REMARK    2  A    between atoms: C_2  and  O_3 
REMARK    3  A    between atoms: O_3  and  C_4 
REMARK    4  A    between atoms: C_4  and  C_6 
REMARK    5  A    between atoms: C_9  and  N_12 
REMARK       I    between atoms: N_12  and  C_13 
REMARK    6  A    between atoms: C_13  and  C_15 
REMARK    7  A    between atoms: C_18  and  C_32 
REMARK    8  A    between atoms: C_24  and  C_31 
REMARK    9  A    between atoms: C_25  and  C_30 
REMARK   10  A    between atoms: C_32  and  C_34 
REMARK   11  A    between atoms: C_32  and  O_35 
ROOT
ATOM      1  C   LIG d   1       8.472  -0.481  -6.036  0.00  0.00     0.100 C 
ATOM      2  H   LIG d   1       9.330  -0.686  -5.395  0.00  0.00     0.046 H 
ATOM      3  C   LIG d   1       8.943   0.037  -7.415  0.00  0.00     0.010 C 
ATOM      4  C   LIG d   1       7.905   1.139  -7.745  0.00  0.00     0.006 C 
ATOM      5  H   LIG d   1       6.994   0.702  -8.153  0.00  0.00     0.088 H 
ATOM      6  C   LIG d   1       7.631   0.660  -5.454  0.00  0.00     0.105 A 
ATOM      7  C   LIG d   1       6.227   0.203  -5.163  0.00  0.00     0.034 A 
ATOM      8  C   LIG d   1       5.219  -0.312  -5.947  0.00  0.00    -0.050 A 
ATOM      9  C   LIG d   1       4.004  -0.648  -5.380  0.00  0.00    -0.058 A 
ATOM     10  C   LIG d   1       3.803  -0.466  -4.024  0.00  0.00    -0.046 A 
ATOM     11  C   LIG d   1       4.810   0.049  -3.234  0.00  0.00    -0.026 A 
ATOM     12  C   LIG d   1       6.038   0.390  -3.798  0.00  0.00     0.046 A 
ATOM     13  N   LIG d   1       7.193   0.918  -3.218  0.00  0.00    -0.280 N 
ATOM     14  C   LIG d   1       8.174   1.104  -4.120  0.00  0.00     0.274 A 
ATOM     15  O   LIG d   1       9.283   1.546  -3.901  0.00  0.00    -0.269 OA
ATOM     16  H   LIG d   1       8.909  -0.759  -8.159  0.00  0.00     0.033 H 
ATOM     17  H   LIG d   1       9.946   0.458  -7.351  0.00  0.00     0.033 H 
ATOM     18  H   LIG d   1       5.379  -0.454  -7.006  0.00  0.00     0.062 H 
ATOM     19  H   LIG d   1       3.212  -1.053  -5.994  0.00  0.00     0.062 H 
ATOM     20  H   LIG d   1       7.278   1.125  -2.274  0.00  0.00     0.155 HD
ATOM     21  N   LIG d   1       7.643   1.741  -6.428  0.00  0.00     0.246 N 
ATOM     22  H   LIG d   1       6.734   2.218  -6.435  0.00  0.00     0.203 HD
ATOM     23  H   LIG d   1       8.383   2.414  -6.197  0.00  0.00     0.203 HD
ENDROOT
BRANCH   1  24
ATOM     24  C   LIG d   1       7.633  -1.721  -6.201  0.00  0.00     0.227 C 
ATOM     25  N   LIG d   1       7.492  -2.582  -5.172  0.00  0.00    -0.285 N 
ATOM     26  H   LIG d   1       7.872  -2.367  -4.305  0.00  0.00     0.155 HD
ATOM     27  O   LIG d   1       7.083  -1.946  -7.257  0.00  0.00    -0.275 OA
BRANCH  25  28
ATOM     28  C   LIG d   1       6.802  -3.779  -5.354  0.00  0.00     0.033 A 
ATOM     29  C   LIG d   1       7.479  -4.911  -5.795  0.00  0.00    -0.040 A 
ATOM     30  C   LIG d   1       6.800  -6.095  -5.977  0.00  0.00    -0.046 A 
ATOM     31  H   LIG d   1       8.539  -4.862  -5.996  0.00  0.00     0.064 H 
ATOM     32  C   LIG d   1       5.428  -6.158  -5.716  0.00  0.00     0.059 A 
ATOM     33  H   LIG d   1       7.327  -6.974  -6.319  0.00  0.00     0.063 H 
ATOM     34  C   LIG d   1       4.750  -5.019  -5.272  0.00  0.00    -0.046 A 
ATOM     35  C   LIG d   1       5.437  -3.840  -5.089  0.00  0.00    -0.040 A 
ATOM     36  H   LIG d   1       3.690  -5.064  -5.069  0.00  0.00     0.063 H 
ATOM     37  H   LIG d   1       4.915  -2.960  -4.741  0.00  0.00     0.064 H 
BRANCH  32  38
ATOM     38  C   LIG d   1       4.697  -7.425  -5.907  0.00  0.00     0.339 C 
ATOM     39  O   LIG d   1       4.190  -7.677  -6.982  0.00  0.00    -0.245 OA
BRANCH  38  40
ATOM     40  O   LIG d   1       4.591  -8.302  -4.890  0.00  0.00    -0.461 OA
BRANCH  40  41
ATOM     41  C   LIG d   1       5.471  -9.457  -4.922  0.00  0.00     0.090 C 
ATOM     42  H   LIG d   1       4.984 -10.271  -5.459  0.00  0.00     0.070 H 
ATOM     43  H   LIG d   1       6.400  -9.193  -5.428  0.00  0.00     0.070 H 
BRANCH  41  44
ATOM     44  C   LIG d   1       5.778  -9.902  -3.491  0.00  0.00    -0.031 C 
ATOM     45  H   LIG d   1       6.451 -10.759  -3.512  0.00  0.00     0.026 H 
ATOM     46  H   LIG d   1       6.250  -9.083  -2.948  0.00  0.00     0.026 H 
ATOM     47  H   LIG d   1       4.850 -10.182  -2.991  0.00  0.00     0.026 H 
ENDBRANCH  41  44
ENDBRANCH  40  41
ENDBRANCH  38  40
ENDBRANCH  32  38
ENDBRANCH  25  28
ENDBRANCH   1  24
BRANCH   4  48
ATOM     48  C   LIG d   1       8.494   2.162  -8.719  0.00  0.00     0.095 C 
ATOM     49  H   LIG d   1       9.073   1.644  -9.483  0.00  0.00     0.065 H 
BRANCH  48  50
ATOM     50  C   LIG d   1       9.403   3.128  -7.956  0.00  0.00    -0.034 C 
ATOM     51  H   LIG d   1       9.337   4.119  -8.405  0.00  0.00     0.026 H 
ATOM     52  H   LIG d   1       9.087   3.178  -6.915  0.00  0.00     0.026 H 
ATOM     53  H   LIG d   1      10.433   2.773  -8.008  0.00  0.00     0.026 H 
ENDBRANCH  48  50
BRANCH  48  54
ATOM     54  O   LIG d   1       7.433   2.894  -9.338  0.00  0.00    -0.387 OA
ATOM     55  H   LIG d   1       6.864   2.356  -9.907  0.00  0.00     0.210 HD
ENDBRANCH  48  54
ENDBRANCH   4  48
BRANCH  11  56
ATOM     56  C   LIG d   1       4.581   0.243  -1.757  0.00  0.00    -0.038 C 
ATOM     57  H   LIG d   1       4.049  -0.619  -1.355  0.00  0.00     0.028 H 
ATOM     58  H   LIG d   1       5.542   0.346  -1.251  0.00  0.00     0.028 H 
ATOM     59  H   LIG d   1       3.988   1.144  -1.596  0.00  0.00     0.028 H 
ENDBRANCH  11  56
BRANCH  10  60
ATOM     60  C   LIG d   1       2.478  -0.830  -3.406  0.00  0.00    -0.039 C 
ATOM     61  H   LIG d   1       1.918   0.078  -3.185  0.00  0.00     0.028 H 
ATOM     62  H   LIG d   1       1.910  -1.447  -4.102  0.00  0.00     0.028 H 
ATOM     63  H   LIG d   1       2.648  -1.385  -2.483  0.00  0.00     0.028 H 
ENDBRANCH  10  60
TORSDOF 11
ENDMDL
MODEL 7
REMARK VINA RESULT:      -6.2      3.604      7.251
REMARK  11 active torsions:
REMARK  status: ('A' for Active; 'I' for Inactive)
REMARK    1  A    between atoms: C_1  and  C_2 
REMARK    2  A    between atoms: C_2  and  O_3 
REMARK    3  A    between atoms: O_3  and  C_4 
REMARK    4  A    between atoms: C_4  and  C_6 
REMARK    5  A    between atoms: C_9  and  N_12 
REMARK       I    between atoms: N_12  and  C_13 
REMARK    6  A    between atoms: C_13  and  C_15 
REMARK    7  A    between atoms: C_18  and  C_32 
REMARK    8  A    between atoms: C_24  and  C_31 
REMARK    9  A    between atoms: C_25  and  C_30 
REMARK   10  A    between atoms: C_32  and  C_34 
REMARK   11  A    between atoms: C_32  and  O_35 
ROOT
ATOM      1  C   LIG d   1      10.766   3.040  -4.267  0.00  0.00     0.100 C 
ATOM      2  H   LIG d   1      11.684   2.565  -4.615  0.00  0.00     0.046 H 
ATOM      3  C   LIG d   1       9.888   2.020  -3.505  0.00  0.00     0.010 C 
ATOM      4  C   LIG d   1       8.454   2.383  -3.968  0.00  0.00     0.006 C 
ATOM      5  H   LIG d   1       8.068   3.231  -3.401  0.00  0.00     0.088 H 
ATOM      6  C   LIG d   1       9.911   3.483  -5.459  0.00  0.00     0.105 A 
ATOM      7  C   LIG d   1       9.682   4.971  -5.438  0.00  0.00     0.034 A 
ATOM      8  C   LIG d   1       9.091   5.823  -4.532  0.00  0.00    -0.050 A 
ATOM      9  C   LIG d   1       9.028   7.179  -4.796  0.00  0.00    -0.058 A 
ATOM     10  C   LIG d   1       9.559   7.676  -5.972  0.00  0.00    -0.046 A 
ATOM     11  C   LIG d   1      10.153   6.826  -6.882  0.00  0.00    -0.026 A 
ATOM     12  C   LIG d   1      10.221   5.458  -6.623  0.00  0.00     0.046 A 
ATOM     13  N   LIG d   1      10.763   4.413  -7.374  0.00  0.00    -0.280 N 
ATOM     14  C   LIG d   1      10.623   3.223  -6.761  0.00  0.00     0.274 A 
ATOM     15  O   LIG d   1      10.999   2.148  -7.178  0.00  0.00    -0.269 OA
ATOM     16  H   LIG d   1       9.990   2.152  -2.428  0.00  0.00     0.033 H 
ATOM     17  H   LIG d   1      10.139   0.999  -3.792  0.00  0.00     0.033 H 
ATOM     18  H   LIG d   1       8.677   5.431  -3.614  0.00  0.00     0.062 H 
ATOM     19  H   LIG d   1       8.565   7.848  -4.086  0.00  0.00     0.062 H 
ATOM     20  H   LIG d   1      11.190   4.532  -8.236  0.00  0.00     0.155 HD
ATOM     21  N   LIG d   1       8.653   2.755  -5.377  0.00  0.00     0.246 N 
ATOM     22  H   LIG d   1       7.880   3.350  -5.697  0.00  0.00     0.203 HD
ATOM     23  H   LIG d   1       8.699   1.910  -5.959  0.00  0.00     0.203 HD
ENDROOT
BRANCH   1  24
ATOM     24  C   LIG d   1      11.087   4.218  -3.385  0.00  0.00     0.227 C 
ATOM     25  N   LIG d   1      10.562   4.295  -2.145  0.00  0.00    -0.285 N 
ATOM     26  H   LIG d   1      10.036   3.559  -1.795  0.00  0.00     0.155 HD
ATOM     27  O   LIG d   1      11.819   5.097  -3.788  0.00  0.00    -0.275 OA
BRANCH  25  28
ATOM     28  C   LIG d   1      10.775   5.432  -1.367  0.00  0.00     0.033 A 
ATOM     29  C   LIG d   1       9.866   6.484  -1.411  0.00  0.00    -0.040 A 
ATOM     30  C   LIG d   1      10.073   7.609  -0.645  0.00  0.00    -0.046 A 
ATOM     31  H   LIG d   1       8.996   6.419  -2.048  0.00  0.00     0.064 H 
ATOM     32  C   LIG d   1      11.200   7.692   0.179  0.00  0.00     0.059 A 
ATOM     33  H   LIG d   1       9.367   8.425  -0.679  0.00  0.00     0.063 H 
ATOM     34  C   LIG d   1      12.111   6.633   0.221  0.00  0.00    -0.046 A 
ATOM     35  C   LIG d   1      11.894   5.510  -0.544  0.00  0.00    -0.040 A 
ATOM     36  H   LIG d   1      12.982   6.694   0.858  0.00  0.00     0.063 H 
ATOM     37  H   LIG d   1      12.596   4.689  -0.508  0.00  0.00     0.064 H 
BRANCH  32  38
ATOM     38  C   LIG d   1      11.425   8.894   1.003  0.00  0.00     0.339 C 
ATOM     39  O   LIG d   1      10.764   9.895   0.810  0.00  0.00    -0.245 OA
BRANCH  38  40
ATOM     40  O   LIG d   1      12.364   8.882   1.970  0.00  0.00    -0.461 OA
BRANCH  40  41
ATOM     41  C   LIG d   1      12.459  10.063   2.811  0.00  0.00     0.090 C 
ATOM     42  H   LIG d   1      13.375  10.604   2.576  0.00  0.00     0.070 H 
ATOM     43  H   LIG d   1      11.599  10.708   2.630  0.00  0.00     0.070 H 
BRANCH  41  44
ATOM     44  C   LIG d   1      12.479   9.639   4.281  0.00  0.00    -0.031 C 
ATOM     45  H   LIG d   1      13.510   9.501   4.606  0.00  0.00     0.026 H 
ATOM     46  H   LIG d   1      12.007  10.412   4.889  0.00  0.00     0.026 H 
ATOM     47  H   LIG d   1      11.932   8.703   4.397  0.00  0.00     0.026 H 
ENDBRANCH  41  44
ENDBRANCH  40  41
ENDBRANCH  38  40
ENDBRANCH  32  38
ENDBRANCH  25  28
ENDBRANCH   1  24
BRANCH   4  48
ATOM     48  C   LIG d   1       7.521   1.178  -3.835  0.00  0.00     0.095 C 
ATOM     49  H   LIG d   1       7.970   0.444  -3.166  0.00  0.00     0.065 H 
BRANCH  48  50
ATOM     50  C   LIG d   1       7.303   0.547  -5.211  0.00  0.00    -0.034 C 
ATOM     51  H   LIG d   1       7.287  -0.539  -5.115  0.00  0.00     0.026 H 
ATOM     52  H   LIG d   1       6.353   0.889  -5.621  0.00  0.00     0.026 H 
ATOM     53  H   LIG d   1       8.114   0.841  -5.878  0.00  0.00     0.026 H 
ENDBRANCH  48  50
BRANCH  48  54
ATOM     54  O   LIG d   1       6.266   1.604  -3.301  0.00  0.00    -0.387 OA
ATOM     55  H   LIG d   1       6.233   2.546  -3.079  0.00  0.00     0.210 HD
ENDBRANCH  48  54
ENDBRANCH   4  48
BRANCH  11  56
ATOM     56  C   LIG d   1      10.730   7.379  -8.160  0.00  0.00    -0.038 C 
ATOM     57  H   LIG d   1       9.997   8.029  -8.637  0.00  0.00     0.028 H 
ATOM     58  H   LIG d   1      11.631   7.950  -7.935  0.00  0.00     0.028 H 
ATOM     59  H   LIG d   1      10.979   6.557  -8.832  0.00  0.00     0.028 H 
ENDBRANCH  11  56
BRANCH  10  60
ATOM     60  C   LIG d   1       9.490   9.153  -6.261  0.00  0.00    -0.039 C 
ATOM     61  H   LIG d   1       8.503   9.529  -5.993  0.00  0.00     0.028 H 
ATOM     62  H   LIG d   1      10.248   9.674  -5.677  0.00  0.00     0.028 H 
ATOM     63  H   LIG d   1       9.667   9.324  -7.323  0.00  0.00     0.028 H 
ENDBRANCH  10  60
TORSDOF 11
ENDMDL
MODEL 8
REMARK VINA RESULT:      -6.1      7.854     10.560
REMARK  11 active torsions:
REMARK  status: ('A' for Active; 'I' for Inactive)
REMARK    1  A    between atoms: C_1  and  C_2 
REMARK    2  A    between atoms: C_2  and  O_3 
REMARK    3  A    between atoms: O_3  and  C_4 
REMARK    4  A    between atoms: C_4  and  C_6 
REMARK    5  A    between atoms: C_9  and  N_12 
REMARK       I    between atoms: N_12  and  C_13 
REMARK    6  A    between atoms: C_13  and  C_15 
REMARK    7  A    between atoms: C_18  and  C_32 
REMARK    8  A    between atoms: C_24  and  C_31 
REMARK    9  A    between atoms: C_25  and  C_30 
REMARK   10  A    between atoms: C_32  and  C_34 
REMARK   11  A    between atoms: C_32  and  O_35 
ROOT
ATOM      1  C   LIG d   1       9.613   7.047  -2.604  0.00  0.00     0.100 C 
ATOM      2  H   LIG d   1       8.543   6.869  -2.484  0.00  0.00     0.046 H 
ATOM      3  C   LIG d   1      10.425   5.907  -1.944  0.00  0.00     0.010 C 
ATOM      4  C   LIG d   1      11.614   6.660  -1.295  0.00  0.00     0.006 C 
ATOM      5  H   LIG d   1      12.389   6.867  -2.032  0.00  0.00     0.088 H 
ATOM      6  C   LIG d   1      10.030   8.314  -1.850  0.00  0.00     0.105 A 
ATOM      7  C   LIG d   1      10.620   9.332  -2.789  0.00  0.00     0.034 A 
ATOM      8  C   LIG d   1      11.708   9.320  -3.633  0.00  0.00    -0.050 A 
ATOM      9  C   LIG d   1      12.008  10.437  -4.391  0.00  0.00    -0.058 A 
ATOM     10  C   LIG d   1      11.213  11.564  -4.300  0.00  0.00    -0.046 A 
ATOM     11  C   LIG d   1      10.122  11.581  -3.457  0.00  0.00    -0.026 A 
ATOM     12  C   LIG d   1       9.813  10.459  -2.689  0.00  0.00     0.046 A 
ATOM     13  N   LIG d   1       8.778  10.234  -1.779  0.00  0.00    -0.280 N 
ATOM     14  C   LIG d   1       8.833   9.001  -1.243  0.00  0.00     0.274 A 
ATOM     15  O   LIG d   1       8.066   8.531  -0.429  0.00  0.00    -0.269 OA
ATOM     16  H   LIG d   1      10.779   5.201  -2.694  0.00  0.00     0.033 H 
ATOM     17  H   LIG d   1       9.833   5.395  -1.186  0.00  0.00     0.033 H 
ATOM     18  H   LIG d   1      12.327   8.437  -3.702  0.00  0.00     0.062 H 
ATOM     19  H   LIG d   1      12.861  10.429  -5.054  0.00  0.00     0.062 H 
ATOM     20  H   LIG d   1       8.099  10.890  -1.558  0.00  0.00     0.155 HD
ATOM     21  N   LIG d   1      10.993   7.912  -0.835  0.00  0.00     0.246 N 
ATOM     22  H   LIG d   1      11.709   8.638  -0.722  0.00  0.00     0.203 HD
ATOM     23  H   LIG d   1      10.515   7.758   0.060  0.00  0.00     0.203 HD
ENDROOT
BRANCH   1  24
ATOM     24  C   LIG d   1       9.964   7.164  -4.064  0.00  0.00     0.227 C 
ATOM     25  N   LIG d   1       9.125   7.792  -4.912  0.00  0.00    -0.285 N 
ATOM     26  H   LIG d   1       8.330   8.230  -4.570  0.00  0.00     0.155 HD
ATOM     27  O   LIG d   1      11.003   6.694  -4.477  0.00  0.00    -0.275 OA
BRANCH  25  28
ATOM     28  C   LIG d   1       9.400   7.811  -6.278  0.00  0.00     0.033 A 
ATOM     29  C   LIG d   1       9.489   6.616  -6.985  0.00  0.00    -0.040 A 
ATOM     30  C   LIG d   1       9.761   6.631  -8.334  0.00  0.00    -0.046 A 
ATOM     31  H   LIG d   1       9.347   5.676  -6.475  0.00  0.00     0.064 H 
ATOM     32  C   LIG d   1       9.946   7.850  -8.994  0.00  0.00     0.059 A 
ATOM     33  H   LIG d   1       9.830   5.703  -8.883  0.00  0.00     0.063 H 
ATOM     34  C   LIG d   1       9.855   9.049  -8.281  0.00  0.00    -0.046 A 
ATOM     35  C   LIG d   1       9.578   9.026  -6.933  0.00  0.00    -0.040 A 
ATOM     36  H   LIG d   1       9.996   9.992  -8.788  0.00  0.00     0.063 H 
ATOM     37  H   LIG d   1       9.502   9.952  -6.382  0.00  0.00     0.064 H 
BRANCH  32  38
ATOM     38  C   LIG d   1      10.235   7.871 -10.440  0.00  0.00     0.339 C 
ATOM     39  O   LIG d   1      10.699   6.887 -10.981  0.00  0.00    -0.245 OA
BRANCH  38  40
ATOM     40  O   LIG d   1       9.986   8.981 -11.161  0.00  0.00    -0.461 OA
BRANCH  40  41
ATOM     41  C   LIG d   1      10.615   9.075 -12.467  0.00  0.00     0.090 C 
ATOM     42  H   LIG d   1      11.264   9.950 -12.496  0.00  0.00     0.070 H 
ATOM     43  H   LIG d   1      11.207   8.178 -12.650  0.00  0.00     0.070 H 
BRANCH  41  44
ATOM     44  C   LIG d   1       9.537   9.202 -13.544  0.00  0.00    -0.031 C 
ATOM     45  H   LIG d   1       8.869  10.027 -13.295  0.00  0.00     0.026 H 
ATOM     46  H   LIG d   1      10.006   9.394 -14.509  0.00  0.00     0.026 H 
ATOM     47  H   LIG d   1       8.965   8.275 -13.597  0.00  0.00     0.026 H 
ENDBRANCH  41  44
ENDBRANCH  40  41
ENDBRANCH  38  40
ENDBRANCH  32  38
ENDBRANCH  25  28
ENDBRANCH   1  24
BRANCH   4  48
ATOM     48  C   LIG d   1      12.186   5.858  -0.124  0.00  0.00     0.095 C 
ATOM     49  H   LIG d   1      12.294   4.814  -0.416  0.00  0.00     0.065 H 
BRANCH  48  50
ATOM     50  C   LIG d   1      11.239   5.957   1.074  0.00  0.00    -0.034 C 
ATOM     51  H   LIG d   1      11.750   6.449   1.902  0.00  0.00     0.026 H 
ATOM     52  H   LIG d   1      10.360   6.537   0.794  0.00  0.00     0.026 H 
ATOM     53  H   LIG d   1      10.933   4.956   1.379  0.00  0.00     0.026 H 
ENDBRANCH  48  50
BRANCH  48  54
ATOM     54  O   LIG d   1      13.465   6.387   0.235  0.00  0.00    -0.387 OA
ATOM     55  H   LIG d   1      13.861   5.966   1.011  0.00  0.00     0.210 HD
ENDBRANCH  48  54
ENDBRANCH   4  48
BRANCH  11  56
ATOM     56  C   LIG d   1       9.262  12.815  -3.365  0.00  0.00    -0.038 C 
ATOM     57  H   LIG d   1       8.454  12.750  -4.094  0.00  0.00     0.028 H 
ATOM     58  H   LIG d   1       8.840  12.891  -2.362  0.00  0.00     0.028 H 
ATOM     59  H   LIG d   1       9.868  13.697  -3.570  0.00  0.00     0.028 H 
ENDBRANCH  11  56
BRANCH  10  60
ATOM     60  C   LIG d   1      11.541  12.782  -5.125  0.00  0.00    -0.039 C 
ATOM     61  H   LIG d   1      12.611  12.805  -5.329  0.00  0.00     0.028 H 
ATOM     62  H   LIG d   1      10.992  12.743  -6.065  0.00  0.00     0.028 H 
ATOM     63  H   LIG d   1      11.258  13.680  -4.576  0.00  0.00     0.028 H 
ENDBRANCH  10  60
TORSDOF 11
ENDMDL
MODEL 9
REMARK VINA RESULT:      -5.8      3.925     10.341
REMARK  11 active torsions:
REMARK  status: ('A' for Active; 'I' for Inactive)
REMARK    1  A    between atoms: C_1  and  C_2 
REMARK    2  A    between atoms: C_2  and  O_3 
REMARK    3  A    between atoms: O_3  and  C_4 
REMARK    4  A    between atoms: C_4  and  C_6 
REMARK    5  A    between atoms: C_9  and  N_12 
REMARK       I    between atoms: N_12  and  C_13 
REMARK    6  A    between atoms: C_13  and  C_15 
REMARK    7  A    between atoms: C_18  and  C_32 
REMARK    8  A    between atoms: C_24  and  C_31 
REMARK    9  A    between atoms: C_25  and  C_30 
REMARK   10  A    between atoms: C_32  and  C_34 
REMARK   11  A    between atoms: C_32  and  O_35 
ROOT
ATOM      1  C   LIG d   1      10.977   8.322  -5.347  0.00  0.00     0.100 C 
ATOM      2  H   LIG d   1      11.793   8.121  -6.043  0.00  0.00     0.046 H 
ATOM      3  C   LIG d   1      10.045   9.419  -5.915  0.00  0.00     0.010 C 
ATOM      4  C   LIG d   1       9.694  10.259  -4.660  0.00  0.00     0.006 C 
ATOM      5  H   LIG d   1       8.893   9.787  -4.091  0.00  0.00     0.088 H 
ATOM      6  C   LIG d   1      11.523   8.908  -4.040  0.00  0.00     0.105 A 
ATOM      7  C   LIG d   1      11.173   8.032  -2.867  0.00  0.00     0.034 A 
ATOM      8  C   LIG d   1       9.979   7.606  -2.329  0.00  0.00    -0.050 A 
ATOM      9  C   LIG d   1       9.975   6.784  -1.217  0.00  0.00    -0.058 A 
ATOM     10  C   LIG d   1      11.173   6.390  -0.648  0.00  0.00    -0.046 A 
ATOM     11  C   LIG d   1      12.371   6.813  -1.185  0.00  0.00    -0.026 A 
ATOM     12  C   LIG d   1      12.383   7.642  -2.305  0.00  0.00     0.046 A 
ATOM     13  N   LIG d   1      13.448   8.192  -3.021  0.00  0.00    -0.280 N 
ATOM     14  C   LIG d   1      13.029   8.946  -4.054  0.00  0.00     0.274 A 
ATOM     15  O   LIG d   1      13.730   9.543  -4.844  0.00  0.00    -0.269 OA
ATOM     16  H   LIG d   1       9.147   8.977  -6.346  0.00  0.00     0.033 H 
ATOM     17  H   LIG d   1      10.565  10.028  -6.653  0.00  0.00     0.033 H 
ATOM     18  H   LIG d   1       9.045   7.915  -2.776  0.00  0.00     0.062 H 
ATOM     19  H   LIG d   1       9.040   6.449  -0.794  0.00  0.00     0.062 H 
ATOM     20  H   LIG d   1      14.381   8.048  -2.799  0.00  0.00     0.155 HD
ATOM     21  N   LIG d   1      10.950  10.238  -3.895  0.00  0.00     0.246 N 
ATOM     22  H   LIG d   1      10.762  10.434  -2.905  0.00  0.00     0.203 HD
ATOM     23  H   LIG d   1      11.599  10.942  -4.266  0.00  0.00     0.203 HD
ENDROOT
BRANCH   1  24
ATOM     24  C   LIG d   1      10.198   7.062  -5.073  0.00  0.00     0.227 C 
ATOM     25  N   LIG d   1      10.837   5.877  -4.997  0.00  0.00    -0.285 N 
ATOM     26  H   LIG d   1      11.805   5.845  -5.047  0.00  0.00     0.155 HD
ATOM     27  O   LIG d   1       8.996   7.113  -4.921  0.00  0.00    -0.275 OA
BRANCH  25  28
ATOM     28  C   LIG d   1      10.106   4.700  -4.846  0.00  0.00     0.033 A 
ATOM     29  C   LIG d   1       9.577   4.063  -5.964  0.00  0.00    -0.040 A 
ATOM     30  C   LIG d   1       8.854   2.900  -5.819  0.00  0.00    -0.046 A 
ATOM     31  H   LIG d   1       9.732   4.482  -6.947  0.00  0.00     0.064 H 
ATOM     32  C   LIG d   1       8.654   2.359  -4.546  0.00  0.00     0.059 A 
ATOM     33  H   LIG d   1       8.444   2.407  -6.688  0.00  0.00     0.063 H 
ATOM     34  C   LIG d   1       9.187   3.001  -3.424  0.00  0.00    -0.046 A 
ATOM     35  C   LIG d   1       9.913   4.161  -3.578  0.00  0.00    -0.040 A 
ATOM     36  H   LIG d   1       9.035   2.585  -2.439  0.00  0.00     0.063 H 
ATOM     37  H   LIG d   1      10.330   4.655  -2.712  0.00  0.00     0.064 H 
BRANCH  32  38
ATOM     38  C   LIG d   1       7.882   1.113  -4.386  0.00  0.00     0.339 C 
ATOM     39  O   LIG d   1       8.435   0.037  -4.502  0.00  0.00    -0.245 OA
BRANCH  38  40
ATOM     40  O   LIG d   1       6.564   1.167  -4.112  0.00  0.00    -0.461 OA
BRANCH  40  41
ATOM     41  C   LIG d   1       6.077   0.314  -3.041  0.00  0.00     0.090 C 
ATOM     42  H   LIG d   1       5.689  -0.613  -3.463  0.00  0.00     0.070 H 
ATOM     43  H   LIG d   1       6.895   0.088  -2.357  0.00  0.00     0.070 H 
BRANCH  41  44
ATOM     44  C   LIG d   1       4.962   1.037  -2.283  0.00  0.00    -0.031 C 
ATOM     45  H   LIG d   1       4.680   0.453  -1.407  0.00  0.00     0.026 H 
ATOM     46  H   LIG d   1       5.314   2.019  -1.968  0.00  0.00     0.026 H 
ATOM     47  H   LIG d   1       4.096   1.154  -2.936  0.00  0.00     0.026 H 
ENDBRANCH  41  44
ENDBRANCH  40  41
ENDBRANCH  38  40
ENDBRANCH  32  38
ENDBRANCH  25  28
ENDBRANCH   1  24
BRANCH   4  48
ATOM     48  C   LIG d   1       9.305  11.685  -5.056  0.00  0.00     0.095 C 
ATOM     49  H   LIG d   1       8.220  11.764  -5.108  0.00  0.00     0.065 H 
BRANCH  48  50
ATOM     50  C   LIG d   1       9.907  12.017  -6.423  0.00  0.00    -0.034 C 
ATOM     51  H   LIG d   1       9.597  13.018  -6.723  0.00  0.00     0.026 H 
ATOM     52  H   LIG d   1      10.994  11.976  -6.360  0.00  0.00     0.026 H 
ATOM     53  H   LIG d   1       9.558  11.292  -7.159  0.00  0.00     0.026 H 
ENDBRANCH  48  50
BRANCH  48  54
ATOM     54  O   LIG d   1       9.804  12.602  -4.080  0.00  0.00    -0.387 OA
ATOM     55  H   LIG d   1      10.447  13.236  -4.429  0.00  0.00     0.210 HD
ENDBRANCH  48  54
ENDBRANCH   4  48
BRANCH  11  56
ATOM     56  C   LIG d   1      13.670   6.378  -0.558  0.00  0.00    -0.038 C 
ATOM     57  H   LIG d   1      13.748   6.798   0.445  0.00  0.00     0.028 H 
ATOM     58  H   LIG d   1      13.699   5.289  -0.498  0.00  0.00     0.028 H 
ATOM     59  H   LIG d   1      14.503   6.729  -1.165  0.00  0.00     0.028 H 
ENDBRANCH  11  56
BRANCH  10  60
ATOM     60  C   LIG d   1      11.169   5.495   0.564  0.00  0.00    -0.039 C 
ATOM     61  H   LIG d   1      11.933   4.727   0.451  0.00  0.00     0.028 H 
ATOM     62  H   LIG d   1      11.378   6.088   1.454  0.00  0.00     0.028 H 
ATOM     63  H   LIG d   1      10.191   5.022   0.663  0.00  0.00     0.028 H 
ENDBRANCH  10  60
TORSDOF 11
ENDMDL
MODEL 10
REMARK VINA RESULT:      -5.8      6.299     10.739
REMARK  11 active torsions:
REMARK  status: ('A' for Active; 'I' for Inactive)
REMARK    1  A    between atoms: C_1  and  C_2 
REMARK    2  A    between atoms: C_2  and  O_3 
REMARK    3  A    between atoms: O_3  and  C_4 
REMARK    4  A    between atoms: C_4  and  C_6 
REMARK    5  A    between atoms: C_9  and  N_12 
REMARK       I    between atoms: N_12  and  C_13 
REMARK    6  A    between atoms: C_13  and  C_15 
REMARK    7  A    between atoms: C_18  and  C_32 
REMARK    8  A    between atoms: C_24  and  C_31 
REMARK    9  A    between atoms: C_25  and  C_30 
REMARK   10  A    between atoms: C_32  and  C_34 
REMARK   11  A    between atoms: C_32  and  O_35 
ROOT
ATOM      1  C   LIG d   1      11.491   9.515  -4.603  0.00  0.00     0.100 C 
ATOM      2  H   LIG d   1      12.538   9.709  -4.364  0.00  0.00     0.046 H 
ATOM      3  C   LIG d   1      10.735  10.847  -4.822  0.00  0.00     0.010 C 
ATOM      4  C   LIG d   1       9.362  10.580  -4.153  0.00  0.00     0.006 C 
ATOM      5  H   LIG d   1       8.706  10.027  -4.825  0.00  0.00     0.088 H 
ATOM      6  C   LIG d   1      10.786   8.853  -3.415  0.00  0.00     0.105 A 
ATOM      7  C   LIG d   1      10.238   7.504  -3.794  0.00  0.00     0.034 A 
ATOM      8  C   LIG d   1       9.324   7.086  -4.735  0.00  0.00    -0.050 A 
ATOM      9  C   LIG d   1       9.015   5.743  -4.851  0.00  0.00    -0.058 A 
ATOM     10  C   LIG d   1       9.626   4.822  -4.019  0.00  0.00    -0.046 A 
ATOM     11  C   LIG d   1      10.543   5.236  -3.076  0.00  0.00    -0.026 A 
ATOM     12  C   LIG d   1      10.860   6.587  -2.953  0.00  0.00     0.046 A 
ATOM     13  N   LIG d   1      11.742   7.243  -2.091  0.00  0.00    -0.280 N 
ATOM     14  C   LIG d   1      11.759   8.572  -2.298  0.00  0.00     0.274 A 
ATOM     15  O   LIG d   1      12.428   9.388  -1.700  0.00  0.00    -0.269 OA
ATOM     16  H   LIG d   1      10.612  11.051  -5.885  0.00  0.00     0.033 H 
ATOM     17  H   LIG d   1      11.250  11.672  -4.330  0.00  0.00     0.033 H 
ATOM     18  H   LIG d   1       8.848   7.807  -5.383  0.00  0.00     0.062 H 
ATOM     19  H   LIG d   1       8.298   5.413  -5.589  0.00  0.00     0.062 H 
ATOM     20  H   LIG d   1      12.280   6.792  -1.422  0.00  0.00     0.155 HD
ATOM     21  N   LIG d   1       9.724   9.754  -2.991  0.00  0.00     0.246 N 
ATOM     22  H   LIG d   1       8.909   9.214  -2.677  0.00  0.00     0.203 HD
ATOM     23  H   LIG d   1      10.056  10.352  -2.225  0.00  0.00     0.203 HD
ENDROOT
BRANCH   1  24
ATOM     24  C   LIG d   1      11.385   8.645  -5.828  0.00  0.00     0.227 C 
ATOM     25  N   LIG d   1      10.626   9.038  -6.871  0.00  0.00    -0.285 N 
ATOM     26  H   LIG d   1      10.206   9.912  -6.862  0.00  0.00     0.155 HD
ATOM     27  O   LIG d   1      11.983   7.591  -5.878  0.00  0.00    -0.275 OA
BRANCH  25  28
ATOM     28  C   LIG d   1      10.445   8.188  -7.960  0.00  0.00     0.033 A 
ATOM     29  C   LIG d   1      11.473   8.011  -8.881  0.00  0.00    -0.040 A 
ATOM     30  C   LIG d   1      11.297   7.172  -9.959  0.00  0.00    -0.046 A 
ATOM     31  H   LIG d   1      12.409   8.532  -8.751  0.00  0.00     0.064 H 
ATOM     32  C   LIG d   1      10.084   6.497 -10.126  0.00  0.00     0.059 A 
ATOM     33  H   LIG d   1      12.096   7.035 -10.673  0.00  0.00     0.063 H 
ATOM     34  C   LIG d   1       9.054   6.677  -9.199  0.00  0.00    -0.046 A 
ATOM     35  C   LIG d   1       9.238   7.514  -8.122  0.00  0.00    -0.040 A 
ATOM     36  H   LIG d   1       8.116   6.156  -9.325  0.00  0.00     0.063 H 
ATOM     37  H   LIG d   1       8.444   7.649  -7.402  0.00  0.00     0.064 H 
BRANCH  32  38
ATOM     38  C   LIG d   1       9.893   5.596 -11.278  0.00  0.00     0.339 C 
ATOM     39  O   LIG d   1       9.469   4.471 -11.106  0.00  0.00    -0.245 OA
BRANCH  38  40
ATOM     40  O   LIG d   1      10.190   6.021 -12.522  0.00  0.00    -0.461 OA
BRANCH  40  41
ATOM     41  C   LIG d   1       9.117   6.637 -13.283  0.00  0.00     0.090 C 
ATOM     42  H   LIG d   1       8.305   6.910 -12.609  0.00  0.00     0.070 H 
ATOM     43  H   LIG d   1       9.492   7.532 -13.780  0.00  0.00     0.070 H 
BRANCH  41  44
ATOM     44  C   LIG d   1       8.602   5.648 -14.329  0.00  0.00    -0.031 C 
ATOM     45  H   LIG d   1       7.710   5.149 -13.952  0.00  0.00     0.026 H 
ATOM     46  H   LIG d   1       8.359   6.183 -15.247  0.00  0.00     0.026 H 
ATOM     47  H   LIG d   1       9.373   4.905 -14.536  0.00  0.00     0.026 H 
ENDBRANCH  41  44
ENDBRANCH  40  41
ENDBRANCH  38  40
ENDBRANCH  32  38
ENDBRANCH  25  28
ENDBRANCH   1  24
BRANCH   4  48
ATOM     48  C   LIG d   1       8.707  11.894  -3.722  0.00  0.00     0.095 C 
ATOM     49  H   LIG d   1       8.510  12.507  -4.601  0.00  0.00     0.065 H 
BRANCH  48  50
ATOM     50  C   LIG d   1       9.646  12.646  -2.776  0.00  0.00    -0.034 C 
ATOM     51  H   LIG d   1       9.356  13.696  -2.736  0.00  0.00     0.026 H 
ATOM     52  H   LIG d   1       9.580  12.212  -1.779  0.00  0.00     0.026 H 
ATOM     53  H   LIG d   1      10.670  12.565  -3.141  0.00  0.00     0.026 H 
ENDBRANCH  48  50
BRANCH  48  54
ATOM     54  O   LIG d   1       7.478  11.613  -3.050  0.00  0.00    -0.387 OA
ATOM     55  H   LIG d   1       7.570  11.498  -2.093  0.00  0.00     0.210 HD
ENDBRANCH  48  54
ENDBRANCH   4  48
BRANCH  11  56
ATOM     56  C   LIG d   1      11.204   4.223  -2.176  0.00  0.00    -0.038 C 
ATOM     57  H   LIG d   1      12.089   4.666  -1.720  0.00  0.00     0.028 H 
ATOM     58  H   LIG d   1      10.505   3.922  -1.394  0.00  0.00     0.028 H 
ATOM     59  H   LIG d   1      11.492   3.351  -2.760  0.00  0.00     0.028 H 
ENDBRANCH  11  56
BRANCH  10  60
ATOM     60  C   LIG d   1       9.288   3.358  -4.144  0.00  0.00    -0.039 C 
ATOM     61  H   LIG d   1       8.566   3.085  -3.375  0.00  0.00     0.028 H 
ATOM     62  H   LIG d   1       8.861   3.167  -5.128  0.00  0.00     0.028 H 
ATOM     63  H   LIG d   1      10.194   2.764  -4.019  0.00  0.00     0.028 H 
ENDBRANCH  10  60
TORSDOF 11
ENDMDL
