MODEL 1
REMARK VINA RESULT:      -5.6      0.000      0.000
REMARK  8 active torsions:
REMARK  status: ('A' for Active; 'I' for Inactive)
REMARK    1  A    between atoms: C_1  and  C_2 
REMARK    2  A    between atoms: C_7  and  N_9 
REMARK    3  A    between atoms: N_9  and  C_10 
REMARK    4  A    between atoms: C_12  and  C_33 
REMARK    5  A    between atoms: C_15  and  O_32 
REMARK    6  A    between atoms: C_17  and  C_21 
REMARK    7  A    between atoms: C_21  and  C_23 
REMARK    8  A    between atoms: C_21  and  C_24 
REMARK       I    between atoms: C_24  and  N_26 
ROOT
ATOM      1  C   LIG d   1      -3.665   2.337 -13.374  0.00  0.00     0.005 C 
ATOM      2  H   LIG d   1      -3.457   2.723 -12.376  0.00  0.00     0.036 H 
ATOM      3  C   LIG d   1      -4.157   0.902 -13.270  0.00  0.00     0.057 A 
ATOM      4  C   LIG d   1      -5.482   0.627 -13.375  0.00  0.00     0.015 A 
ATOM      5  S   LIG d   1      -5.530  -1.135 -13.185  0.00  0.00    -0.057 SA
ATOM      6  C   LIG d   1      -3.820  -1.376 -12.986  0.00  0.00     0.158 A 
ATOM      7  N   LIG d   1      -3.356  -0.146 -13.075  0.00  0.00    -0.229 NA
ATOM      8  C   LIG d   1      -6.596   1.589 -13.595  0.00  0.00    -0.014 C 
ATOM      9  C   LIG d   1      -6.084   3.018 -13.331  0.00  0.00    -0.022 C 
ATOM     10  C   LIG d   1      -4.741   3.202 -14.043  0.00  0.00    -0.001 C 
ATOM     11  H   LIG d   1      -4.839   2.917 -15.090  0.00  0.00     0.034 H 
ATOM     12  C   LIG d   1      -4.287   4.662 -13.939  0.00  0.00     0.063 C 
ATOM     13  H   LIG d   1      -4.141   4.920 -12.890  0.00  0.00     0.060 H 
ATOM     14  C   LIG d   1      -5.337   5.591 -14.543  0.00  0.00    -0.004 C 
ATOM     15  H   LIG d   1      -5.498   5.329 -15.589  0.00  0.00     0.033 H 
ATOM     16  C   LIG d   1      -6.647   5.426 -13.765  0.00  0.00    -0.047 C 
ATOM     17  C   LIG d   1      -7.124   3.984 -13.907  0.00  0.00    -0.047 C 
ATOM     18  H   LIG d   1      -6.947   1.510 -14.623  0.00  0.00     0.032 H 
ATOM     19  H   LIG d   1      -7.414   1.360 -12.911  0.00  0.00     0.032 H 
ATOM     20  H   LIG d   1      -6.477   5.652 -12.712  0.00  0.00     0.027 H 
ATOM     21  H   LIG d   1      -7.400   6.103 -14.169  0.00  0.00     0.027 H 
ATOM     22  H   LIG d   1      -7.281   3.760 -14.962  0.00  0.00     0.027 H 
ATOM     23  H   LIG d   1      -8.066   3.860 -13.371  0.00  0.00     0.027 H 
ENDROOT
BRANCH  14  24
ATOM     24  C   LIG d   1      -4.858   7.041 -14.446  0.00  0.00     0.038 C 
ATOM     25  H   LIG d   1      -4.059   7.111 -13.708  0.00  0.00     0.040 H 
BRANCH  24  26
ATOM     26  C   LIG d   1      -6.024   7.936 -14.020  0.00  0.00    -0.054 C 
ATOM     27  H   LIG d   1      -6.355   7.652 -13.021  0.00  0.00     0.024 H 
ATOM     28  H   LIG d   1      -5.699   8.977 -14.014  0.00  0.00     0.024 H 
ATOM     29  H   LIG d   1      -6.848   7.818 -14.724  0.00  0.00     0.024 H 
ENDBRANCH  24  26
BRANCH  24  30
ATOM     30  C   LIG d   1      -4.343   7.491 -15.789  0.00  0.00     0.219 C 
ATOM     31  O   LIG d   1      -4.971   7.238 -16.795  0.00  0.00    -0.275 OA
ATOM     32  N   LIG d   1      -3.184   8.174 -15.871  0.00  0.00    -0.297 N 
ATOM     33  C   LIG d   1      -2.718   8.724 -17.154  0.00  0.00     0.038 C 
ATOM     34  C   LIG d   1      -2.350   8.398 -14.679  0.00  0.00     0.038 C 
ATOM     35  C   LIG d   1      -1.264   8.288 -17.368  0.00  0.00     0.064 C 
ATOM     36  H   LIG d   1      -3.339   8.341 -17.964  0.00  0.00     0.049 H 
ATOM     37  H   LIG d   1      -2.776   9.812 -17.130  0.00  0.00     0.049 H 
ATOM     38  O   LIG d   1      -0.495   8.632 -16.213  0.00  0.00    -0.377 OA
ATOM     39  H   LIG d   1      -1.227   7.208 -17.522  0.00  0.00     0.058 H 
ATOM     40  H   LIG d   1      -0.857   8.795 -18.242  0.00  0.00     0.058 H 
ATOM     41  C   LIG d   1      -0.912   7.973 -15.015  0.00  0.00     0.064 C 
ATOM     42  H   LIG d   1      -0.873   6.893 -15.160  0.00  0.00     0.058 H 
ATOM     43  H   LIG d   1      -0.249   8.254 -14.196  0.00  0.00     0.058 H 
ATOM     44  H   LIG d   1      -2.371   9.453 -14.410  0.00  0.00     0.049 H 
ATOM     45  H   LIG d   1      -2.727   7.799 -13.849  0.00  0.00     0.049 H 
ENDBRANCH  24  30
ENDBRANCH  14  24
BRANCH  12  46
ATOM     46  O   LIG d   1      -3.052   4.824 -14.641  0.00  0.00    -0.391 OA
ATOM     47  H   LIG d   1      -2.556   4.002 -14.758  0.00  0.00     0.210 HD
ENDBRANCH  12  46
BRANCH   1  48
ATOM     48  C   LIG d   1      -2.386   2.377 -14.212  0.00  0.00    -0.057 C 
ATOM     49  H   LIG d   1      -2.643   2.506 -15.263  0.00  0.00     0.024 H 
ATOM     50  H   LIG d   1      -1.838   1.443 -14.084  0.00  0.00     0.024 H 
ATOM     51  H   LIG d   1      -1.763   3.211 -13.885  0.00  0.00     0.024 H 
ENDBRANCH   1  48
BRANCH   9  52
ATOM     52  C   LIG d   1      -5.930   3.250 -11.828  0.00  0.00    -0.059 C 
ATOM     53  H   LIG d   1      -4.883   3.135 -11.547  0.00  0.00     0.024 H 
ATOM     54  H   LIG d   1      -6.264   4.257 -11.579  0.00  0.00     0.024 H 
ATOM     55  H   LIG d   1      -6.534   2.522 -11.284  0.00  0.00     0.024 H 
ENDBRANCH   9  52
BRANCH   6  56
ATOM     56  N   LIG d   1      -3.124  -2.557 -12.786  0.00  0.00    -0.327 N 
ATOM     57  H   LIG d   1      -2.198  -2.628 -13.066  0.00  0.00     0.148 HD
BRANCH  56  58
ATOM     58  C   LIG d   1      -3.786  -3.699 -12.149  0.00  0.00    -0.001 C 
ATOM     59  H   LIG d   1      -3.316  -3.899 -11.186  0.00  0.00     0.043 H 
ATOM     60  H   LIG d   1      -4.840  -3.470 -11.999  0.00  0.00     0.043 H 
ATOM     61  H   LIG d   1      -3.692  -4.576 -12.789  0.00  0.00     0.043 H 
ENDBRANCH  56  58
ENDBRANCH   6  56
TORSDOF 8
ENDMDL
MODEL 2
REMARK VINA RESULT:      -5.5     13.843     16.184
REMARK  8 active torsions:
REMARK  status: ('A' for Active; 'I' for Inactive)
REMARK    1  A    between atoms: C_1  and  C_2 
REMARK    2  A    between atoms: C_7  and  N_9 
REMARK    3  A    between atoms: N_9  and  C_10 
REMARK    4  A    between atoms: C_12  and  C_33 
REMARK    5  A    between atoms: C_15  and  O_32 
REMARK    6  A    between atoms: C_17  and  C_21 
REMARK    7  A    between atoms: C_21  and  C_23 
REMARK    8  A    between atoms: C_21  and  C_24 
REMARK       I    between atoms: C_24  and  N_26 
ROOT
ATOM      1  C   LIG d   1       9.304   2.306  -4.666  0.00  0.00     0.005 C 
ATOM      2  H   LIG d   1       9.968   1.460  -4.846  0.00  0.00     0.036 H 
ATOM      3  C   LIG d   1      10.070   3.411  -3.957  0.00  0.00     0.057 A 
ATOM      4  C   LIG d   1      10.516   4.486  -4.656  0.00  0.00     0.015 A 
ATOM      5  S   LIG d   1      11.327   5.452  -3.409  0.00  0.00    -0.057 SA
ATOM      6  C   LIG d   1      11.018   4.380  -2.075  0.00  0.00     0.158 A 
ATOM      7  N   LIG d   1      10.348   3.405  -2.654  0.00  0.00    -0.229 NA
ATOM      8  C   LIG d   1      10.351   4.758  -6.109  0.00  0.00    -0.014 C 
ATOM      9  C   LIG d   1       9.901   3.465  -6.815  0.00  0.00    -0.022 C 
ATOM     10  C   LIG d   1       8.768   2.829  -6.006  0.00  0.00    -0.001 C 
ATOM     11  H   LIG d   1       7.987   3.567  -5.824  0.00  0.00     0.034 H 
ATOM     12  C   LIG d   1       8.187   1.631  -6.767  0.00  0.00     0.063 C 
ATOM     13  H   LIG d   1       8.963   0.877  -6.897  0.00  0.00     0.060 H 
ATOM     14  C   LIG d   1       7.677   2.069  -8.138  0.00  0.00    -0.004 C 
ATOM     15  H   LIG d   1       6.910   2.835  -8.015  0.00  0.00     0.033 H 
ATOM     16  C   LIG d   1       8.850   2.640  -8.940  0.00  0.00    -0.047 C 
ATOM     17  C   LIG d   1       9.399   3.860  -8.207  0.00  0.00    -0.047 C 
ATOM     18  H   LIG d   1       9.598   5.534  -6.251  0.00  0.00     0.032 H 
ATOM     19  H   LIG d   1      11.301   5.093  -6.527  0.00  0.00     0.032 H 
ATOM     20  H   LIG d   1       9.632   1.887  -9.031  0.00  0.00     0.027 H 
ATOM     21  H   LIG d   1       8.505   2.934  -9.933  0.00  0.00     0.027 H 
ATOM     22  H   LIG d   1       8.610   4.605  -8.109  0.00  0.00     0.027 H 
ATOM     23  H   LIG d   1      10.224   4.286  -8.780  0.00  0.00     0.027 H 
ENDROOT
BRANCH  14  24
ATOM     24  C   LIG d   1       7.085   0.865  -8.874  0.00  0.00     0.038 C 
ATOM     25  H   LIG d   1       7.076   0.001  -8.209  0.00  0.00     0.040 H 
BRANCH  24  26
ATOM     26  C   LIG d   1       7.938   0.550 -10.105  0.00  0.00    -0.054 C 
ATOM     27  H   LIG d   1       7.289   0.394 -10.966  0.00  0.00     0.024 H 
ATOM     28  H   LIG d   1       8.610   1.386 -10.304  0.00  0.00     0.024 H 
ATOM     29  H   LIG d   1       8.524  -0.350  -9.921  0.00  0.00     0.024 H 
ENDBRANCH  24  26
BRANCH  24  30
ATOM     30  C   LIG d   1       5.677   1.182  -9.306  0.00  0.00     0.219 C 
ATOM     31  O   LIG d   1       5.370   2.323  -9.583  0.00  0.00    -0.275 OA
ATOM     32  N   LIG d   1       4.759   0.199  -9.384  0.00  0.00    -0.297 N 
ATOM     33  C   LIG d   1       3.410   0.462  -9.913  0.00  0.00     0.038 C 
ATOM     34  C   LIG d   1       5.077  -1.171  -8.950  0.00  0.00     0.038 C 
ATOM     35  C   LIG d   1       2.384  -0.088  -8.915  0.00  0.00     0.064 C 
ATOM     36  H   LIG d   1       3.267   1.536 -10.033  0.00  0.00     0.049 H 
ATOM     37  H   LIG d   1       3.290  -0.035 -10.875  0.00  0.00     0.049 H 
ATOM     38  O   LIG d   1       2.697  -1.452  -8.623  0.00  0.00    -0.377 OA
ATOM     39  H   LIG d   1       2.419   0.499  -7.997  0.00  0.00     0.058 H 
ATOM     40  H   LIG d   1       1.386  -0.027  -9.349  0.00  0.00     0.058 H 
ATOM     41  C   LIG d   1       3.967  -1.639  -7.995  0.00  0.00     0.064 C 
ATOM     42  H   LIG d   1       4.008  -1.058  -7.073  0.00  0.00     0.058 H 
ATOM     43  H   LIG d   1       4.107  -2.696  -7.765  0.00  0.00     0.058 H 
ATOM     44  H   LIG d   1       5.121  -1.830  -9.817  0.00  0.00     0.049 H 
ATOM     45  H   LIG d   1       6.036  -1.179  -8.432  0.00  0.00     0.049 H 
ENDBRANCH  24  30
ENDBRANCH  14  24
BRANCH  12  46
ATOM     46  O   LIG d   1       7.106   1.073  -6.015  0.00  0.00    -0.391 OA
ATOM     47  H   LIG d   1       6.637   1.716  -5.466  0.00  0.00     0.210 HD
ENDBRANCH  12  46
BRANCH   1  48
ATOM     48  C   LIG d   1       8.133   1.855  -3.791  0.00  0.00    -0.057 C 
ATOM     49  H   LIG d   1       7.222   1.828  -4.388  0.00  0.00     0.024 H 
ATOM     50  H   LIG d   1       8.005   2.556  -2.966  0.00  0.00     0.024 H 
ATOM     51  H   LIG d   1       8.337   0.860  -3.393  0.00  0.00     0.024 H 
ENDBRANCH   1  48
BRANCH   9  52
ATOM     52  C   LIG d   1      11.080   2.499  -6.938  0.00  0.00    -0.059 C 
ATOM     53  H   LIG d   1      11.082   2.052  -7.932  0.00  0.00     0.024 H 
ATOM     54  H   LIG d   1      12.013   3.042  -6.783  0.00  0.00     0.024 H 
ATOM     55  H   LIG d   1      10.987   1.714  -6.186  0.00  0.00     0.024 H 
ENDBRANCH   9  52
BRANCH   6  56
ATOM     56  N   LIG d   1      11.384   4.517  -0.745  0.00  0.00    -0.327 N 
ATOM     57  H   LIG d   1      11.786   3.770  -0.274  0.00  0.00     0.148 HD
BRANCH  56  58
ATOM     58  C   LIG d   1      11.164   5.788  -0.052  0.00  0.00    -0.001 C 
ATOM     59  H   LIG d   1      10.626   5.606   0.878  0.00  0.00     0.043 H 
ATOM     60  H   LIG d   1      12.125   6.253   0.168  0.00  0.00     0.043 H 
ATOM     61  H   LIG d   1      10.578   6.452  -0.688  0.00  0.00     0.043 H 
ENDBRANCH  56  58
ENDBRANCH   6  56
TORSDOF 8
ENDMDL
MODEL 3
REMARK VINA RESULT:      -5.4     10.498     14.022
REMARK  8 active torsions:
REMARK  status: ('A' for Active; 'I' for Inactive)
REMARK    1  A    between atoms: C_1  and  C_2 
REMARK    2  A    between atoms: C_7  and  N_9 
REMARK    3  A    between atoms: N_9  and  C_10 
REMARK    4  A    between atoms: C_12  and  C_33 
REMARK    5  A    between atoms: C_15  and  O_32 
REMARK    6  A    between atoms: C_17  and  C_21 
REMARK    7  A    between atoms: C_21  and  C_23 
REMARK    8  A    between atoms: C_21  and  C_24 
REMARK       I    between atoms: C_24  and  N_26 
ROOT
ATOM      1  C   LIG d   1       3.356  -2.054  -9.322  0.00  0.00     0.005 C 
ATOM      2  H   LIG d   1       4.305  -1.660  -9.689  0.00  0.00     0.036 H 
ATOM      3  C   LIG d   1       2.613  -2.729 -10.464  0.00  0.00     0.057 A 
ATOM      4  C   LIG d   1       2.618  -4.082 -10.574  0.00  0.00     0.015 A 
ATOM      5  S   LIG d   1       1.642  -4.358 -12.028  0.00  0.00    -0.057 SA
ATOM      6  C   LIG d   1       1.302  -2.690 -12.377  0.00  0.00     0.158 A 
ATOM      7  N   LIG d   1       1.931  -2.069 -11.400  0.00  0.00    -0.229 NA
ATOM      8  C   LIG d   1       3.288  -5.064  -9.679  0.00  0.00    -0.014 C 
ATOM      9  C   LIG d   1       4.297  -4.322  -8.784  0.00  0.00    -0.022 C 
ATOM     10  C   LIG d   1       3.622  -3.074  -8.207  0.00  0.00    -0.001 C 
ATOM     11  H   LIG d   1       2.681  -3.351  -7.734  0.00  0.00     0.034 H 
ATOM     12  C   LIG d   1       4.544  -2.403  -7.182  0.00  0.00     0.063 C 
ATOM     13  H   LIG d   1       5.461  -2.083  -7.678  0.00  0.00     0.060 H 
ATOM     14  C   LIG d   1       4.895  -3.380  -6.063  0.00  0.00    -0.004 C 
ATOM     15  H   LIG d   1       3.980  -3.716  -5.572  0.00  0.00     0.033 H 
ATOM     16  C   LIG d   1       5.624  -4.584  -6.668  0.00  0.00    -0.047 C 
ATOM     17  C   LIG d   1       4.690  -5.279  -7.654  0.00  0.00    -0.047 C 
ATOM     18  H   LIG d   1       2.541  -5.558  -9.058  0.00  0.00     0.032 H 
ATOM     19  H   LIG d   1       3.810  -5.808 -10.282  0.00  0.00     0.032 H 
ATOM     20  H   LIG d   1       6.518  -4.244  -7.191  0.00  0.00     0.027 H 
ATOM     21  H   LIG d   1       5.903  -5.279  -5.876  0.00  0.00     0.027 H 
ATOM     22  H   LIG d   1       3.793  -5.606  -7.129  0.00  0.00     0.027 H 
ATOM     23  H   LIG d   1       5.194  -6.148  -8.079  0.00  0.00     0.027 H 
ENDROOT
BRANCH  14  24
ATOM     24  C   LIG d   1       5.800  -2.688  -5.042  0.00  0.00     0.038 C 
ATOM     25  H   LIG d   1       6.211  -1.778  -5.478  0.00  0.00     0.040 H 
BRANCH  24  26
ATOM     26  C   LIG d   1       6.944  -3.628  -4.654  0.00  0.00    -0.054 C 
ATOM     27  H   LIG d   1       6.783  -4.604  -5.112  0.00  0.00     0.024 H 
ATOM     28  H   LIG d   1       7.889  -3.214  -5.006  0.00  0.00     0.024 H 
ATOM     29  H   LIG d   1       6.976  -3.735  -3.570  0.00  0.00     0.024 H 
ENDBRANCH  24  26
BRANCH  24  30
ATOM     30  C   LIG d   1       4.998  -2.340  -3.814  0.00  0.00     0.219 C 
ATOM     31  O   LIG d   1       4.028  -3.003  -3.515  0.00  0.00    -0.275 OA
ATOM     32  N   LIG d   1       5.361  -1.292  -3.048  0.00  0.00    -0.297 N 
ATOM     33  C   LIG d   1       4.665  -1.002  -1.783  0.00  0.00     0.038 C 
ATOM     34  C   LIG d   1       6.468  -0.409  -3.447  0.00  0.00     0.038 C 
ATOM     35  C   LIG d   1       4.262   0.477  -1.782  0.00  0.00     0.064 C 
ATOM     36  H   LIG d   1       3.775  -1.626  -1.703  0.00  0.00     0.049 H 
ATOM     37  H   LIG d   1       5.331  -1.202  -0.944  0.00  0.00     0.049 H 
ATOM     38  O   LIG d   1       5.410   1.278  -2.074  0.00  0.00    -0.377 OA
ATOM     39  H   LIG d   1       3.497   0.646  -2.541  0.00  0.00     0.058 H 
ATOM     40  H   LIG d   1       3.869   0.746  -0.802  0.00  0.00     0.058 H 
ATOM     41  C   LIG d   1       5.973   1.045  -3.367  0.00  0.00     0.064 C 
ATOM     42  H   LIG d   1       5.214   1.216  -4.132  0.00  0.00     0.058 H 
ATOM     43  H   LIG d   1       6.810   1.724  -3.528  0.00  0.00     0.058 H 
ATOM     44  H   LIG d   1       7.311  -0.549  -2.773  0.00  0.00     0.049 H 
ATOM     45  H   LIG d   1       6.771  -0.639  -4.469  0.00  0.00     0.049 H 
ENDBRANCH  24  30
ENDBRANCH  14  24
BRANCH  12  46
ATOM     46  O   LIG d   1       3.884  -1.263  -6.627  0.00  0.00    -0.391 OA
ATOM     47  H   LIG d   1       3.010  -1.455  -6.261  0.00  0.00     0.210 HD
ENDBRANCH  12  46
BRANCH   1  48
ATOM     48  C   LIG d   1       2.509  -0.906  -8.771  0.00  0.00    -0.057 C 
ATOM     49  H   LIG d   1       2.573  -0.897  -7.683  0.00  0.00     0.024 H 
ATOM     50  H   LIG d   1       1.470  -1.043  -9.073  0.00  0.00     0.024 H 
ATOM     51  H   LIG d   1       2.879   0.042  -9.164  0.00  0.00     0.024 H 
ENDBRANCH   1  48
BRANCH   9  52
ATOM     52  C   LIG d   1       5.533  -3.936  -9.597  0.00  0.00    -0.059 C 
ATOM     53  H   LIG d   1       5.413  -4.276 -10.625  0.00  0.00     0.024 H 
ATOM     54  H   LIG d   1       5.652  -2.852  -9.585  0.00  0.00     0.024 H 
ATOM     55  H   LIG d   1       6.416  -4.403  -9.160  0.00  0.00     0.024 H 
ENDBRANCH   9  52
BRANCH   6  56
ATOM     56  N   LIG d   1       0.560  -2.150 -13.416  0.00  0.00    -0.327 N 
ATOM     57  H   LIG d   1       1.004  -1.853 -14.226  0.00  0.00     0.148 HD
BRANCH  56  58
ATOM     58  C   LIG d   1      -0.895  -2.030 -13.292  0.00  0.00    -0.001 C 
ATOM     59  H   LIG d   1      -1.250  -1.235 -13.947  0.00  0.00     0.043 H 
ATOM     60  H   LIG d   1      -1.363  -2.972 -13.576  0.00  0.00     0.043 H 
ATOM     61  H   LIG d   1      -1.153  -1.794 -12.259  0.00  0.00     0.043 H 
ENDBRANCH  56  58
ENDBRANCH   6  56
TORSDOF 8
ENDMDL
MODEL 4
REMARK VINA RESULT:      -5.4     16.204     18.418
REMARK  8 active torsions:
REMARK  status: ('A' for Active; 'I' for Inactive)
REMARK    1  A    between atoms: C_1  and  C_2 
REMARK    2  A    between atoms: C_7  and  N_9 
REMARK    3  A    between atoms: N_9  and  C_10 
REMARK    4  A    between atoms: C_12  and  C_33 
REMARK    5  A    between atoms: C_15  and  O_32 
REMARK    6  A    between atoms: C_17  and  C_21 
REMARK    7  A    between atoms: C_21  and  C_23 
REMARK    8  A    between atoms: C_21  and  C_24 
REMARK       I    between atoms: C_24  and  N_26 
ROOT
ATOM      1  C   LIG d   1      10.104   6.979  -6.316  0.00  0.00     0.005 C 
ATOM      2  H   LIG d   1      11.177   7.173  -6.331  0.00  0.00     0.036 H 
ATOM      3  C   LIG d   1       9.705   6.244  -7.586  0.00  0.00     0.057 A 
ATOM      4  C   LIG d   1       9.495   4.903  -7.559  0.00  0.00     0.015 A 
ATOM      5  S   LIG d   1       9.070   4.541  -9.242  0.00  0.00    -0.057 SA
ATOM      6  C   LIG d   1       9.198   6.165  -9.848  0.00  0.00     0.158 A 
ATOM      7  N   LIG d   1       9.541   6.837  -8.768  0.00  0.00    -0.229 NA
ATOM      8  C   LIG d   1       9.602   3.989  -6.390  0.00  0.00    -0.014 C 
ATOM      9  C   LIG d   1      10.345   4.715  -5.251  0.00  0.00    -0.022 C 
ATOM     10  C   LIG d   1       9.756   6.119  -5.093  0.00  0.00    -0.001 C 
ATOM     11  H   LIG d   1       8.674   6.054  -4.989  0.00  0.00     0.034 H 
ATOM     12  C   LIG d   1      10.359   6.807  -3.863  0.00  0.00     0.063 C 
ATOM     13  H   LIG d   1      11.435   6.914  -4.001  0.00  0.00     0.060 H 
ATOM     14  C   LIG d   1      10.095   5.978  -2.608  0.00  0.00    -0.004 C 
ATOM     15  H   LIG d   1       9.020   5.855  -2.472  0.00  0.00     0.033 H 
ATOM     16  C   LIG d   1      10.752   4.605  -2.776  0.00  0.00    -0.047 C 
ATOM     17  C   LIG d   1      10.120   3.901  -3.973  0.00  0.00    -0.047 C 
ATOM     18  H   LIG d   1       8.604   3.708  -6.054  0.00  0.00     0.032 H 
ATOM     19  H   LIG d   1      10.156   3.095  -6.677  0.00  0.00     0.032 H 
ATOM     20  H   LIG d   1      11.821   4.730  -2.950  0.00  0.00     0.027 H 
ATOM     21  H   LIG d   1      10.593   4.010  -1.876  0.00  0.00     0.027 H 
ATOM     22  H   LIG d   1       9.050   3.789  -3.799  0.00  0.00     0.027 H 
ATOM     23  H   LIG d   1      10.569   2.914  -4.092  0.00  0.00     0.027 H 
ENDROOT
BRANCH  14  24
ATOM     24  C   LIG d   1      10.688   6.689  -1.389  0.00  0.00     0.038 C 
ATOM     25  H   LIG d   1      11.686   7.051  -1.630  0.00  0.00     0.040 H 
BRANCH  24  26
ATOM     26  C   LIG d   1      10.771   5.707  -0.218  0.00  0.00    -0.054 C 
ATOM     27  H   LIG d   1      10.034   4.916  -0.353  0.00  0.00     0.024 H 
ATOM     28  H   LIG d   1      11.770   5.271  -0.180  0.00  0.00     0.024 H 
ATOM     29  H   LIG d   1      10.571   6.236   0.714  0.00  0.00     0.024 H 
ENDBRANCH  24  26
BRANCH  24  30
ATOM     30  C   LIG d   1       9.808   7.852  -1.009  0.00  0.00     0.219 C 
ATOM     31  O   LIG d   1       8.604   7.712  -0.960  0.00  0.00    -0.275 OA
ATOM     32  N   LIG d   1      10.360   9.048  -0.723  0.00  0.00    -0.297 N 
ATOM     33  C   LIG d   1       9.535  10.166  -0.238  0.00  0.00     0.038 C 
ATOM     34  C   LIG d   1      11.806   9.272  -0.880  0.00  0.00     0.038 C 
ATOM     35  C   LIG d   1       9.845  11.401  -1.091  0.00  0.00     0.064 C 
ATOM     36  H   LIG d   1       8.479   9.910  -0.331  0.00  0.00     0.049 H 
ATOM     37  H   LIG d   1       9.772  10.371   0.806  0.00  0.00     0.049 H 
ATOM     38  O   LIG d   1      11.258  11.617  -1.111  0.00  0.00    -0.377 OA
ATOM     39  H   LIG d   1       9.487  11.240  -2.108  0.00  0.00     0.058 H 
ATOM     40  H   LIG d   1       9.349  12.273  -0.663  0.00  0.00     0.058 H 
ATOM     41  C   LIG d   1      12.004  10.553  -1.707  0.00  0.00     0.064 C 
ATOM     42  H   LIG d   1      11.654  10.389  -2.727  0.00  0.00     0.058 H 
ATOM     43  H   LIG d   1      13.062  10.815  -1.724  0.00  0.00     0.058 H 
ATOM     44  H   LIG d   1      12.268   9.390   0.099  0.00  0.00     0.049 H 
ATOM     45  H   LIG d   1      12.255   8.425  -1.400  0.00  0.00     0.049 H 
ENDBRANCH  24  30
ENDBRANCH  14  24
BRANCH  12  46
ATOM     46  O   LIG d   1       9.771   8.101  -3.709  0.00  0.00    -0.391 OA
ATOM     47  H   LIG d   1       9.836   8.658  -4.496  0.00  0.00     0.210 HD
ENDBRANCH  12  46
BRANCH   1  48
ATOM     48  C   LIG d   1       9.347   8.306  -6.237  0.00  0.00    -0.057 C 
ATOM     49  H   LIG d   1       9.177   8.566  -5.193  0.00  0.00     0.024 H 
ATOM     50  H   LIG d   1       8.389   8.209  -6.748  0.00  0.00     0.024 H 
ATOM     51  H   LIG d   1       9.935   9.090  -6.716  0.00  0.00     0.024 H 
ENDBRANCH   1  48
BRANCH   9  52
ATOM     52  C   LIG d   1      11.839   4.792  -5.567  0.00  0.00    -0.059 C 
ATOM     53  H   LIG d   1      12.332   5.438  -4.841  0.00  0.00     0.024 H 
ATOM     54  H   LIG d   1      12.273   3.793  -5.517  0.00  0.00     0.024 H 
ATOM     55  H   LIG d   1      11.978   5.199  -6.569  0.00  0.00     0.024 H 
ENDBRANCH   9  52
BRANCH   6  56
ATOM     56  N   LIG d   1       8.992   6.633 -11.136  0.00  0.00    -0.327 N 
ATOM     57  H   LIG d   1       8.569   7.495 -11.277  0.00  0.00     0.148 HD
BRANCH  56  58
ATOM     58  C   LIG d   1       9.415   5.828 -12.285  0.00  0.00    -0.001 C 
ATOM     59  H   LIG d   1       8.633   5.841 -13.044  0.00  0.00     0.043 H 
ATOM     60  H   LIG d   1      10.333   6.241 -12.700  0.00  0.00     0.043 H 
ATOM     61  H   LIG d   1       9.592   4.801 -11.962  0.00  0.00     0.043 H 
ENDBRANCH  56  58
ENDBRANCH   6  56
TORSDOF 8
ENDMDL
MODEL 5
REMARK VINA RESULT:      -5.2     10.241     13.188
REMARK  8 active torsions:
REMARK  status: ('A' for Active; 'I' for Inactive)
REMARK    1  A    between atoms: C_1  and  C_2 
REMARK    2  A    between atoms: C_7  and  N_9 
REMARK    3  A    between atoms: N_9  and  C_10 
REMARK    4  A    between atoms: C_12  and  C_33 
REMARK    5  A    between atoms: C_15  and  O_32 
REMARK    6  A    between atoms: C_17  and  C_21 
REMARK    7  A    between atoms: C_21  and  C_23 
REMARK    8  A    between atoms: C_21  and  C_24 
REMARK       I    between atoms: C_24  and  N_26 
ROOT
ATOM      1  C   LIG d   1       3.512  -2.592 -10.248  0.00  0.00     0.005 C 
ATOM      2  H   LIG d   1       2.507  -2.888  -9.948  0.00  0.00     0.036 H 
ATOM      3  C   LIG d   1       3.530  -2.302 -11.741  0.00  0.00     0.057 A 
ATOM      4  C   LIG d   1       3.504  -1.020 -12.185  0.00  0.00     0.015 A 
ATOM      5  S   LIG d   1       3.535  -1.218 -13.947  0.00  0.00    -0.057 SA
ATOM      6  C   LIG d   1       3.581  -2.955 -13.966  0.00  0.00     0.158 A 
ATOM      7  N   LIG d   1       3.570  -3.246 -12.680  0.00  0.00    -0.229 NA
ATOM      8  C   LIG d   1       3.461   0.224 -11.370  0.00  0.00    -0.014 C 
ATOM      9  C   LIG d   1       3.085  -0.137  -9.921  0.00  0.00    -0.022 C 
ATOM     10  C   LIG d   1       3.929  -1.334  -9.474  0.00  0.00    -0.001 C 
ATOM     11  H   LIG d   1       4.983  -1.127  -9.654  0.00  0.00     0.034 H 
ATOM     12  C   LIG d   1       3.698  -1.614  -7.985  0.00  0.00     0.063 C 
ATOM     13  H   LIG d   1       2.651  -1.871  -7.825  0.00  0.00     0.060 H 
ATOM     14  C   LIG d   1       4.045  -0.382  -7.152  0.00  0.00    -0.004 C 
ATOM     15  H   LIG d   1       5.088  -0.110  -7.319  0.00  0.00     0.033 H 
ATOM     16  C   LIG d   1       3.138   0.775  -7.583  0.00  0.00    -0.047 C 
ATOM     17  C   LIG d   1       3.400   1.085  -9.053  0.00  0.00    -0.047 C 
ATOM     18  H   LIG d   1       4.440   0.704 -11.385  0.00  0.00     0.032 H 
ATOM     19  H   LIG d   1       2.716   0.904 -11.785  0.00  0.00     0.032 H 
ATOM     20  H   LIG d   1       2.094   0.490  -7.451  0.00  0.00     0.027 H 
ATOM     21  H   LIG d   1       3.357   1.656  -6.978  0.00  0.00     0.027 H 
ATOM     22  H   LIG d   1       4.447   1.358  -9.181  0.00  0.00     0.027 H 
ATOM     23  H   LIG d   1       2.772   1.920  -9.365  0.00  0.00     0.027 H 
ENDROOT
BRANCH  14  24
ATOM     24  C   LIG d   1       3.825  -0.687  -5.669  0.00  0.00     0.038 C 
ATOM     25  H   LIG d   1       3.474  -1.712  -5.556  0.00  0.00     0.040 H 
BRANCH  24  26
ATOM     26  C   LIG d   1       2.779   0.276  -5.100  0.00  0.00    -0.054 C 
ATOM     27  H   LIG d   1       2.341   0.857  -5.912  0.00  0.00     0.024 H 
ATOM     28  H   LIG d   1       1.997  -0.294  -4.598  0.00  0.00     0.024 H 
ATOM     29  H   LIG d   1       3.254   0.947  -4.385  0.00  0.00     0.024 H 
ENDBRANCH  24  26
BRANCH  24  30
ATOM     30  C   LIG d   1       5.124  -0.515  -4.923  0.00  0.00     0.219 C 
ATOM     31  O   LIG d   1       5.619   0.587  -4.813  0.00  0.00    -0.275 OA
ATOM     32  N   LIG d   1       5.734  -1.586  -4.379  0.00  0.00    -0.297 N 
ATOM     33  C   LIG d   1       6.940  -1.431  -3.550  0.00  0.00     0.038 C 
ATOM     34  C   LIG d   1       5.211  -2.945  -4.592  0.00  0.00     0.038 C 
ATOM     35  C   LIG d   1       8.012  -2.394  -4.069  0.00  0.00     0.064 C 
ATOM     36  H   LIG d   1       7.303  -0.405  -3.619  0.00  0.00     0.049 H 
ATOM     37  H   LIG d   1       6.704  -1.668  -2.512  0.00  0.00     0.049 H 
ATOM     38  O   LIG d   1       7.462  -3.712  -4.149  0.00  0.00    -0.377 OA
ATOM     39  H   LIG d   1       8.339  -2.075  -5.060  0.00  0.00     0.058 H 
ATOM     40  H   LIG d   1       8.862  -2.395  -3.387  0.00  0.00     0.058 H 
ATOM     41  C   LIG d   1       6.372  -3.836  -5.065  0.00  0.00     0.064 C 
ATOM     42  H   LIG d   1       6.692  -3.522  -6.059  0.00  0.00     0.058 H 
ATOM     43  H   LIG d   1       6.042  -4.874  -5.101  0.00  0.00     0.058 H 
ATOM     44  H   LIG d   1       4.805  -3.333  -3.658  0.00  0.00     0.049 H 
ATOM     45  H   LIG d   1       4.430  -2.924  -5.352  0.00  0.00     0.049 H 
ENDBRANCH  24  30
ENDBRANCH  14  24
BRANCH  12  46
ATOM     46  O   LIG d   1       4.521  -2.709  -7.577  0.00  0.00    -0.391 OA
ATOM     47  H   LIG d   1       4.046  -3.399  -7.094  0.00  0.00     0.210 HD
ENDBRANCH  12  46
BRANCH   1  48
ATOM     48  C   LIG d   1       4.490  -3.727  -9.938  0.00  0.00    -0.057 C 
ATOM     49  H   LIG d   1       4.421  -3.988  -8.883  0.00  0.00     0.024 H 
ATOM     50  H   LIG d   1       5.506  -3.404 -10.167  0.00  0.00     0.024 H 
ATOM     51  H   LIG d   1       4.242  -4.598 -10.546  0.00  0.00     0.024 H 
ENDBRANCH   1  48
BRANCH   9  52
ATOM     52  C   LIG d   1       1.595  -0.470  -9.835  0.00  0.00    -0.059 C 
ATOM     53  H   LIG d   1       1.443  -1.526 -10.059  0.00  0.00     0.024 H 
ATOM     54  H   LIG d   1       1.232  -0.257  -8.829  0.00  0.00     0.024 H 
ATOM     55  H   LIG d   1       1.045   0.137 -10.555  0.00  0.00     0.024 H 
ENDBRANCH   9  52
BRANCH   6  56
ATOM     56  N   LIG d   1       3.619  -3.814 -15.053  0.00  0.00    -0.327 N 
ATOM     57  H   LIG d   1       2.854  -3.878 -15.647  0.00  0.00     0.148 HD
BRANCH  56  58
ATOM     58  C   LIG d   1       4.812  -4.625 -15.304  0.00  0.00    -0.001 C 
ATOM     59  H   LIG d   1       5.320  -4.825 -14.361  0.00  0.00     0.043 H 
ATOM     60  H   LIG d   1       4.521  -5.567 -15.768  0.00  0.00     0.043 H 
ATOM     61  H   LIG d   1       5.484  -4.085 -15.972  0.00  0.00     0.043 H 
ENDBRANCH  56  58
ENDBRANCH   6  56
TORSDOF 8
ENDMDL
MODEL 6
REMARK VINA RESULT:      -5.1     15.070     17.759
REMARK  8 active torsions:
REMARK  status: ('A' for Active; 'I' for Inactive)
REMARK    1  A    between atoms: C_1  and  C_2 
REMARK    2  A    between atoms: C_7  and  N_9 
REMARK    3  A    between atoms: N_9  and  C_10 
REMARK    4  A    between atoms: C_12  and  C_33 
REMARK    5  A    between atoms: C_15  and  O_32 
REMARK    6  A    between atoms: C_17  and  C_21 
REMARK    7  A    between atoms: C_21  and  C_23 
REMARK    8  A    between atoms: C_21  and  C_24 
REMARK       I    between atoms: C_24  and  N_26 
ROOT
ATOM      1  C   LIG d   1      10.431   4.262  -4.289  0.00  0.00     0.005 C 
ATOM      2  H   LIG d   1      11.264   3.569  -4.168  0.00  0.00     0.036 H 
ATOM      3  C   LIG d   1      10.937   5.562  -4.894  0.00  0.00     0.057 A 
ATOM      4  C   LIG d   1      10.755   5.815  -6.215  0.00  0.00     0.015 A 
ATOM      5  S   LIG d   1      11.507   7.408  -6.414  0.00  0.00    -0.057 SA
ATOM      6  C   LIG d   1      11.998   7.620  -4.760  0.00  0.00     0.158 A 
ATOM      7  N   LIG d   1      11.570   6.507  -4.200  0.00  0.00    -0.229 NA
ATOM      8  C   LIG d   1      10.085   4.948  -7.222  0.00  0.00    -0.014 C 
ATOM      9  C   LIG d   1       9.927   3.531  -6.640  0.00  0.00    -0.022 C 
ATOM     10  C   LIG d   1       9.378   3.639  -5.215  0.00  0.00    -0.001 C 
ATOM     11  H   LIG d   1       8.480   4.256  -5.214  0.00  0.00     0.034 H 
ATOM     12  C   LIG d   1       9.053   2.244  -4.669  0.00  0.00     0.063 C 
ATOM     13  H   LIG d   1       9.968   1.653  -4.626  0.00  0.00     0.060 H 
ATOM     14  C   LIG d   1       8.044   1.541  -5.573  0.00  0.00    -0.004 C 
ATOM     15  H   LIG d   1       7.131   2.135  -5.632  0.00  0.00     0.033 H 
ATOM     16  C   LIG d   1       8.652   1.393  -6.971  0.00  0.00    -0.047 C 
ATOM     17  C   LIG d   1       8.932   2.783  -7.534  0.00  0.00    -0.047 C 
ATOM     18  H   LIG d   1       9.103   5.358  -7.459  0.00  0.00     0.032 H 
ATOM     19  H   LIG d   1      10.691   4.908  -8.128  0.00  0.00     0.032 H 
ATOM     20  H   LIG d   1       9.584   0.831  -6.906  0.00  0.00     0.027 H 
ATOM     21  H   LIG d   1       7.951   0.869  -7.621  0.00  0.00     0.027 H 
ATOM     22  H   LIG d   1       8.000   3.344  -7.586  0.00  0.00     0.027 H 
ATOM     23  H   LIG d   1       9.350   2.690  -8.537  0.00  0.00     0.027 H 
ENDROOT
BRANCH  14  24
ATOM     24  C   LIG d   1       7.719   0.158  -5.002  0.00  0.00     0.038 C 
ATOM     25  H   LIG d   1       7.908   0.155  -3.929  0.00  0.00     0.040 H 
BRANCH  24  26
ATOM     26  C   LIG d   1       8.603  -0.892  -5.678  0.00  0.00    -0.054 C 
ATOM     27  H   LIG d   1       8.024  -1.800  -5.848  0.00  0.00     0.024 H 
ATOM     28  H   LIG d   1       8.961  -0.506  -6.633  0.00  0.00     0.024 H 
ATOM     29  H   LIG d   1       9.455  -1.118  -5.036  0.00  0.00     0.024 H 
ENDBRANCH  24  26
BRANCH  24  30
ATOM     30  C   LIG d   1       6.270  -0.164  -5.259  0.00  0.00     0.219 C 
ATOM     31  O   LIG d   1       5.884  -0.362  -6.392  0.00  0.00    -0.275 OA
ATOM     32  N   LIG d   1       5.403  -0.232  -4.230  0.00  0.00    -0.297 N 
ATOM     33  C   LIG d   1       4.009  -0.657  -4.440  0.00  0.00     0.038 C 
ATOM     34  C   LIG d   1       5.822   0.111  -2.862  0.00  0.00     0.038 C 
ATOM     35  C   LIG d   1       3.084   0.376  -3.787  0.00  0.00     0.064 C 
ATOM     36  H   LIG d   1       3.800  -0.713  -5.509  0.00  0.00     0.049 H 
ATOM     37  H   LIG d   1       3.850  -1.634  -3.983  0.00  0.00     0.049 H 
ATOM     38  O   LIG d   1       3.489   0.579  -2.430  0.00  0.00    -0.377 OA
ATOM     39  H   LIG d   1       3.150   1.319  -4.331  0.00  0.00     0.058 H 
ATOM     40  H   LIG d   1       2.057   0.012  -3.811  0.00  0.00     0.058 H 
ATOM     41  C   LIG d   1       4.807   1.112  -2.286  0.00  0.00     0.064 C 
ATOM     42  H   LIG d   1       4.879   2.057  -2.825  0.00  0.00     0.058 H 
ATOM     43  H   LIG d   1       5.019   1.278  -1.230  0.00  0.00     0.058 H 
ATOM     44  H   LIG d   1       5.842  -0.789  -2.248  0.00  0.00     0.049 H 
ATOM     45  H   LIG d   1       6.814   0.563  -2.884  0.00  0.00     0.049 H 
ENDBRANCH  24  30
ENDBRANCH  14  24
BRANCH  12  46
ATOM     46  O   LIG d   1       8.507   2.367  -3.354  0.00  0.00    -0.391 OA
ATOM     47  H   LIG d   1       7.632   1.968  -3.253  0.00  0.00     0.210 HD
ENDBRANCH  12  46
BRANCH   1  48
ATOM     48  C   LIG d   1       9.803   4.546  -2.923  0.00  0.00    -0.057 C 
ATOM     49  H   LIG d   1       8.724   4.646  -3.033  0.00  0.00     0.024 H 
ATOM     50  H   LIG d   1      10.216   5.471  -2.519  0.00  0.00     0.024 H 
ATOM     51  H   LIG d   1      10.025   3.722  -2.242  0.00  0.00     0.024 H 
ENDBRANCH   1  48
BRANCH   9  52
ATOM     52  C   LIG d   1      11.276   2.811  -6.642  0.00  0.00    -0.059 C 
ATOM     53  H   LIG d   1      11.758   2.944  -7.611  0.00  0.00     0.024 H 
ATOM     54  H   LIG d   1      11.912   3.229  -5.861  0.00  0.00     0.024 H 
ATOM     55  H   LIG d   1      11.121   1.748  -6.455  0.00  0.00     0.024 H 
ENDBRANCH   9  52
BRANCH   6  56
ATOM     56  N   LIG d   1      12.668   8.686  -4.180  0.00  0.00    -0.327 N 
ATOM     57  H   LIG d   1      13.452   9.059  -4.612  0.00  0.00     0.148 HD
BRANCH  56  58
ATOM     58  C   LIG d   1      12.190   9.250  -2.915  0.00  0.00    -0.001 C 
ATOM     59  H   LIG d   1      13.044   9.530  -2.298  0.00  0.00     0.043 H 
ATOM     60  H   LIG d   1      11.582  10.131  -3.117  0.00  0.00     0.043 H 
ATOM     61  H   LIG d   1      11.590   8.506  -2.390  0.00  0.00     0.043 H 
ENDBRANCH  56  58
ENDBRANCH   6  56
TORSDOF 8
ENDMDL
MODEL 7
REMARK VINA RESULT:      -5.1     16.109     18.035
REMARK  8 active torsions:
REMARK  status: ('A' for Active; 'I' for Inactive)
REMARK    1  A    between atoms: C_1  and  C_2 
REMARK    2  A    between atoms: C_7  and  N_9 
REMARK    3  A    between atoms: N_9  and  C_10 
REMARK    4  A    between atoms: C_12  and  C_33 
REMARK    5  A    between atoms: C_15  and  O_32 
REMARK    6  A    between atoms: C_17  and  C_21 
REMARK    7  A    between atoms: C_21  and  C_23 
REMARK    8  A    between atoms: C_21  and  C_24 
REMARK       I    between atoms: C_24  and  N_26 
ROOT
ATOM      1  C   LIG d   1      10.617   5.562  -6.612  0.00  0.00     0.005 C 
ATOM      2  H   LIG d   1      11.693   5.441  -6.483  0.00  0.00     0.036 H 
ATOM      3  C   LIG d   1      10.129   4.623  -7.703  0.00  0.00     0.057 A 
ATOM      4  C   LIG d   1       9.506   3.463  -7.374  0.00  0.00     0.015 A 
ATOM      5  S   LIG d   1       9.150   2.749  -8.958  0.00  0.00    -0.057 SA
ATOM      6  C   LIG d   1       9.838   4.019  -9.924  0.00  0.00     0.158 A 
ATOM      7  N   LIG d   1      10.272   4.860  -9.006  0.00  0.00    -0.229 NA
ATOM      8  C   LIG d   1       9.210   2.944  -6.011  0.00  0.00    -0.014 C 
ATOM      9  C   LIG d   1      10.032   3.742  -4.981  0.00  0.00    -0.022 C 
ATOM     10  C   LIG d   1       9.903   5.235  -5.294  0.00  0.00    -0.001 C 
ATOM     11  H   LIG d   1       8.850   5.504  -5.372  0.00  0.00     0.034 H 
ATOM     12  C   LIG d   1      10.573   6.063  -4.191  0.00  0.00     0.063 C 
ATOM     13  H   LIG d   1      11.636   5.824  -4.157  0.00  0.00     0.060 H 
ATOM     14  C   LIG d   1       9.945   5.750  -2.835  0.00  0.00    -0.004 C 
ATOM     15  H   LIG d   1       8.878   5.973  -2.867  0.00  0.00     0.033 H 
ATOM     16  C   LIG d   1      10.149   4.263  -2.528  0.00  0.00    -0.047 C 
ATOM     17  C   LIG d   1       9.444   3.438  -3.599  0.00  0.00    -0.047 C 
ATOM     18  H   LIG d   1       8.147   3.061  -5.800  0.00  0.00     0.032 H 
ATOM     19  H   LIG d   1       9.478   1.889  -5.957  0.00  0.00     0.032 H 
ATOM     20  H   LIG d   1      11.215   4.033  -2.533  0.00  0.00     0.027 H 
ATOM     21  H   LIG d   1       9.728   4.031  -1.549  0.00  0.00     0.027 H 
ATOM     22  H   LIG d   1       8.381   3.681  -3.598  0.00  0.00     0.027 H 
ATOM     23  H   LIG d   1       9.569   2.377  -3.380  0.00  0.00     0.027 H 
ENDROOT
BRANCH  14  24
ATOM     24  C   LIG d   1      10.614   6.598  -1.751  0.00  0.00     0.038 C 
ATOM     25  H   LIG d   1      11.565   6.978  -2.122  0.00  0.00     0.040 H 
BRANCH  24  26
ATOM     26  C   LIG d   1      10.858   5.738  -0.509  0.00  0.00    -0.054 C 
ATOM     27  H   LIG d   1      11.891   5.857  -0.182  0.00  0.00     0.024 H 
ATOM     28  H   LIG d   1      10.186   6.054   0.289  0.00  0.00     0.024 H 
ATOM     29  H   LIG d   1      10.669   4.692  -0.749  0.00  0.00     0.024 H 
ENDBRANCH  24  26
BRANCH  24  30
ATOM     30  C   LIG d   1       9.716   7.755  -1.393  0.00  0.00     0.219 C 
ATOM     31  O   LIG d   1       8.550   7.556  -1.123  0.00  0.00    -0.275 OA
ATOM     32  N   LIG d   1      10.209   9.009  -1.373  0.00  0.00    -0.297 N 
ATOM     33  C   LIG d   1       9.385  10.140  -0.915  0.00  0.00     0.038 C 
ATOM     34  C   LIG d   1      11.589   9.287  -1.801  0.00  0.00     0.038 C 
ATOM     35  C   LIG d   1       9.456  11.248  -1.971  0.00  0.00     0.064 C 
ATOM     36  H   LIG d   1       8.351   9.814  -0.793  0.00  0.00     0.049 H 
ATOM     37  H   LIG d   1       9.768  10.512   0.035  0.00  0.00     0.049 H 
ATOM     38  O   LIG d   1      10.827  11.537  -2.258  0.00  0.00    -0.377 OA
ATOM     39  H   LIG d   1       8.955  10.916  -2.881  0.00  0.00     0.058 H 
ATOM     40  H   LIG d   1       8.967  12.145  -1.591  0.00  0.00     0.058 H 
ATOM     41  C   LIG d   1      11.551  10.439  -2.818  0.00  0.00     0.064 C 
ATOM     42  H   LIG d   1      11.058  10.104  -3.732  0.00  0.00     0.058 H 
ATOM     43  H   LIG d   1      12.569  10.754  -3.050  0.00  0.00     0.058 H 
ATOM     44  H   LIG d   1      12.190   9.576  -0.939  0.00  0.00     0.049 H 
ATOM     45  H   LIG d   1      12.016   8.398  -2.266  0.00  0.00     0.049 H 
ENDBRANCH  24  30
ENDBRANCH  14  24
BRANCH  12  46
ATOM     46  O   LIG d   1      10.410   7.454  -4.479  0.00  0.00    -0.391 OA
ATOM     47  H   LIG d   1      10.275   8.004  -3.695  0.00  0.00     0.210 HD
ENDBRANCH  12  46
BRANCH   1  48
ATOM     48  C   LIG d   1      10.312   7.008  -7.010  0.00  0.00    -0.057 C 
ATOM     49  H   LIG d   1       9.519   7.400  -6.375  0.00  0.00     0.024 H 
ATOM     50  H   LIG d   1       9.992   7.038  -8.052  0.00  0.00     0.024 H 
ATOM     51  H   LIG d   1      11.210   7.616  -6.889  0.00  0.00     0.024 H 
ENDBRANCH   1  48
BRANCH   9  52
ATOM     52  C   LIG d   1      11.498   3.307  -5.032  0.00  0.00    -0.059 C 
ATOM     53  H   LIG d   1      11.622   2.535  -5.792  0.00  0.00     0.024 H 
ATOM     54  H   LIG d   1      12.122   4.165  -5.281  0.00  0.00     0.024 H 
ATOM     55  H   LIG d   1      11.794   2.912  -4.060  0.00  0.00     0.024 H 
ENDBRANCH   9  52
BRANCH   6  56
ATOM     56  N   LIG d   1       9.912   4.122 -11.304  0.00  0.00    -0.327 N 
ATOM     57  H   LIG d   1       9.565   4.910 -11.751  0.00  0.00     0.148 HD
BRANCH  56  58
ATOM     58  C   LIG d   1      10.515   3.041 -12.087  0.00  0.00    -0.001 C 
ATOM     59  H   LIG d   1      10.439   2.106 -11.533  0.00  0.00     0.043 H 
ATOM     60  H   LIG d   1       9.992   2.944 -13.038  0.00  0.00     0.043 H 
ATOM     61  H   LIG d   1      11.565   3.269 -12.273  0.00  0.00     0.043 H 
ENDBRANCH  56  58
ENDBRANCH   6  56
TORSDOF 8
ENDMDL
MODEL 8
REMARK VINA RESULT:      -5.0     16.154     19.223
REMARK  8 active torsions:
REMARK  status: ('A' for Active; 'I' for Inactive)
REMARK    1  A    between atoms: C_1  and  C_2 
REMARK    2  A    between atoms: C_7  and  N_9 
REMARK    3  A    between atoms: N_9  and  C_10 
REMARK    4  A    between atoms: C_12  and  C_33 
REMARK    5  A    between atoms: C_15  and  O_32 
REMARK    6  A    between atoms: C_17  and  C_21 
REMARK    7  A    between atoms: C_21  and  C_23 
REMARK    8  A    between atoms: C_21  and  C_24 
REMARK       I    between atoms: C_24  and  N_26 
ROOT
ATOM      1  C   LIG d   1       9.584   9.290  -7.383  0.00  0.00     0.005 C 
ATOM      2  H   LIG d   1       8.696   9.917  -7.464  0.00  0.00     0.036 H 
ATOM      3  C   LIG d   1      10.312   9.269  -8.718  0.00  0.00     0.057 A 
ATOM      4  C   LIG d   1      11.418  10.034  -8.902  0.00  0.00     0.015 A 
ATOM      5  S   LIG d   1      11.873   9.664 -10.575  0.00  0.00    -0.057 SA
ATOM      6  C   LIG d   1      10.589   8.540 -10.902  0.00  0.00     0.158 A 
ATOM      7  N   LIG d   1       9.933   8.529  -9.759  0.00  0.00    -0.229 NA
ATOM      8  C   LIG d   1      12.065  10.948  -7.922  0.00  0.00    -0.014 C 
ATOM      9  C   LIG d   1      11.096  11.196  -6.751  0.00  0.00    -0.022 C 
ATOM     10  C   LIG d   1      10.512   9.854  -6.299  0.00  0.00    -0.001 C 
ATOM     11  H   LIG d   1      11.320   9.148  -6.107  0.00  0.00     0.034 H 
ATOM     12  C   LIG d   1       9.673  10.045  -5.031  0.00  0.00     0.063 C 
ATOM     13  H   LIG d   1       8.838  10.711  -5.249  0.00  0.00     0.060 H 
ATOM     14  C   LIG d   1      10.523  10.654  -3.918  0.00  0.00    -0.004 C 
ATOM     15  H   LIG d   1      11.369   9.999  -3.705  0.00  0.00     0.033 H 
ATOM     16  C   LIG d   1      11.036  12.021  -4.380  0.00  0.00    -0.047 C 
ATOM     17  C   LIG d   1      11.909  11.827  -5.616  0.00  0.00    -0.047 C 
ATOM     18  H   LIG d   1      12.981  10.492  -7.549  0.00  0.00     0.032 H 
ATOM     19  H   LIG d   1      12.301  11.895  -8.409  0.00  0.00     0.032 H 
ATOM     20  H   LIG d   1      10.191  12.663  -4.629  0.00  0.00     0.027 H 
ATOM     21  H   LIG d   1      11.624  12.479  -3.585  0.00  0.00     0.027 H 
ATOM     22  H   LIG d   1      12.745  11.175  -5.365  0.00  0.00     0.027 H 
ATOM     23  H   LIG d   1      12.294  12.793  -5.943  0.00  0.00     0.027 H 
ENDROOT
BRANCH  14  24
ATOM     24  C   LIG d   1       9.674  10.820  -2.656  0.00  0.00     0.038 C 
ATOM     25  H   LIG d   1       8.803  10.168  -2.715  0.00  0.00     0.040 H 
BRANCH  24  26
ATOM     26  C   LIG d   1       9.214  12.275  -2.539  0.00  0.00    -0.054 C 
ATOM     27  H   LIG d   1       9.696  12.741  -1.680  0.00  0.00     0.024 H 
ATOM     28  H   LIG d   1       9.485  12.816  -3.447  0.00  0.00     0.024 H 
ATOM     29  H   LIG d   1       8.131  12.305  -2.410  0.00  0.00     0.024 H 
ENDBRANCH  24  26
BRANCH  24  30
ATOM     30  C   LIG d   1      10.494  10.454  -1.446  0.00  0.00     0.219 C 
ATOM     31  O   LIG d   1      11.425  11.155  -1.110  0.00  0.00    -0.275 OA
ATOM     32  N   LIG d   1      10.193   9.348  -0.738  0.00  0.00    -0.297 N 
ATOM     33  C   LIG d   1      10.904   9.031   0.511  0.00  0.00     0.038 C 
ATOM     34  C   LIG d   1       9.139   8.424  -1.187  0.00  0.00     0.038 C 
ATOM     35  C   LIG d   1      11.392   7.580   0.435  0.00  0.00     0.064 C 
ATOM     36  H   LIG d   1      11.757   9.700   0.627  0.00  0.00     0.049 H 
ATOM     37  H   LIG d   1      10.228   9.148   1.358  0.00  0.00     0.049 H 
ATOM     38  O   LIG d   1      10.293   6.731   0.098  0.00  0.00    -0.377 OA
ATOM     39  H   LIG d   1      12.166   7.496  -0.329  0.00  0.00     0.058 H 
ATOM     40  H   LIG d   1      11.800   7.282   1.401  0.00  0.00     0.058 H 
ATOM     41  C   LIG d   1       9.717   7.000  -1.183  0.00  0.00     0.064 C 
ATOM     42  H   LIG d   1      10.485   6.914  -1.953  0.00  0.00     0.058 H 
ATOM     43  H   LIG d   1       8.921   6.283  -1.382  0.00  0.00     0.058 H 
ATOM     44  H   LIG d   1       8.289   8.480  -0.508  0.00  0.00     0.049 H 
ATOM     45  H   LIG d   1       8.823   8.690  -2.196  0.00  0.00     0.049 H 
ENDBRANCH  24  30
ENDBRANCH  14  24
BRANCH  12  46
ATOM     46  O   LIG d   1       9.168   8.778  -4.602  0.00  0.00    -0.391 OA
ATOM     47  H   LIG d   1       9.671   8.379  -3.879  0.00  0.00     0.210 HD
ENDBRANCH  12  46
BRANCH   1  48
ATOM     48  C   LIG d   1       9.168   7.866  -7.007  0.00  0.00    -0.057 C 
ATOM     49  H   LIG d   1       9.833   7.153  -7.493  0.00  0.00     0.024 H 
ATOM     50  H   LIG d   1       8.143   7.688  -7.335  0.00  0.00     0.024 H 
ATOM     51  H   LIG d   1       9.229   7.743  -5.925  0.00  0.00     0.024 H 
ENDBRANCH   1  48
BRANCH   9  52
ATOM     52  C   LIG d   1       9.980  12.146  -7.186  0.00  0.00    -0.059 C 
ATOM     53  H   LIG d   1      10.181  13.145  -6.799  0.00  0.00     0.024 H 
ATOM     54  H   LIG d   1       9.937  12.182  -8.275  0.00  0.00     0.024 H 
ATOM     55  H   LIG d   1       9.026  11.790  -6.796  0.00  0.00     0.024 H 
ENDBRANCH   9  52
BRANCH   6  56
ATOM     56  N   LIG d   1      10.322   7.836 -12.066  0.00  0.00    -0.327 N 
ATOM     57  H   LIG d   1      10.649   6.928 -12.170  0.00  0.00     0.148 HD
BRANCH  56  58
ATOM     58  C   LIG d   1       9.546   8.462 -13.140  0.00  0.00    -0.001 C 
ATOM     59  H   LIG d   1       9.791   7.986 -14.089  0.00  0.00     0.043 H 
ATOM     60  H   LIG d   1       8.483   8.344 -12.936  0.00  0.00     0.043 H 
ATOM     61  H   LIG d   1       9.790   9.524 -13.191  0.00  0.00     0.043 H 
ENDBRANCH  56  58
ENDBRANCH   6  56
TORSDOF 8
ENDMDL
MODEL 9
REMARK VINA RESULT:      -5.0      9.231     12.384
REMARK  8 active torsions:
REMARK  status: ('A' for Active; 'I' for Inactive)
REMARK    1  A    between atoms: C_1  and  C_2 
REMARK    2  A    between atoms: C_7  and  N_9 
REMARK    3  A    between atoms: N_9  and  C_10 
REMARK    4  A    between atoms: C_12  and  C_33 
REMARK    5  A    between atoms: C_15  and  O_32 
REMARK    6  A    between atoms: C_17  and  C_21 
REMARK    7  A    between atoms: C_21  and  C_23 
REMARK    8  A    between atoms: C_21  and  C_24 
REMARK       I    between atoms: C_24  and  N_26 
ROOT
ATOM      1  C   LIG d   1       4.376  -2.616  -7.874  0.00  0.00     0.005 C 
ATOM      2  H   LIG d   1       5.216  -2.502  -8.560  0.00  0.00     0.036 H 
ATOM      3  C   LIG d   1       4.668  -1.862  -6.587  0.00  0.00     0.057 A 
ATOM      4  C   LIG d   1       4.103  -0.648  -6.366  0.00  0.00     0.015 A 
ATOM      5  S   LIG d   1       4.745  -0.203  -4.775  0.00  0.00    -0.057 SA
ATOM      6  C   LIG d   1       5.697  -1.635  -4.520  0.00  0.00     0.158 A 
ATOM      7  N   LIG d   1       5.465  -2.320  -5.622  0.00  0.00    -0.229 NA
ATOM      8  C   LIG d   1       3.177   0.100  -7.259  0.00  0.00    -0.014 C 
ATOM      9  C   LIG d   1       3.213  -0.532  -8.663  0.00  0.00    -0.022 C 
ATOM     10  C   LIG d   1       3.105  -2.053  -8.524  0.00  0.00    -0.001 C 
ATOM     11  H   LIG d   1       2.240  -2.305  -7.911  0.00  0.00     0.034 H 
ATOM     12  C   LIG d   1       2.971  -2.700  -9.907  0.00  0.00     0.063 C 
ATOM     13  H   LIG d   1       3.865  -2.486 -10.492  0.00  0.00     0.060 H 
ATOM     14  C   LIG d   1       1.749  -2.147 -10.637  0.00  0.00    -0.004 C 
ATOM     15  H   LIG d   1       0.852  -2.345 -10.049  0.00  0.00     0.033 H 
ATOM     16  C   LIG d   1       1.923  -0.636 -10.814  0.00  0.00    -0.047 C 
ATOM     17  C   LIG d   1       2.009   0.015  -9.437  0.00  0.00    -0.047 C 
ATOM     18  H   LIG d   1       2.164   0.048  -6.860  0.00  0.00     0.032 H 
ATOM     19  H   LIG d   1       3.492   1.143  -7.318  0.00  0.00     0.032 H 
ATOM     20  H   LIG d   1       2.839  -0.436 -11.370  0.00  0.00     0.027 H 
ATOM     21  H   LIG d   1       1.068  -0.230 -11.357  0.00  0.00     0.027 H 
ATOM     22  H   LIG d   1       1.096  -0.198  -8.882  0.00  0.00     0.027 H 
ATOM     23  H   LIG d   1       2.116   1.094  -9.552  0.00  0.00     0.027 H 
ENDROOT
BRANCH  14  24
ATOM     24  C   LIG d   1       1.622  -2.817 -12.006  0.00  0.00     0.038 C 
ATOM     25  H   LIG d   1       2.042  -3.821 -11.960  0.00  0.00     0.040 H 
BRANCH  24  26
ATOM     26  C   LIG d   1       2.383  -1.994 -13.049  0.00  0.00    -0.054 C 
ATOM     27  H   LIG d   1       2.494  -2.578 -13.962  0.00  0.00     0.024 H 
ATOM     28  H   LIG d   1       1.828  -1.081 -13.266  0.00  0.00     0.024 H 
ATOM     29  H   LIG d   1       3.368  -1.736 -12.659  0.00  0.00     0.024 H 
ENDBRANCH  24  26
BRANCH  24  30
ATOM     30  C   LIG d   1       0.168  -2.897 -12.394  0.00  0.00     0.219 C 
ATOM     31  O   LIG d   1      -0.366  -1.958 -12.946  0.00  0.00    -0.275 OA
ATOM     32  N   LIG d   1      -0.539  -4.014 -12.127  0.00  0.00    -0.297 N 
ATOM     33  C   LIG d   1      -1.926  -4.162 -12.597  0.00  0.00     0.038 C 
ATOM     34  C   LIG d   1       0.055  -5.122 -11.364  0.00  0.00     0.038 C 
ATOM     35  C   LIG d   1      -2.797  -4.584 -11.409  0.00  0.00     0.064 C 
ATOM     36  H   LIG d   1      -2.283  -3.210 -12.994  0.00  0.00     0.049 H 
ATOM     37  H   LIG d   1      -1.971  -4.924 -13.375  0.00  0.00     0.049 H 
ATOM     38  O   LIG d   1      -2.213  -5.729 -10.782  0.00  0.00    -0.377 OA
ATOM     39  H   LIG d   1      -2.855  -3.765 -10.691  0.00  0.00     0.058 H 
ATOM     40  H   LIG d   1      -3.798  -4.833 -11.761  0.00  0.00     0.058 H 
ATOM     41  C   LIG d   1      -0.915  -5.496 -10.231  0.00  0.00     0.064 C 
ATOM     42  H   LIG d   1      -0.966  -4.681  -9.508  0.00  0.00     0.058 H 
ATOM     43  H   LIG d   1      -0.563  -6.400  -9.734  0.00  0.00     0.058 H 
ATOM     44  H   LIG d   1       0.206  -5.980 -12.019  0.00  0.00     0.049 H 
ATOM     45  H   LIG d   1       1.010  -4.808 -10.942  0.00  0.00     0.049 H 
ENDBRANCH  24  30
ENDBRANCH  14  24
BRANCH  12  46
ATOM     46  O   LIG d   1       2.832  -4.115  -9.756  0.00  0.00    -0.391 OA
ATOM     47  H   LIG d   1       2.324  -4.379  -8.977  0.00  0.00     0.210 HD
ENDBRANCH  12  46
BRANCH   1  48
ATOM     48  C   LIG d   1       4.173  -4.100  -7.561  0.00  0.00    -0.057 C 
ATOM     49  H   LIG d   1       5.142  -4.594  -7.499  0.00  0.00     0.024 H 
ATOM     50  H   LIG d   1       3.580  -4.561  -8.352  0.00  0.00     0.024 H 
ATOM     51  H   LIG d   1       3.650  -4.203  -6.610  0.00  0.00     0.024 H 
ENDBRANCH   1  48
BRANCH   9  52
ATOM     52  C   LIG d   1       4.511  -0.150  -9.376  0.00  0.00    -0.059 C 
ATOM     53  H   LIG d   1       4.772  -0.925 -10.097  0.00  0.00     0.024 H 
ATOM     54  H   LIG d   1       4.374   0.798  -9.897  0.00  0.00     0.024 H 
ATOM     55  H   LIG d   1       5.313  -0.051  -8.643  0.00  0.00     0.024 H 
ENDBRANCH   9  52
BRANCH   6  56
ATOM     56  N   LIG d   1       6.495  -1.971  -3.438  0.00  0.00    -0.327 N 
ATOM     57  H   LIG d   1       6.227  -1.716  -2.541  0.00  0.00     0.148 HD
BRANCH  56  58
ATOM     58  C   LIG d   1       7.742  -2.710  -3.648  0.00  0.00    -0.001 C 
ATOM     59  H   LIG d   1       8.186  -2.408  -4.596  0.00  0.00     0.043 H 
ATOM     60  H   LIG d   1       8.435  -2.493  -2.836  0.00  0.00     0.043 H 
ATOM     61  H   LIG d   1       7.531  -3.779  -3.670  0.00  0.00     0.043 H 
ENDBRANCH  56  58
ENDBRANCH   6  56
TORSDOF 8
ENDMDL
MODEL 10
REMARK VINA RESULT:      -4.9      9.817     12.367
REMARK  8 active torsions:
REMARK  status: ('A' for Active; 'I' for Inactive)
REMARK    1  A    between atoms: C_1  and  C_2 
REMARK    2  A    between atoms: C_7  and  N_9 
REMARK    3  A    between atoms: N_9  and  C_10 
REMARK    4  A    between atoms: C_12  and  C_33 
REMARK    5  A    between atoms: C_15  and  O_32 
REMARK    6  A    between atoms: C_17  and  C_21 
REMARK    7  A    between atoms: C_21  and  C_23 
REMARK    8  A    between atoms: C_21  and  C_24 
REMARK       I    between atoms: C_24  and  N_26 
ROOT
ATOM      1  C   LIG d   1       2.444  -3.490 -10.611  0.00  0.00     0.005 C 
ATOM      2  H   LIG d   1       1.419  -3.411 -10.249  0.00  0.00     0.036 H 
ATOM      3  C   LIG d   1       2.434  -3.729 -12.113  0.00  0.00     0.057 A 
ATOM      4  C   LIG d   1       2.687  -2.704 -12.967  0.00  0.00     0.015 A 
ATOM      5  S   LIG d   1       2.554  -3.480 -14.555  0.00  0.00    -0.057 SA
ATOM      6  C   LIG d   1       2.183  -5.078 -13.983  0.00  0.00     0.158 A 
ATOM      7  N   LIG d   1       2.186  -4.911 -12.675  0.00  0.00    -0.229 NA
ATOM      8  C   LIG d   1       2.995  -1.290 -12.623  0.00  0.00    -0.014 C 
ATOM      9  C   LIG d   1       2.638  -1.042 -11.145  0.00  0.00    -0.022 C 
ATOM     10  C   LIG d   1       3.199  -2.190 -10.302  0.00  0.00    -0.001 C 
ATOM     11  H   LIG d   1       4.258  -2.322 -10.519  0.00  0.00     0.034 H 
ATOM     12  C   LIG d   1       3.005  -1.890  -8.811  0.00  0.00     0.063 C 
ATOM     13  H   LIG d   1       1.939  -1.813  -8.595  0.00  0.00     0.060 H 
ATOM     14  C   LIG d   1       3.689  -0.577  -8.439  0.00  0.00    -0.004 C 
ATOM     15  H   LIG d   1       4.754  -0.643  -8.666  0.00  0.00     0.033 H 
ATOM     16  C   LIG d   1       3.060   0.556  -9.255  0.00  0.00    -0.047 C 
ATOM     17  C   LIG d   1       3.292   0.282 -10.737  0.00  0.00    -0.047 C 
ATOM     18  H   LIG d   1       4.057  -1.100 -12.780  0.00  0.00     0.032 H 
ATOM     19  H   LIG d   1       2.409  -0.625 -13.259  0.00  0.00     0.032 H 
ATOM     20  H   LIG d   1       1.989   0.598  -9.056  0.00  0.00     0.027 H 
ATOM     21  H   LIG d   1       3.522   1.505  -8.980  0.00  0.00     0.027 H 
ATOM     22  H   LIG d   1       4.364   0.230 -10.929  0.00  0.00     0.027 H 
ATOM     23  H   LIG d   1       2.863   1.092 -11.327  0.00  0.00     0.027 H 
ENDROOT
BRANCH  14  24
ATOM     24  C   LIG d   1       3.500  -0.305  -6.945  0.00  0.00     0.038 C 
ATOM     25  H   LIG d   1       2.984  -1.147  -6.485  0.00  0.00     0.040 H 
BRANCH  24  26
ATOM     26  C   LIG d   1       2.668   0.966  -6.760  0.00  0.00    -0.054 C 
ATOM     27  H   LIG d   1       2.058   0.873  -5.862  0.00  0.00     0.024 H 
ATOM     28  H   LIG d   1       3.333   1.824  -6.660  0.00  0.00     0.024 H 
ATOM     29  H   LIG d   1       2.022   1.107  -7.627  0.00  0.00     0.024 H 
ENDBRANCH  24  26
BRANCH  24  30
ATOM     30  C   LIG d   1       4.847  -0.123  -6.293  0.00  0.00     0.219 C 
ATOM     31  O   LIG d   1       5.775   0.325  -6.932  0.00  0.00    -0.275 OA
ATOM     32  N   LIG d   1       5.019  -0.459  -4.999  0.00  0.00    -0.297 N 
ATOM     33  C   LIG d   1       6.289  -0.185  -4.308  0.00  0.00     0.038 C 
ATOM     34  C   LIG d   1       3.941  -1.105  -4.234  0.00  0.00     0.038 C 
ATOM     35  C   LIG d   1       6.753  -1.473  -3.618  0.00  0.00     0.064 C 
ATOM     36  H   LIG d   1       7.039   0.135  -5.032  0.00  0.00     0.049 H 
ATOM     37  H   LIG d   1       6.141   0.598  -3.564  0.00  0.00     0.049 H 
ATOM     38  O   LIG d   1       5.689  -1.984  -2.812  0.00  0.00    -0.377 OA
ATOM     39  H   LIG d   1       7.025  -2.212  -4.373  0.00  0.00     0.058 H 
ATOM     40  H   LIG d   1       7.617  -1.258  -2.989  0.00  0.00     0.058 H 
ATOM     41  C   LIG d   1       4.521  -2.353  -3.549  0.00  0.00     0.064 C 
ATOM     42  H   LIG d   1       4.785  -3.095  -4.303  0.00  0.00     0.058 H 
ATOM     43  H   LIG d   1       3.779  -2.773  -2.870  0.00  0.00     0.058 H 
ATOM     44  H   LIG d   1       3.560  -0.414  -3.482  0.00  0.00     0.049 H 
ATOM     45  H   LIG d   1       3.135  -1.396  -4.908  0.00  0.00     0.049 H 
ENDBRANCH  24  30
ENDBRANCH  14  24
BRANCH  12  46
ATOM     46  O   LIG d   1       3.567  -2.954  -8.038  0.00  0.00    -0.391 OA
ATOM     47  H   LIG d   1       3.626  -2.763  -7.092  0.00  0.00     0.210 HD
ENDBRANCH  12  46
BRANCH   1  48
ATOM     48  C   LIG d   1       3.141  -4.661  -9.914  0.00  0.00    -0.057 C 
ATOM     49  H   LIG d   1       4.195  -4.425  -9.774  0.00  0.00     0.024 H 
ATOM     50  H   LIG d   1       3.047  -5.557 -10.528  0.00  0.00     0.024 H 
ATOM     51  H   LIG d   1       2.675  -4.836  -8.943  0.00  0.00     0.024 H 
ENDBRANCH   1  48
BRANCH   9  52
ATOM     52  C   LIG d   1       1.121  -0.948 -10.983  0.00  0.00    -0.059 C 
ATOM     53  H   LIG d   1       0.868  -0.034 -10.443  0.00  0.00     0.024 H 
ATOM     54  H   LIG d   1       0.650  -0.930 -11.966  0.00  0.00     0.024 H 
ATOM     55  H   LIG d   1       0.761  -1.812 -10.423  0.00  0.00     0.024 H 
ENDBRANCH   9  52
BRANCH   6  56
ATOM     56  N   LIG d   1       1.943  -6.232 -14.713  0.00  0.00    -0.327 N 
ATOM     57  H   LIG d   1       1.896  -6.192 -15.681  0.00  0.00     0.148 HD
BRANCH  56  58
ATOM     58  C   LIG d   1       1.764  -7.511 -14.022  0.00  0.00    -0.001 C 
ATOM     59  H   LIG d   1       2.297  -7.488 -13.072  0.00  0.00     0.043 H 
ATOM     60  H   LIG d   1       0.703  -7.680 -13.841  0.00  0.00     0.043 H 
ATOM     61  H   LIG d   1       2.159  -8.316 -14.641  0.00  0.00     0.043 H 
ENDBRANCH  56  58
ENDBRANCH   6  56
TORSDOF 8
ENDMDL
