MODEL 1
REMARK VINA RESULT:      -6.1      0.000      0.000
REMARK  4 active torsions:
REMARK  status: ('A' for Active; 'I' for Inactive)
REMARK    1  A    between atoms: C_1  and  O_2 
REMARK    2  A    between atoms: O_2  and  C_3 
REMARK    3  A    between atoms: C_9  and  C_14 
REMARK    4  A    between atoms: C_14  and  C_15 
ROOT
ATOM      1  C   LIG d   1       5.635  -3.106  -4.378  0.00  0.00     0.120 A 
ATOM      2  C   LIG d   1       6.762  -2.334  -4.122  0.00  0.00    -0.019 A 
ATOM      3  C   LIG d   1       6.637  -1.103  -3.548  0.00  0.00    -0.048 A 
ATOM      4  C   LIG d   1       5.367  -0.610  -3.201  0.00  0.00     0.021 A 
ATOM      5  C   LIG d   1       4.236  -1.389  -3.453  0.00  0.00    -0.030 A 
ATOM      6  C   LIG d   1       4.373  -2.630  -4.039  0.00  0.00    -0.016 A 
ATOM      7  C   LIG d   1       3.001  -0.651  -2.996  0.00  0.00    -0.003 A 
ATOM      8  H   LIG d   1       2.487  -1.223  -2.224  0.00  0.00     0.036 H 
ATOM      9  C   LIG d   1       3.488   0.689  -2.425  0.00  0.00     0.018 A 
ATOM     10  C   LIG d   1       4.989   0.665  -2.577  0.00  0.00     0.164 A 
ATOM     11  O   LIG d   1       5.751   1.548  -2.242  0.00  0.00    -0.292 OA
ATOM     12  H   LIG d   1       7.741  -2.709  -4.383  0.00  0.00     0.065 H 
ATOM     13  H   LIG d   1       7.517  -0.507  -3.356  0.00  0.00     0.063 H 
ATOM     14  H   LIG d   1       3.499  -3.234  -4.234  0.00  0.00     0.066 H 
ATOM     15  H   LIG d   1       3.210   0.762  -1.467  0.00  0.00     0.035 H 
ATOM     16  H   LIG d   1       3.063   1.518  -2.990  0.00  0.00     0.035 H 
ENDROOT
BRANCH   7  17
ATOM     17  C   LIG d   1       2.065  -0.408  -4.182  0.00  0.00    -0.006 C 
ATOM     18  H   LIG d   1       1.905  -1.344  -4.716  0.00  0.00     0.033 H 
ATOM     19  H   LIG d   1       1.109  -0.031  -3.818  0.00  0.00     0.033 H 
BRANCH  17  20
ATOM     20  C   LIG d   1       2.683   0.603  -5.113  0.00  0.00     0.042 C 
ATOM     21  O   LIG d   1       3.413   0.236  -6.003  0.00  0.00    -0.550 OA
ATOM     22  O   LIG d   1       2.425   1.909  -4.953  0.00  0.00    -0.550 OA
ENDBRANCH  17  20
ENDBRANCH   7  17
BRANCH   1  23
ATOM     23  O   LIG d   1       5.766  -4.328  -4.953  0.00  0.00    -0.495 OA
BRANCH  23  24
ATOM     24  C   LIG d   1       4.690  -4.773  -5.783  0.00  0.00     0.079 C 
ATOM     25  H   LIG d   1       4.026  -3.937  -5.995  0.00  0.00     0.066 H 
ATOM     26  H   LIG d   1       5.091  -5.165  -6.717  0.00  0.00     0.066 H 
ATOM     27  H   LIG d   1       4.135  -5.557  -5.268  0.00  0.00     0.066 H 
ENDBRANCH  23  24
ENDBRANCH   1  23
TORSDOF 4
ENDMDL
MODEL 2
REMARK VINA RESULT:      -5.9      1.829      4.112
REMARK  4 active torsions:
REMARK  status: ('A' for Active; 'I' for Inactive)
REMARK    1  A    between atoms: C_1  and  O_2 
REMARK    2  A    between atoms: O_2  and  C_3 
REMARK    3  A    between atoms: C_9  and  C_14 
REMARK    4  A    between atoms: C_14  and  C_15 
ROOT
ATOM      1  C   LIG d   1       3.111   0.142  -7.069  0.00  0.00     0.120 A 
ATOM      2  C   LIG d   1       4.115  -0.788  -7.316  0.00  0.00    -0.019 A 
ATOM      3  C   LIG d   1       4.679  -1.481  -6.286  0.00  0.00    -0.048 A 
ATOM      4  C   LIG d   1       4.244  -1.267  -4.967  0.00  0.00     0.021 A 
ATOM      5  C   LIG d   1       3.232  -0.336  -4.721  0.00  0.00    -0.030 A 
ATOM      6  C   LIG d   1       2.671   0.363  -5.769  0.00  0.00    -0.016 A 
ATOM      7  C   LIG d   1       2.941  -0.285  -3.240  0.00  0.00    -0.003 A 
ATOM      8  H   LIG d   1       1.906  -0.567  -3.052  0.00  0.00     0.036 H 
ATOM      9  C   LIG d   1       3.891  -1.296  -2.580  0.00  0.00     0.018 A 
ATOM     10  C   LIG d   1       4.692  -1.888  -3.714  0.00  0.00     0.164 A 
ATOM     11  O   LIG d   1       5.557  -2.733  -3.607  0.00  0.00    -0.292 OA
ATOM     12  H   LIG d   1       4.450  -0.960  -8.329  0.00  0.00     0.065 H 
ATOM     13  H   LIG d   1       5.461  -2.199  -6.485  0.00  0.00     0.063 H 
ATOM     14  H   LIG d   1       1.888   1.082  -5.579  0.00  0.00     0.066 H 
ATOM     15  H   LIG d   1       3.356  -1.989  -2.098  0.00  0.00     0.035 H 
ATOM     16  H   LIG d   1       4.550  -0.790  -1.875  0.00  0.00     0.035 H 
ENDROOT
BRANCH   7  17
ATOM     17  C   LIG d   1       3.210   1.121  -2.699  0.00  0.00    -0.006 C 
ATOM     18  H   LIG d   1       2.980   1.857  -3.469  0.00  0.00     0.033 H 
ATOM     19  H   LIG d   1       2.582   1.300  -1.827  0.00  0.00     0.033 H 
BRANCH  17  20
ATOM     20  C   LIG d   1       4.661   1.240  -2.309  0.00  0.00     0.042 C 
ATOM     21  O   LIG d   1       4.989   1.100  -1.155  0.00  0.00    -0.550 OA
ATOM     22  O   LIG d   1       5.588   1.504  -3.243  0.00  0.00    -0.550 OA
ENDBRANCH  17  20
ENDBRANCH   7  17
BRANCH   1  23
ATOM     23  O   LIG d   1       2.556   0.831  -8.098  0.00  0.00    -0.495 OA
BRANCH  23  24
ATOM     24  C   LIG d   1       3.317   1.913  -8.640  0.00  0.00     0.079 C 
ATOM     25  H   LIG d   1       3.067   2.041  -9.692  0.00  0.00     0.066 H 
ATOM     26  H   LIG d   1       3.084   2.828  -8.097  0.00  0.00     0.066 H 
ATOM     27  H   LIG d   1       4.380   1.693  -8.543  0.00  0.00     0.066 H 
ENDBRANCH  23  24
ENDBRANCH   1  23
TORSDOF 4
ENDMDL
MODEL 3
REMARK VINA RESULT:      -5.5      2.042      4.262
REMARK  4 active torsions:
REMARK  status: ('A' for Active; 'I' for Inactive)
REMARK    1  A    between atoms: C_1  and  O_2 
REMARK    2  A    between atoms: O_2  and  C_3 
REMARK    3  A    between atoms: C_9  and  C_14 
REMARK    4  A    between atoms: C_14  and  C_15 
ROOT
ATOM      1  C   LIG d   1       7.871   0.174  -4.303  0.00  0.00     0.120 A 
ATOM      2  C   LIG d   1       7.341   1.332  -3.743  0.00  0.00    -0.019 A 
ATOM      3  C   LIG d   1       6.116   1.309  -3.146  0.00  0.00    -0.048 A 
ATOM      4  C   LIG d   1       5.381   0.112  -3.083  0.00  0.00     0.021 A 
ATOM      5  C   LIG d   1       5.917  -1.052  -3.641  0.00  0.00    -0.030 A 
ATOM      6  C   LIG d   1       7.155  -1.016  -4.247  0.00  0.00    -0.016 A 
ATOM      7  C   LIG d   1       4.951  -2.195  -3.450  0.00  0.00    -0.003 A 
ATOM      8  H   LIG d   1       5.414  -2.982  -2.856  0.00  0.00     0.036 H 
ATOM      9  C   LIG d   1       3.740  -1.615  -2.704  0.00  0.00     0.018 A 
ATOM     10  C   LIG d   1       4.062  -0.155  -2.496  0.00  0.00     0.164 A 
ATOM     11  O   LIG d   1       3.352   0.656  -1.939  0.00  0.00    -0.292 OA
ATOM     12  H   LIG d   1       7.903   2.254  -3.784  0.00  0.00     0.065 H 
ATOM     13  H   LIG d   1       5.709   2.213  -2.717  0.00  0.00     0.063 H 
ATOM     14  H   LIG d   1       7.570  -1.915  -4.678  0.00  0.00     0.066 H 
ATOM     15  H   LIG d   1       3.621  -2.099  -1.837  0.00  0.00     0.035 H 
ATOM     16  H   LIG d   1       2.837  -1.722  -3.306  0.00  0.00     0.035 H 
ENDROOT
BRANCH   7  17
ATOM     17  C   LIG d   1       4.515  -2.749  -4.808  0.00  0.00    -0.006 C 
ATOM     18  H   LIG d   1       3.426  -2.779  -4.856  0.00  0.00     0.033 H 
ATOM     19  H   LIG d   1       4.895  -2.106  -5.602  0.00  0.00     0.033 H 
BRANCH  17  20
ATOM     20  C   LIG d   1       5.062  -4.142  -4.983  0.00  0.00     0.042 C 
ATOM     21  O   LIG d   1       6.255  -4.315  -5.071  0.00  0.00    -0.550 OA
ATOM     22  O   LIG d   1       4.226  -5.190  -5.042  0.00  0.00    -0.550 OA
ENDBRANCH  17  20
ENDBRANCH   7  17
BRANCH   1  23
ATOM     23  O   LIG d   1       9.089   0.205  -4.899  0.00  0.00    -0.495 OA
BRANCH  23  24
ATOM     24  C   LIG d   1       9.838   1.416  -4.782  0.00  0.00     0.079 C 
ATOM     25  H   LIG d   1      10.780   1.213  -4.273  0.00  0.00     0.066 H 
ATOM     26  H   LIG d   1      10.041   1.816  -5.775  0.00  0.00     0.066 H 
ATOM     27  H   LIG d   1       9.265   2.143  -4.207  0.00  0.00     0.066 H 
ENDBRANCH  23  24
ENDBRANCH   1  23
TORSDOF 4
ENDMDL
MODEL 4
REMARK VINA RESULT:      -5.5      2.081      4.281
REMARK  4 active torsions:
REMARK  status: ('A' for Active; 'I' for Inactive)
REMARK    1  A    between atoms: C_1  and  O_2 
REMARK    2  A    between atoms: O_2  and  C_3 
REMARK    3  A    between atoms: C_9  and  C_14 
REMARK    4  A    between atoms: C_14  and  C_15 
ROOT
ATOM      1  C   LIG d   1       3.632  -0.453  -6.709  0.00  0.00     0.120 A 
ATOM      2  C   LIG d   1       2.539   0.227  -6.183  0.00  0.00    -0.019 A 
ATOM      3  C   LIG d   1       2.564   0.677  -4.896  0.00  0.00    -0.048 A 
ATOM      4  C   LIG d   1       3.699   0.464  -4.093  0.00  0.00     0.021 A 
ATOM      5  C   LIG d   1       4.798  -0.215  -4.625  0.00  0.00    -0.030 A 
ATOM      6  C   LIG d   1       4.760  -0.670  -5.927  0.00  0.00    -0.016 A 
ATOM      7  C   LIG d   1       5.882  -0.319  -3.580  0.00  0.00    -0.003 A 
ATOM      8  H   LIG d   1       6.784   0.185  -3.926  0.00  0.00     0.036 H 
ATOM      9  C   LIG d   1       5.337   0.377  -2.324  0.00  0.00     0.018 A 
ATOM     10  C   LIG d   1       3.955   0.854  -2.700  0.00  0.00     0.164 A 
ATOM     11  O   LIG d   1       3.189   1.455  -1.977  0.00  0.00    -0.292 OA
ATOM     12  H   LIG d   1       1.666   0.398  -6.796  0.00  0.00     0.065 H 
ATOM     13  H   LIG d   1       1.710   1.201  -4.492  0.00  0.00     0.063 H 
ATOM     14  H   LIG d   1       5.609  -1.195  -6.338  0.00  0.00     0.066 H 
ATOM     15  H   LIG d   1       5.939   1.135  -2.076  0.00  0.00     0.035 H 
ATOM     16  H   LIG d   1       5.281  -0.328  -1.495  0.00  0.00     0.035 H 
ENDROOT
BRANCH   7  17
ATOM     17  C   LIG d   1       6.184  -1.788  -3.278  0.00  0.00    -0.006 C 
ATOM     18  H   LIG d   1       6.214  -1.938  -2.199  0.00  0.00     0.033 H 
ATOM     19  H   LIG d   1       5.404  -2.415  -3.710  0.00  0.00     0.033 H 
BRANCH  17  20
ATOM     20  C   LIG d   1       7.517  -2.161  -3.874  0.00  0.00     0.042 C 
ATOM     21  O   LIG d   1       7.989  -3.252  -3.662  0.00  0.00    -0.550 OA
ATOM     22  O   LIG d   1       8.180  -1.280  -4.638  0.00  0.00    -0.550 OA
ENDBRANCH  17  20
ENDBRANCH   7  17
BRANCH   1  23
ATOM     23  O   LIG d   1       3.599  -0.902  -7.989  0.00  0.00    -0.495 OA
BRANCH  23  24
ATOM     24  C   LIG d   1       2.430  -0.599  -8.753  0.00  0.00     0.079 C 
ATOM     25  H   LIG d   1       1.552  -1.002  -8.248  0.00  0.00     0.066 H 
ATOM     26  H   LIG d   1       2.329   0.481  -8.850  0.00  0.00     0.066 H 
ATOM     27  H   LIG d   1       2.517  -1.047  -9.743  0.00  0.00     0.066 H 
ENDBRANCH  23  24
ENDBRANCH   1  23
TORSDOF 4
ENDMDL
MODEL 5
REMARK VINA RESULT:      -5.4      2.230      3.463
REMARK  4 active torsions:
REMARK  status: ('A' for Active; 'I' for Inactive)
REMARK    1  A    between atoms: C_1  and  O_2 
REMARK    2  A    between atoms: O_2  and  C_3 
REMARK    3  A    between atoms: C_9  and  C_14 
REMARK    4  A    between atoms: C_14  and  C_15 
ROOT
ATOM      1  C   LIG d   1       4.647  -3.003  -4.121  0.00  0.00     0.120 A 
ATOM      2  C   LIG d   1       3.982  -2.790  -2.919  0.00  0.00    -0.019 A 
ATOM      3  C   LIG d   1       4.116  -1.604  -2.260  0.00  0.00    -0.048 A 
ATOM      4  C   LIG d   1       4.921  -0.583  -2.796  0.00  0.00     0.021 A 
ATOM      5  C   LIG d   1       5.585  -0.798  -4.007  0.00  0.00    -0.030 A 
ATOM      6  C   LIG d   1       5.445  -2.003  -4.662  0.00  0.00    -0.016 A 
ATOM      7  C   LIG d   1       6.379   0.433  -4.372  0.00  0.00    -0.003 A 
ATOM      8  H   LIG d   1       6.030   0.835  -5.323  0.00  0.00     0.036 H 
ATOM      9  C   LIG d   1       6.138   1.450  -3.248  0.00  0.00     0.018 A 
ATOM     10  C   LIG d   1       5.211   0.760  -2.277  0.00  0.00     0.164 A 
ATOM     11  O   LIG d   1       4.780   1.234  -1.247  0.00  0.00    -0.292 OA
ATOM     12  H   LIG d   1       3.358  -3.569  -2.504  0.00  0.00     0.065 H 
ATOM     13  H   LIG d   1       3.600  -1.446  -1.324  0.00  0.00     0.063 H 
ATOM     14  H   LIG d   1       5.957  -2.169  -5.599  0.00  0.00     0.066 H 
ATOM     15  H   LIG d   1       5.729   2.278  -3.631  0.00  0.00     0.035 H 
ATOM     16  H   LIG d   1       7.079   1.703  -2.758  0.00  0.00     0.035 H 
ENDROOT
BRANCH   7  17
ATOM     17  C   LIG d   1       7.868   0.091  -4.462  0.00  0.00    -0.006 C 
ATOM     18  H   LIG d   1       8.324   0.196  -3.478  0.00  0.00     0.033 H 
ATOM     19  H   LIG d   1       7.984  -0.936  -4.807  0.00  0.00     0.033 H 
BRANCH  17  20
ATOM     20  C   LIG d   1       8.542   1.028  -5.430  0.00  0.00     0.042 C 
ATOM     21  O   LIG d   1       9.743   1.158  -5.408  0.00  0.00    -0.550 OA
ATOM     22  O   LIG d   1       7.809   1.718  -6.317  0.00  0.00    -0.550 OA
ENDBRANCH  17  20
ENDBRANCH   7  17
BRANCH   1  23
ATOM     23  O   LIG d   1       4.512  -4.187  -4.770  0.00  0.00    -0.495 OA
BRANCH  23  24
ATOM     24  C   LIG d   1       5.672  -4.703  -5.427  0.00  0.00     0.079 C 
ATOM     25  H   LIG d   1       5.373  -5.464  -6.147  0.00  0.00     0.066 H 
ATOM     26  H   LIG d   1       6.185  -3.894  -5.946  0.00  0.00     0.066 H 
ATOM     27  H   LIG d   1       6.341  -5.145  -4.688  0.00  0.00     0.066 H 
ENDBRANCH  23  24
ENDBRANCH   1  23
TORSDOF 4
ENDMDL
MODEL 6
REMARK VINA RESULT:      -5.3      1.924      2.537
REMARK  4 active torsions:
REMARK  status: ('A' for Active; 'I' for Inactive)
REMARK    1  A    between atoms: C_1  and  O_2 
REMARK    2  A    between atoms: O_2  and  C_3 
REMARK    3  A    between atoms: C_9  and  C_14 
REMARK    4  A    between atoms: C_14  and  C_15 
ROOT
ATOM      1  C   LIG d   1       7.933  -2.296  -4.436  0.00  0.00     0.120 A 
ATOM      2  C   LIG d   1       8.255  -1.014  -4.867  0.00  0.00    -0.019 A 
ATOM      3  C   LIG d   1       7.563   0.063  -4.397  0.00  0.00    -0.048 A 
ATOM      4  C   LIG d   1       6.525  -0.113  -3.465  0.00  0.00     0.021 A 
ATOM      5  C   LIG d   1       6.207  -1.402  -3.029  0.00  0.00    -0.030 A 
ATOM      6  C   LIG d   1       6.909  -2.485  -3.515  0.00  0.00    -0.016 A 
ATOM      7  C   LIG d   1       5.069  -1.334  -2.040  0.00  0.00    -0.003 A 
ATOM      8  H   LIG d   1       5.386  -1.732  -1.077  0.00  0.00     0.036 H 
ATOM      9  C   LIG d   1       4.707   0.152  -1.903  0.00  0.00     0.018 A 
ATOM     10  C   LIG d   1       5.656   0.881  -2.823  0.00  0.00     0.164 A 
ATOM     11  O   LIG d   1       5.693   2.081  -3.000  0.00  0.00    -0.292 OA
ATOM     12  H   LIG d   1       9.054  -0.871  -5.580  0.00  0.00     0.065 H 
ATOM     13  H   LIG d   1       7.816   1.056  -4.739  0.00  0.00     0.063 H 
ATOM     14  H   LIG d   1       6.663  -3.481  -3.178  0.00  0.00     0.066 H 
ATOM     15  H   LIG d   1       4.819   0.435  -0.950  0.00  0.00     0.035 H 
ATOM     16  H   LIG d   1       3.675   0.321  -2.212  0.00  0.00     0.035 H 
ENDROOT
BRANCH   7  17
ATOM     17  C   LIG d   1       3.867  -2.121  -2.565  0.00  0.00    -0.006 C 
ATOM     18  H   LIG d   1       4.203  -3.083  -2.951  0.00  0.00     0.033 H 
ATOM     19  H   LIG d   1       3.157  -2.284  -1.754  0.00  0.00     0.033 H 
BRANCH  17  20
ATOM     20  C   LIG d   1       3.199  -1.343  -3.670  0.00  0.00     0.042 C 
ATOM     21  O   LIG d   1       3.656  -1.370  -4.788  0.00  0.00    -0.550 OA
ATOM     22  O   LIG d   1       2.099  -0.621  -3.412  0.00  0.00    -0.550 OA
ENDBRANCH  17  20
ENDBRANCH   7  17
BRANCH   1  23
ATOM     23  O   LIG d   1       8.622  -3.364  -4.911  0.00  0.00    -0.495 OA
BRANCH  23  24
ATOM     24  C   LIG d   1       9.952  -3.548  -4.421  0.00  0.00     0.079 C 
ATOM     25  H   LIG d   1       9.972  -3.366  -3.347  0.00  0.00     0.066 H 
ATOM     26  H   LIG d   1      10.275  -4.569  -4.622  0.00  0.00     0.066 H 
ATOM     27  H   LIG d   1      10.622  -2.849  -4.921  0.00  0.00     0.066 H 
ENDBRANCH  23  24
ENDBRANCH   1  23
TORSDOF 4
ENDMDL
MODEL 7
REMARK VINA RESULT:      -5.2      2.202      4.435
REMARK  4 active torsions:
REMARK  status: ('A' for Active; 'I' for Inactive)
REMARK    1  A    between atoms: C_1  and  O_2 
REMARK    2  A    between atoms: O_2  and  C_3 
REMARK    3  A    between atoms: C_9  and  C_14 
REMARK    4  A    between atoms: C_14  and  C_15 
ROOT
ATOM      1  C   LIG d   1       3.856  -0.591  -3.189  0.00  0.00     0.120 A 
ATOM      2  C   LIG d   1       4.127  -1.908  -2.833  0.00  0.00    -0.019 A 
ATOM      3  C   LIG d   1       4.491  -2.815  -3.784  0.00  0.00    -0.048 A 
ATOM      4  C   LIG d   1       4.605  -2.424  -5.130  0.00  0.00     0.021 A 
ATOM      5  C   LIG d   1       4.338  -1.099  -5.484  0.00  0.00    -0.030 A 
ATOM      6  C   LIG d   1       3.966  -0.191  -4.515  0.00  0.00    -0.016 A 
ATOM      7  C   LIG d   1       4.527  -0.926  -6.971  0.00  0.00    -0.003 A 
ATOM      8  H   LIG d   1       5.308  -0.192  -7.166  0.00  0.00     0.036 H 
ATOM      9  C   LIG d   1       4.945  -2.300  -7.515  0.00  0.00     0.018 A 
ATOM     10  C   LIG d   1       4.980  -3.211  -6.312  0.00  0.00     0.164 A 
ATOM     11  O   LIG d   1       5.268  -4.389  -6.321  0.00  0.00    -0.292 OA
ATOM     12  H   LIG d   1       4.045  -2.214  -1.800  0.00  0.00     0.065 H 
ATOM     13  H   LIG d   1       4.695  -3.838  -3.502  0.00  0.00     0.063 H 
ATOM     14  H   LIG d   1       3.760   0.833  -4.788  0.00  0.00     0.066 H 
ATOM     15  H   LIG d   1       5.841  -2.225  -7.953  0.00  0.00     0.035 H 
ATOM     16  H   LIG d   1       4.215  -2.658  -8.240  0.00  0.00     0.035 H 
ENDROOT
BRANCH   7  17
ATOM     17  C   LIG d   1       3.214  -0.481  -7.620  0.00  0.00    -0.006 C 
ATOM     18  H   LIG d   1       2.919  -1.209  -8.376  0.00  0.00     0.033 H 
ATOM     19  H   LIG d   1       2.437  -0.413  -6.859  0.00  0.00     0.033 H 
BRANCH  17  20
ATOM     20  C   LIG d   1       3.404   0.866  -8.268  0.00  0.00     0.042 C 
ATOM     21  O   LIG d   1       4.431   1.479  -8.096  0.00  0.00    -0.550 OA
ATOM     22  O   LIG d   1       2.433   1.385  -9.035  0.00  0.00    -0.550 OA
ENDBRANCH  17  20
ENDBRANCH   7  17
BRANCH   1  23
ATOM     23  O   LIG d   1       3.491   0.306  -2.238  0.00  0.00    -0.495 OA
BRANCH  23  24
ATOM     24  C   LIG d   1       4.533   1.083  -1.644  0.00  0.00     0.079 C 
ATOM     25  H   LIG d   1       4.551   2.073  -2.097  0.00  0.00     0.066 H 
ATOM     26  H   LIG d   1       4.351   1.177  -0.574  0.00  0.00     0.066 H 
ATOM     27  H   LIG d   1       5.491   0.590  -1.808  0.00  0.00     0.066 H 
ENDBRANCH  23  24
ENDBRANCH   1  23
TORSDOF 4
ENDMDL
MODEL 8
REMARK VINA RESULT:      -5.2      1.821      2.762
REMARK  4 active torsions:
REMARK  status: ('A' for Active; 'I' for Inactive)
REMARK    1  A    between atoms: C_1  and  O_2 
REMARK    2  A    between atoms: O_2  and  C_3 
REMARK    3  A    between atoms: C_9  and  C_14 
REMARK    4  A    between atoms: C_14  and  C_15 
ROOT
ATOM      1  C   LIG d   1       4.305  -4.218  -5.756  0.00  0.00     0.120 A 
ATOM      2  C   LIG d   1       4.612  -3.408  -6.844  0.00  0.00    -0.019 A 
ATOM      3  C   LIG d   1       5.130  -2.162  -6.648  0.00  0.00    -0.048 A 
ATOM      4  C   LIG d   1       5.368  -1.690  -5.346  0.00  0.00     0.021 A 
ATOM      5  C   LIG d   1       5.064  -2.507  -4.254  0.00  0.00    -0.030 A 
ATOM      6  C   LIG d   1       4.535  -3.764  -4.463  0.00  0.00    -0.016 A 
ATOM      7  C   LIG d   1       5.404  -1.786  -2.973  0.00  0.00    -0.003 A 
ATOM      8  H   LIG d   1       6.157  -2.344  -2.417  0.00  0.00     0.036 H 
ATOM      9  C   LIG d   1       5.959  -0.415  -3.385  0.00  0.00     0.018 A 
ATOM     10  C   LIG d   1       5.915  -0.405  -4.894  0.00  0.00     0.164 A 
ATOM     11  O   LIG d   1       6.272   0.509  -5.609  0.00  0.00    -0.292 OA
ATOM     12  H   LIG d   1       4.436  -3.767  -7.848  0.00  0.00     0.065 H 
ATOM     13  H   LIG d   1       5.363  -1.537  -7.498  0.00  0.00     0.063 H 
ATOM     14  H   LIG d   1       4.300  -4.396  -3.619  0.00  0.00     0.066 H 
ATOM     15  H   LIG d   1       6.891  -0.316  -3.037  0.00  0.00     0.035 H 
ATOM     16  H   LIG d   1       5.335   0.383  -2.983  0.00  0.00     0.035 H 
ENDROOT
BRANCH   7  17
ATOM     17  C   LIG d   1       4.146  -1.608  -2.119  0.00  0.00    -0.006 C 
ATOM     18  H   LIG d   1       3.539  -2.512  -2.174  0.00  0.00     0.033 H 
ATOM     19  H   LIG d   1       4.433  -1.428  -1.083  0.00  0.00     0.033 H 
BRANCH  17  20
ATOM     20  C   LIG d   1       3.350  -0.437  -2.633  0.00  0.00     0.042 C 
ATOM     21  O   LIG d   1       2.576  -0.588  -3.548  0.00  0.00    -0.550 OA
ATOM     22  O   LIG d   1       3.501   0.774  -2.075  0.00  0.00    -0.550 OA
ENDBRANCH  17  20
ENDBRANCH   7  17
BRANCH   1  23
ATOM     23  O   LIG d   1       3.785  -5.456  -5.957  0.00  0.00    -0.495 OA
BRANCH  23  24
ATOM     24  C   LIG d   1       4.346  -6.230  -7.019  0.00  0.00     0.079 C 
ATOM     25  H   LIG d   1       5.336  -6.581  -6.730  0.00  0.00     0.066 H 
ATOM     26  H   LIG d   1       3.703  -7.085  -7.223  0.00  0.00     0.066 H 
ATOM     27  H   LIG d   1       4.426  -5.613  -7.914  0.00  0.00     0.066 H 
ENDBRANCH  23  24
ENDBRANCH   1  23
TORSDOF 4
ENDMDL
MODEL 9
REMARK VINA RESULT:      -5.0      7.530      9.660
REMARK  4 active torsions:
REMARK  status: ('A' for Active; 'I' for Inactive)
REMARK    1  A    between atoms: C_1  and  O_2 
REMARK    2  A    between atoms: O_2  and  C_3 
REMARK    3  A    between atoms: C_9  and  C_14 
REMARK    4  A    between atoms: C_14  and  C_15 
ROOT
ATOM      1  C   LIG d   1       9.691   3.687  -3.444  0.00  0.00     0.120 A 
ATOM      2  C   LIG d   1       9.197   4.287  -4.597  0.00  0.00    -0.019 A 
ATOM      3  C   LIG d   1       9.308   5.635  -4.772  0.00  0.00    -0.048 A 
ATOM      4  C   LIG d   1       9.930   6.428  -3.792  0.00  0.00     0.021 A 
ATOM      5  C   LIG d   1      10.431   5.822  -2.637  0.00  0.00    -0.030 A 
ATOM      6  C   LIG d   1      10.309   4.459  -2.468  0.00  0.00    -0.016 A 
ATOM      7  C   LIG d   1      11.048   6.871  -1.744  0.00  0.00    -0.003 A 
ATOM      8  H   LIG d   1      12.106   6.659  -1.592  0.00  0.00     0.036 H 
ATOM      9  C   LIG d   1      10.878   8.212  -2.473  0.00  0.00     0.018 A 
ATOM     10  C   LIG d   1      10.166   7.877  -3.761  0.00  0.00     0.164 A 
ATOM     11  O   LIG d   1       9.846   8.669  -4.623  0.00  0.00    -0.292 OA
ATOM     12  H   LIG d   1       8.721   3.683  -5.356  0.00  0.00     0.065 H 
ATOM     13  H   LIG d   1       8.918   6.095  -5.669  0.00  0.00     0.063 H 
ATOM     14  H   LIG d   1      10.696   3.991  -1.575  0.00  0.00     0.066 H 
ATOM     15  H   LIG d   1      11.776   8.618  -2.636  0.00  0.00     0.035 H 
ATOM     16  H   LIG d   1      10.275   8.895  -1.874  0.00  0.00     0.035 H 
ENDROOT
BRANCH   7  17
ATOM     17  C   LIG d   1      10.321   6.909  -0.397  0.00  0.00    -0.006 C 
ATOM     18  H   LIG d   1      10.115   7.944  -0.125  0.00  0.00     0.033 H 
ATOM     19  H   LIG d   1       9.383   6.361  -0.475  0.00  0.00     0.033 H 
BRANCH  17  20
ATOM     20  C   LIG d   1      11.188   6.276   0.661  0.00  0.00     0.042 C 
ATOM     21  O   LIG d   1      10.681   5.759   1.627  0.00  0.00    -0.550 OA
ATOM     22  O   LIG d   1      12.524   6.288   0.529  0.00  0.00    -0.550 OA
ENDBRANCH  17  20
ENDBRANCH   7  17
BRANCH   1  23
ATOM     23  O   LIG d   1       9.575   2.346  -3.274  0.00  0.00    -0.495 OA
BRANCH  23  24
ATOM     24  C   LIG d   1       8.414   1.721  -3.826  0.00  0.00     0.079 C 
ATOM     25  H   LIG d   1       7.538   2.335  -3.621  0.00  0.00     0.066 H 
ATOM     26  H   LIG d   1       8.538   1.613  -4.904  0.00  0.00     0.066 H 
ATOM     27  H   LIG d   1       8.283   0.737  -3.375  0.00  0.00     0.066 H 
ENDBRANCH  23  24
ENDBRANCH   1  23
TORSDOF 4
ENDMDL
MODEL 10
REMARK VINA RESULT:      -5.0      2.512      3.412
REMARK  4 active torsions:
REMARK  status: ('A' for Active; 'I' for Inactive)
REMARK    1  A    between atoms: C_1  and  O_2 
REMARK    2  A    between atoms: O_2  and  C_3 
REMARK    3  A    between atoms: C_9  and  C_14 
REMARK    4  A    between atoms: C_14  and  C_15 
ROOT
ATOM      1  C   LIG d   1       7.278  -0.035  -5.067  0.00  0.00     0.120 A 
ATOM      2  C   LIG d   1       7.309   0.516  -3.791  0.00  0.00    -0.019 A 
ATOM      3  C   LIG d   1       6.149   0.739  -3.110  0.00  0.00    -0.048 A 
ATOM      4  C   LIG d   1       4.912   0.404  -3.689  0.00  0.00     0.021 A 
ATOM      5  C   LIG d   1       4.883  -0.155  -4.969  0.00  0.00    -0.030 A 
ATOM      6  C   LIG d   1       6.062  -0.371  -5.651  0.00  0.00    -0.016 A 
ATOM      7  C   LIG d   1       3.453  -0.426  -5.369  0.00  0.00    -0.003 A 
ATOM      8  H   LIG d   1       3.311  -1.490  -5.552  0.00  0.00     0.036 H 
ATOM      9  C   LIG d   1       2.582   0.029  -4.189  0.00  0.00     0.018 A 
ATOM     10  C   LIG d   1       3.552   0.545  -3.154  0.00  0.00     0.164 A 
ATOM     11  O   LIG d   1       3.257   0.997  -2.067  0.00  0.00    -0.292 OA
ATOM     12  H   LIG d   1       8.257   0.772  -3.339  0.00  0.00     0.065 H 
ATOM     13  H   LIG d   1       6.180   1.172  -2.121  0.00  0.00     0.063 H 
ATOM     14  H   LIG d   1       6.040  -0.804  -6.640  0.00  0.00     0.066 H 
ATOM     15  H   LIG d   1       2.051  -0.747  -3.850  0.00  0.00     0.035 H 
ATOM     16  H   LIG d   1       1.905   0.824  -4.502  0.00  0.00     0.035 H 
ENDROOT
BRANCH   7  17
ATOM     17  C   LIG d   1       3.098   0.375  -6.624  0.00  0.00    -0.006 C 
ATOM     18  H   LIG d   1       2.174   0.927  -6.452  0.00  0.00     0.033 H 
ATOM     19  H   LIG d   1       3.902   1.075  -6.848  0.00  0.00     0.033 H 
BRANCH  17  20
ATOM     20  C   LIG d   1       2.910  -0.567  -7.786  0.00  0.00     0.042 C 
ATOM     21  O   LIG d   1       2.057  -0.345  -8.611  0.00  0.00    -0.550 OA
ATOM     22  O   LIG d   1       3.690  -1.652  -7.902  0.00  0.00    -0.550 OA
ENDBRANCH  17  20
ENDBRANCH   7  17
BRANCH   1  23
ATOM     23  O   LIG d   1       8.435  -0.251  -5.742  0.00  0.00    -0.495 OA
BRANCH  23  24
ATOM     24  C   LIG d   1       9.370   0.829  -5.787  0.00  0.00     0.079 C 
ATOM     25  H   LIG d   1       9.391   1.251  -6.791  0.00  0.00     0.066 H 
ATOM     26  H   LIG d   1       9.071   1.599  -5.076  0.00  0.00     0.066 H 
ATOM     27  H   LIG d   1      10.363   0.461  -5.527  0.00  0.00     0.066 H 
ENDBRANCH  23  24
ENDBRANCH   1  23
TORSDOF 4
ENDMDL
