MODEL 1
REMARK VINA RESULT:      -6.8      0.000      0.000
REMARK  9 active torsions:
REMARK  status: ('A' for Active; 'I' for Inactive)
REMARK    1  A    between atoms: C_3  and  N_31 
REMARK    2  A    between atoms: N_7  and  C_10 
REMARK    3  A    between atoms: C_12  and  O_30 
REMARK    4  A    between atoms: C_14  and  O_29 
REMARK    5  A    between atoms: C_16  and  C_19 
REMARK    6  A    between atoms: C_19  and  O_20 
REMARK    7  A    between atoms: O_20  and  P_21 
REMARK    8  A    between atoms: P_21  and  O_24 
REMARK    9  A    between atoms: O_24  and  S_25 
ROOT
ATOM      1  C   LIG d   1       8.522   1.480  -3.610  0.00  0.00     0.167 C 
ATOM      2  H   LIG d   1       8.795   1.016  -2.663  0.00  0.00     0.087 H 
ATOM      3  C   LIG d   1       9.666   1.308  -4.642  0.00  0.00     0.129 C 
ATOM      4  H   LIG d   1       9.298   1.430  -5.660  0.00  0.00     0.067 H 
ATOM      5  C   LIG d   1      10.602   2.482  -4.241  0.00  0.00     0.114 C 
ATOM      6  H   LIG d   1      11.180   2.827  -5.099  0.00  0.00     0.065 H 
ATOM      7  C   LIG d   1       9.597   3.562  -3.786  0.00  0.00     0.113 C 
ATOM      8  H   LIG d   1       9.423   4.269  -4.597  0.00  0.00     0.065 H 
ATOM      9  O   LIG d   1       8.372   2.899  -3.447  0.00  0.00    -0.346 OA
ENDROOT
BRANCH   1  10
ATOM     10  N   LIG d   1       7.282   0.894  -4.125  0.00  0.00    -0.285 N 
ATOM     11  C   LIG d   1       6.086   0.810  -3.460  0.00  0.00     0.167 A 
ATOM     12  C   LIG d   1       5.194   0.177  -4.342  0.00  0.00     0.147 A 
ATOM     13  N   LIG d   1       5.652   1.178  -2.258  0.00  0.00    -0.216 NA
ATOM     14  C   LIG d   1       3.875  -0.040  -3.911  0.00  0.00     0.147 A 
ATOM     15  N   LIG d   1       5.880  -0.088  -5.480  0.00  0.00    -0.231 NA
ATOM     16  N   LIG d   1       3.533   0.363  -2.691  0.00  0.00    -0.219 NA
ATOM     17  C   LIG d   1       4.407   0.954  -1.896  0.00  0.00     0.120 A 
ATOM     18  H   LIG d   1       4.085   1.270  -0.915  0.00  0.00     0.105 H 
ATOM     19  C   LIG d   1       7.106   0.331  -5.355  0.00  0.00     0.100 A 
ATOM     20  H   LIG d   1       7.870   0.247  -6.113  0.00  0.00     0.103 H 
BRANCH  14  21
ATOM     21  N   LIG d   1       2.953  -0.659  -4.736  0.00  0.00    -0.341 N 
ATOM     22  H   LIG d   1       2.573  -1.515  -4.483  0.00  0.00     0.144 HD
ATOM     23  H   LIG d   1       2.686  -0.237  -5.568  0.00  0.00     0.144 HD
ENDBRANCH  14  21
ENDBRANCH   1  10
BRANCH   3  24
ATOM     24  O   LIG d   1      10.321   0.048  -4.480  0.00  0.00    -0.385 OA
ATOM     25  H   LIG d   1       9.867  -0.689  -4.912  0.00  0.00     0.210 HD
ENDBRANCH   3  24
BRANCH   7  26
ATOM     26  C   LIG d   1      10.145   4.299  -2.564  0.00  0.00     0.084 C 
ATOM     27  H   LIG d   1       9.746   3.844  -1.656  0.00  0.00     0.059 H 
ATOM     28  H   LIG d   1      11.234   4.231  -2.556  0.00  0.00     0.059 H 
BRANCH  26  29
ATOM     29  O   LIG d   1       9.755   5.672  -2.620  0.00  0.00    -0.324 OA
BRANCH  29  30
ATOM     30  P   LIG d   1      10.025   6.711  -1.421  0.00  0.00     0.238 P 
ATOM     31  O   LIG d   1      11.221   7.619  -1.786  0.00  0.00    -0.516 OA
ATOM     32  O   LIG d   1       8.767   7.580  -1.199  0.00  0.00    -0.436 OA
BRANCH  30  33
ATOM     33  O   LIG d   1      10.361   5.899  -0.071  0.00  0.00    -0.195 OA
BRANCH  33  34
ATOM     34  S   LIG d   1      11.310   6.627   0.869  0.00  0.00     0.005 S 
ATOM     35  O   LIG d   1      10.940   8.034   0.837  0.00  0.00    -0.345 OA
ATOM     36  O   LIG d   1      11.122   6.046   2.191  0.00  0.00    -0.345 OA
ATOM     37  O   LIG d   1      12.657   6.408   0.365  0.00  0.00    -0.268 OA
ENDBRANCH  33  34
ENDBRANCH  30  33
ENDBRANCH  29  30
ENDBRANCH  26  29
ENDBRANCH   7  26
BRANCH   5  38
ATOM     38  O   LIG d   1      11.465   2.100  -3.168  0.00  0.00    -0.386 OA
ATOM     39  H   LIG d   1      11.116   2.304  -2.291  0.00  0.00     0.210 HD
ENDBRANCH   5  38
TORSDOF 9
ENDMDL
MODEL 2
REMARK VINA RESULT:      -6.7      8.694     11.760
REMARK  9 active torsions:
REMARK  status: ('A' for Active; 'I' for Inactive)
REMARK    1  A    between atoms: C_3  and  N_31 
REMARK    2  A    between atoms: N_7  and  C_10 
REMARK    3  A    between atoms: C_12  and  O_30 
REMARK    4  A    between atoms: C_14  and  O_29 
REMARK    5  A    between atoms: C_16  and  C_19 
REMARK    6  A    between atoms: C_19  and  O_20 
REMARK    7  A    between atoms: O_20  and  P_21 
REMARK    8  A    between atoms: P_21  and  O_24 
REMARK    9  A    between atoms: O_24  and  S_25 
ROOT
ATOM      1  C   LIG d   1       6.252  -3.494  -4.711  0.00  0.00     0.167 C 
ATOM      2  H   LIG d   1       5.975  -3.803  -3.703  0.00  0.00     0.087 H 
ATOM      3  C   LIG d   1       4.995  -3.420  -5.615  0.00  0.00     0.129 C 
ATOM      4  H   LIG d   1       5.173  -2.789  -6.485  0.00  0.00     0.067 H 
ATOM      5  C   LIG d   1       4.841  -4.910  -6.025  0.00  0.00     0.114 C 
ATOM      6  H   LIG d   1       4.351  -4.997  -6.995  0.00  0.00     0.065 H 
ATOM      7  C   LIG d   1       6.309  -5.381  -6.109  0.00  0.00     0.113 C 
ATOM      8  H   LIG d   1       6.645  -5.360  -7.146  0.00  0.00     0.065 H 
ATOM      9  O   LIG d   1       7.099  -4.480  -5.322  0.00  0.00    -0.346 OA
ENDROOT
BRANCH   1  10
ATOM     10  N   LIG d   1       6.928  -2.194  -4.675  0.00  0.00    -0.285 N 
ATOM     11  C   LIG d   1       6.474  -1.060  -4.052  0.00  0.00     0.167 A 
ATOM     12  C   LIG d   1       7.448  -0.074  -4.284  0.00  0.00     0.147 A 
ATOM     13  N   LIG d   1       5.396  -0.748  -3.339  0.00  0.00    -0.216 NA
ATOM     14  C   LIG d   1       7.236   1.208  -3.749  0.00  0.00     0.147 A 
ATOM     15  N   LIG d   1       8.427  -0.647  -5.024  0.00  0.00    -0.231 NA
ATOM     16  N   LIG d   1       6.127   1.426  -3.049  0.00  0.00    -0.219 NA
ATOM     17  C   LIG d   1       5.239   0.467  -2.857  0.00  0.00     0.120 A 
ATOM     18  H   LIG d   1       4.355   0.686  -2.278  0.00  0.00     0.105 H 
ATOM     19  C   LIG d   1       8.124  -1.891  -5.255  0.00  0.00     0.100 A 
ATOM     20  H   LIG d   1       8.730  -2.582  -5.822  0.00  0.00     0.103 H 
BRANCH  14  21
ATOM     21  N   LIG d   1       8.158   2.219  -3.945  0.00  0.00    -0.341 N 
ATOM     22  H   LIG d   1       7.857   3.116  -4.161  0.00  0.00     0.144 HD
ATOM     23  H   LIG d   1       9.108   2.032  -3.868  0.00  0.00     0.144 HD
ENDBRANCH  14  21
ENDBRANCH   1  10
BRANCH   3  24
ATOM     24  O   LIG d   1       3.856  -2.968  -4.878  0.00  0.00    -0.385 OA
ATOM     25  H   LIG d   1       4.042  -2.229  -4.283  0.00  0.00     0.210 HD
ENDBRANCH   3  24
BRANCH   7  26
ATOM     26  C   LIG d   1       6.431  -6.800  -5.553  0.00  0.00     0.084 C 
ATOM     27  H   LIG d   1       7.476  -7.112  -5.577  0.00  0.00     0.059 H 
ATOM     28  H   LIG d   1       6.071  -6.820  -4.524  0.00  0.00     0.059 H 
BRANCH  26  29
ATOM     29  O   LIG d   1       5.650  -7.693  -6.348  0.00  0.00    -0.324 OA
BRANCH  29  30
ATOM     30  P   LIG d   1       5.057  -9.080  -5.785  0.00  0.00     0.238 P 
ATOM     31  O   LIG d   1       4.187  -9.748  -6.874  0.00  0.00    -0.516 OA
ATOM     32  O   LIG d   1       6.222 -10.022  -5.407  0.00  0.00    -0.436 OA
BRANCH  30  33
ATOM     33  O   LIG d   1       4.156  -8.790  -4.482  0.00  0.00    -0.195 OA
BRANCH  33  34
ATOM     34  S   LIG d   1       3.758 -10.042  -3.714  0.00  0.00     0.005 S 
ATOM     35  O   LIG d   1       3.556 -11.094  -4.698  0.00  0.00    -0.345 OA
ATOM     36  O   LIG d   1       4.856 -10.348  -2.809  0.00  0.00    -0.345 OA
ATOM     37  O   LIG d   1       2.534  -9.726  -2.996  0.00  0.00    -0.268 OA
ENDBRANCH  33  34
ENDBRANCH  30  33
ENDBRANCH  29  30
ENDBRANCH  26  29
ENDBRANCH   7  26
BRANCH   5  38
ATOM     38  O   LIG d   1       4.124  -5.641  -5.028  0.00  0.00    -0.386 OA
ATOM     39  H   LIG d   1       3.570  -6.350  -5.382  0.00  0.00     0.210 HD
ENDBRANCH   5  38
TORSDOF 9
ENDMDL
MODEL 3
REMARK VINA RESULT:      -6.5      5.135      7.492
REMARK  9 active torsions:
REMARK  status: ('A' for Active; 'I' for Inactive)
REMARK    1  A    between atoms: C_3  and  N_31 
REMARK    2  A    between atoms: N_7  and  C_10 
REMARK    3  A    between atoms: C_12  and  O_30 
REMARK    4  A    between atoms: C_14  and  O_29 
REMARK    5  A    between atoms: C_16  and  C_19 
REMARK    6  A    between atoms: C_19  and  O_20 
REMARK    7  A    between atoms: O_20  and  P_21 
REMARK    8  A    between atoms: P_21  and  O_24 
REMARK    9  A    between atoms: O_24  and  S_25 
ROOT
ATOM      1  C   LIG d   1       9.849   7.982  -2.183  0.00  0.00     0.167 C 
ATOM      2  H   LIG d   1       9.183   8.120  -3.035  0.00  0.00     0.087 H 
ATOM      3  C   LIG d   1       9.135   8.394  -0.871  0.00  0.00     0.129 C 
ATOM      4  H   LIG d   1       9.617   7.944  -0.003  0.00  0.00     0.067 H 
ATOM      5  C   LIG d   1       9.346   9.933  -0.893  0.00  0.00     0.114 C 
ATOM      6  H   LIG d   1       9.359  10.337   0.120  0.00  0.00     0.065 H 
ATOM      7  C   LIG d   1      10.736  10.064  -1.553  0.00  0.00     0.113 C 
ATOM      8  H   LIG d   1      11.499  10.192  -0.785  0.00  0.00     0.065 H 
ATOM      9  O   LIG d   1      10.982   8.858  -2.287  0.00  0.00    -0.346 OA
ENDROOT
BRANCH   1  10
ATOM     10  N   LIG d   1      10.290   6.587  -2.104  0.00  0.00    -0.285 N 
ATOM     11  C   LIG d   1      10.073   5.611  -3.044  0.00  0.00     0.167 A 
ATOM     12  C   LIG d   1      10.674   4.446  -2.540  0.00  0.00     0.147 A 
ATOM     13  N   LIG d   1       9.462   5.565  -4.224  0.00  0.00    -0.216 NA
ATOM     14  C   LIG d   1      10.602   3.275  -3.312  0.00  0.00     0.147 A 
ATOM     15  N   LIG d   1      11.218   4.764  -1.341  0.00  0.00    -0.231 NA
ATOM     16  N   LIG d   1       9.970   3.325  -4.481  0.00  0.00    -0.219 NA
ATOM     17  C   LIG d   1       9.419   4.445  -4.913  0.00  0.00     0.120 A 
ATOM     18  H   LIG d   1       8.920   4.442  -5.871  0.00  0.00     0.105 H 
ATOM     19  C   LIG d   1      10.993   6.020  -1.082  0.00  0.00     0.100 A 
ATOM     20  H   LIG d   1      11.317   6.537  -0.192  0.00  0.00     0.103 H 
BRANCH  14  21
ATOM     21  N   LIG d   1      11.175   2.097  -2.868  0.00  0.00    -0.341 N 
ATOM     22  H   LIG d   1      11.357   1.972  -1.923  0.00  0.00     0.144 HD
ATOM     23  H   LIG d   1      11.396   1.395  -3.501  0.00  0.00     0.144 HD
ENDBRANCH  14  21
ENDBRANCH   1  10
BRANCH   3  24
ATOM     24  O   LIG d   1       7.745   8.064  -0.914  0.00  0.00    -0.385 OA
ATOM     25  H   LIG d   1       7.253   8.328  -0.125  0.00  0.00     0.210 HD
ENDBRANCH   3  24
BRANCH   7  26
ATOM     26  C   LIG d   1      10.748  11.263  -2.502  0.00  0.00     0.084 C 
ATOM     27  H   LIG d   1       9.837  11.846  -2.364  0.00  0.00     0.059 H 
ATOM     28  H   LIG d   1      11.616  11.888  -2.288  0.00  0.00     0.059 H 
BRANCH  26  29
ATOM     29  O   LIG d   1      10.817  10.800  -3.853  0.00  0.00    -0.324 OA
BRANCH  29  30
ATOM     30  P   LIG d   1       9.632  11.023  -4.918  0.00  0.00     0.238 P 
ATOM     31  O   LIG d   1       8.401  11.621  -4.201  0.00  0.00    -0.516 OA
ATOM     32  O   LIG d   1      10.107  11.995  -6.022  0.00  0.00    -0.436 OA
BRANCH  30  33
ATOM     33  O   LIG d   1       9.233   9.612  -5.582  0.00  0.00    -0.195 OA
BRANCH  33  34
ATOM     34  S   LIG d   1      10.113   9.208  -6.756  0.00  0.00     0.005 S 
ATOM     35  O   LIG d   1       9.898   7.786  -6.975  0.00  0.00    -0.345 OA
ATOM     36  O   LIG d   1       9.685  10.005  -7.897  0.00  0.00    -0.345 OA
ATOM     37  O   LIG d   1      11.486   9.498  -6.374  0.00  0.00    -0.268 OA
ENDBRANCH  33  34
ENDBRANCH  30  33
ENDBRANCH  29  30
ENDBRANCH  26  29
ENDBRANCH   7  26
BRANCH   5  38
ATOM     38  O   LIG d   1       8.341  10.573  -1.682  0.00  0.00    -0.386 OA
ATOM     39  H   LIG d   1       7.452  10.518  -1.306  0.00  0.00     0.210 HD
ENDBRANCH   5  38
TORSDOF 9
ENDMDL
MODEL 4
REMARK VINA RESULT:      -6.5      1.133      1.834
REMARK  9 active torsions:
REMARK  status: ('A' for Active; 'I' for Inactive)
REMARK    1  A    between atoms: C_3  and  N_31 
REMARK    2  A    between atoms: N_7  and  C_10 
REMARK    3  A    between atoms: C_12  and  O_30 
REMARK    4  A    between atoms: C_14  and  O_29 
REMARK    5  A    between atoms: C_16  and  C_19 
REMARK    6  A    between atoms: C_19  and  O_20 
REMARK    7  A    between atoms: O_20  and  P_21 
REMARK    8  A    between atoms: P_21  and  O_24 
REMARK    9  A    between atoms: O_24  and  S_25 
ROOT
ATOM      1  C   LIG d   1       8.224   1.068  -3.794  0.00  0.00     0.167 C 
ATOM      2  H   LIG d   1       8.540   0.556  -2.886  0.00  0.00     0.087 H 
ATOM      3  C   LIG d   1       9.258   0.842  -4.927  0.00  0.00     0.129 C 
ATOM      4  H   LIG d   1       8.814   1.022  -5.905  0.00  0.00     0.067 H 
ATOM      5  C   LIG d   1      10.313   1.929  -4.582  0.00  0.00     0.114 C 
ATOM      6  H   LIG d   1      10.840   2.255  -5.479  0.00  0.00     0.065 H 
ATOM      7  C   LIG d   1       9.439   3.067  -4.015  0.00  0.00     0.113 C 
ATOM      8  H   LIG d   1       9.250   3.810  -4.790  0.00  0.00     0.065 H 
ATOM      9  O   LIG d   1       8.200   2.489  -3.584  0.00  0.00    -0.346 OA
ENDROOT
BRANCH   1  10
ATOM     10  N   LIG d   1       6.902   0.593  -4.212  0.00  0.00    -0.285 N 
ATOM     11  C   LIG d   1       5.750   0.641  -3.469  0.00  0.00     0.167 A 
ATOM     12  C   LIG d   1       4.746   0.077  -4.274  0.00  0.00     0.147 A 
ATOM     13  N   LIG d   1       5.434   1.077  -2.253  0.00  0.00    -0.216 NA
ATOM     14  C   LIG d   1       3.444  -0.001  -3.753  0.00  0.00     0.147 A 
ATOM     15  N   LIG d   1       5.327  -0.279  -5.445  0.00  0.00    -0.231 NA
ATOM     16  N   LIG d   1       3.223   0.461  -2.526  0.00  0.00    -0.219 NA
ATOM     17  C   LIG d   1       4.200   0.983  -1.806  0.00  0.00     0.120 A 
ATOM     18  H   LIG d   1       3.976   1.351  -0.816  0.00  0.00     0.105 H 
ATOM     19  C   LIG d   1       6.592   0.022  -5.410  0.00  0.00     0.100 A 
ATOM     20  H   LIG d   1       7.293  -0.153  -6.213  0.00  0.00     0.103 H 
BRANCH  14  21
ATOM     21  N   LIG d   1       2.414  -0.546  -4.499  0.00  0.00    -0.341 N 
ATOM     22  H   LIG d   1       1.796   0.034  -4.970  0.00  0.00     0.144 HD
ATOM     23  H   LIG d   1       2.309  -1.510  -4.550  0.00  0.00     0.144 HD
ENDBRANCH  14  21
ENDBRANCH   1  10
BRANCH   3  24
ATOM     24  O   LIG d   1       9.824  -0.468  -4.854  0.00  0.00    -0.385 OA
ATOM     25  H   LIG d   1       9.831  -0.941  -5.697  0.00  0.00     0.210 HD
ENDBRANCH   3  24
BRANCH   7  26
ATOM     26  C   LIG d   1      10.146   3.723  -2.828  0.00  0.00     0.084 C 
ATOM     27  H   LIG d   1       9.415   4.255  -2.218  0.00  0.00     0.059 H 
ATOM     28  H   LIG d   1      10.632   2.955  -2.225  0.00  0.00     0.059 H 
BRANCH  26  29
ATOM     29  O   LIG d   1      11.127   4.644  -3.307  0.00  0.00    -0.324 OA
BRANCH  29  30
ATOM     30  P   LIG d   1      11.131   6.205  -2.914  0.00  0.00     0.238 P 
ATOM     31  O   LIG d   1      12.173   6.452  -1.800  0.00  0.00    -0.516 OA
ATOM     32  O   LIG d   1      11.497   7.048  -4.157  0.00  0.00    -0.436 OA
BRANCH  30  33
ATOM     33  O   LIG d   1       9.671   6.631  -2.387  0.00  0.00    -0.195 OA
BRANCH  33  34
ATOM     34  S   LIG d   1       9.691   7.482  -1.126  0.00  0.00     0.005 S 
ATOM     35  O   LIG d   1      10.181   6.632  -0.051  0.00  0.00    -0.345 OA
ATOM     36  O   LIG d   1      10.587   8.599  -1.386  0.00  0.00    -0.345 OA
ATOM     37  O   LIG d   1       8.326   7.924  -0.891  0.00  0.00    -0.268 OA
ENDBRANCH  33  34
ENDBRANCH  30  33
ENDBRANCH  29  30
ENDBRANCH  26  29
ENDBRANCH   7  26
BRANCH   5  38
ATOM     38  O   LIG d   1      11.233   1.450  -3.599  0.00  0.00    -0.386 OA
ATOM     39  H   LIG d   1      10.904   1.507  -2.692  0.00  0.00     0.210 HD
ENDBRANCH   5  38
TORSDOF 9
ENDMDL
MODEL 5
REMARK VINA RESULT:      -6.3      6.908      8.601
REMARK  9 active torsions:
REMARK  status: ('A' for Active; 'I' for Inactive)
REMARK    1  A    between atoms: C_3  and  N_31 
REMARK    2  A    between atoms: N_7  and  C_10 
REMARK    3  A    between atoms: C_12  and  O_30 
REMARK    4  A    between atoms: C_14  and  O_29 
REMARK    5  A    between atoms: C_16  and  C_19 
REMARK    6  A    between atoms: C_19  and  O_20 
REMARK    7  A    between atoms: O_20  and  P_21 
REMARK    8  A    between atoms: P_21  and  O_24 
REMARK    9  A    between atoms: O_24  and  S_25 
ROOT
ATOM      1  C   LIG d   1       4.450  -2.762  -7.124  0.00  0.00     0.167 C 
ATOM      2  H   LIG d   1       3.587  -2.422  -6.550  0.00  0.00     0.087 H 
ATOM      3  C   LIG d   1       4.516  -4.310  -7.127  0.00  0.00     0.129 C 
ATOM      4  H   LIG d   1       5.122  -4.675  -7.956  0.00  0.00     0.067 H 
ATOM      5  C   LIG d   1       5.212  -4.578  -5.765  0.00  0.00     0.114 C 
ATOM      6  H   LIG d   1       5.771  -5.514  -5.792  0.00  0.00     0.065 H 
ATOM      7  C   LIG d   1       6.168  -3.372  -5.642  0.00  0.00     0.113 C 
ATOM      8  H   LIG d   1       7.170  -3.661  -5.960  0.00  0.00     0.065 H 
ATOM      9  O   LIG d   1       5.668  -2.333  -6.495  0.00  0.00    -0.346 OA
ENDROOT
BRANCH   1  10
ATOM     10  N   LIG d   1       4.379  -2.254  -8.496  0.00  0.00    -0.285 N 
ATOM     11  C   LIG d   1       4.527  -0.947  -8.887  0.00  0.00     0.167 A 
ATOM     12  C   LIG d   1       4.383  -0.941 -10.284  0.00  0.00     0.147 A 
ATOM     13  N   LIG d   1       4.759   0.201  -8.257  0.00  0.00    -0.216 NA
ATOM     14  C   LIG d   1       4.490   0.287 -10.958  0.00  0.00     0.147 A 
ATOM     15  N   LIG d   1       4.158  -2.221 -10.667  0.00  0.00    -0.231 NA
ATOM     16  N   LIG d   1       4.724   1.383 -10.243  0.00  0.00    -0.219 NA
ATOM     17  C   LIG d   1       4.852   1.328  -8.930  0.00  0.00     0.120 A 
ATOM     18  H   LIG d   1       5.046   2.242  -8.388  0.00  0.00     0.105 H 
ATOM     19  C   LIG d   1       4.156  -2.993  -9.619  0.00  0.00     0.100 A 
ATOM     20  H   LIG d   1       4.000  -4.061  -9.637  0.00  0.00     0.103 H 
BRANCH  14  21
ATOM     21  N   LIG d   1       4.357   0.354 -12.333  0.00  0.00    -0.341 N 
ATOM     22  H   LIG d   1       4.767   1.083 -12.825  0.00  0.00     0.144 HD
ATOM     23  H   LIG d   1       3.853  -0.327 -12.806  0.00  0.00     0.144 HD
ENDBRANCH  14  21
ENDBRANCH   1  10
BRANCH   3  24
ATOM     24  O   LIG d   1       3.207  -4.883  -7.158  0.00  0.00    -0.385 OA
ATOM     25  H   LIG d   1       3.181  -5.818  -6.917  0.00  0.00     0.210 HD
ENDBRANCH   3  24
BRANCH   7  26
ATOM     26  C   LIG d   1       6.204  -2.882  -4.194  0.00  0.00     0.084 C 
ATOM     27  H   LIG d   1       5.794  -3.653  -3.540  0.00  0.00     0.059 H 
ATOM     28  H   LIG d   1       7.235  -2.672  -3.907  0.00  0.00     0.059 H 
BRANCH  26  29
ATOM     29  O   LIG d   1       5.424  -1.691  -4.074  0.00  0.00    -0.324 OA
BRANCH  29  30
ATOM     30  P   LIG d   1       4.272  -1.505  -2.966  0.00  0.00     0.238 P 
ATOM     31  O   LIG d   1       3.618  -2.873  -2.668  0.00  0.00    -0.516 OA
ATOM     32  O   LIG d   1       4.891  -0.937  -1.669  0.00  0.00    -0.436 OA
BRANCH  30  33
ATOM     33  O   LIG d   1       3.154  -0.486  -3.519  0.00  0.00    -0.195 OA
BRANCH  33  34
ATOM     34  S   LIG d   1       3.568   0.978  -3.461  0.00  0.00     0.005 S 
ATOM     35  O   LIG d   1       4.992   1.025  -3.754  0.00  0.00    -0.345 OA
ATOM     36  O   LIG d   1       2.782   1.678  -4.466  0.00  0.00    -0.345 OA
ATOM     37  O   LIG d   1       3.274   1.447  -2.116  0.00  0.00    -0.268 OA
ENDBRANCH  33  34
ENDBRANCH  30  33
ENDBRANCH  29  30
ENDBRANCH  26  29
ENDBRANCH   7  26
BRANCH   5  38
ATOM     38  O   LIG d   1       4.259  -4.587  -4.700  0.00  0.00    -0.386 OA
ATOM     39  H   LIG d   1       4.015  -3.706  -4.383  0.00  0.00     0.210 HD
ENDBRANCH   5  38
TORSDOF 9
ENDMDL
MODEL 6
REMARK VINA RESULT:      -6.3      5.212      8.155
REMARK  9 active torsions:
REMARK  status: ('A' for Active; 'I' for Inactive)
REMARK    1  A    between atoms: C_3  and  N_31 
REMARK    2  A    between atoms: N_7  and  C_10 
REMARK    3  A    between atoms: C_12  and  O_30 
REMARK    4  A    between atoms: C_14  and  O_29 
REMARK    5  A    between atoms: C_16  and  C_19 
REMARK    6  A    between atoms: C_19  and  O_20 
REMARK    7  A    between atoms: O_20  and  P_21 
REMARK    8  A    between atoms: P_21  and  O_24 
REMARK    9  A    between atoms: O_24  and  S_25 
ROOT
ATOM      1  C   LIG d   1       8.754   3.500  -4.306  0.00  0.00     0.167 C 
ATOM      2  H   LIG d   1       7.805   3.923  -4.639  0.00  0.00     0.087 H 
ATOM      3  C   LIG d   1       9.530   2.909  -5.510  0.00  0.00     0.129 C 
ATOM      4  H   LIG d   1      10.592   2.814  -5.284  0.00  0.00     0.067 H 
ATOM      5  C   LIG d   1       8.858   1.514  -5.637  0.00  0.00     0.114 C 
ATOM      6  H   LIG d   1       9.547   0.789  -6.071  0.00  0.00     0.065 H 
ATOM      7  C   LIG d   1       8.548   1.164  -4.165  0.00  0.00     0.113 C 
ATOM      8  H   LIG d   1       9.325   0.508  -3.771  0.00  0.00     0.065 H 
ATOM      9  O   LIG d   1       8.524   2.391  -3.424  0.00  0.00    -0.346 OA
ENDROOT
BRANCH   1  10
ATOM     10  N   LIG d   1       9.559   4.524  -3.636  0.00  0.00    -0.285 N 
ATOM     11  C   LIG d   1       9.725   5.823  -4.046  0.00  0.00     0.167 A 
ATOM     12  C   LIG d   1      10.572   6.423  -3.099  0.00  0.00     0.147 A 
ATOM     13  N   LIG d   1       9.279   6.550  -5.066  0.00  0.00    -0.216 NA
ATOM     14  C   LIG d   1      10.913   7.774  -3.275  0.00  0.00     0.147 A 
ATOM     15  N   LIG d   1      10.874   5.477  -2.178  0.00  0.00    -0.231 NA
ATOM     16  N   LIG d   1      10.419   8.420  -4.326  0.00  0.00    -0.219 NA
ATOM     17  C   LIG d   1       9.626   7.814  -5.191  0.00  0.00     0.120 A 
ATOM     18  H   LIG d   1       9.243   8.377  -6.029  0.00  0.00     0.105 H 
ATOM     19  C   LIG d   1      10.281   4.361  -2.491  0.00  0.00     0.100 A 
ATOM     20  H   LIG d   1      10.350   3.443  -1.928  0.00  0.00     0.103 H 
BRANCH  14  21
ATOM     21  N   LIG d   1      11.744   8.418  -2.376  0.00  0.00    -0.341 N 
ATOM     22  H   LIG d   1      12.685   8.189  -2.335  0.00  0.00     0.144 HD
ATOM     23  H   LIG d   1      11.385   9.100  -1.785  0.00  0.00     0.144 HD
ENDBRANCH  14  21
ENDBRANCH   1  10
BRANCH   3  24
ATOM     24  O   LIG d   1       9.325   3.689  -6.690  0.00  0.00    -0.385 OA
ATOM     25  H   LIG d   1       9.929   3.474  -7.413  0.00  0.00     0.210 HD
ENDBRANCH   3  24
BRANCH   7  26
ATOM     26  C   LIG d   1       7.188   0.472  -4.071  0.00  0.00     0.084 C 
ATOM     27  H   LIG d   1       6.884   0.130  -5.061  0.00  0.00     0.059 H 
ATOM     28  H   LIG d   1       7.260  -0.382  -3.398  0.00  0.00     0.059 H 
BRANCH  26  29
ATOM     29  O   LIG d   1       6.218   1.394  -3.568  0.00  0.00    -0.324 OA
BRANCH  29  30
ATOM     30  P   LIG d   1       4.902   0.931  -2.766  0.00  0.00     0.238 P 
ATOM     31  O   LIG d   1       4.983   1.436  -1.308  0.00  0.00    -0.516 OA
ATOM     32  O   LIG d   1       3.649   1.526  -3.448  0.00  0.00    -0.436 OA
BRANCH  30  33
ATOM     33  O   LIG d   1       4.805  -0.676  -2.773  0.00  0.00    -0.195 OA
BRANCH  33  34
ATOM     34  S   LIG d   1       3.732  -1.228  -3.701  0.00  0.00     0.005 S 
ATOM     35  O   LIG d   1       3.896  -2.674  -3.723  0.00  0.00    -0.345 OA
ATOM     36  O   LIG d   1       2.447  -0.836  -3.140  0.00  0.00    -0.345 OA
ATOM     37  O   LIG d   1       3.958  -0.635  -5.009  0.00  0.00    -0.268 OA
ENDBRANCH  33  34
ENDBRANCH  30  33
ENDBRANCH  29  30
ENDBRANCH  26  29
ENDBRANCH   7  26
BRANCH   5  38
ATOM     38  O   LIG d   1       7.657   1.597  -6.407  0.00  0.00    -0.386 OA
ATOM     39  H   LIG d   1       6.870   1.807  -5.887  0.00  0.00     0.210 HD
ENDBRANCH   5  38
TORSDOF 9
ENDMDL
MODEL 7
REMARK VINA RESULT:      -6.2      8.840     11.779
REMARK  9 active torsions:
REMARK  status: ('A' for Active; 'I' for Inactive)
REMARK    1  A    between atoms: C_3  and  N_31 
REMARK    2  A    between atoms: N_7  and  C_10 
REMARK    3  A    between atoms: C_12  and  O_30 
REMARK    4  A    between atoms: C_14  and  O_29 
REMARK    5  A    between atoms: C_16  and  C_19 
REMARK    6  A    between atoms: C_19  and  O_20 
REMARK    7  A    between atoms: O_20  and  P_21 
REMARK    8  A    between atoms: P_21  and  O_24 
REMARK    9  A    between atoms: O_24  and  S_25 
ROOT
ATOM      1  C   LIG d   1       5.149  -3.300  -6.253  0.00  0.00     0.167 C 
ATOM      2  H   LIG d   1       5.102  -3.338  -7.342  0.00  0.00     0.087 H 
ATOM      3  C   LIG d   1       6.576  -3.657  -5.763  0.00  0.00     0.129 C 
ATOM      4  H   LIG d   1       6.748  -3.288  -4.753  0.00  0.00     0.067 H 
ATOM      5  C   LIG d   1       6.514  -5.209  -5.789  0.00  0.00     0.114 C 
ATOM      6  H   LIG d   1       7.197  -5.636  -5.054  0.00  0.00     0.065 H 
ATOM      7  C   LIG d   1       5.046  -5.487  -5.400  0.00  0.00     0.113 C 
ATOM      8  H   LIG d   1       4.984  -5.722  -4.338  0.00  0.00     0.065 H 
ATOM      9  O   LIG d   1       4.292  -4.300  -5.681  0.00  0.00    -0.346 OA
ENDROOT
BRANCH   1  10
ATOM     10  N   LIG d   1       4.767  -1.969  -5.775  0.00  0.00    -0.285 N 
ATOM     11  C   LIG d   1       4.544  -1.607  -4.470  0.00  0.00     0.167 A 
ATOM     12  C   LIG d   1       4.208  -0.244  -4.497  0.00  0.00     0.147 A 
ATOM     13  N   LIG d   1       4.584  -2.239  -3.301  0.00  0.00    -0.216 NA
ATOM     14  C   LIG d   1       3.925   0.395  -3.278  0.00  0.00     0.147 A 
ATOM     15  N   LIG d   1       4.241   0.150  -5.793  0.00  0.00    -0.231 NA
ATOM     16  N   LIG d   1       3.990  -0.319  -2.159  0.00  0.00    -0.219 NA
ATOM     17  C   LIG d   1       4.311  -1.601  -2.183  0.00  0.00     0.120 A 
ATOM     18  H   LIG d   1       4.357  -2.142  -1.250  0.00  0.00     0.105 H 
ATOM     19  C   LIG d   1       4.569  -0.861  -6.545  0.00  0.00     0.100 A 
ATOM     20  H   LIG d   1       4.670  -0.828  -7.619  0.00  0.00     0.103 H 
BRANCH  14  21
ATOM     21  N   LIG d   1       3.587   1.736  -3.243  0.00  0.00    -0.341 N 
ATOM     22  H   LIG d   1       4.260   2.411  -3.424  0.00  0.00     0.144 HD
ATOM     23  H   LIG d   1       2.677   2.002  -3.035  0.00  0.00     0.144 HD
ENDBRANCH  14  21
ENDBRANCH   1  10
BRANCH   3  24
ATOM     24  O   LIG d   1       7.569  -3.165  -6.665  0.00  0.00    -0.385 OA
ATOM     25  H   LIG d   1       7.775  -2.228  -6.549  0.00  0.00     0.210 HD
ENDBRANCH   3  24
BRANCH   7  26
ATOM     26  C   LIG d   1       4.503  -6.655  -6.224  0.00  0.00     0.084 C 
ATOM     27  H   LIG d   1       3.573  -6.356  -6.710  0.00  0.00     0.059 H 
ATOM     28  H   LIG d   1       5.235  -6.937  -6.981  0.00  0.00     0.059 H 
BRANCH  26  29
ATOM     29  O   LIG d   1       4.254  -7.769  -5.364  0.00  0.00    -0.324 OA
BRANCH  29  30
ATOM     30  P   LIG d   1       5.139  -9.113  -5.392  0.00  0.00     0.238 P 
ATOM     31  O   LIG d   1       5.978  -9.151  -6.688  0.00  0.00    -0.516 OA
ATOM     32  O   LIG d   1       6.081  -9.134  -4.167  0.00  0.00    -0.436 OA
BRANCH  30  33
ATOM     33  O   LIG d   1       4.168 -10.397  -5.344  0.00  0.00    -0.195 OA
BRANCH  33  34
ATOM     34  S   LIG d   1       3.548 -10.654  -3.978  0.00  0.00     0.005 S 
ATOM     35  O   LIG d   1       2.343 -11.439  -4.202  0.00  0.00    -0.345 OA
ATOM     36  O   LIG d   1       4.535 -11.384  -3.197  0.00  0.00    -0.345 OA
ATOM     37  O   LIG d   1       3.249  -9.354  -3.398  0.00  0.00    -0.268 OA
ENDBRANCH  33  34
ENDBRANCH  30  33
ENDBRANCH  29  30
ENDBRANCH  26  29
ENDBRANCH   7  26
BRANCH   5  38
ATOM     38  O   LIG d   1       6.801  -5.707  -7.098  0.00  0.00    -0.386 OA
ATOM     39  H   LIG d   1       7.473  -5.200  -7.573  0.00  0.00     0.210 HD
ENDBRANCH   5  38
TORSDOF 9
ENDMDL
MODEL 8
REMARK VINA RESULT:      -6.1      6.669      9.339
REMARK  9 active torsions:
REMARK  status: ('A' for Active; 'I' for Inactive)
REMARK    1  A    between atoms: C_3  and  N_31 
REMARK    2  A    between atoms: N_7  and  C_10 
REMARK    3  A    between atoms: C_12  and  O_30 
REMARK    4  A    between atoms: C_14  and  O_29 
REMARK    5  A    between atoms: C_16  and  C_19 
REMARK    6  A    between atoms: C_19  and  O_20 
REMARK    7  A    between atoms: O_20  and  P_21 
REMARK    8  A    between atoms: P_21  and  O_24 
REMARK    9  A    between atoms: O_24  and  S_25 
ROOT
ATOM      1  C   LIG d   1       9.888   9.692  -3.005  0.00  0.00     0.167 C 
ATOM      2  H   LIG d   1       9.079   9.170  -3.516  0.00  0.00     0.087 H 
ATOM      3  C   LIG d   1       9.322  10.565  -1.856  0.00  0.00     0.129 C 
ATOM      4  H   LIG d   1      10.095  10.801  -1.125  0.00  0.00     0.067 H 
ATOM      5  C   LIG d   1       8.886  11.834  -2.639  0.00  0.00     0.114 C 
ATOM      6  H   LIG d   1       8.919  12.716  -1.998  0.00  0.00     0.065 H 
ATOM      7  C   LIG d   1       9.956  11.920  -3.747  0.00  0.00     0.113 C 
ATOM      8  H   LIG d   1      10.729  12.633  -3.460  0.00  0.00     0.065 H 
ATOM      9  O   LIG d   1      10.529  10.615  -3.899  0.00  0.00    -0.346 OA
ENDROOT
BRANCH   1  10
ATOM     10  N   LIG d   1      10.861   8.731  -2.480  0.00  0.00    -0.285 N 
ATOM     11  C   LIG d   1      10.710   7.369  -2.428  0.00  0.00     0.167 A 
ATOM     12  C   LIG d   1      11.890   6.869  -1.852  0.00  0.00     0.147 A 
ATOM     13  N   LIG d   1       9.754   6.516  -2.784  0.00  0.00    -0.216 NA
ATOM     14  C   LIG d   1      12.007   5.481  -1.677  0.00  0.00     0.147 A 
ATOM     15  N   LIG d   1      12.686   7.933  -1.588  0.00  0.00    -0.231 NA
ATOM     16  N   LIG d   1      10.998   4.706  -2.064  0.00  0.00    -0.219 NA
ATOM     17  C   LIG d   1       9.907   5.222  -2.600  0.00  0.00     0.120 A 
ATOM     18  H   LIG d   1       9.114   4.556  -2.905  0.00  0.00     0.105 H 
ATOM     19  C   LIG d   1      12.084   9.027  -1.956  0.00  0.00     0.100 A 
ATOM     20  H   LIG d   1      12.492  10.022  -1.859  0.00  0.00     0.103 H 
BRANCH  14  21
ATOM     21  N   LIG d   1      13.145   4.931  -1.115  0.00  0.00    -0.341 N 
ATOM     22  H   LIG d   1      13.396   5.158  -0.206  0.00  0.00     0.144 HD
ATOM     23  H   LIG d   1      13.695   4.319  -1.631  0.00  0.00     0.144 HD
ENDBRANCH  14  21
ENDBRANCH   1  10
BRANCH   3  24
ATOM     24  O   LIG d   1       8.202   9.933  -1.232  0.00  0.00    -0.385 OA
ATOM     25  H   LIG d   1       7.638   9.440  -1.843  0.00  0.00     0.210 HD
ENDBRANCH   3  24
BRANCH   7  26
ATOM     26  C   LIG d   1       9.309  12.359  -5.061  0.00  0.00     0.084 C 
ATOM     27  H   LIG d   1       8.280  11.998  -5.099  0.00  0.00     0.059 H 
ATOM     28  H   LIG d   1       9.314  13.448  -5.124  0.00  0.00     0.059 H 
BRANCH  26  29
ATOM     29  O   LIG d   1      10.044  11.816  -6.160  0.00  0.00    -0.324 OA
BRANCH  29  30
ATOM     30  P   LIG d   1      10.338  12.639  -7.511  0.00  0.00     0.238 P 
ATOM     31  O   LIG d   1       9.005  13.145  -8.107  0.00  0.00    -0.516 OA
ATOM     32  O   LIG d   1      11.249  13.846  -7.192  0.00  0.00    -0.436 OA
BRANCH  30  33
ATOM     33  O   LIG d   1      11.072  11.680  -8.576  0.00  0.00    -0.195 OA
BRANCH  33  34
ATOM     34  S   LIG d   1      11.015  10.202  -8.220  0.00  0.00     0.005 S 
ATOM     35  O   LIG d   1       9.613   9.873  -8.008  0.00  0.00    -0.345 OA
ATOM     36  O   LIG d   1      11.579   9.474  -9.348  0.00  0.00    -0.345 OA
ATOM     37  O   LIG d   1      11.803  10.027  -7.011  0.00  0.00    -0.268 OA
ENDBRANCH  33  34
ENDBRANCH  30  33
ENDBRANCH  29  30
ENDBRANCH  26  29
ENDBRANCH   7  26
BRANCH   5  38
ATOM     38  O   LIG d   1       7.581  11.663  -3.197  0.00  0.00    -0.386 OA
ATOM     39  H   LIG d   1       7.475  12.054  -4.075  0.00  0.00     0.210 HD
ENDBRANCH   5  38
TORSDOF 9
ENDMDL
MODEL 9
REMARK VINA RESULT:      -6.0      4.984      6.549
REMARK  9 active torsions:
REMARK  status: ('A' for Active; 'I' for Inactive)
REMARK    1  A    between atoms: C_3  and  N_31 
REMARK    2  A    between atoms: N_7  and  C_10 
REMARK    3  A    between atoms: C_12  and  O_30 
REMARK    4  A    between atoms: C_14  and  O_29 
REMARK    5  A    between atoms: C_16  and  C_19 
REMARK    6  A    between atoms: C_19  and  O_20 
REMARK    7  A    between atoms: O_20  and  P_21 
REMARK    8  A    between atoms: P_21  and  O_24 
REMARK    9  A    between atoms: O_24  and  S_25 
ROOT
ATOM      1  C   LIG d   1      10.557   6.061  -3.887  0.00  0.00     0.167 C 
ATOM      2  H   LIG d   1       9.828   6.524  -3.222  0.00  0.00     0.087 H 
ATOM      3  C   LIG d   1      10.581   4.526  -3.673  0.00  0.00     0.129 C 
ATOM      4  H   LIG d   1      11.009   4.016  -4.535  0.00  0.00     0.067 H 
ATOM      5  C   LIG d   1      11.515   4.417  -2.437  0.00  0.00     0.114 C 
ATOM      6  H   LIG d   1      12.034   3.458  -2.426  0.00  0.00     0.065 H 
ATOM      7  C   LIG d   1      12.508   5.575  -2.673  0.00  0.00     0.113 C 
ATOM      8  H   LIG d   1      13.424   5.190  -3.123  0.00  0.00     0.065 H 
ATOM      9  O   LIG d   1      11.883   6.507  -3.564  0.00  0.00    -0.346 OA
ENDROOT
BRANCH   1  10
ATOM     10  N   LIG d   1      10.241   6.373  -5.283  0.00  0.00    -0.285 N 
ATOM     11  C   LIG d   1      10.029   7.623  -5.808  0.00  0.00     0.167 A 
ATOM     12  C   LIG d   1       9.763   7.430  -7.174  0.00  0.00     0.147 A 
ATOM     13  N   LIG d   1      10.028   8.859  -5.319  0.00  0.00    -0.216 NA
ATOM     14  C   LIG d   1       9.505   8.560  -7.967  0.00  0.00     0.147 A 
ATOM     15  N   LIG d   1       9.825   6.096  -7.408  0.00  0.00    -0.231 NA
ATOM     16  N   LIG d   1       9.526   9.757  -7.389  0.00  0.00    -0.219 NA
ATOM     17  C   LIG d   1       9.781   9.889  -6.099  0.00  0.00     0.120 A 
ATOM     18  H   LIG d   1       9.793  10.880  -5.671  0.00  0.00     0.105 H 
ATOM     19  C   LIG d   1      10.105   5.474  -6.300  0.00  0.00     0.100 A 
ATOM     20  H   LIG d   1      10.215   4.405  -6.200  0.00  0.00     0.103 H 
BRANCH  14  21
ATOM     21  N   LIG d   1       9.236   8.432  -9.318  0.00  0.00    -0.341 N 
ATOM     22  H   LIG d   1       8.518   8.945  -9.720  0.00  0.00     0.144 HD
ATOM     23  H   LIG d   1       9.765   7.828  -9.863  0.00  0.00     0.144 HD
ENDBRANCH  14  21
ENDBRANCH   1  10
BRANCH   3  24
ATOM     24  O   LIG d   1       9.275   4.026  -3.377  0.00  0.00    -0.385 OA
ATOM     25  H   LIG d   1       9.182   3.673  -2.482  0.00  0.00     0.210 HD
ENDBRANCH   3  24
BRANCH   7  26
ATOM     26  C   LIG d   1      12.831   6.261  -1.345  0.00  0.00     0.084 C 
ATOM     27  H   LIG d   1      12.768   5.534  -0.535  0.00  0.00     0.059 H 
ATOM     28  H   LIG d   1      13.839   6.675  -1.384  0.00  0.00     0.059 H 
BRANCH  26  29
ATOM     29  O   LIG d   1      11.893   7.315  -1.113  0.00  0.00    -0.324 OA
BRANCH  29  30
ATOM     30  P   LIG d   1      11.386   7.730   0.357  0.00  0.00     0.238 P 
ATOM     31  O   LIG d   1      10.779   6.495   1.060  0.00  0.00    -0.516 OA
ATOM     32  O   LIG d   1      12.581   8.257   1.184  0.00  0.00    -0.436 OA
BRANCH  30  33
ATOM     33  O   LIG d   1      10.268   8.882   0.235  0.00  0.00    -0.195 OA
BRANCH  33  34
ATOM     34  S   LIG d   1       9.356   8.733  -0.974  0.00  0.00     0.005 S 
ATOM     35  O   LIG d   1       9.023   7.321  -1.081  0.00  0.00    -0.345 OA
ATOM     36  O   LIG d   1       8.179   9.551  -0.718  0.00  0.00    -0.345 OA
ATOM     37  O   LIG d   1      10.105   9.204  -2.129  0.00  0.00    -0.268 OA
ENDBRANCH  33  34
ENDBRANCH  30  33
ENDBRANCH  29  30
ENDBRANCH  26  29
ENDBRANCH   7  26
BRANCH   5  38
ATOM     38  O   LIG d   1      10.781   4.609  -1.226  0.00  0.00    -0.386 OA
ATOM     39  H   LIG d   1       9.822   4.606  -1.343  0.00  0.00     0.210 HD
ENDBRANCH   5  38
TORSDOF 9
ENDMDL
MODEL 10
REMARK VINA RESULT:      -6.0      6.200      8.835
REMARK  9 active torsions:
REMARK  status: ('A' for Active; 'I' for Inactive)
REMARK    1  A    between atoms: C_3  and  N_31 
REMARK    2  A    between atoms: N_7  and  C_10 
REMARK    3  A    between atoms: C_12  and  O_30 
REMARK    4  A    between atoms: C_14  and  O_29 
REMARK    5  A    between atoms: C_16  and  C_19 
REMARK    6  A    between atoms: C_19  and  O_20 
REMARK    7  A    between atoms: O_20  and  P_21 
REMARK    8  A    between atoms: P_21  and  O_24 
REMARK    9  A    between atoms: O_24  and  S_25 
ROOT
ATOM      1  C   LIG d   1      10.054   9.583  -1.852  0.00  0.00     0.167 C 
ATOM      2  H   LIG d   1       9.178   9.866  -2.437  0.00  0.00     0.087 H 
ATOM      3  C   LIG d   1      10.016  10.268  -0.462  0.00  0.00     0.129 C 
ATOM      4  H   LIG d   1      10.652   9.744   0.251  0.00  0.00     0.067 H 
ATOM      5  C   LIG d   1      10.596  11.667  -0.808  0.00  0.00     0.114 C 
ATOM      6  H   LIG d   1      11.091  12.106   0.058  0.00  0.00     0.065 H 
ATOM      7  C   LIG d   1      11.620  11.333  -1.914  0.00  0.00     0.113 C 
ATOM      8  H   LIG d   1      12.620  11.269  -1.484  0.00  0.00     0.065 H 
ATOM      9  O   LIG d   1      11.251  10.068  -2.479  0.00  0.00    -0.346 OA
ENDROOT
BRANCH   1  10
ATOM     10  N   LIG d   1      10.113   8.127  -1.699  0.00  0.00    -0.285 N 
ATOM     11  C   LIG d   1       9.983   7.199  -2.701  0.00  0.00     0.167 A 
ATOM     12  C   LIG d   1      10.110   5.943  -2.085  0.00  0.00     0.147 A 
ATOM     13  N   LIG d   1       9.779   7.257  -4.014  0.00  0.00    -0.216 NA
ATOM     14  C   LIG d   1      10.016   4.796  -2.891  0.00  0.00     0.147 A 
ATOM     15  N   LIG d   1      10.309   6.165  -0.763  0.00  0.00    -0.231 NA
ATOM     16  N   LIG d   1       9.811   4.953  -4.195  0.00  0.00    -0.219 NA
ATOM     17  C   LIG d   1       9.697   6.156  -4.729  0.00  0.00     0.120 A 
ATOM     18  H   LIG d   1       9.537   6.238  -5.794  0.00  0.00     0.105 H 
ATOM     19  C   LIG d   1      10.311   7.447  -0.535  0.00  0.00     0.100 A 
ATOM     20  H   LIG d   1      10.448   7.903   0.434  0.00  0.00     0.103 H 
BRANCH  14  21
ATOM     21  N   LIG d   1      10.133   3.532  -2.340  0.00  0.00    -0.341 N 
ATOM     22  H   LIG d   1      11.001   3.102  -2.294  0.00  0.00     0.144 HD
ATOM     23  H   LIG d   1       9.346   3.075  -2.002  0.00  0.00     0.144 HD
ENDBRANCH  14  21
ENDBRANCH   1  10
BRANCH   3  24
ATOM     24  O   LIG d   1       8.676  10.371   0.026  0.00  0.00    -0.385 OA
ATOM     25  H   LIG d   1       8.285  11.248  -0.084  0.00  0.00     0.210 HD
ENDBRANCH   3  24
BRANCH   7  26
ATOM     26  C   LIG d   1      11.588  12.414  -2.995  0.00  0.00     0.084 C 
ATOM     27  H   LIG d   1      11.085  13.301  -2.607  0.00  0.00     0.059 H 
ATOM     28  H   LIG d   1      12.607  12.672  -3.283  0.00  0.00     0.059 H 
BRANCH  26  29
ATOM     29  O   LIG d   1      10.880  11.927  -4.136  0.00  0.00    -0.324 OA
BRANCH  29  30
ATOM     30  P   LIG d   1       9.428  12.471  -4.567  0.00  0.00     0.238 P 
ATOM     31  O   LIG d   1       8.335  11.623  -3.879  0.00  0.00    -0.516 OA
ATOM     32  O   LIG d   1       9.282  13.947  -4.134  0.00  0.00    -0.436 OA
BRANCH  30  33
ATOM     33  O   LIG d   1       9.265  12.362  -6.165  0.00  0.00    -0.195 OA
BRANCH  33  34
ATOM     34  S   LIG d   1       9.729  13.599  -6.921  0.00  0.00     0.005 S 
ATOM     35  O   LIG d   1       9.082  14.743  -6.295  0.00  0.00    -0.345 OA
ATOM     36  O   LIG d   1      11.178  13.655  -6.789  0.00  0.00    -0.345 OA
ATOM     37  O   LIG d   1       9.315  13.430  -8.305  0.00  0.00    -0.268 OA
ENDBRANCH  33  34
ENDBRANCH  30  33
ENDBRANCH  29  30
ENDBRANCH  26  29
ENDBRANCH   7  26
BRANCH   5  38
ATOM     38  O   LIG d   1       9.572  12.534  -1.301  0.00  0.00    -0.386 OA
ATOM     39  H   LIG d   1       9.032  12.938  -0.609  0.00  0.00     0.210 HD
ENDBRANCH   5  38
TORSDOF 9
ENDMDL
