MODEL 1
REMARK VINA RESULT:      -7.0      0.000      0.000
REMARK  7 active torsions:
REMARK  status: ('A' for Active; 'I' for Inactive)
REMARK    1  A    between atoms: C_1  and  C_2 
REMARK    2  A    between atoms: C_5  and  S_8 
REMARK    3  A    between atoms: S_8  and  N_11 
REMARK       I    between atoms: C_12  and  N_14 
REMARK    4  A    between atoms: N_14  and  C_15 
REMARK    5  A    between atoms: C_15  and  C_17 
REMARK    6  A    between atoms: C_15  and  C_18 
REMARK    7  A    between atoms: C_18  and  C_19 
ROOT
ATOM      1  N   LIG d   1       5.397   0.796  -8.146  0.00  0.00    -0.130 NA
ATOM      2  C   LIG d   1       5.216  -0.145  -7.266  0.00  0.00     0.068 C 
ATOM      3  O   LIG d   1       3.967  -0.450  -6.849  0.00  0.00    -0.848 OA
ATOM      4  N   LIG d   1       6.295  -0.827  -6.758  0.00  0.00    -0.337 N 
ATOM      5  H   LIG d   1       7.191  -0.608  -7.057  0.00  0.00     0.147 HD
ENDROOT
BRANCH   4   6
ATOM      6  C   LIG d   1       6.091  -1.886  -5.766  0.00  0.00     0.022 C 
ATOM      7  H   LIG d   1       5.032  -1.952  -5.518  0.00  0.00     0.050 H 
BRANCH   6   8
ATOM      8  C   LIG d   1       6.564  -3.222  -6.343  0.00  0.00    -0.046 C 
ATOM      9  H   LIG d   1       7.354  -3.044  -7.072  0.00  0.00     0.025 H 
ATOM     10  H   LIG d   1       6.947  -3.850  -5.537  0.00  0.00     0.025 H 
ATOM     11  H   LIG d   1       5.728  -3.725  -6.829  0.00  0.00     0.025 H 
ENDBRANCH   6   8
BRANCH   6  12
ATOM     12  C   LIG d   1       6.892  -1.563  -4.504  0.00  0.00    -0.009 C 
ATOM     13  H   LIG d   1       7.241  -2.489  -4.048  0.00  0.00     0.033 H 
ATOM     14  H   LIG d   1       7.749  -0.941  -4.766  0.00  0.00     0.033 H 
BRANCH  12  15
ATOM     15  C   LIG d   1       6.015  -0.822  -3.528  0.00  0.00    -0.046 A 
ATOM     16  C   LIG d   1       6.107   0.554  -3.425  0.00  0.00    -0.059 A 
ATOM     17  C   LIG d   1       5.301   1.235  -2.532  0.00  0.00    -0.061 A 
ATOM     18  H   LIG d   1       6.807   1.097  -4.043  0.00  0.00     0.062 H 
ATOM     19  C   LIG d   1       4.408   0.541  -1.737  0.00  0.00    -0.062 A 
ATOM     20  H   LIG d   1       5.369   2.310  -2.454  0.00  0.00     0.062 H 
ATOM     21  C   LIG d   1       4.320  -0.836  -1.837  0.00  0.00    -0.061 A 
ATOM     22  H   LIG d   1       3.780   1.073  -1.038  0.00  0.00     0.062 H 
ATOM     23  C   LIG d   1       5.124  -1.516  -2.733  0.00  0.00    -0.059 A 
ATOM     24  H   LIG d   1       3.623  -1.379  -1.215  0.00  0.00     0.062 H 
ATOM     25  H   LIG d   1       5.055  -2.591  -2.810  0.00  0.00     0.062 H 
ENDBRANCH  12  15
ENDBRANCH   6  12
ENDBRANCH   4   6
BRANCH   1  26
ATOM     26  S   LIG d   1       4.096   1.618  -8.758  0.00  0.00     0.099 S 
ATOM     27  O   LIG d   1       4.618   2.719  -9.489  0.00  0.00    -0.146 OA
ATOM     28  O   LIG d   1       3.179   1.784  -7.686  0.00  0.00    -0.146 OA
BRANCH  26  29
ATOM     29  C   LIG d   1       3.315   0.560  -9.931  0.00  0.00     0.113 A 
ATOM     30  C   LIG d   1       2.084   0.001  -9.644  0.00  0.00    -0.035 A 
ATOM     31  C   LIG d   1       1.470  -0.829 -10.564  0.00  0.00    -0.057 A 
ATOM     32  H   LIG d   1       1.600   0.213  -8.701  0.00  0.00     0.064 H 
ATOM     33  C   LIG d   1       2.088  -1.099 -11.771  0.00  0.00    -0.050 A 
ATOM     34  H   LIG d   1       0.509  -1.266 -10.340  0.00  0.00     0.062 H 
ATOM     35  C   LIG d   1       3.322  -0.544 -12.054  0.00  0.00    -0.057 A 
ATOM     36  C   LIG d   1       3.934   0.289 -11.137  0.00  0.00    -0.035 A 
ATOM     37  H   LIG d   1       3.808  -0.759 -12.995  0.00  0.00     0.062 H 
ATOM     38  H   LIG d   1       4.895   0.726 -11.360  0.00  0.00     0.064 H 
BRANCH  33  39
ATOM     39  C   LIG d   1       1.420  -2.004 -12.773  0.00  0.00    -0.040 C 
ATOM     40  H   LIG d   1       0.347  -2.025 -12.586  0.00  0.00     0.028 H 
ATOM     41  H   LIG d   1       1.606  -1.631 -13.780  0.00  0.00     0.028 H 
ATOM     42  H   LIG d   1       1.825  -3.012 -12.679  0.00  0.00     0.028 H 
ENDBRANCH  33  39
ENDBRANCH  26  29
ENDBRANCH   1  26
TORSDOF 7
ENDMDL
MODEL 2
REMARK VINA RESULT:      -6.7      1.584      3.170
REMARK  7 active torsions:
REMARK  status: ('A' for Active; 'I' for Inactive)
REMARK    1  A    between atoms: C_1  and  C_2 
REMARK    2  A    between atoms: C_5  and  S_8 
REMARK    3  A    between atoms: S_8  and  N_11 
REMARK       I    between atoms: C_12  and  N_14 
REMARK    4  A    between atoms: N_14  and  C_15 
REMARK    5  A    between atoms: C_15  and  C_17 
REMARK    6  A    between atoms: C_15  and  C_18 
REMARK    7  A    between atoms: C_18  and  C_19 
ROOT
ATOM      1  N   LIG d   1       3.702   0.248  -6.780  0.00  0.00    -0.130 NA
ATOM      2  C   LIG d   1       4.386   0.256  -5.673  0.00  0.00     0.068 C 
ATOM      3  O   LIG d   1       5.733   0.351  -5.712  0.00  0.00    -0.848 OA
ATOM      4  N   LIG d   1       3.738   0.166  -4.465  0.00  0.00    -0.337 N 
ATOM      5  H   LIG d   1       2.771   0.096  -4.437  0.00  0.00     0.147 HD
ENDROOT
BRANCH   4   6
ATOM      6  C   LIG d   1       4.509   0.175  -3.219  0.00  0.00     0.022 C 
ATOM      7  H   LIG d   1       5.536   0.473  -3.430  0.00  0.00     0.050 H 
BRANCH   6   8
ATOM      8  C   LIG d   1       3.880   1.167  -2.238  0.00  0.00    -0.046 C 
ATOM      9  H   LIG d   1       3.080   1.713  -2.737  0.00  0.00     0.025 H 
ATOM     10  H   LIG d   1       3.473   0.625  -1.384  0.00  0.00     0.025 H 
ATOM     11  H   LIG d   1       4.640   1.869  -1.894  0.00  0.00     0.025 H 
ENDBRANCH   6   8
BRANCH   6  12
ATOM     12  C   LIG d   1       4.500  -1.226  -2.604  0.00  0.00    -0.009 C 
ATOM     13  H   LIG d   1       4.830  -1.170  -1.567  0.00  0.00     0.033 H 
ATOM     14  H   LIG d   1       3.488  -1.633  -2.642  0.00  0.00     0.033 H 
BRANCH  12  15
ATOM     15  C   LIG d   1       5.430  -2.122  -3.380  0.00  0.00    -0.046 A 
ATOM     16  C   LIG d   1       6.798  -1.947  -3.282  0.00  0.00    -0.059 A 
ATOM     17  C   LIG d   1       7.652  -2.771  -3.991  0.00  0.00    -0.061 A 
ATOM     18  H   LIG d   1       7.199  -1.168  -2.650  0.00  0.00     0.062 H 
ATOM     19  C   LIG d   1       7.139  -3.764  -4.804  0.00  0.00    -0.062 A 
ATOM     20  H   LIG d   1       8.722  -2.637  -3.911  0.00  0.00     0.062 H 
ATOM     21  C   LIG d   1       5.771  -3.935  -4.906  0.00  0.00    -0.061 A 
ATOM     22  H   LIG d   1       7.807  -4.406  -5.360  0.00  0.00     0.062 H 
ATOM     23  C   LIG d   1       4.917  -3.113  -4.194  0.00  0.00    -0.059 A 
ATOM     24  H   LIG d   1       5.370  -4.711  -5.542  0.00  0.00     0.062 H 
ATOM     25  H   LIG d   1       3.849  -3.247  -4.274  0.00  0.00     0.062 H 
ENDBRANCH  12  15
ENDBRANCH   6  12
ENDBRANCH   4   6
BRANCH   1  26
ATOM     26  S   LIG d   1       4.483   0.356  -8.237  0.00  0.00     0.099 S 
ATOM     27  O   LIG d   1       5.541  -0.591  -8.202  0.00  0.00    -0.146 OA
ATOM     28  O   LIG d   1       4.707   1.739  -8.476  0.00  0.00    -0.146 OA
BRANCH  26  29
ATOM     29  C   LIG d   1       3.356  -0.194  -9.474  0.00  0.00     0.113 A 
ATOM     30  C   LIG d   1       3.768  -0.291 -10.790  0.00  0.00    -0.035 A 
ATOM     31  C   LIG d   1       2.885  -0.723 -11.761  0.00  0.00    -0.057 A 
ATOM     32  H   LIG d   1       4.781  -0.030 -11.059  0.00  0.00     0.064 H 
ATOM     33  C   LIG d   1       1.588  -1.059 -11.416  0.00  0.00    -0.050 A 
ATOM     34  H   LIG d   1       3.207  -0.799 -12.789  0.00  0.00     0.062 H 
ATOM     35  C   LIG d   1       1.175  -0.955 -10.101  0.00  0.00    -0.057 A 
ATOM     36  C   LIG d   1       2.060  -0.528  -9.129  0.00  0.00    -0.035 A 
ATOM     37  H   LIG d   1       0.160  -1.213  -9.832  0.00  0.00     0.062 H 
ATOM     38  H   LIG d   1       1.738  -0.452  -8.102  0.00  0.00     0.064 H 
BRANCH  33  39
ATOM     39  C   LIG d   1       0.625  -1.529 -12.475  0.00  0.00    -0.040 C 
ATOM     40  H   LIG d   1       0.252  -0.672 -13.034  0.00  0.00     0.028 H 
ATOM     41  H   LIG d   1       1.136  -2.212 -13.154  0.00  0.00     0.028 H 
ATOM     42  H   LIG d   1      -0.210  -2.046 -12.002  0.00  0.00     0.028 H 
ENDBRANCH  33  39
ENDBRANCH  26  29
ENDBRANCH   1  26
TORSDOF 7
ENDMDL
MODEL 3
REMARK VINA RESULT:      -6.7      2.649      7.160
REMARK  7 active torsions:
REMARK  status: ('A' for Active; 'I' for Inactive)
REMARK    1  A    between atoms: C_1  and  C_2 
REMARK    2  A    between atoms: C_5  and  S_8 
REMARK    3  A    between atoms: S_8  and  N_11 
REMARK       I    between atoms: C_12  and  N_14 
REMARK    4  A    between atoms: N_14  and  C_15 
REMARK    5  A    between atoms: C_15  and  C_17 
REMARK    6  A    between atoms: C_15  and  C_18 
REMARK    7  A    between atoms: C_18  and  C_19 
ROOT
ATOM      1  N   LIG d   1       4.501  -3.694  -6.596  0.00  0.00    -0.130 NA
ATOM      2  C   LIG d   1       4.304  -3.022  -7.694  0.00  0.00     0.068 C 
ATOM      3  O   LIG d   1       5.209  -2.101  -8.094  0.00  0.00    -0.848 OA
ATOM      4  N   LIG d   1       3.177  -3.249  -8.445  0.00  0.00    -0.337 N 
ATOM      5  H   LIG d   1       2.528  -3.909  -8.158  0.00  0.00     0.147 HD
ENDROOT
BRANCH   4   6
ATOM      6  C   LIG d   1       2.956  -2.493  -9.681  0.00  0.00     0.022 C 
ATOM      7  H   LIG d   1       3.896  -2.047 -10.006  0.00  0.00     0.050 H 
BRANCH   6   8
ATOM      8  C   LIG d   1       2.433  -3.434 -10.768  0.00  0.00    -0.046 C 
ATOM      9  H   LIG d   1       2.166  -2.855 -11.652  0.00  0.00     0.025 H 
ATOM     10  H   LIG d   1       3.208  -4.156 -11.026  0.00  0.00     0.025 H 
ATOM     11  H   LIG d   1       1.553  -3.961 -10.400  0.00  0.00     0.025 H 
ENDBRANCH   6   8
BRANCH   6  12
ATOM     12  C   LIG d   1       1.929  -1.388  -9.425  0.00  0.00    -0.009 C 
ATOM     13  H   LIG d   1       1.138  -1.448 -10.171  0.00  0.00     0.033 H 
ATOM     14  H   LIG d   1       1.501  -1.513  -8.429  0.00  0.00     0.033 H 
BRANCH  12  15
ATOM     15  C   LIG d   1       2.604  -0.043  -9.515  0.00  0.00    -0.046 A 
ATOM     16  C   LIG d   1       2.516   0.845  -8.460  0.00  0.00    -0.059 A 
ATOM     17  C   LIG d   1       3.137   2.077  -8.541  0.00  0.00    -0.061 A 
ATOM     18  H   LIG d   1       1.963   0.576  -7.572  0.00  0.00     0.062 H 
ATOM     19  C   LIG d   1       3.840   2.425  -9.679  0.00  0.00    -0.062 A 
ATOM     20  H   LIG d   1       3.072   2.770  -7.714  0.00  0.00     0.062 H 
ATOM     21  C   LIG d   1       3.924   1.537 -10.736  0.00  0.00    -0.061 A 
ATOM     22  H   LIG d   1       4.324   3.388  -9.743  0.00  0.00     0.062 H 
ATOM     23  C   LIG d   1       3.306   0.303 -10.654  0.00  0.00    -0.059 A 
ATOM     24  H   LIG d   1       4.474   1.808 -11.626  0.00  0.00     0.062 H 
ATOM     25  H   LIG d   1       3.372  -0.389 -11.480  0.00  0.00     0.062 H 
ENDBRANCH  12  15
ENDBRANCH   6  12
ENDBRANCH   4   6
BRANCH   1  26
ATOM     26  S   LIG d   1       5.860  -3.420  -5.691  0.00  0.00     0.099 S 
ATOM     27  O   LIG d   1       6.821  -2.844  -6.565  0.00  0.00    -0.146 OA
ATOM     28  O   LIG d   1       6.113  -4.616  -4.965  0.00  0.00    -0.146 OA
BRANCH  26  29
ATOM     29  C   LIG d   1       5.455  -2.184  -4.502  0.00  0.00     0.113 A 
ATOM     30  C   LIG d   1       4.598  -2.483  -3.460  0.00  0.00    -0.035 A 
ATOM     31  C   LIG d   1       4.281  -1.515  -2.527  0.00  0.00    -0.057 A 
ATOM     32  H   LIG d   1       4.177  -3.475  -3.374  0.00  0.00     0.064 H 
ATOM     33  C   LIG d   1       4.820  -0.246  -2.636  0.00  0.00    -0.050 A 
ATOM     34  H   LIG d   1       3.612  -1.748  -1.712  0.00  0.00     0.062 H 
ATOM     35  C   LIG d   1       5.672   0.054  -3.683  0.00  0.00    -0.057 A 
ATOM     36  C   LIG d   1       5.994  -0.916  -4.613  0.00  0.00    -0.035 A 
ATOM     37  H   LIG d   1       6.090   1.046  -3.771  0.00  0.00     0.062 H 
ATOM     38  H   LIG d   1       6.663  -0.683  -5.428  0.00  0.00     0.064 H 
BRANCH  33  39
ATOM     39  C   LIG d   1       4.473   0.810  -1.619  0.00  0.00    -0.040 C 
ATOM     40  H   LIG d   1       5.300   1.513  -1.529  0.00  0.00     0.028 H 
ATOM     41  H   LIG d   1       3.577   1.342  -1.939  0.00  0.00     0.028 H 
ATOM     42  H   LIG d   1       4.290   0.338  -0.653  0.00  0.00     0.028 H 
ENDBRANCH  33  39
ENDBRANCH  26  29
ENDBRANCH   1  26
TORSDOF 7
ENDMDL
MODEL 4
REMARK VINA RESULT:      -6.4      1.843      2.363
REMARK  7 active torsions:
REMARK  status: ('A' for Active; 'I' for Inactive)
REMARK    1  A    between atoms: C_1  and  C_2 
REMARK    2  A    between atoms: C_5  and  S_8 
REMARK    3  A    between atoms: S_8  and  N_11 
REMARK       I    between atoms: C_12  and  N_14 
REMARK    4  A    between atoms: N_14  and  C_15 
REMARK    5  A    between atoms: C_15  and  C_17 
REMARK    6  A    between atoms: C_15  and  C_18 
REMARK    7  A    between atoms: C_18  and  C_19 
ROOT
ATOM      1  N   LIG d   1       6.906   1.381  -7.357  0.00  0.00    -0.130 NA
ATOM      2  C   LIG d   1       6.966   0.196  -6.822  0.00  0.00     0.068 C 
ATOM      3  O   LIG d   1       6.847  -0.903  -7.599  0.00  0.00    -0.848 OA
ATOM      4  N   LIG d   1       7.148   0.063  -5.467  0.00  0.00    -0.337 N 
ATOM      5  H   LIG d   1       7.233   0.852  -4.909  0.00  0.00     0.147 HD
ENDROOT
BRANCH   4   6
ATOM      6  C   LIG d   1       7.216  -1.271  -4.864  0.00  0.00     0.022 C 
ATOM      7  H   LIG d   1       6.448  -1.907  -5.305  0.00  0.00     0.050 H 
BRANCH   6   8
ATOM      8  C   LIG d   1       8.596  -1.879  -5.126  0.00  0.00    -0.046 C 
ATOM      9  H   LIG d   1       8.535  -2.964  -5.044  0.00  0.00     0.025 H 
ATOM     10  H   LIG d   1       8.928  -1.607  -6.128  0.00  0.00     0.025 H 
ATOM     11  H   LIG d   1       9.306  -1.499  -4.392  0.00  0.00     0.025 H 
ENDBRANCH   6   8
BRANCH   6  12
ATOM     12  C   LIG d   1       6.984  -1.161  -3.357  0.00  0.00    -0.009 C 
ATOM     13  H   LIG d   1       7.179  -2.125  -2.888  0.00  0.00     0.033 H 
ATOM     14  H   LIG d   1       7.658  -0.411  -2.939  0.00  0.00     0.033 H 
BRANCH  12  15
ATOM     15  C   LIG d   1       5.557  -0.754  -3.095  0.00  0.00    -0.046 A 
ATOM     16  C   LIG d   1       4.521  -1.594  -3.463  0.00  0.00    -0.059 A 
ATOM     17  C   LIG d   1       3.212  -1.222  -3.220  0.00  0.00    -0.061 A 
ATOM     18  H   LIG d   1       4.736  -2.540  -3.936  0.00  0.00     0.062 H 
ATOM     19  C   LIG d   1       2.937  -0.008  -2.619  0.00  0.00    -0.062 A 
ATOM     20  H   LIG d   1       2.403  -1.880  -3.503  0.00  0.00     0.062 H 
ATOM     21  C   LIG d   1       3.973   0.833  -2.256  0.00  0.00    -0.061 A 
ATOM     22  H   LIG d   1       1.914   0.283  -2.431  0.00  0.00     0.062 H 
ATOM     23  C   LIG d   1       5.283   0.460  -2.495  0.00  0.00    -0.059 A 
ATOM     24  H   LIG d   1       3.758   1.782  -1.786  0.00  0.00     0.062 H 
ATOM     25  H   LIG d   1       6.091   1.118  -2.213  0.00  0.00     0.062 H 
ENDBRANCH  12  15
ENDBRANCH   6  12
ENDBRANCH   4   6
BRANCH   1  26
ATOM     26  S   LIG d   1       6.685   1.541  -8.991  0.00  0.00     0.099 S 
ATOM     27  O   LIG d   1       7.621   0.671  -9.614  0.00  0.00    -0.146 OA
ATOM     28  O   LIG d   1       6.645   2.935  -9.261  0.00  0.00    -0.146 OA
BRANCH  26  29
ATOM     29  C   LIG d   1       5.084   0.908  -9.365  0.00  0.00     0.113 A 
ATOM     30  C   LIG d   1       3.978   1.383  -8.686  0.00  0.00    -0.035 A 
ATOM     31  C   LIG d   1       2.721   0.889  -8.980  0.00  0.00    -0.057 A 
ATOM     32  H   LIG d   1       4.095   2.143  -7.926  0.00  0.00     0.064 H 
ATOM     33  C   LIG d   1       2.571  -0.082  -9.953  0.00  0.00    -0.050 A 
ATOM     34  H   LIG d   1       1.857   1.260  -8.450  0.00  0.00     0.062 H 
ATOM     35  C   LIG d   1       3.678  -0.561 -10.628  0.00  0.00    -0.057 A 
ATOM     36  C   LIG d   1       4.934  -0.062 -10.337  0.00  0.00    -0.035 A 
ATOM     37  H   LIG d   1       3.562  -1.323 -11.385  0.00  0.00     0.062 H 
ATOM     38  H   LIG d   1       5.798  -0.433 -10.868  0.00  0.00     0.064 H 
BRANCH  33  39
ATOM     39  C   LIG d   1       1.201  -0.622 -10.273  0.00  0.00    -0.040 C 
ATOM     40  H   LIG d   1       0.634   0.127 -10.825  0.00  0.00     0.028 H 
ATOM     41  H   LIG d   1       1.298  -1.523 -10.878  0.00  0.00     0.028 H 
ATOM     42  H   LIG d   1       0.679  -0.861  -9.346  0.00  0.00     0.028 H 
ENDBRANCH  33  39
ENDBRANCH  26  29
ENDBRANCH   1  26
TORSDOF 7
ENDMDL
MODEL 5
REMARK VINA RESULT:      -6.4      4.982      7.716
REMARK  7 active torsions:
REMARK  status: ('A' for Active; 'I' for Inactive)
REMARK    1  A    between atoms: C_1  and  C_2 
REMARK    2  A    between atoms: C_5  and  S_8 
REMARK    3  A    between atoms: S_8  and  N_11 
REMARK       I    between atoms: C_12  and  N_14 
REMARK    4  A    between atoms: N_14  and  C_15 
REMARK    5  A    between atoms: C_15  and  C_17 
REMARK    6  A    between atoms: C_15  and  C_18 
REMARK    7  A    between atoms: C_18  and  C_19 
ROOT
ATOM      1  N   LIG d   1       8.659   1.463  -3.919  0.00  0.00    -0.130 NA
ATOM      2  C   LIG d   1       8.151   0.357  -4.379  0.00  0.00     0.068 C 
ATOM      3  O   LIG d   1       8.283   0.046  -5.687  0.00  0.00    -0.848 OA
ATOM      4  N   LIG d   1       7.479  -0.493  -3.534  0.00  0.00    -0.337 N 
ATOM      5  H   LIG d   1       7.384  -0.269  -2.596  0.00  0.00     0.147 HD
ENDROOT
BRANCH   4   6
ATOM      6  C   LIG d   1       6.907  -1.739  -4.052  0.00  0.00     0.022 C 
ATOM      7  H   LIG d   1       6.685  -1.622  -5.114  0.00  0.00     0.050 H 
BRANCH   6   8
ATOM      8  C   LIG d   1       7.910  -2.879  -3.862  0.00  0.00    -0.046 C 
ATOM      9  H   LIG d   1       7.625  -3.471  -2.993  0.00  0.00     0.025 H 
ATOM     10  H   LIG d   1       7.912  -3.512  -4.750  0.00  0.00     0.025 H 
ATOM     11  H   LIG d   1       8.906  -2.464  -3.709  0.00  0.00     0.025 H 
ENDBRANCH   6   8
BRANCH   6  12
ATOM     12  C   LIG d   1       5.618  -2.061  -3.295  0.00  0.00    -0.009 C 
ATOM     13  H   LIG d   1       5.042  -2.797  -3.854  0.00  0.00     0.033 H 
ATOM     14  H   LIG d   1       5.866  -2.465  -2.311  0.00  0.00     0.033 H 
BRANCH  12  15
ATOM     15  C   LIG d   1       4.804  -0.804  -3.129  0.00  0.00    -0.046 A 
ATOM     16  C   LIG d   1       4.895  -0.071  -1.961  0.00  0.00    -0.059 A 
ATOM     17  C   LIG d   1       4.150   1.084  -1.810  0.00  0.00    -0.061 A 
ATOM     18  H   LIG d   1       5.549  -0.400  -1.167  0.00  0.00     0.062 H 
ATOM     19  C   LIG d   1       3.309   1.501  -2.824  0.00  0.00    -0.062 A 
ATOM     20  H   LIG d   1       4.225   1.659  -0.899  0.00  0.00     0.062 H 
ATOM     21  C   LIG d   1       3.214   0.765  -3.990  0.00  0.00    -0.061 A 
ATOM     22  H   LIG d   1       2.726   2.403  -2.705  0.00  0.00     0.062 H 
ATOM     23  C   LIG d   1       3.962  -0.388  -4.143  0.00  0.00    -0.059 A 
ATOM     24  H   LIG d   1       2.556   1.092  -4.783  0.00  0.00     0.062 H 
ATOM     25  H   LIG d   1       3.887  -0.962  -5.054  0.00  0.00     0.062 H 
ENDBRANCH  12  15
ENDBRANCH   6  12
ENDBRANCH   4   6
BRANCH   1  26
ATOM     26  S   LIG d   1       9.468   2.488  -4.937  0.00  0.00     0.099 S 
ATOM     27  O   LIG d   1       8.625   2.693  -6.062  0.00  0.00    -0.146 OA
ATOM     28  O   LIG d   1      10.790   1.981  -5.060  0.00  0.00    -0.146 OA
BRANCH  26  29
ATOM     29  C   LIG d   1       9.599   4.042  -4.116  0.00  0.00     0.113 A 
ATOM     30  C   LIG d   1      10.036   4.096  -2.806  0.00  0.00    -0.035 A 
ATOM     31  C   LIG d   1      10.139   5.315  -2.162  0.00  0.00    -0.057 A 
ATOM     32  H   LIG d   1      10.297   3.186  -2.285  0.00  0.00     0.064 H 
ATOM     33  C   LIG d   1       9.806   6.480  -2.829  0.00  0.00    -0.050 A 
ATOM     34  H   LIG d   1      10.480   5.358  -1.139  0.00  0.00     0.062 H 
ATOM     35  C   LIG d   1       9.364   6.424  -4.137  0.00  0.00    -0.057 A 
ATOM     36  C   LIG d   1       9.265   5.206  -4.783  0.00  0.00    -0.035 A 
ATOM     37  H   LIG d   1       9.099   7.333  -4.657  0.00  0.00     0.062 H 
ATOM     38  H   LIG d   1       8.924   5.163  -5.807  0.00  0.00     0.064 H 
BRANCH  33  39
ATOM     39  C   LIG d   1       9.919   7.808  -2.126  0.00  0.00    -0.040 C 
ATOM     40  H   LIG d   1       9.982   8.606  -2.866  0.00  0.00     0.028 H 
ATOM     41  H   LIG d   1       9.041   7.963  -1.499  0.00  0.00     0.028 H 
ATOM     42  H   LIG d   1      10.815   7.816  -1.505  0.00  0.00     0.028 H 
ENDBRANCH  33  39
ENDBRANCH  26  29
ENDBRANCH   1  26
TORSDOF 7
ENDMDL
MODEL 6
REMARK VINA RESULT:      -6.4      5.712      9.307
REMARK  7 active torsions:
REMARK  status: ('A' for Active; 'I' for Inactive)
REMARK    1  A    between atoms: C_1  and  C_2 
REMARK    2  A    between atoms: C_5  and  S_8 
REMARK    3  A    between atoms: S_8  and  N_11 
REMARK       I    between atoms: C_12  and  N_14 
REMARK    4  A    between atoms: N_14  and  C_15 
REMARK    5  A    between atoms: C_15  and  C_17 
REMARK    6  A    between atoms: C_15  and  C_18 
REMARK    7  A    between atoms: C_18  and  C_19 
ROOT
ATOM      1  N   LIG d   1       9.555   3.016  -3.126  0.00  0.00    -0.130 NA
ATOM      2  C   LIG d   1       8.799   2.267  -3.875  0.00  0.00     0.068 C 
ATOM      3  O   LIG d   1       8.384   2.717  -5.080  0.00  0.00    -0.848 OA
ATOM      4  N   LIG d   1       8.422   1.020  -3.441  0.00  0.00    -0.337 N 
ATOM      5  H   LIG d   1       8.719   0.698  -2.576  0.00  0.00     0.147 HD
ENDROOT
BRANCH   4   6
ATOM      6  C   LIG d   1       7.570   0.177  -4.285  0.00  0.00     0.022 C 
ATOM      7  H   LIG d   1       6.765   0.780  -4.705  0.00  0.00     0.050 H 
BRANCH   6   8
ATOM      8  C   LIG d   1       8.407  -0.419  -5.419  0.00  0.00    -0.046 C 
ATOM      9  H   LIG d   1       9.445  -0.107  -5.307  0.00  0.00     0.025 H 
ATOM     10  H   LIG d   1       8.347  -1.507  -5.380  0.00  0.00     0.025 H 
ATOM     11  H   LIG d   1       8.023  -0.068  -6.377  0.00  0.00     0.025 H 
ENDBRANCH   6   8
BRANCH   6  12
ATOM     12  C   LIG d   1       6.976  -0.952  -3.441  0.00  0.00    -0.009 C 
ATOM     13  H   LIG d   1       7.041  -1.890  -3.992  0.00  0.00     0.033 H 
ATOM     14  H   LIG d   1       7.532  -1.040  -2.507  0.00  0.00     0.033 H 
BRANCH  12  15
ATOM     15  C   LIG d   1       5.531  -0.646  -3.138  0.00  0.00    -0.046 A 
ATOM     16  C   LIG d   1       5.160   0.633  -2.765  0.00  0.00    -0.059 A 
ATOM     17  C   LIG d   1       3.835   0.914  -2.490  0.00  0.00    -0.061 A 
ATOM     18  H   LIG d   1       5.905   1.411  -2.691  0.00  0.00     0.062 H 
ATOM     19  C   LIG d   1       2.883  -0.083  -2.579  0.00  0.00    -0.062 A 
ATOM     20  H   LIG d   1       3.544   1.914  -2.203  0.00  0.00     0.062 H 
ATOM     21  C   LIG d   1       3.255  -1.363  -2.947  0.00  0.00    -0.061 A 
ATOM     22  H   LIG d   1       1.848   0.137  -2.361  0.00  0.00     0.062 H 
ATOM     23  C   LIG d   1       4.580  -1.644  -3.226  0.00  0.00    -0.059 A 
ATOM     24  H   LIG d   1       2.511  -2.143  -3.016  0.00  0.00     0.062 H 
ATOM     25  H   LIG d   1       4.870  -2.644  -3.513  0.00  0.00     0.062 H 
ENDBRANCH  12  15
ENDBRANCH   6  12
ENDBRANCH   4   6
BRANCH   1  26
ATOM     26  S   LIG d   1      10.010   4.520  -3.650  0.00  0.00     0.099 S 
ATOM     27  O   LIG d   1       8.861   5.107  -4.245  0.00  0.00    -0.146 OA
ATOM     28  O   LIG d   1      11.231   4.352  -4.358  0.00  0.00    -0.146 OA
BRANCH  26  29
ATOM     29  C   LIG d   1      10.383   5.479  -2.220  0.00  0.00     0.113 A 
ATOM     30  C   LIG d   1       9.734   6.679  -2.005  0.00  0.00    -0.035 A 
ATOM     31  C   LIG d   1      10.025   7.432  -0.883  0.00  0.00    -0.057 A 
ATOM     32  H   LIG d   1       8.996   7.030  -2.714  0.00  0.00     0.064 H 
ATOM     33  C   LIG d   1      10.967   6.984   0.024  0.00  0.00    -0.050 A 
ATOM     34  H   LIG d   1       9.517   8.370  -0.715  0.00  0.00     0.062 H 
ATOM     35  C   LIG d   1      11.621   5.786  -0.195  0.00  0.00    -0.057 A 
ATOM     36  C   LIG d   1      11.326   5.031  -1.314  0.00  0.00    -0.035 A 
ATOM     37  H   LIG d   1      12.361   5.437   0.512  0.00  0.00     0.062 H 
ATOM     38  H   LIG d   1      11.833   4.093  -1.482  0.00  0.00     0.064 H 
BRANCH  33  39
ATOM     39  C   LIG d   1      11.285   7.804   1.247  0.00  0.00    -0.040 C 
ATOM     40  H   LIG d   1      11.937   7.234   1.908  0.00  0.00     0.028 H 
ATOM     41  H   LIG d   1      11.787   8.724   0.947  0.00  0.00     0.028 H 
ATOM     42  H   LIG d   1      10.361   8.049   1.771  0.00  0.00     0.028 H 
ENDBRANCH  33  39
ENDBRANCH  26  29
ENDBRANCH   1  26
TORSDOF 7
ENDMDL
MODEL 7
REMARK VINA RESULT:      -6.3      2.575      4.036
REMARK  7 active torsions:
REMARK  status: ('A' for Active; 'I' for Inactive)
REMARK    1  A    between atoms: C_1  and  C_2 
REMARK    2  A    between atoms: C_5  and  S_8 
REMARK    3  A    between atoms: S_8  and  N_11 
REMARK       I    between atoms: C_12  and  N_14 
REMARK    4  A    between atoms: N_14  and  C_15 
REMARK    5  A    between atoms: C_15  and  C_17 
REMARK    6  A    between atoms: C_15  and  C_18 
REMARK    7  A    between atoms: C_18  and  C_19 
ROOT
ATOM      1  N   LIG d   1       2.893   0.211  -6.418  0.00  0.00    -0.130 NA
ATOM      2  C   LIG d   1       3.772   0.187  -5.459  0.00  0.00     0.068 C 
ATOM      3  O   LIG d   1       5.091   0.186  -5.752  0.00  0.00    -0.848 OA
ATOM      4  N   LIG d   1       3.359   0.162  -4.149  0.00  0.00    -0.337 N 
ATOM      5  H   LIG d   1       2.412   0.161  -3.939  0.00  0.00     0.147 HD
ENDROOT
BRANCH   4   6
ATOM      6  C   LIG d   1       4.349   0.135  -3.069  0.00  0.00     0.022 C 
ATOM      7  H   LIG d   1       5.325   0.420  -3.464  0.00  0.00     0.050 H 
BRANCH   6   8
ATOM      8  C   LIG d   1       3.934   1.119  -1.973  0.00  0.00    -0.046 C 
ATOM      9  H   LIG d   1       3.916   0.605  -1.012  0.00  0.00     0.025 H 
ATOM     10  H   LIG d   1       4.650   1.940  -1.933  0.00  0.00     0.025 H 
ATOM     11  H   LIG d   1       2.942   1.512  -2.194  0.00  0.00     0.025 H 
ENDBRANCH   6   8
BRANCH   6  12
ATOM     12  C   LIG d   1       4.428  -1.276  -2.485  0.00  0.00    -0.009 C 
ATOM     13  H   LIG d   1       4.840  -1.230  -1.477  0.00  0.00     0.033 H 
ATOM     14  H   LIG d   1       3.428  -1.712  -2.450  0.00  0.00     0.033 H 
BRANCH  12  15
ATOM     15  C   LIG d   1       5.317  -2.130  -3.352  0.00  0.00    -0.046 A 
ATOM     16  C   LIG d   1       4.762  -3.110  -4.155  0.00  0.00    -0.059 A 
ATOM     17  C   LIG d   1       5.576  -3.892  -4.953  0.00  0.00    -0.061 A 
ATOM     18  H   LIG d   1       3.693  -3.263  -4.160  0.00  0.00     0.062 H 
ATOM     19  C   LIG d   1       6.945  -3.700  -4.943  0.00  0.00    -0.062 A 
ATOM     20  H   LIG d   1       5.142  -4.654  -5.584  0.00  0.00     0.062 H 
ATOM     21  C   LIG d   1       7.500  -2.723  -4.136  0.00  0.00    -0.061 A 
ATOM     22  H   LIG d   1       7.581  -4.312  -5.565  0.00  0.00     0.062 H 
ATOM     23  C   LIG d   1       6.685  -1.939  -3.341  0.00  0.00    -0.059 A 
ATOM     24  H   LIG d   1       8.569  -2.574  -4.128  0.00  0.00     0.062 H 
ATOM     25  H   LIG d   1       7.119  -1.177  -2.711  0.00  0.00     0.062 H 
ENDBRANCH  12  15
ENDBRANCH   6  12
ENDBRANCH   4   6
BRANCH   1  26
ATOM     26  S   LIG d   1       3.391   0.241  -7.997  0.00  0.00     0.099 S 
ATOM     27  O   LIG d   1       4.295   1.331  -8.117  0.00  0.00    -0.146 OA
ATOM     28  O   LIG d   1       2.220   0.133  -8.795  0.00  0.00    -0.146 OA
BRANCH  26  29
ATOM     29  C   LIG d   1       4.329  -1.224  -8.276  0.00  0.00     0.113 A 
ATOM     30  C   LIG d   1       3.713  -2.459  -8.222  0.00  0.00    -0.035 A 
ATOM     31  C   LIG d   1       4.448  -3.609  -8.441  0.00  0.00    -0.057 A 
ATOM     32  H   LIG d   1       2.656  -2.527  -8.008  0.00  0.00     0.064 H 
ATOM     33  C   LIG d   1       5.801  -3.523  -8.715  0.00  0.00    -0.050 A 
ATOM     34  H   LIG d   1       3.967  -4.575  -8.399  0.00  0.00     0.062 H 
ATOM     35  C   LIG d   1       6.418  -2.287  -8.764  0.00  0.00    -0.057 A 
ATOM     36  C   LIG d   1       5.681  -1.137  -8.549  0.00  0.00    -0.035 A 
ATOM     37  H   LIG d   1       7.476  -2.219  -8.973  0.00  0.00     0.062 H 
ATOM     38  H   LIG d   1       6.163  -0.171  -8.591  0.00  0.00     0.064 H 
BRANCH  33  39
ATOM     39  C   LIG d   1       6.603  -4.776  -8.954  0.00  0.00    -0.040 C 
ATOM     40  H   LIG d   1       5.927  -5.611  -9.133  0.00  0.00     0.028 H 
ATOM     41  H   LIG d   1       7.246  -4.636  -9.823  0.00  0.00     0.028 H 
ATOM     42  H   LIG d   1       7.216  -4.986  -8.078  0.00  0.00     0.028 H 
ENDBRANCH  33  39
ENDBRANCH  26  29
ENDBRANCH   1  26
TORSDOF 7
ENDMDL
MODEL 8
REMARK VINA RESULT:      -6.2      3.253      6.820
REMARK  7 active torsions:
REMARK  status: ('A' for Active; 'I' for Inactive)
REMARK    1  A    between atoms: C_1  and  C_2 
REMARK    2  A    between atoms: C_5  and  S_8 
REMARK    3  A    between atoms: S_8  and  N_11 
REMARK       I    between atoms: C_12  and  N_14 
REMARK    4  A    between atoms: N_14  and  C_15 
REMARK    5  A    between atoms: C_15  and  C_17 
REMARK    6  A    between atoms: C_15  and  C_18 
REMARK    7  A    between atoms: C_18  and  C_19 
ROOT
ATOM      1  N   LIG d   1       6.586  -1.547  -5.874  0.00  0.00    -0.130 NA
ATOM      2  C   LIG d   1       5.715  -0.609  -6.108  0.00  0.00     0.068 C 
ATOM      3  O   LIG d   1       6.131   0.656  -6.343  0.00  0.00    -0.848 OA
ATOM      4  N   LIG d   1       4.374  -0.903  -6.115  0.00  0.00    -0.337 N 
ATOM      5  H   LIG d   1       4.076  -1.811  -5.946  0.00  0.00     0.147 HD
ENDROOT
BRANCH   4   6
ATOM      6  C   LIG d   1       3.393   0.153  -6.379  0.00  0.00     0.022 C 
ATOM      7  H   LIG d   1       3.907   1.111  -6.471  0.00  0.00     0.050 H 
BRANCH   6   8
ATOM      8  C   LIG d   1       2.650  -0.154  -7.681  0.00  0.00    -0.046 C 
ATOM      9  H   LIG d   1       1.852   0.574  -7.824  0.00  0.00     0.025 H 
ATOM     10  H   LIG d   1       3.347  -0.099  -8.518  0.00  0.00     0.025 H 
ATOM     11  H   LIG d   1       2.223  -1.156  -7.628  0.00  0.00     0.025 H 
ENDBRANCH   6   8
BRANCH   6  12
ATOM     12  C   LIG d   1       2.393   0.220  -5.224  0.00  0.00    -0.009 C 
ATOM     13  H   LIG d   1       1.890   1.186  -5.235  0.00  0.00     0.033 H 
ATOM     14  H   LIG d   1       1.654  -0.576  -5.336  0.00  0.00     0.033 H 
BRANCH  12  15
ATOM     15  C   LIG d   1       3.122   0.047  -3.917  0.00  0.00    -0.046 A 
ATOM     16  C   LIG d   1       3.652   1.148  -3.270  0.00  0.00    -0.059 A 
ATOM     17  C   LIG d   1       4.317   0.990  -2.069  0.00  0.00    -0.061 A 
ATOM     18  H   LIG d   1       3.543   2.132  -3.703  0.00  0.00     0.062 H 
ATOM     19  C   LIG d   1       4.461  -0.270  -1.518  0.00  0.00    -0.062 A 
ATOM     20  H   LIG d   1       4.727   1.851  -1.562  0.00  0.00     0.062 H 
ATOM     21  C   LIG d   1       3.935  -1.372  -2.168  0.00  0.00    -0.061 A 
ATOM     22  H   LIG d   1       4.983  -0.393  -0.581  0.00  0.00     0.062 H 
ATOM     23  C   LIG d   1       3.266  -1.213  -3.367  0.00  0.00    -0.059 A 
ATOM     24  H   LIG d   1       4.048  -2.356  -1.737  0.00  0.00     0.062 H 
ATOM     25  H   LIG d   1       2.856  -2.074  -3.874  0.00  0.00     0.062 H 
ENDBRANCH  12  15
ENDBRANCH   6  12
ENDBRANCH   4   6
BRANCH   1  26
ATOM     26  S   LIG d   1       8.204  -1.191  -5.865  0.00  0.00     0.099 S 
ATOM     27  O   LIG d   1       8.357  -0.017  -5.081  0.00  0.00    -0.146 OA
ATOM     28  O   LIG d   1       8.644  -1.269  -7.214  0.00  0.00    -0.146 OA
BRANCH  26  29
ATOM     29  C   LIG d   1       9.017  -2.489  -4.994  0.00  0.00     0.113 A 
ATOM     30  C   LIG d   1      10.294  -2.871  -5.359  0.00  0.00    -0.035 A 
ATOM     31  C   LIG d   1      10.933  -3.888  -4.675  0.00  0.00    -0.057 A 
ATOM     32  H   LIG d   1      10.793  -2.375  -6.179  0.00  0.00     0.064 H 
ATOM     33  C   LIG d   1      10.296  -4.522  -3.625  0.00  0.00    -0.050 A 
ATOM     34  H   LIG d   1      11.931  -4.187  -4.960  0.00  0.00     0.062 H 
ATOM     35  C   LIG d   1       9.016  -4.143  -3.264  0.00  0.00    -0.057 A 
ATOM     36  C   LIG d   1       8.379  -3.123  -3.945  0.00  0.00    -0.035 A 
ATOM     37  H   LIG d   1       8.515  -4.642  -2.447  0.00  0.00     0.062 H 
ATOM     38  H   LIG d   1       7.381  -2.824  -3.660  0.00  0.00     0.064 H 
BRANCH  33  39
ATOM     39  C   LIG d   1      10.992  -5.632  -2.880  0.00  0.00    -0.040 C 
ATOM     40  H   LIG d   1      10.361  -5.970  -2.059  0.00  0.00     0.028 H 
ATOM     41  H   LIG d   1      11.183  -6.462  -3.559  0.00  0.00     0.028 H 
ATOM     42  H   LIG d   1      11.938  -5.263  -2.483  0.00  0.00     0.028 H 
ENDBRANCH  33  39
ENDBRANCH  26  29
ENDBRANCH   1  26
TORSDOF 7
ENDMDL
MODEL 9
REMARK VINA RESULT:      -6.2      4.680      7.168
REMARK  7 active torsions:
REMARK  status: ('A' for Active; 'I' for Inactive)
REMARK    1  A    between atoms: C_1  and  C_2 
REMARK    2  A    between atoms: C_5  and  S_8 
REMARK    3  A    between atoms: S_8  and  N_11 
REMARK       I    between atoms: C_12  and  N_14 
REMARK    4  A    between atoms: N_14  and  C_15 
REMARK    5  A    between atoms: C_15  and  C_17 
REMARK    6  A    between atoms: C_15  and  C_18 
REMARK    7  A    between atoms: C_18  and  C_19 
ROOT
ATOM      1  N   LIG d   1       8.001  -0.788  -4.861  0.00  0.00    -0.130 NA
ATOM      2  C   LIG d   1       6.783  -1.206  -5.045  0.00  0.00     0.068 C 
ATOM      3  O   LIG d   1       5.952  -0.526  -5.866  0.00  0.00    -0.848 OA
ATOM      4  N   LIG d   1       6.341  -2.338  -4.404  0.00  0.00    -0.337 N 
ATOM      5  H   LIG d   1       6.937  -2.825  -3.815  0.00  0.00     0.147 HD
ENDROOT
BRANCH   4   6
ATOM      6  C   LIG d   1       4.969  -2.808  -4.612  0.00  0.00     0.022 C 
ATOM      7  H   LIG d   1       4.496  -2.214  -5.394  0.00  0.00     0.050 H 
BRANCH   6   8
ATOM      8  C   LIG d   1       4.992  -4.279  -5.032  0.00  0.00    -0.046 C 
ATOM      9  H   LIG d   1       4.058  -4.528  -5.535  0.00  0.00     0.025 H 
ATOM     10  H   LIG d   1       5.828  -4.449  -5.711  0.00  0.00     0.025 H 
ATOM     11  H   LIG d   1       5.108  -4.908  -4.149  0.00  0.00     0.025 H 
ENDBRANCH   6   8
BRANCH   6  12
ATOM     12  C   LIG d   1       4.178  -2.662  -3.311  0.00  0.00    -0.009 C 
ATOM     13  H   LIG d   1       3.202  -3.134  -3.424  0.00  0.00     0.033 H 
ATOM     14  H   LIG d   1       4.723  -3.143  -2.498  0.00  0.00     0.033 H 
BRANCH  12  15
ATOM     15  C   LIG d   1       3.995  -1.200  -2.995  0.00  0.00    -0.046 A 
ATOM     16  C   LIG d   1       3.219  -0.407  -3.821  0.00  0.00    -0.059 A 
ATOM     17  C   LIG d   1       3.048   0.933  -3.530  0.00  0.00    -0.061 A 
ATOM     18  H   LIG d   1       2.744  -0.836  -4.691  0.00  0.00     0.062 H 
ATOM     19  C   LIG d   1       3.660   1.484  -2.419  0.00  0.00    -0.062 A 
ATOM     20  H   LIG d   1       2.438   1.552  -4.172  0.00  0.00     0.062 H 
ATOM     21  C   LIG d   1       4.440   0.692  -1.597  0.00  0.00    -0.061 A 
ATOM     22  H   LIG d   1       3.528   2.532  -2.193  0.00  0.00     0.062 H 
ATOM     23  C   LIG d   1       4.607  -0.650  -1.886  0.00  0.00    -0.059 A 
ATOM     24  H   LIG d   1       4.918   1.122  -0.728  0.00  0.00     0.062 H 
ATOM     25  H   LIG d   1       5.217  -1.268  -1.243  0.00  0.00     0.062 H 
ENDBRANCH  12  15
ENDBRANCH   6  12
ENDBRANCH   4   6
BRANCH   1  26
ATOM     26  S   LIG d   1       8.534   0.577  -5.634  0.00  0.00     0.099 S 
ATOM     27  O   LIG d   1       7.712   1.645  -5.184  0.00  0.00    -0.146 OA
ATOM     28  O   LIG d   1       8.661   0.242  -7.009  0.00  0.00    -0.146 OA
BRANCH  26  29
ATOM     29  C   LIG d   1      10.160   0.909  -5.043  0.00  0.00     0.113 A 
ATOM     30  C   LIG d   1      11.239   0.222  -5.566  0.00  0.00    -0.035 A 
ATOM     31  C   LIG d   1      12.515   0.483  -5.104  0.00  0.00    -0.057 A 
ATOM     32  H   LIG d   1      11.085  -0.519  -6.338  0.00  0.00     0.064 H 
ATOM     33  C   LIG d   1      12.712   1.431  -4.117  0.00  0.00    -0.050 A 
ATOM     34  H   LIG d   1      13.358  -0.054  -5.512  0.00  0.00     0.062 H 
ATOM     35  C   LIG d   1      11.632   2.114  -3.590  0.00  0.00    -0.057 A 
ATOM     36  C   LIG d   1      10.357   1.857  -4.056  0.00  0.00    -0.035 A 
ATOM     37  H   LIG d   1      11.785   2.852  -2.816  0.00  0.00     0.062 H 
ATOM     38  H   LIG d   1       9.513   2.393  -3.647  0.00  0.00     0.064 H 
BRANCH  33  39
ATOM     39  C   LIG d   1      14.104   1.715  -3.612  0.00  0.00    -0.040 C 
ATOM     40  H   LIG d   1      14.192   2.773  -3.367  0.00  0.00     0.028 H 
ATOM     41  H   LIG d   1      14.296   1.118  -2.721  0.00  0.00     0.028 H 
ATOM     42  H   LIG d   1      14.829   1.459  -4.385  0.00  0.00     0.028 H 
ENDBRANCH  33  39
ENDBRANCH  26  29
ENDBRANCH   1  26
TORSDOF 7
ENDMDL
MODEL 10
REMARK VINA RESULT:      -6.2      4.227      6.094
REMARK  7 active torsions:
REMARK  status: ('A' for Active; 'I' for Inactive)
REMARK    1  A    between atoms: C_1  and  C_2 
REMARK    2  A    between atoms: C_5  and  S_8 
REMARK    3  A    between atoms: S_8  and  N_11 
REMARK       I    between atoms: C_12  and  N_14 
REMARK    4  A    between atoms: N_14  and  C_15 
REMARK    5  A    between atoms: C_15  and  C_17 
REMARK    6  A    between atoms: C_15  and  C_18 
REMARK    7  A    between atoms: C_18  and  C_19 
ROOT
ATOM      1  N   LIG d   1       7.574  -0.114  -5.779  0.00  0.00    -0.130 NA
ATOM      2  C   LIG d   1       6.586  -0.958  -5.845  0.00  0.00     0.068 C 
ATOM      3  O   LIG d   1       5.814  -1.010  -6.954  0.00  0.00    -0.848 OA
ATOM      4  N   LIG d   1       6.325  -1.794  -4.787  0.00  0.00    -0.337 N 
ATOM      5  H   LIG d   1       6.878  -1.756  -3.991  0.00  0.00     0.147 HD
ENDROOT
BRANCH   4   6
ATOM      6  C   LIG d   1       5.211  -2.743  -4.861  0.00  0.00     0.022 C 
ATOM      7  H   LIG d   1       4.544  -2.458  -5.675  0.00  0.00     0.050 H 
BRANCH   6   8
ATOM      8  C   LIG d   1       5.756  -4.150  -5.117  0.00  0.00    -0.046 C 
ATOM      9  H   LIG d   1       4.936  -4.813  -5.390  0.00  0.00     0.025 H 
ATOM     10  H   LIG d   1       6.482  -4.115  -5.929  0.00  0.00     0.025 H 
ATOM     11  H   LIG d   1       6.239  -4.522  -4.213  0.00  0.00     0.025 H 
ENDBRANCH   6   8
BRANCH   6  12
ATOM     12  C   LIG d   1       4.439  -2.727  -3.540  0.00  0.00    -0.009 C 
ATOM     13  H   LIG d   1       3.495  -3.256  -3.665  0.00  0.00     0.033 H 
ATOM     14  H   LIG d   1       5.032  -3.219  -2.767  0.00  0.00     0.033 H 
BRANCH  12  15
ATOM     15  C   LIG d   1       4.168  -1.302  -3.133  0.00  0.00    -0.046 A 
ATOM     16  C   LIG d   1       4.691  -0.810  -1.952  0.00  0.00    -0.059 A 
ATOM     17  C   LIG d   1       4.446   0.498  -1.579  0.00  0.00    -0.061 A 
ATOM     18  H   LIG d   1       5.294  -1.448  -1.321  0.00  0.00     0.062 H 
ATOM     19  C   LIG d   1       3.671   1.312  -2.383  0.00  0.00    -0.062 A 
ATOM     20  H   LIG d   1       4.859   0.884  -0.658  0.00  0.00     0.062 H 
ATOM     21  C   LIG d   1       3.143   0.819  -3.562  0.00  0.00    -0.061 A 
ATOM     22  H   LIG d   1       3.477   2.334  -2.091  0.00  0.00     0.062 H 
ATOM     23  C   LIG d   1       3.392  -0.489  -3.937  0.00  0.00    -0.059 A 
ATOM     24  H   LIG d   1       2.537   1.455  -4.191  0.00  0.00     0.062 H 
ATOM     25  H   LIG d   1       2.980  -0.874  -4.857  0.00  0.00     0.062 H 
ENDBRANCH  12  15
ENDBRANCH   6  12
ENDBRANCH   4   6
BRANCH   1  26
ATOM     26  S   LIG d   1       7.889   0.894  -7.055  0.00  0.00     0.099 S 
ATOM     27  O   LIG d   1       6.630   1.344  -7.537  0.00  0.00    -0.146 OA
ATOM     28  O   LIG d   1       8.824   0.220  -7.885  0.00  0.00    -0.146 OA
BRANCH  26  29
ATOM     29  C   LIG d   1       8.716   2.309  -6.409  0.00  0.00     0.113 A 
ATOM     30  C   LIG d   1       8.665   2.580  -5.055  0.00  0.00    -0.035 A 
ATOM     31  C   LIG d   1       9.314   3.690  -4.548  0.00  0.00    -0.057 A 
ATOM     32  H   LIG d   1       8.120   1.924  -4.392  0.00  0.00     0.064 H 
ATOM     33  C   LIG d   1      10.014   4.529  -5.395  0.00  0.00    -0.050 A 
ATOM     34  H   LIG d   1       9.276   3.902  -3.490  0.00  0.00     0.062 H 
ATOM     35  C   LIG d   1      10.059   4.261  -6.750  0.00  0.00    -0.057 A 
ATOM     36  C   LIG d   1       9.414   3.148  -7.257  0.00  0.00    -0.035 A 
ATOM     37  H   LIG d   1      10.601   4.919  -7.414  0.00  0.00     0.062 H 
ATOM     38  H   LIG d   1       9.453   2.936  -8.315  0.00  0.00     0.064 H 
BRANCH  33  39
ATOM     39  C   LIG d   1      10.721   5.740  -4.842  0.00  0.00    -0.040 C 
ATOM     40  H   LIG d   1      10.248   6.043  -3.909  0.00  0.00     0.028 H 
ATOM     41  H   LIG d   1      11.767   5.496  -4.657  0.00  0.00     0.028 H 
ATOM     42  H   LIG d   1      10.660   6.556  -5.562  0.00  0.00     0.028 H 
ENDBRANCH  33  39
ENDBRANCH  26  29
ENDBRANCH   1  26
TORSDOF 7
ENDMDL
