MODEL 1
REMARK VINA RESULT:      -5.5      0.000      0.000
REMARK  8 active torsions:
REMARK  status: ('A' for Active; 'I' for Inactive)
REMARK    1  A    between atoms: C_1  and  C_2 
REMARK    2  A    between atoms: C_2  and  C_3 
REMARK    3  A    between atoms: C_3  and  C_5 
REMARK    4  A    between atoms: C_3  and  C_6 
REMARK    5  A    between atoms: N_10  and  C_14 
REMARK    6  A    between atoms: C_14  and  C_15 
REMARK    7  A    between atoms: C_15  and  C_16 
REMARK    8  A    between atoms: C_16  and  N_17 
ROOT
ATOM      1  C   LIG d   1       4.516  -0.475  -4.094  0.00  0.00     0.104 A 
ATOM      2  H   LIG d   1       3.868   0.399  -4.144  0.00  0.00     0.060 H 
ATOM      3  C   LIG d   1       5.800  -0.237  -4.864  0.00  0.00     0.244 A 
ATOM      4  O   LIG d   1       6.640   0.609  -4.644  0.00  0.00    -0.273 OA
ATOM      5  N   LIG d   1       5.813  -1.160  -5.846  0.00  0.00    -0.224 N 
ATOM      6  C   LIG d   1       4.730  -1.945  -5.800  0.00  0.00     0.309 A 
ATOM      7  O   LIG d   1       4.521  -2.853  -6.579  0.00  0.00    -0.252 OA
ATOM      8  N   LIG d   1       3.901  -1.616  -4.793  0.00  0.00    -0.287 N 
ATOM      9  H   LIG d   1       3.061  -2.047  -4.572  0.00  0.00     0.151 HD
ENDROOT
BRANCH   5  10
ATOM     10  C   LIG d   1       6.883  -1.292  -6.838  0.00  0.00     0.025 C 
ATOM     11  H   LIG d   1       6.750  -2.219  -7.395  0.00  0.00     0.047 H 
ATOM     12  H   LIG d   1       7.849  -1.308  -6.331  0.00  0.00     0.047 H 
BRANCH  10  13
ATOM     13  C   LIG d   1       6.834  -0.105  -7.803  0.00  0.00    -0.018 C 
ATOM     14  H   LIG d   1       7.795  -0.008  -8.307  0.00  0.00     0.030 H 
ATOM     15  H   LIG d   1       6.623   0.807  -7.245  0.00  0.00     0.030 H 
BRANCH  13  16
ATOM     16  C   LIG d   1       5.734  -0.335  -8.841  0.00  0.00     0.026 C 
ATOM     17  H   LIG d   1       5.228  -1.277  -8.631  0.00  0.00     0.049 H 
ATOM     18  H   LIG d   1       6.177  -0.374  -9.836  0.00  0.00     0.049 H 
BRANCH  16  19
ATOM     19  N   LIG d   1       4.768   0.763  -8.779  0.00  0.00    -0.337 N 
ATOM     20  C   LIG d   1       3.657   0.811  -8.013  0.00  0.00     0.096 A 
ATOM     21  N   LIG d   1       3.048   1.946  -8.228  0.00  0.00    -0.244 NA
ATOM     22  H   LIG d   1       3.327   0.038  -7.334  0.00  0.00     0.103 H 
ATOM     23  C   LIG d   1       3.742   2.655  -9.130  0.00  0.00     0.045 A 
ATOM     24  C   LIG d   1       4.820   1.933  -9.488  0.00  0.00     0.024 A 
ATOM     25  H   LIG d   1       3.480   3.634  -9.504  0.00  0.00     0.085 H 
ATOM     26  H   LIG d   1       5.582   2.222 -10.197  0.00  0.00     0.083 H 
ENDBRANCH  16  19
ENDBRANCH  13  16
ENDBRANCH  10  13
ENDBRANCH   5  10
BRANCH   1  27
ATOM     27  C   LIG d   1       4.825  -0.836  -2.641  0.00  0.00    -0.017 C 
ATOM     28  H   LIG d   1       5.870  -1.131  -2.554  0.00  0.00     0.032 H 
BRANCH  27  29
ATOM     29  C   LIG d   1       4.560   0.377  -1.746  0.00  0.00    -0.051 C 
ATOM     30  H   LIG d   1       4.132   0.044  -0.800  0.00  0.00     0.027 H 
ATOM     31  H   LIG d   1       5.498   0.900  -1.556  0.00  0.00     0.027 H 
BRANCH  29  32
ATOM     32  C   LIG d   1       3.581   1.322  -2.444  0.00  0.00    -0.065 C 
ATOM     33  H   LIG d   1       2.867   1.707  -1.716  0.00  0.00     0.023 H 
ATOM     34  H   LIG d   1       4.131   2.152  -2.889  0.00  0.00     0.023 H 
ATOM     35  H   LIG d   1       3.047   0.781  -3.226  0.00  0.00     0.023 H 
ENDBRANCH  29  32
ENDBRANCH  27  29
BRANCH  27  36
ATOM     36  C   LIG d   1       3.929  -1.997  -2.202  0.00  0.00    -0.060 C 
ATOM     37  H   LIG d   1       2.911  -1.635  -2.056  0.00  0.00     0.023 H 
ATOM     38  H   LIG d   1       3.933  -2.770  -2.970  0.00  0.00     0.023 H 
ATOM     39  H   LIG d   1       4.304  -2.412  -1.266  0.00  0.00     0.023 H 
ENDBRANCH  27  36
ENDBRANCH   1  27
TORSDOF 8
ENDMDL
MODEL 2
REMARK VINA RESULT:      -5.1      1.992      5.113
REMARK  8 active torsions:
REMARK  status: ('A' for Active; 'I' for Inactive)
REMARK    1  A    between atoms: C_1  and  C_2 
REMARK    2  A    between atoms: C_2  and  C_3 
REMARK    3  A    between atoms: C_3  and  C_5 
REMARK    4  A    between atoms: C_3  and  C_6 
REMARK    5  A    between atoms: N_10  and  C_14 
REMARK    6  A    between atoms: C_14  and  C_15 
REMARK    7  A    between atoms: C_15  and  C_16 
REMARK    8  A    between atoms: C_16  and  N_17 
ROOT
ATOM      1  C   LIG d   1       4.111  -0.007  -8.039  0.00  0.00     0.104 A 
ATOM      2  H   LIG d   1       4.875   0.734  -8.275  0.00  0.00     0.060 H 
ATOM      3  C   LIG d   1       4.151  -0.370  -6.567  0.00  0.00     0.244 A 
ATOM      4  O   LIG d   1       3.967   0.369  -5.625  0.00  0.00    -0.273 OA
ATOM      5  N   LIG d   1       4.437  -1.687  -6.524  0.00  0.00    -0.224 N 
ATOM      6  C   LIG d   1       4.574  -2.202  -7.752  0.00  0.00     0.309 A 
ATOM      7  O   LIG d   1       4.828  -3.371  -7.970  0.00  0.00    -0.252 OA
ATOM      8  N   LIG d   1       4.399  -1.282  -8.717  0.00  0.00    -0.287 N 
ATOM      9  H   LIG d   1       4.451  -1.430  -9.674  0.00  0.00     0.151 HD
ENDROOT
BRANCH   5  10
ATOM     10  C   LIG d   1       4.574  -2.460  -5.288  0.00  0.00     0.025 C 
ATOM     11  H   LIG d   1       4.237  -3.482  -5.459  0.00  0.00     0.047 H 
ATOM     12  H   LIG d   1       3.968  -2.003  -4.504  0.00  0.00     0.047 H 
BRANCH  10  13
ATOM     13  C   LIG d   1       6.041  -2.472  -4.853  0.00  0.00    -0.018 C 
ATOM     14  H   LIG d   1       6.619  -1.818  -5.507  0.00  0.00     0.030 H 
ATOM     15  H   LIG d   1       6.431  -3.488  -4.920  0.00  0.00     0.030 H 
BRANCH  13  16
ATOM     16  C   LIG d   1       6.151  -1.977  -3.410  0.00  0.00     0.026 C 
ATOM     17  H   LIG d   1       6.989  -2.471  -2.919  0.00  0.00     0.049 H 
ATOM     18  H   LIG d   1       5.228  -2.211  -2.876  0.00  0.00     0.049 H 
BRANCH  16  19
ATOM     19  N   LIG d   1       6.365  -0.529  -3.405  0.00  0.00    -0.337 N 
ATOM     20  C   LIG d   1       5.608   0.391  -2.769  0.00  0.00     0.096 A 
ATOM     21  N   LIG d   1       6.108   1.575  -2.997  0.00  0.00    -0.244 NA
ATOM     22  H   LIG d   1       4.734   0.181  -2.170  0.00  0.00     0.103 H 
ATOM     23  C   LIG d   1       7.191   1.454  -3.779  0.00  0.00     0.045 A 
ATOM     24  C   LIG d   1       7.368   0.147  -4.046  0.00  0.00     0.024 A 
ATOM     25  H   LIG d   1       7.811   2.264  -4.133  0.00  0.00     0.085 H 
ATOM     26  H   LIG d   1       8.152  -0.287  -4.650  0.00  0.00     0.083 H 
ENDBRANCH  16  19
ENDBRANCH  13  16
ENDBRANCH  10  13
ENDBRANCH   5  10
BRANCH   1  27
ATOM     27  C   LIG d   1       2.723   0.507  -8.423  0.00  0.00    -0.017 C 
ATOM     28  H   LIG d   1       2.001   0.209  -7.664  0.00  0.00     0.032 H 
BRANCH  27  29
ATOM     29  C   LIG d   1       2.755   2.034  -8.525  0.00  0.00    -0.051 C 
ATOM     30  H   LIG d   1       1.878   2.379  -9.074  0.00  0.00     0.027 H 
ATOM     31  H   LIG d   1       2.750   2.466  -7.524  0.00  0.00     0.027 H 
BRANCH  29  32
ATOM     32  C   LIG d   1       4.023   2.470  -9.262  0.00  0.00    -0.065 C 
ATOM     33  H   LIG d   1       4.580   1.588  -9.579  0.00  0.00     0.023 H 
ATOM     34  H   LIG d   1       3.750   3.061 -10.136  0.00  0.00     0.023 H 
ATOM     35  H   LIG d   1       4.642   3.072  -8.596  0.00  0.00     0.023 H 
ENDBRANCH  29  32
ENDBRANCH  27  29
BRANCH  27  36
ATOM     36  C   LIG d   1       2.315  -0.085  -9.775  0.00  0.00    -0.060 C 
ATOM     37  H   LIG d   1       3.117   0.074 -10.497  0.00  0.00     0.023 H 
ATOM     38  H   LIG d   1       2.133  -1.153  -9.663  0.00  0.00     0.023 H 
ATOM     39  H   LIG d   1       1.408   0.405 -10.127  0.00  0.00     0.023 H 
ENDBRANCH  27  36
ENDBRANCH   1  27
TORSDOF 8
ENDMDL
MODEL 3
REMARK VINA RESULT:      -5.0      1.870      2.067
REMARK  8 active torsions:
REMARK  status: ('A' for Active; 'I' for Inactive)
REMARK    1  A    between atoms: C_1  and  C_2 
REMARK    2  A    between atoms: C_2  and  C_3 
REMARK    3  A    between atoms: C_3  and  C_5 
REMARK    4  A    between atoms: C_3  and  C_6 
REMARK    5  A    between atoms: N_10  and  C_14 
REMARK    6  A    between atoms: C_14  and  C_15 
REMARK    7  A    between atoms: C_15  and  C_16 
REMARK    8  A    between atoms: C_16  and  N_17 
ROOT
ATOM      1  C   LIG d   1       4.553  -0.397  -4.305  0.00  0.00     0.104 A 
ATOM      2  H   LIG d   1       5.271   0.327  -3.920  0.00  0.00     0.060 H 
ATOM      3  C   LIG d   1       5.242  -1.427  -5.179  0.00  0.00     0.244 A 
ATOM      4  O   LIG d   1       6.108  -2.207  -4.847  0.00  0.00    -0.273 OA
ATOM      5  N   LIG d   1       4.693  -1.292  -6.403  0.00  0.00    -0.224 N 
ATOM      6  C   LIG d   1       3.757  -0.335  -6.421  0.00  0.00     0.309 A 
ATOM      7  O   LIG d   1       3.119  -0.034  -7.410  0.00  0.00    -0.252 OA
ATOM      8  N   LIG d   1       3.601   0.254  -5.222  0.00  0.00    -0.287 N 
ATOM      9  H   LIG d   1       2.983   0.968  -5.004  0.00  0.00     0.151 HD
ENDROOT
BRANCH   5  10
ATOM     10  C   LIG d   1       5.070  -2.097  -7.567  0.00  0.00     0.025 C 
ATOM     11  H   LIG d   1       4.214  -2.193  -8.235  0.00  0.00     0.047 H 
ATOM     12  H   LIG d   1       5.387  -3.087  -7.237  0.00  0.00     0.047 H 
BRANCH  10  13
ATOM     13  C   LIG d   1       6.222  -1.415  -8.308  0.00  0.00    -0.018 C 
ATOM     14  H   LIG d   1       7.164  -1.883  -8.024  0.00  0.00     0.030 H 
ATOM     15  H   LIG d   1       6.248  -0.357  -8.044  0.00  0.00     0.030 H 
BRANCH  13  16
ATOM     16  C   LIG d   1       6.014  -1.559  -9.817  0.00  0.00     0.026 C 
ATOM     17  H   LIG d   1       5.664  -2.566 -10.041  0.00  0.00     0.049 H 
ATOM     18  H   LIG d   1       6.959  -1.379 -10.332  0.00  0.00     0.049 H 
BRANCH  16  19
ATOM     19  N   LIG d   1       5.019  -0.584 -10.268  0.00  0.00    -0.337 N 
ATOM     20  C   LIG d   1       3.825  -0.861 -10.834  0.00  0.00     0.096 A 
ATOM     21  N   LIG d   1       3.217   0.263 -11.101  0.00  0.00    -0.244 NA
ATOM     22  H   LIG d   1       3.438  -1.849 -11.033  0.00  0.00     0.103 H 
ATOM     23  C   LIG d   1       3.994   1.287 -10.719  0.00  0.00     0.045 A 
ATOM     24  C   LIG d   1       5.126   0.779 -10.196  0.00  0.00     0.024 A 
ATOM     25  H   LIG d   1       3.754   2.335 -10.815  0.00  0.00     0.085 H 
ATOM     26  H   LIG d   1       5.958   1.339  -9.795  0.00  0.00     0.083 H 
ENDBRANCH  16  19
ENDBRANCH  13  16
ENDBRANCH  10  13
ENDBRANCH   5  10
BRANCH   1  27
ATOM     27  C   LIG d   1       3.811  -1.083  -3.157  0.00  0.00    -0.017 C 
ATOM     28  H   LIG d   1       3.865  -2.164  -3.284  0.00  0.00     0.032 H 
BRANCH  27  29
ATOM     29  C   LIG d   1       4.458  -0.693  -1.826  0.00  0.00    -0.051 C 
ATOM     30  H   LIG d   1       3.863  -1.091  -1.003  0.00  0.00     0.027 H 
ATOM     31  H   LIG d   1       5.467  -1.104  -1.777  0.00  0.00     0.027 H 
BRANCH  29  32
ATOM     32  C   LIG d   1       4.523   0.832  -1.717  0.00  0.00    -0.065 C 
ATOM     33  H   LIG d   1       3.871   1.166  -0.910  0.00  0.00     0.023 H 
ATOM     34  H   LIG d   1       5.548   1.138  -1.507  0.00  0.00     0.023 H 
ATOM     35  H   LIG d   1       4.196   1.277  -2.657  0.00  0.00     0.023 H 
ENDBRANCH  29  32
ENDBRANCH  27  29
BRANCH  27  36
ATOM     36  C   LIG d   1       2.345  -0.642  -3.159  0.00  0.00    -0.060 C 
ATOM     37  H   LIG d   1       1.939  -0.738  -4.166  0.00  0.00     0.023 H 
ATOM     38  H   LIG d   1       1.776  -1.271  -2.476  0.00  0.00     0.023 H 
ATOM     39  H   LIG d   1       2.278   0.398  -2.838  0.00  0.00     0.023 H 
ENDBRANCH  27  36
ENDBRANCH   1  27
TORSDOF 8
ENDMDL
MODEL 4
REMARK VINA RESULT:      -4.9      2.582      4.358
REMARK  8 active torsions:
REMARK  status: ('A' for Active; 'I' for Inactive)
REMARK    1  A    between atoms: C_1  and  C_2 
REMARK    2  A    between atoms: C_2  and  C_3 
REMARK    3  A    between atoms: C_3  and  C_5 
REMARK    4  A    between atoms: C_3  and  C_6 
REMARK    5  A    between atoms: N_10  and  C_14 
REMARK    6  A    between atoms: C_14  and  C_15 
REMARK    7  A    between atoms: C_15  and  C_16 
REMARK    8  A    between atoms: C_16  and  N_17 
ROOT
ATOM      1  C   LIG d   1       4.588   0.227  -4.073  0.00  0.00     0.104 A 
ATOM      2  H   LIG d   1       4.667   1.298  -4.257  0.00  0.00     0.060 H 
ATOM      3  C   LIG d   1       5.945  -0.440  -4.180  0.00  0.00     0.244 A 
ATOM      4  O   LIG d   1       6.923  -0.223  -3.498  0.00  0.00    -0.273 OA
ATOM      5  N   LIG d   1       5.840  -1.322  -5.194  0.00  0.00    -0.224 N 
ATOM      6  C   LIG d   1       4.615  -1.311  -5.732  0.00  0.00     0.309 A 
ATOM      7  O   LIG d   1       4.276  -2.023  -6.656  0.00  0.00    -0.252 OA
ATOM      8  N   LIG d   1       3.799  -0.424  -5.134  0.00  0.00    -0.287 N 
ATOM      9  H   LIG d   1       2.872  -0.247  -5.358  0.00  0.00     0.151 HD
ENDROOT
BRANCH   5  10
ATOM     10  C   LIG d   1       6.929  -2.190  -5.646  0.00  0.00     0.025 C 
ATOM     11  H   LIG d   1       7.873  -1.646  -5.593  0.00  0.00     0.047 H 
ATOM     12  H   LIG d   1       6.745  -2.497  -6.677  0.00  0.00     0.047 H 
BRANCH  10  13
ATOM     13  C   LIG d   1       7.002  -3.428  -4.751  0.00  0.00    -0.018 C 
ATOM     14  H   LIG d   1       6.110  -3.479  -4.128  0.00  0.00     0.030 H 
ATOM     15  H   LIG d   1       7.886  -3.365  -4.115  0.00  0.00     0.030 H 
BRANCH  13  16
ATOM     16  C   LIG d   1       7.090  -4.684  -5.621  0.00  0.00     0.026 C 
ATOM     17  H   LIG d   1       7.484  -5.509  -5.030  0.00  0.00     0.049 H 
ATOM     18  H   LIG d   1       7.752  -4.493  -6.467  0.00  0.00     0.049 H 
BRANCH  16  19
ATOM     19  N   LIG d   1       5.755  -5.029  -6.115  0.00  0.00    -0.337 N 
ATOM     20  C   LIG d   1       4.644  -5.202  -5.367  0.00  0.00     0.096 A 
ATOM     21  N   LIG d   1       3.650  -5.501  -6.157  0.00  0.00    -0.244 NA
ATOM     22  H   LIG d   1       4.588  -5.108  -4.292  0.00  0.00     0.103 H 
ATOM     23  C   LIG d   1       4.085  -5.530  -7.425  0.00  0.00     0.045 A 
ATOM     24  C   LIG d   1       5.400  -5.238  -7.420  0.00  0.00     0.024 A 
ATOM     25  H   LIG d   1       3.487  -5.749  -8.297  0.00  0.00     0.085 H 
ATOM     26  H   LIG d   1       6.049  -5.178  -8.281  0.00  0.00     0.083 H 
ENDBRANCH  16  19
ENDBRANCH  13  16
ENDBRANCH  10  13
ENDBRANCH   5  10
BRANCH   1  27
ATOM     27  C   LIG d   1       3.969  -0.041  -2.701  0.00  0.00    -0.017 C 
ATOM     28  H   LIG d   1       2.891  -0.157  -2.804  0.00  0.00     0.032 H 
BRANCH  27  29
ATOM     29  C   LIG d   1       4.567  -1.321  -2.112  0.00  0.00    -0.051 C 
ATOM     30  H   LIG d   1       5.513  -1.540  -2.609  0.00  0.00     0.027 H 
ATOM     31  H   LIG d   1       4.740  -1.184  -1.045  0.00  0.00     0.027 H 
BRANCH  29  32
ATOM     32  C   LIG d   1       3.596  -2.483  -2.328  0.00  0.00    -0.065 C 
ATOM     33  H   LIG d   1       3.310  -2.901  -1.362  0.00  0.00     0.023 H 
ATOM     34  H   LIG d   1       2.706  -2.123  -2.845  0.00  0.00     0.023 H 
ATOM     35  H   LIG d   1       4.079  -3.254  -2.929  0.00  0.00     0.023 H 
ENDBRANCH  29  32
ENDBRANCH  27  29
BRANCH  27  36
ATOM     36  C   LIG d   1       4.267   1.136  -1.768  0.00  0.00    -0.060 C 
ATOM     37  H   LIG d   1       4.173   0.810  -0.731  0.00  0.00     0.023 H 
ATOM     38  H   LIG d   1       5.281   1.492  -1.946  0.00  0.00     0.023 H 
ATOM     39  H   LIG d   1       3.558   1.941  -1.961  0.00  0.00     0.023 H 
ENDBRANCH  27  36
ENDBRANCH   1  27
TORSDOF 8
ENDMDL
MODEL 5
REMARK VINA RESULT:      -4.8      4.490      5.434
REMARK  8 active torsions:
REMARK  status: ('A' for Active; 'I' for Inactive)
REMARK    1  A    between atoms: C_1  and  C_2 
REMARK    2  A    between atoms: C_2  and  C_3 
REMARK    3  A    between atoms: C_3  and  C_5 
REMARK    4  A    between atoms: C_3  and  C_6 
REMARK    5  A    between atoms: N_10  and  C_14 
REMARK    6  A    between atoms: C_14  and  C_15 
REMARK    7  A    between atoms: C_15  and  C_16 
REMARK    8  A    between atoms: C_16  and  N_17 
ROOT
ATOM      1  C   LIG d   1       5.221  -0.360  -4.077  0.00  0.00     0.104 A 
ATOM      2  H   LIG d   1       4.310   0.082  -4.479  0.00  0.00     0.060 H 
ATOM      3  C   LIG d   1       6.086   0.696  -3.417  0.00  0.00     0.244 A 
ATOM      4  O   LIG d   1       5.798   1.388  -2.465  0.00  0.00    -0.273 OA
ATOM      5  N   LIG d   1       7.241   0.708  -4.113  0.00  0.00    -0.224 N 
ATOM      6  C   LIG d   1       7.228  -0.190  -5.105  0.00  0.00     0.309 A 
ATOM      7  O   LIG d   1       8.159  -0.369  -5.866  0.00  0.00    -0.252 OA
ATOM      8  N   LIG d   1       6.072  -0.874  -5.164  0.00  0.00    -0.287 N 
ATOM      9  H   LIG d   1       5.842  -1.570  -5.799  0.00  0.00     0.151 HD
ENDROOT
BRANCH   5  10
ATOM     10  C   LIG d   1       8.371   1.590  -3.816  0.00  0.00     0.025 C 
ATOM     11  H   LIG d   1       9.304   1.042  -3.947  0.00  0.00     0.047 H 
ATOM     12  H   LIG d   1       8.298   1.941  -2.786  0.00  0.00     0.047 H 
BRANCH  10  13
ATOM     13  C   LIG d   1       8.346   2.790  -4.765  0.00  0.00    -0.018 C 
ATOM     14  H   LIG d   1       7.616   3.518  -4.411  0.00  0.00     0.030 H 
ATOM     15  H   LIG d   1       8.068   2.456  -5.765  0.00  0.00     0.030 H 
BRANCH  13  16
ATOM     16  C   LIG d   1       9.732   3.436  -4.809  0.00  0.00     0.026 C 
ATOM     17  H   LIG d   1       9.949   3.762  -5.826  0.00  0.00     0.049 H 
ATOM     18  H   LIG d   1      10.481   2.709  -4.493  0.00  0.00     0.049 H 
BRANCH  16  19
ATOM     19  N   LIG d   1       9.761   4.591  -3.909  0.00  0.00    -0.337 N 
ATOM     20  C   LIG d   1       9.384   5.852  -4.211  0.00  0.00     0.096 A 
ATOM     21  N   LIG d   1       9.553   6.603  -3.157  0.00  0.00    -0.244 NA
ATOM     22  H   LIG d   1       9.006   6.183  -5.167  0.00  0.00     0.103 H 
ATOM     23  C   LIG d   1      10.039   5.856  -2.155  0.00  0.00     0.045 A 
ATOM     24  C   LIG d   1      10.177   4.594  -2.605  0.00  0.00     0.024 A 
ATOM     25  H   LIG d   1      10.277   6.205  -1.162  0.00  0.00     0.085 H 
ATOM     26  H   LIG d   1      10.544   3.747  -2.044  0.00  0.00     0.083 H 
ENDBRANCH  16  19
ENDBRANCH  13  16
ENDBRANCH  10  13
ENDBRANCH   5  10
BRANCH   1  27
ATOM     27  C   LIG d   1       4.887  -1.473  -3.082  0.00  0.00    -0.017 C 
ATOM     28  H   LIG d   1       5.662  -1.521  -2.317  0.00  0.00     0.032 H 
BRANCH  27  29
ATOM     29  C   LIG d   1       3.537  -1.180  -2.424  0.00  0.00    -0.051 C 
ATOM     30  H   LIG d   1       3.128  -2.103  -2.009  0.00  0.00     0.027 H 
ATOM     31  H   LIG d   1       3.672  -0.451  -1.624  0.00  0.00     0.027 H 
BRANCH  29  32
ATOM     32  C   LIG d   1       2.571  -0.619  -3.468  0.00  0.00    -0.065 C 
ATOM     33  H   LIG d   1       2.774  -1.079  -4.435  0.00  0.00     0.023 H 
ATOM     34  H   LIG d   1       1.545  -0.838  -3.169  0.00  0.00     0.023 H 
ATOM     35  H   LIG d   1       2.704   0.461  -3.544  0.00  0.00     0.023 H 
ENDBRANCH  29  32
ENDBRANCH  27  29
BRANCH  27  36
ATOM     36  C   LIG d   1       4.814  -2.813  -3.819  0.00  0.00    -0.060 C 
ATOM     37  H   LIG d   1       3.952  -3.377  -3.463  0.00  0.00     0.023 H 
ATOM     38  H   LIG d   1       4.714  -2.633  -4.889  0.00  0.00     0.023 H 
ATOM     39  H   LIG d   1       5.724  -3.382  -3.630  0.00  0.00     0.023 H 
ENDBRANCH  27  36
ENDBRANCH   1  27
TORSDOF 8
ENDMDL
MODEL 6
REMARK VINA RESULT:      -4.8      2.974      5.040
REMARK  8 active torsions:
REMARK  status: ('A' for Active; 'I' for Inactive)
REMARK    1  A    between atoms: C_1  and  C_2 
REMARK    2  A    between atoms: C_2  and  C_3 
REMARK    3  A    between atoms: C_3  and  C_5 
REMARK    4  A    between atoms: C_3  and  C_6 
REMARK    5  A    between atoms: N_10  and  C_14 
REMARK    6  A    between atoms: C_14  and  C_15 
REMARK    7  A    between atoms: C_15  and  C_16 
REMARK    8  A    between atoms: C_16  and  N_17 
ROOT
ATOM      1  C   LIG d   1       8.139   1.392  -4.950  0.00  0.00     0.104 A 
ATOM      2  H   LIG d   1       7.880   1.593  -5.989  0.00  0.00     0.060 H 
ATOM      3  C   LIG d   1       8.086  -0.095  -4.659  0.00  0.00     0.244 A 
ATOM      4  O   LIG d   1       8.756  -0.965  -5.172  0.00  0.00    -0.273 OA
ATOM      5  N   LIG d   1       7.137  -0.249  -3.714  0.00  0.00    -0.224 N 
ATOM      6  C   LIG d   1       6.593   0.923  -3.366  0.00  0.00     0.309 A 
ATOM      7  O   LIG d   1       5.720   1.041  -2.529  0.00  0.00    -0.252 OA
ATOM      8  N   LIG d   1       7.123   1.957  -4.044  0.00  0.00    -0.287 N 
ATOM      9  H   LIG d   1       6.883   2.892  -3.955  0.00  0.00     0.151 HD
ENDROOT
BRANCH   5  10
ATOM     10  C   LIG d   1       6.752  -1.538  -3.137  0.00  0.00     0.025 C 
ATOM     11  H   LIG d   1       6.211  -1.372  -2.205  0.00  0.00     0.047 H 
ATOM     12  H   LIG d   1       7.647  -2.129  -2.937  0.00  0.00     0.047 H 
BRANCH  10  13
ATOM     13  C   LIG d   1       5.855  -2.292  -4.121  0.00  0.00    -0.018 C 
ATOM     14  H   LIG d   1       6.155  -3.339  -4.157  0.00  0.00     0.030 H 
ATOM     15  H   LIG d   1       5.955  -1.851  -5.114  0.00  0.00     0.030 H 
BRANCH  13  16
ATOM     16  C   LIG d   1       4.398  -2.193  -3.664  0.00  0.00     0.026 C 
ATOM     17  H   LIG d   1       4.366  -2.038  -2.586  0.00  0.00     0.049 H 
ATOM     18  H   LIG d   1       3.876  -3.118  -3.915  0.00  0.00     0.049 H 
BRANCH  16  19
ATOM     19  N   LIG d   1       3.750  -1.067  -4.340  0.00  0.00    -0.337 N 
ATOM     20  C   LIG d   1       4.037  -0.601  -5.574  0.00  0.00     0.096 A 
ATOM     21  N   LIG d   1       3.253   0.410  -5.833  0.00  0.00    -0.244 NA
ATOM     22  H   LIG d   1       4.790  -0.999  -6.238  0.00  0.00     0.103 H 
ATOM     23  C   LIG d   1       2.446   0.624  -4.783  0.00  0.00     0.045 A 
ATOM     24  C   LIG d   1       2.741  -0.289  -3.838  0.00  0.00     0.024 A 
ATOM     25  H   LIG d   1       1.693   1.393  -4.708  0.00  0.00     0.085 H 
ATOM     26  H   LIG d   1       2.272  -0.390  -2.871  0.00  0.00     0.083 H 
ENDBRANCH  16  19
ENDBRANCH  13  16
ENDBRANCH  10  13
ENDBRANCH   5  10
BRANCH   1  27
ATOM     27  C   LIG d   1       9.524   1.951  -4.621  0.00  0.00    -0.017 C 
ATOM     28  H   LIG d   1      10.111   1.189  -4.109  0.00  0.00     0.032 H 
BRANCH  27  29
ATOM     29  C   LIG d   1      10.231   2.356  -5.916  0.00  0.00    -0.051 C 
ATOM     30  H   LIG d   1      10.858   3.229  -5.730  0.00  0.00     0.027 H 
ATOM     31  H   LIG d   1      10.853   1.530  -6.265  0.00  0.00     0.027 H 
BRANCH  29  32
ATOM     32  C   LIG d   1       9.188   2.694  -6.983  0.00  0.00    -0.065 C 
ATOM     33  H   LIG d   1       9.053   3.775  -7.027  0.00  0.00     0.023 H 
ATOM     34  H   LIG d   1       9.529   2.330  -7.953  0.00  0.00     0.023 H 
ATOM     35  H   LIG d   1       8.241   2.219  -6.729  0.00  0.00     0.023 H 
ENDBRANCH  29  32
ENDBRANCH  27  29
BRANCH  27  36
ATOM     36  C   LIG d   1       9.379   3.177  -3.716  0.00  0.00    -0.060 C 
ATOM     37  H   LIG d   1       8.387   3.609  -3.846  0.00  0.00     0.023 H 
ATOM     38  H   LIG d   1       9.511   2.878  -2.676  0.00  0.00     0.023 H 
ATOM     39  H   LIG d   1      10.135   3.916  -3.980  0.00  0.00     0.023 H 
ENDBRANCH  27  36
ENDBRANCH   1  27
TORSDOF 8
ENDMDL
MODEL 7
REMARK VINA RESULT:      -4.8      3.863      6.200
REMARK  8 active torsions:
REMARK  status: ('A' for Active; 'I' for Inactive)
REMARK    1  A    between atoms: C_1  and  C_2 
REMARK    2  A    between atoms: C_2  and  C_3 
REMARK    3  A    between atoms: C_3  and  C_5 
REMARK    4  A    between atoms: C_3  and  C_6 
REMARK    5  A    between atoms: N_10  and  C_14 
REMARK    6  A    between atoms: C_14  and  C_15 
REMARK    7  A    between atoms: C_15  and  C_16 
REMARK    8  A    between atoms: C_16  and  N_17 
ROOT
ATOM      1  C   LIG d   1       4.360  -1.316  -4.368  0.00  0.00     0.104 A 
ATOM      2  H   LIG d   1       3.749  -0.653  -4.980  0.00  0.00     0.060 H 
ATOM      3  C   LIG d   1       5.822  -1.209  -4.754  0.00  0.00     0.244 A 
ATOM      4  O   LIG d   1       6.525  -0.224  -4.692  0.00  0.00    -0.273 OA
ATOM      5  N   LIG d   1       6.176  -2.437  -5.184  0.00  0.00    -0.224 N 
ATOM      6  C   LIG d   1       5.154  -3.297  -5.117  0.00  0.00     0.309 A 
ATOM      7  O   LIG d   1       5.230  -4.464  -5.445  0.00  0.00    -0.252 OA
ATOM      8  N   LIG d   1       4.032  -2.725  -4.644  0.00  0.00    -0.287 N 
ATOM      9  H   LIG d   1       3.174  -3.157  -4.511  0.00  0.00     0.151 HD
ENDROOT
BRANCH   5  10
ATOM     10  C   LIG d   1       7.516  -2.787  -5.661  0.00  0.00     0.025 C 
ATOM     11  H   LIG d   1       7.986  -1.908  -6.103  0.00  0.00     0.047 H 
ATOM     12  H   LIG d   1       7.440  -3.575  -6.411  0.00  0.00     0.047 H 
BRANCH  10  13
ATOM     13  C   LIG d   1       8.363  -3.282  -4.487  0.00  0.00    -0.018 C 
ATOM     14  H   LIG d   1       7.747  -3.330  -3.589  0.00  0.00     0.030 H 
ATOM     15  H   LIG d   1       9.192  -2.593  -4.322  0.00  0.00     0.030 H 
BRANCH  13  16
ATOM     16  C   LIG d   1       8.913  -4.674  -4.805  0.00  0.00     0.026 C 
ATOM     17  H   LIG d   1       9.806  -4.580  -5.421  0.00  0.00     0.049 H 
ATOM     18  H   LIG d   1       8.157  -5.247  -5.344  0.00  0.00     0.049 H 
BRANCH  16  19
ATOM     19  N   LIG d   1       9.250  -5.362  -3.557  0.00  0.00    -0.337 N 
ATOM     20  C   LIG d   1       9.616  -4.780  -2.395  0.00  0.00     0.096 A 
ATOM     21  N   LIG d   1       9.836  -5.713  -1.510  0.00  0.00    -0.244 NA
ATOM     22  H   LIG d   1       9.710  -3.717  -2.226  0.00  0.00     0.103 H 
ATOM     23  C   LIG d   1       9.622  -6.913  -2.070  0.00  0.00     0.045 A 
ATOM     24  C   LIG d   1       9.255  -6.715  -3.350  0.00  0.00     0.024 A 
ATOM     25  H   LIG d   1       9.726  -7.869  -1.580  0.00  0.00     0.085 H 
ATOM     26  H   LIG d   1       9.010  -7.478  -4.075  0.00  0.00     0.083 H 
ENDBRANCH  16  19
ENDBRANCH  13  16
ENDBRANCH  10  13
ENDBRANCH   5  10
BRANCH   1  27
ATOM     27  C   LIG d   1       4.177  -1.001  -2.882  0.00  0.00    -0.017 C 
ATOM     28  H   LIG d   1       5.120  -0.650  -2.466  0.00  0.00     0.032 H 
BRANCH  27  29
ATOM     29  C   LIG d   1       3.111   0.085  -2.719  0.00  0.00    -0.051 C 
ATOM     30  H   LIG d   1       2.566   0.203  -3.656  0.00  0.00     0.027 H 
ATOM     31  H   LIG d   1       2.417  -0.202  -1.929  0.00  0.00     0.027 H 
BRANCH  29  32
ATOM     32  C   LIG d   1       3.784   1.409  -2.350  0.00  0.00    -0.065 C 
ATOM     33  H   LIG d   1       3.955   1.441  -1.274  0.00  0.00     0.023 H 
ATOM     34  H   LIG d   1       4.737   1.490  -2.873  0.00  0.00     0.023 H 
ATOM     35  H   LIG d   1       3.139   2.238  -2.641  0.00  0.00     0.023 H 
ENDBRANCH  29  32
ENDBRANCH  27  29
BRANCH  27  36
ATOM     36  C   LIG d   1       3.732  -2.266  -2.143  0.00  0.00    -0.060 C 
ATOM     37  H   LIG d   1       2.997  -2.800  -2.746  0.00  0.00     0.023 H 
ATOM     38  H   LIG d   1       4.595  -2.908  -1.971  0.00  0.00     0.023 H 
ATOM     39  H   LIG d   1       3.287  -1.991  -1.188  0.00  0.00     0.023 H 
ENDBRANCH  27  36
ENDBRANCH   1  27
TORSDOF 8
ENDMDL
MODEL 8
REMARK VINA RESULT:      -4.7      2.087      4.618
REMARK  8 active torsions:
REMARK  status: ('A' for Active; 'I' for Inactive)
REMARK    1  A    between atoms: C_1  and  C_2 
REMARK    2  A    between atoms: C_2  and  C_3 
REMARK    3  A    between atoms: C_3  and  C_5 
REMARK    4  A    between atoms: C_3  and  C_6 
REMARK    5  A    between atoms: N_10  and  C_14 
REMARK    6  A    between atoms: C_14  and  C_15 
REMARK    7  A    between atoms: C_15  and  C_16 
REMARK    8  A    between atoms: C_16  and  N_17 
ROOT
ATOM      1  C   LIG d   1       4.025  -0.795  -7.765  0.00  0.00     0.104 A 
ATOM      2  H   LIG d   1       4.285  -0.487  -8.777  0.00  0.00     0.060 H 
ATOM      3  C   LIG d   1       5.247  -0.779  -6.867  0.00  0.00     0.244 A 
ATOM      4  O   LIG d   1       5.933   0.178  -6.581  0.00  0.00    -0.273 OA
ATOM      5  N   LIG d   1       5.412  -2.052  -6.454  0.00  0.00    -0.224 N 
ATOM      6  C   LIG d   1       4.471  -2.859  -6.956  0.00  0.00     0.309 A 
ATOM      7  O   LIG d   1       4.408  -4.050  -6.722  0.00  0.00    -0.252 OA
ATOM      8  N   LIG d   1       3.601  -2.205  -7.746  0.00  0.00    -0.287 N 
ATOM      9  H   LIG d   1       2.842  -2.588  -8.212  0.00  0.00     0.151 HD
ENDROOT
BRANCH   5  10
ATOM     10  C   LIG d   1       6.487  -2.495  -5.563  0.00  0.00     0.025 C 
ATOM     11  H   LIG d   1       7.335  -1.815  -5.650  0.00  0.00     0.047 H 
ATOM     12  H   LIG d   1       6.799  -3.502  -5.842  0.00  0.00     0.047 H 
BRANCH  10  13
ATOM     13  C   LIG d   1       5.983  -2.501  -4.118  0.00  0.00    -0.018 C 
ATOM     14  H   LIG d   1       6.089  -3.502  -3.701  0.00  0.00     0.030 H 
ATOM     15  H   LIG d   1       4.932  -2.209  -4.099  0.00  0.00     0.030 H 
BRANCH  13  16
ATOM     16  C   LIG d   1       6.802  -1.511  -3.287  0.00  0.00     0.026 C 
ATOM     17  H   LIG d   1       7.655  -1.166  -3.871  0.00  0.00     0.049 H 
ATOM     18  H   LIG d   1       7.157  -2.005  -2.381  0.00  0.00     0.049 H 
BRANCH  16  19
ATOM     19  N   LIG d   1       5.963  -0.367  -2.924  0.00  0.00    -0.337 N 
ATOM     20  C   LIG d   1       6.186   0.924  -3.248  0.00  0.00     0.096 A 
ATOM     21  N   LIG d   1       5.225   1.653  -2.748  0.00  0.00    -0.244 NA
ATOM     22  H   LIG d   1       7.020   1.293  -3.825  0.00  0.00     0.103 H 
ATOM     23  C   LIG d   1       4.364   0.860  -2.093  0.00  0.00     0.045 A 
ATOM     24  C   LIG d   1       4.808  -0.407  -2.191  0.00  0.00     0.024 A 
ATOM     25  H   LIG d   1       3.472   1.183  -1.578  0.00  0.00     0.085 H 
ATOM     26  H   LIG d   1       4.341  -1.287  -1.772  0.00  0.00     0.083 H 
ENDBRANCH  16  19
ENDBRANCH  13  16
ENDBRANCH  10  13
ENDBRANCH   5  10
BRANCH   1  27
ATOM     27  C   LIG d   1       2.930   0.105  -7.191  0.00  0.00    -0.017 C 
ATOM     28  H   LIG d   1       1.965  -0.392  -7.283  0.00  0.00     0.032 H 
BRANCH  27  29
ATOM     29  C   LIG d   1       3.221   0.385  -5.715  0.00  0.00    -0.051 C 
ATOM     30  H   LIG d   1       4.031  -0.262  -5.376  0.00  0.00     0.027 H 
ATOM     31  H   LIG d   1       3.515   1.428  -5.593  0.00  0.00     0.027 H 
BRANCH  29  32
ATOM     32  C   LIG d   1       1.966   0.108  -4.886  0.00  0.00    -0.065 C 
ATOM     33  H   LIG d   1       2.252  -0.339  -3.933  0.00  0.00     0.023 H 
ATOM     34  H   LIG d   1       1.437   1.044  -4.704  0.00  0.00     0.023 H 
ATOM     35  H   LIG d   1       1.315  -0.577  -5.429  0.00  0.00     0.023 H 
ENDBRANCH  29  32
ENDBRANCH  27  29
BRANCH  27  36
ATOM     36  C   LIG d   1       2.898   1.427  -7.963  0.00  0.00    -0.060 C 
ATOM     37  H   LIG d   1       2.564   1.243  -8.984  0.00  0.00     0.023 H 
ATOM     38  H   LIG d   1       2.211   2.116  -7.474  0.00  0.00     0.023 H 
ATOM     39  H   LIG d   1       3.898   1.861  -7.981  0.00  0.00     0.023 H 
ENDBRANCH  27  36
ENDBRANCH   1  27
TORSDOF 8
ENDMDL
MODEL 9
REMARK VINA RESULT:      -4.7      3.653      5.746
REMARK  8 active torsions:
REMARK  status: ('A' for Active; 'I' for Inactive)
REMARK    1  A    between atoms: C_1  and  C_2 
REMARK    2  A    between atoms: C_2  and  C_3 
REMARK    3  A    between atoms: C_3  and  C_5 
REMARK    4  A    between atoms: C_3  and  C_6 
REMARK    5  A    between atoms: N_10  and  C_14 
REMARK    6  A    between atoms: C_14  and  C_15 
REMARK    7  A    between atoms: C_15  and  C_16 
REMARK    8  A    between atoms: C_16  and  N_17 
ROOT
ATOM      1  C   LIG d   1       5.253  -0.676  -3.865  0.00  0.00     0.104 A 
ATOM      2  H   LIG d   1       5.585   0.360  -3.923  0.00  0.00     0.060 H 
ATOM      3  C   LIG d   1       6.415  -1.625  -4.084  0.00  0.00     0.244 A 
ATOM      4  O   LIG d   1       7.414  -1.729  -3.405  0.00  0.00    -0.273 OA
ATOM      5  N   LIG d   1       6.108  -2.329  -5.192  0.00  0.00    -0.224 N 
ATOM      6  C   LIG d   1       4.922  -1.964  -5.695  0.00  0.00     0.309 A 
ATOM      7  O   LIG d   1       4.429  -2.460  -6.688  0.00  0.00    -0.252 OA
ATOM      8  N   LIG d   1       4.338  -0.989  -4.975  0.00  0.00    -0.287 N 
ATOM      9  H   LIG d   1       3.480  -0.574  -5.154  0.00  0.00     0.151 HD
ENDROOT
BRANCH   5  10
ATOM     10  C   LIG d   1       6.963  -3.367  -5.772  0.00  0.00     0.025 C 
ATOM     11  H   LIG d   1       8.009  -3.085  -5.652  0.00  0.00     0.047 H 
ATOM     12  H   LIG d   1       6.735  -3.474  -6.834  0.00  0.00     0.047 H 
BRANCH  10  13
ATOM     13  C   LIG d   1       6.707  -4.697  -5.060  0.00  0.00    -0.018 C 
ATOM     14  H   LIG d   1       5.667  -4.742  -4.739  0.00  0.00     0.030 H 
ATOM     15  H   LIG d   1       7.359  -4.773  -4.189  0.00  0.00     0.030 H 
BRANCH  13  16
ATOM     16  C   LIG d   1       6.998  -5.853  -6.018  0.00  0.00     0.026 C 
ATOM     17  H   LIG d   1       8.053  -6.119  -5.957  0.00  0.00     0.049 H 
ATOM     18  H   LIG d   1       6.757  -5.549  -7.037  0.00  0.00     0.049 H 
BRANCH  16  19
ATOM     19  N   LIG d   1       6.180  -7.011  -5.647  0.00  0.00    -0.337 N 
ATOM     20  C   LIG d   1       4.854  -7.154  -5.855  0.00  0.00     0.096 A 
ATOM     21  N   LIG d   1       4.481  -8.315  -5.390  0.00  0.00    -0.244 NA
ATOM     22  H   LIG d   1       4.209  -6.428  -6.327  0.00  0.00     0.103 H 
ATOM     23  C   LIG d   1       5.544  -8.948  -4.874  0.00  0.00     0.045 A 
ATOM     24  C   LIG d   1       6.618  -8.149  -5.025  0.00  0.00     0.024 A 
ATOM     25  H   LIG d   1       5.541  -9.926  -4.418  0.00  0.00     0.085 H 
ATOM     26  H   LIG d   1       7.630  -8.364  -4.715  0.00  0.00     0.083 H 
ENDBRANCH  16  19
ENDBRANCH  13  16
ENDBRANCH  10  13
ENDBRANCH   5  10
BRANCH   1  27
ATOM     27  C   LIG d   1       4.584  -0.955  -2.519  0.00  0.00    -0.017 C 
ATOM     28  H   LIG d   1       5.139  -1.728  -1.990  0.00  0.00     0.032 H 
BRANCH  27  29
ATOM     29  C   LIG d   1       4.569   0.326  -1.682  0.00  0.00    -0.051 C 
ATOM     30  H   LIG d   1       4.163   0.109  -0.693  0.00  0.00     0.027 H 
ATOM     31  H   LIG d   1       5.585   0.707  -1.581  0.00  0.00     0.027 H 
BRANCH  29  32
ATOM     32  C   LIG d   1       3.696   1.377  -2.372  0.00  0.00    -0.065 C 
ATOM     33  H   LIG d   1       4.265   2.299  -2.489  0.00  0.00     0.023 H 
ATOM     34  H   LIG d   1       3.392   1.009  -3.352  0.00  0.00     0.023 H 
ATOM     35  H   LIG d   1       2.811   1.570  -1.765  0.00  0.00     0.023 H 
ENDBRANCH  29  32
ENDBRANCH  27  29
BRANCH  27  36
ATOM     36  C   LIG d   1       3.147  -1.428  -2.752  0.00  0.00    -0.060 C 
ATOM     37  H   LIG d   1       2.875  -1.266  -3.795  0.00  0.00     0.023 H 
ATOM     38  H   LIG d   1       3.072  -2.489  -2.517  0.00  0.00     0.023 H 
ATOM     39  H   LIG d   1       2.470  -0.864  -2.109  0.00  0.00     0.023 H 
ENDBRANCH  27  36
ENDBRANCH   1  27
TORSDOF 8
ENDMDL
