MODEL 1
REMARK VINA RESULT:      -7.6      0.000      0.000
REMARK  6 active torsions:
REMARK  status: ('A' for Active; 'I' for Inactive)
REMARK    1  A    between atoms: C_5  and  C_7 
REMARK    2  A    between atoms: C_7  and  N_8 
REMARK    3  A    between atoms: C_17  and  C_19 
REMARK    4  A    between atoms: C_21  and  C_24 
REMARK    5  A    between atoms: C_27  and  O_30 
REMARK    6  A    between atoms: O_30  and  C_31 
ROOT
ATOM      1  N   LIG d   1       5.815  -0.127  -6.368  0.00  0.00    -0.277 N 
ATOM      2  C   LIG d   1       4.837  -0.894  -7.159  0.00  0.00     0.066 C 
ATOM      3  C   LIG d   1       4.491  -0.094  -8.389  0.00  0.00     0.159 A 
ATOM      4  C   LIG d   1       5.237   0.943  -8.835  0.00  0.00     0.148 A 
ATOM      5  N   LIG d   1       4.630   1.423  -9.952  0.00  0.00    -0.247 N 
ATOM      6  H   LIG d   1       4.930   2.167 -10.496  0.00  0.00     0.310 HD
ATOM      7  C   LIG d   1       3.529   0.664 -10.160  0.00  0.00     0.243 A 
ATOM      8  N   LIG d   1       3.456  -0.241  -9.218  0.00  0.00    -0.246 N 
ATOM      9  C   LIG d   1       6.498   1.412  -8.156  0.00  0.00     0.037 C 
ATOM     10  C   LIG d   1       6.952   0.306  -7.193  0.00  0.00     0.098 C 
ATOM     11  H   LIG d   1       7.331  -0.541  -7.765  0.00  0.00     0.057 H 
ATOM     12  H   LIG d   1       5.271  -1.850  -7.452  0.00  0.00     0.051 H 
ATOM     13  H   LIG d   1       3.939  -1.063  -6.565  0.00  0.00     0.051 H 
ATOM     14  H   LIG d   1       2.825   0.785 -10.971  0.00  0.00     0.158 H 
ATOM     15  H   LIG d   1       7.273   1.592  -8.902  0.00  0.00     0.037 H 
ATOM     16  H   LIG d   1       6.300   2.328  -7.600  0.00  0.00     0.037 H 
ATOM     17  H   LIG d   1       2.761  -0.913  -9.136  0.00  0.00     0.310 HD
ENDROOT
BRANCH  10  18
ATOM     18  C   LIG d   1       8.046   0.836  -6.301  0.00  0.00     0.245 A 
ATOM     19  O   LIG d   1       9.118   0.150  -5.884  0.00  0.00    -0.336 OA
ATOM     20  N   LIG d   1       9.872   1.038  -5.073  0.00  0.00    -0.056 NA
ATOM     21  C   LIG d   1       9.214   2.171  -5.052  0.00  0.00     0.202 A 
ATOM     22  N   LIG d   1       8.105   2.038  -5.801  0.00  0.00    -0.190 NA
BRANCH  21  23
ATOM     23  C   LIG d   1       9.624   3.397  -4.322  0.00  0.00     0.023 A 
ATOM     24  C   LIG d   1      10.169   3.298  -3.044  0.00  0.00    -0.048 A 
ATOM     25  C   LIG d   1      10.555   4.439  -2.372  0.00  0.00    -0.019 A 
ATOM     26  H   LIG d   1      10.295   2.330  -2.583  0.00  0.00     0.063 H 
ATOM     27  C   LIG d   1      10.389   5.684  -2.961  0.00  0.00     0.130 A 
ATOM     28  H   LIG d   1      10.982   4.363  -1.383  0.00  0.00     0.065 H 
ATOM     29  C   LIG d   1       9.840   5.786  -4.233  0.00  0.00    -0.019 A 
ATOM     30  C   LIG d   1       9.458   4.648  -4.914  0.00  0.00    -0.048 A 
ATOM     31  H   LIG d   1       9.712   6.755  -4.690  0.00  0.00     0.065 H 
ATOM     32  H   LIG d   1       9.031   4.728  -5.902  0.00  0.00     0.063 H 
BRANCH  27  33
ATOM     33  O   LIG d   1      10.764   6.806  -2.294  0.00  0.00    -0.406 OA
BRANCH  33  34
ATOM     34  C   LIG d   1       9.917   7.240  -1.228  0.00  0.00     0.575 C 
ATOM     35  F   LIG d   1       8.579   7.075  -1.598  0.00  0.00    -0.133 F 
ATOM     36  F   LIG d   1      10.182   6.481  -0.084  0.00  0.00    -0.133 F 
ATOM     37  F   LIG d   1      10.163   8.591  -0.958  0.00  0.00    -0.133 F 
ENDBRANCH  33  34
ENDBRANCH  27  33
ENDBRANCH  21  23
ENDBRANCH  10  18
BRANCH   1  38
ATOM     38  C   LIG d   1       6.273  -0.898  -5.205  0.00  0.00     0.042 C 
ATOM     39  H   LIG d   1       7.351  -0.780  -5.091  0.00  0.00     0.049 H 
ATOM     40  H   LIG d   1       6.036  -1.951  -5.350  0.00  0.00     0.049 H 
BRANCH  38  41
ATOM     41  C   LIG d   1       5.580  -0.393  -3.965  0.00  0.00     0.055 A 
ATOM     42  N   LIG d   1       5.496   0.905  -3.748  0.00  0.00    -0.259 NA
ATOM     43  C   LIG d   1       4.900   1.392  -2.677  0.00  0.00     0.028 A 
ATOM     44  C   LIG d   1       4.337   0.551  -1.737  0.00  0.00    -0.044 A 
ATOM     45  H   LIG d   1       4.850   2.461  -2.534  0.00  0.00     0.083 H 
ATOM     46  C   LIG d   1       4.406  -0.821  -1.931  0.00  0.00    -0.059 A 
ATOM     47  H   LIG d   1       3.849   0.955  -0.863  0.00  0.00     0.063 H 
ATOM     48  C   LIG d   1       5.041  -1.296  -3.068  0.00  0.00    -0.039 A 
ATOM     49  H   LIG d   1       3.979  -1.504  -1.211  0.00  0.00     0.062 H 
ATOM     50  H   LIG d   1       5.114  -2.358  -3.251  0.00  0.00     0.064 H 
ENDBRANCH  38  41
ENDBRANCH   1  38
TORSDOF 6
ENDMDL
MODEL 2
REMARK VINA RESULT:      -7.3      6.492      8.693
REMARK  6 active torsions:
REMARK  status: ('A' for Active; 'I' for Inactive)
REMARK    1  A    between atoms: C_5  and  C_7 
REMARK    2  A    between atoms: C_7  and  N_8 
REMARK    3  A    between atoms: C_17  and  C_19 
REMARK    4  A    between atoms: C_21  and  C_24 
REMARK    5  A    between atoms: C_27  and  O_30 
REMARK    6  A    between atoms: O_30  and  C_31 
ROOT
ATOM      1  N   LIG d   1       7.332  -7.807  -4.934  0.00  0.00    -0.277 N 
ATOM      2  C   LIG d   1       7.576  -9.256  -4.838  0.00  0.00     0.066 C 
ATOM      3  C   LIG d   1       6.253  -9.945  -4.611  0.00  0.00     0.159 A 
ATOM      4  C   LIG d   1       5.059  -9.351  -4.838  0.00  0.00     0.148 A 
ATOM      5  N   LIG d   1       4.095 -10.257  -4.526  0.00  0.00    -0.247 N 
ATOM      6  H   LIG d   1       3.137 -10.123  -4.586  0.00  0.00     0.310 HD
ATOM      7  C   LIG d   1       4.728 -11.382  -4.119  0.00  0.00     0.243 A 
ATOM      8  N   LIG d   1       6.020 -11.183  -4.174  0.00  0.00    -0.246 N 
ATOM      9  C   LIG d   1       4.915  -7.940  -5.346  0.00  0.00     0.037 C 
ATOM     10  C   LIG d   1       6.275  -7.502  -5.908  0.00  0.00     0.098 C 
ATOM     11  H   LIG d   1       6.473  -8.035  -6.838  0.00  0.00     0.057 H 
ATOM     12  H   LIG d   1       8.023  -9.615  -5.765  0.00  0.00     0.051 H 
ATOM     13  H   LIG d   1       8.245  -9.461  -4.002  0.00  0.00     0.051 H 
ATOM     14  H   LIG d   1       4.246 -12.295  -3.800  0.00  0.00     0.158 H 
ATOM     15  H   LIG d   1       4.163  -7.907  -6.135  0.00  0.00     0.037 H 
ATOM     16  H   LIG d   1       4.623  -7.281  -4.530  0.00  0.00     0.037 H 
ATOM     17  H   LIG d   1       6.700 -11.833  -3.936  0.00  0.00     0.310 HD
ENDROOT
BRANCH  10  18
ATOM     18  C   LIG d   1       6.252  -6.018  -6.177  0.00  0.00     0.245 A 
ATOM     19  O   LIG d   1       6.630  -5.423  -7.315  0.00  0.00    -0.336 OA
ATOM     20  N   LIG d   1       6.439  -4.029  -7.121  0.00  0.00    -0.056 NA
ATOM     21  C   LIG d   1       5.977  -3.884  -5.904  0.00  0.00     0.202 A 
ATOM     22  N   LIG d   1       5.867  -5.099  -5.337  0.00  0.00    -0.190 NA
BRANCH  21  23
ATOM     23  C   LIG d   1       5.632  -2.594  -5.257  0.00  0.00     0.023 A 
ATOM     24  C   LIG d   1       4.723  -1.730  -5.864  0.00  0.00    -0.048 A 
ATOM     25  C   LIG d   1       4.400  -0.534  -5.257  0.00  0.00    -0.019 A 
ATOM     26  H   LIG d   1       4.267  -1.999  -6.805  0.00  0.00     0.063 H 
ATOM     27  C   LIG d   1       4.988  -0.185  -4.050  0.00  0.00     0.130 A 
ATOM     28  H   LIG d   1       3.692   0.133  -5.725  0.00  0.00     0.065 H 
ATOM     29  C   LIG d   1       5.900  -1.041  -3.446  0.00  0.00    -0.019 A 
ATOM     30  C   LIG d   1       6.222  -2.242  -4.044  0.00  0.00    -0.048 A 
ATOM     31  H   LIG d   1       6.356  -0.768  -2.506  0.00  0.00     0.065 H 
ATOM     32  H   LIG d   1       6.931  -2.907  -3.573  0.00  0.00     0.063 H 
BRANCH  27  33
ATOM     33  O   LIG d   1       4.673   0.995  -3.458  0.00  0.00    -0.406 OA
BRANCH  33  34
ATOM     34  C   LIG d   1       3.847   0.937  -2.294  0.00  0.00     0.575 C 
ATOM     35  F   LIG d   1       3.024  -0.192  -2.361  0.00  0.00    -0.133 F 
ATOM     36  F   LIG d   1       4.652   0.860  -1.153  0.00  0.00    -0.133 F 
ATOM     37  F   LIG d   1       3.054   2.089  -2.227  0.00  0.00    -0.133 F 
ENDBRANCH  33  34
ENDBRANCH  27  33
ENDBRANCH  21  23
ENDBRANCH  10  18
BRANCH   1  38
ATOM     38  C   LIG d   1       8.570  -7.085  -5.257  0.00  0.00     0.042 C 
ATOM     39  H   LIG d   1       8.393  -6.423  -6.105  0.00  0.00     0.049 H 
ATOM     40  H   LIG d   1       9.352  -7.799  -5.510  0.00  0.00     0.049 H 
BRANCH  38  41
ATOM     41  C   LIG d   1       9.000  -6.269  -4.065  0.00  0.00     0.055 A 
ATOM     42  N   LIG d   1       9.317  -6.877  -2.939  0.00  0.00    -0.259 NA
ATOM     43  C   LIG d   1       9.699  -6.203  -1.871  0.00  0.00     0.028 A 
ATOM     44  C   LIG d   1       9.781  -4.824  -1.896  0.00  0.00    -0.044 A 
ATOM     45  H   LIG d   1       9.951  -6.736  -0.966  0.00  0.00     0.083 H 
ATOM     46  C   LIG d   1       9.455  -4.150  -3.064  0.00  0.00    -0.059 A 
ATOM     47  H   LIG d   1      10.095  -4.279  -1.019  0.00  0.00     0.063 H 
ATOM     48  C   LIG d   1       9.058  -4.891  -4.165  0.00  0.00    -0.039 A 
ATOM     49  H   LIG d   1       9.506  -3.072  -3.112  0.00  0.00     0.062 H 
ATOM     50  H   LIG d   1       8.797  -4.399  -5.091  0.00  0.00     0.064 H 
ENDBRANCH  38  41
ENDBRANCH   1  38
TORSDOF 6
ENDMDL
MODEL 3
REMARK VINA RESULT:      -7.1      7.212      9.209
REMARK  6 active torsions:
REMARK  status: ('A' for Active; 'I' for Inactive)
REMARK    1  A    between atoms: C_5  and  C_7 
REMARK    2  A    between atoms: C_7  and  N_8 
REMARK    3  A    between atoms: C_17  and  C_19 
REMARK    4  A    between atoms: C_21  and  C_24 
REMARK    5  A    between atoms: C_27  and  O_30 
REMARK    6  A    between atoms: O_30  and  C_31 
ROOT
ATOM      1  N   LIG d   1       6.144  -8.513  -6.704  0.00  0.00    -0.277 N 
ATOM      2  C   LIG d   1       7.174  -9.451  -7.181  0.00  0.00     0.066 C 
ATOM      3  C   LIG d   1       6.968  -9.669  -8.659  0.00  0.00     0.159 A 
ATOM      4  C   LIG d   1       6.214  -8.854  -9.431  0.00  0.00     0.148 A 
ATOM      5  N   LIG d   1       6.250  -9.351 -10.695  0.00  0.00    -0.247 N 
ATOM      6  H   LIG d   1       5.804  -8.983 -11.473  0.00  0.00     0.310 HD
ATOM      7  C   LIG d   1       7.028 -10.459 -10.661  0.00  0.00     0.243 A 
ATOM      8  N   LIG d   1       7.452 -10.639  -9.436  0.00  0.00    -0.246 N 
ATOM      9  C   LIG d   1       5.500  -7.635  -8.905  0.00  0.00     0.037 C 
ATOM     10  C   LIG d   1       6.096  -7.299  -7.531  0.00  0.00     0.098 C 
ATOM     11  H   LIG d   1       7.105  -6.906  -7.658  0.00  0.00     0.057 H 
ATOM     12  H   LIG d   1       8.163  -9.029  -7.006  0.00  0.00     0.051 H 
ATOM     13  H   LIG d   1       7.079 -10.400  -6.653  0.00  0.00     0.051 H 
ATOM     14  H   LIG d   1       7.261 -11.090 -11.506  0.00  0.00     0.158 H 
ATOM     15  H   LIG d   1       5.649  -6.797  -9.586  0.00  0.00     0.037 H 
ATOM     16  H   LIG d   1       4.436  -7.844  -8.804  0.00  0.00     0.037 H 
ATOM     17  H   LIG d   1       8.028 -11.361  -9.141  0.00  0.00     0.310 HD
ENDROOT
BRANCH  10  18
ATOM     18  C   LIG d   1       5.237  -6.262  -6.851  0.00  0.00     0.245 A 
ATOM     19  O   LIG d   1       3.931  -6.382  -6.585  0.00  0.00    -0.336 OA
ATOM     20  N   LIG d   1       3.541  -5.177  -5.942  0.00  0.00    -0.056 NA
ATOM     21  C   LIG d   1       4.615  -4.429  -5.874  0.00  0.00     0.202 A 
ATOM     22  N   LIG d   1       5.641  -5.097  -6.429  0.00  0.00    -0.190 NA
BRANCH  21  23
ATOM     23  C   LIG d   1       4.687  -3.070  -5.282  0.00  0.00     0.023 A 
ATOM     24  C   LIG d   1       4.595  -1.947  -6.101  0.00  0.00    -0.048 A 
ATOM     25  C   LIG d   1       4.656  -0.685  -5.547  0.00  0.00    -0.019 A 
ATOM     26  H   LIG d   1       4.471  -2.063  -7.167  0.00  0.00     0.063 H 
ATOM     27  C   LIG d   1       4.820  -0.534  -4.178  0.00  0.00     0.130 A 
ATOM     28  H   LIG d   1       4.580   0.186  -6.181  0.00  0.00     0.065 H 
ATOM     29  C   LIG d   1       4.919  -1.651  -3.359  0.00  0.00    -0.019 A 
ATOM     30  C   LIG d   1       4.852  -2.916  -3.907  0.00  0.00    -0.048 A 
ATOM     31  H   LIG d   1       5.046  -1.531  -2.294  0.00  0.00     0.065 H 
ATOM     32  H   LIG d   1       4.927  -3.785  -3.270  0.00  0.00     0.063 H 
BRANCH  27  33
ATOM     33  O   LIG d   1       4.886   0.710  -3.636  0.00  0.00    -0.406 OA
BRANCH  33  34
ATOM     34  C   LIG d   1       3.804   1.108  -2.792  0.00  0.00     0.575 C 
ATOM     35  F   LIG d   1       3.425   2.417  -3.106  0.00  0.00    -0.133 F 
ATOM     36  F   LIG d   1       2.719   0.248  -2.988  0.00  0.00    -0.133 F 
ATOM     37  F   LIG d   1       4.209   1.048  -1.454  0.00  0.00    -0.133 F 
ENDBRANCH  33  34
ENDBRANCH  27  33
ENDBRANCH  21  23
ENDBRANCH  10  18
BRANCH   1  38
ATOM     38  C   LIG d   1       6.352  -8.178  -5.289  0.00  0.00     0.042 C 
ATOM     39  H   LIG d   1       5.984  -7.170  -5.096  0.00  0.00     0.049 H 
ATOM     40  H   LIG d   1       7.414  -8.228  -5.056  0.00  0.00     0.049 H 
BRANCH  38  41
ATOM     41  C   LIG d   1       5.600  -9.159  -4.425  0.00  0.00     0.055 A 
ATOM     42  N   LIG d   1       4.308  -9.341  -4.619  0.00  0.00    -0.259 NA
ATOM     43  C   LIG d   1       3.610 -10.188  -3.887  0.00  0.00     0.028 A 
ATOM     44  C   LIG d   1       4.215 -10.921  -2.884  0.00  0.00    -0.044 A 
ATOM     45  H   LIG d   1       2.554 -10.311  -4.075  0.00  0.00     0.083 H 
ATOM     46  C   LIG d   1       5.573 -10.757  -2.652  0.00  0.00    -0.059 A 
ATOM     47  H   LIG d   1       3.639 -11.614  -2.290  0.00  0.00     0.063 H 
ATOM     48  C   LIG d   1       6.273  -9.857  -3.440  0.00  0.00    -0.039 A 
ATOM     49  H   LIG d   1       6.072 -11.313  -1.872  0.00  0.00     0.062 H 
ATOM     50  H   LIG d   1       7.331  -9.703  -3.287  0.00  0.00     0.064 H 
ENDBRANCH  38  41
ENDBRANCH   1  38
TORSDOF 6
ENDMDL
MODEL 4
REMARK VINA RESULT:      -7.1      1.887      2.512
REMARK  6 active torsions:
REMARK  status: ('A' for Active; 'I' for Inactive)
REMARK    1  A    between atoms: C_5  and  C_7 
REMARK    2  A    between atoms: C_7  and  N_8 
REMARK    3  A    between atoms: C_17  and  C_19 
REMARK    4  A    between atoms: C_21  and  C_24 
REMARK    5  A    between atoms: C_27  and  O_30 
REMARK    6  A    between atoms: O_30  and  C_31 
ROOT
ATOM      1  N   LIG d   1       7.557   0.921  -5.197  0.00  0.00    -0.277 N 
ATOM      2  C   LIG d   1       6.887  -0.006  -6.125  0.00  0.00     0.066 C 
ATOM      3  C   LIG d   1       6.906   0.606  -7.503  0.00  0.00     0.159 A 
ATOM      4  C   LIG d   1       7.721   1.629  -7.849  0.00  0.00     0.148 A 
ATOM      5  N   LIG d   1       7.467   1.921  -9.152  0.00  0.00    -0.247 N 
ATOM      6  H   LIG d   1       7.895   2.610  -9.683  0.00  0.00     0.310 HD
ATOM      7  C   LIG d   1       6.503   1.066  -9.568  0.00  0.00     0.243 A 
ATOM      8  N   LIG d   1       6.175   0.284  -8.571  0.00  0.00    -0.246 N 
ATOM      9  C   LIG d   1       8.703   2.268  -6.901  0.00  0.00     0.037 C 
ATOM     10  C   LIG d   1       8.877   1.326  -5.701  0.00  0.00     0.098 C 
ATOM     11  H   LIG d   1       9.435   0.443  -6.010  0.00  0.00     0.057 H 
ATOM     12  H   LIG d   1       7.417  -0.958  -6.139  0.00  0.00     0.051 H 
ATOM     13  H   LIG d   1       5.856  -0.162  -5.807  0.00  0.00     0.051 H 
ATOM     14  H   LIG d   1       6.075   1.034 -10.559  0.00  0.00     0.158 H 
ATOM     15  H   LIG d   1       9.662   2.407  -7.402  0.00  0.00     0.037 H 
ATOM     16  H   LIG d   1       8.319   3.230  -6.564  0.00  0.00     0.037 H 
ATOM     17  H   LIG d   1       5.508  -0.420  -8.605  0.00  0.00     0.310 HD
ENDROOT
BRANCH  10  18
ATOM     18  C   LIG d   1       9.633   2.040  -4.609  0.00  0.00     0.245 A 
ATOM     19  O   LIG d   1      10.714   1.573  -3.971  0.00  0.00    -0.336 OA
ATOM     20  N   LIG d   1      11.089   2.572  -3.034  0.00  0.00    -0.056 NA
ATOM     21  C   LIG d   1      10.222   3.546  -3.164  0.00  0.00     0.202 A 
ATOM     22  N   LIG d   1       9.342   3.214  -4.124  0.00  0.00    -0.190 NA
BRANCH  21  23
ATOM     23  C   LIG d   1      10.215   4.807  -2.382  0.00  0.00     0.023 A 
ATOM     24  C   LIG d   1      10.880   4.874  -1.159  0.00  0.00    -0.048 A 
ATOM     25  C   LIG d   1      10.876   6.049  -0.437  0.00  0.00    -0.019 A 
ATOM     26  H   LIG d   1      11.401   4.008  -0.779  0.00  0.00     0.063 H 
ATOM     27  C   LIG d   1      10.202   7.161  -0.922  0.00  0.00     0.130 A 
ATOM     28  H   LIG d   1      11.395   6.103   0.508  0.00  0.00     0.065 H 
ATOM     29  C   LIG d   1       9.533   7.096  -2.137  0.00  0.00    -0.019 A 
ATOM     30  C   LIG d   1       9.539   5.925  -2.867  0.00  0.00    -0.048 A 
ATOM     31  H   LIG d   1       9.010   7.962  -2.513  0.00  0.00     0.065 H 
ATOM     32  H   LIG d   1       9.019   5.875  -3.812  0.00  0.00     0.063 H 
BRANCH  27  33
ATOM     33  O   LIG d   1      10.195   8.315  -0.207  0.00  0.00    -0.406 OA
BRANCH  33  34
ATOM     34  C   LIG d   1      11.397   9.087  -0.209  0.00  0.00     0.575 C 
ATOM     35  F   LIG d   1      12.078   8.886  -1.414  0.00  0.00    -0.133 F 
ATOM     36  F   LIG d   1      11.082  10.443  -0.072  0.00  0.00    -0.133 F 
ATOM     37  F   LIG d   1      12.210   8.688   0.858  0.00  0.00    -0.133 F 
ENDBRANCH  33  34
ENDBRANCH  27  33
ENDBRANCH  21  23
ENDBRANCH  10  18
BRANCH   1  38
ATOM     38  C   LIG d   1       7.663   0.337  -3.854  0.00  0.00     0.042 C 
ATOM     39  H   LIG d   1       8.346   0.935  -3.250  0.00  0.00     0.049 H 
ATOM     40  H   LIG d   1       8.041  -0.682  -3.929  0.00  0.00     0.049 H 
BRANCH  38  41
ATOM     41  C   LIG d   1       6.302   0.322  -3.205  0.00  0.00     0.055 A 
ATOM     42  N   LIG d   1       5.654   1.456  -3.025  0.00  0.00    -0.259 NA
ATOM     43  C   LIG d   1       4.462   1.490  -2.461  0.00  0.00     0.028 A 
ATOM     44  C   LIG d   1       3.846   0.329  -2.036  0.00  0.00    -0.044 A 
ATOM     45  H   LIG d   1       3.960   2.438  -2.332  0.00  0.00     0.083 H 
ATOM     46  C   LIG d   1       4.499  -0.884  -2.209  0.00  0.00    -0.059 A 
ATOM     47  H   LIG d   1       2.870   0.363  -1.577  0.00  0.00     0.063 H 
ATOM     48  C   LIG d   1       5.750  -0.880  -2.804  0.00  0.00    -0.039 A 
ATOM     49  H   LIG d   1       4.044  -1.807  -1.883  0.00  0.00     0.062 H 
ATOM     50  H   LIG d   1       6.287  -1.806  -2.954  0.00  0.00     0.064 H 
ENDBRANCH  38  41
ENDBRANCH   1  38
TORSDOF 6
ENDMDL
MODEL 5
REMARK VINA RESULT:      -7.0      4.534      8.400
REMARK  6 active torsions:
REMARK  status: ('A' for Active; 'I' for Inactive)
REMARK    1  A    between atoms: C_5  and  C_7 
REMARK    2  A    between atoms: C_7  and  N_8 
REMARK    3  A    between atoms: C_17  and  C_19 
REMARK    4  A    between atoms: C_21  and  C_24 
REMARK    5  A    between atoms: C_27  and  O_30 
REMARK    6  A    between atoms: O_30  and  C_31 
ROOT
ATOM      1  N   LIG d   1      10.194   6.344  -4.214  0.00  0.00    -0.277 N 
ATOM      2  C   LIG d   1      10.200   7.702  -4.785  0.00  0.00     0.066 C 
ATOM      3  C   LIG d   1      11.111   7.707  -5.987  0.00  0.00     0.159 A 
ATOM      4  C   LIG d   1      11.523   6.579  -6.610  0.00  0.00     0.148 A 
ATOM      5  N   LIG d   1      12.327   6.958  -7.638  0.00  0.00    -0.247 N 
ATOM      6  H   LIG d   1      12.775   6.373  -8.267  0.00  0.00     0.310 HD
ATOM      7  C   LIG d   1      12.382   8.312  -7.616  0.00  0.00     0.243 A 
ATOM      8  N   LIG d   1      11.650   8.747  -6.623  0.00  0.00    -0.246 N 
ATOM      9  C   LIG d   1      11.116   5.193  -6.177  0.00  0.00     0.037 C 
ATOM     10  C   LIG d   1       9.909   5.330  -5.239  0.00  0.00     0.098 C 
ATOM     11  H   LIG d   1       9.034   5.630  -5.814  0.00  0.00     0.057 H 
ATOM     12  H   LIG d   1       9.190   7.976  -5.089  0.00  0.00     0.051 H 
ATOM     13  H   LIG d   1      10.567   8.410  -4.043  0.00  0.00     0.051 H 
ATOM     14  H   LIG d   1      12.938   8.929  -8.305  0.00  0.00     0.158 H 
ATOM     15  H   LIG d   1      10.840   4.601  -7.050  0.00  0.00     0.037 H 
ATOM     16  H   LIG d   1      11.941   4.713  -5.651  0.00  0.00     0.037 H 
ATOM     17  H   LIG d   1      11.518   9.679  -6.388  0.00  0.00     0.310 HD
ENDROOT
BRANCH  10  18
ATOM     18  C   LIG d   1       9.640   4.005  -4.572  0.00  0.00     0.245 A 
ATOM     19  O   LIG d   1      10.487   3.344  -3.773  0.00  0.00    -0.336 OA
ATOM     20  N   LIG d   1       9.819   2.156  -3.375  0.00  0.00    -0.056 NA
ATOM     21  C   LIG d   1       8.645   2.179  -3.955  0.00  0.00     0.202 A 
ATOM     22  N   LIG d   1       8.545   3.307  -4.681  0.00  0.00    -0.190 NA
BRANCH  21  23
ATOM     23  C   LIG d   1       7.598   1.134  -3.832  0.00  0.00     0.023 A 
ATOM     24  C   LIG d   1       7.904  -0.196  -4.116  0.00  0.00    -0.048 A 
ATOM     25  C   LIG d   1       6.930  -1.166  -3.994  0.00  0.00    -0.019 A 
ATOM     26  H   LIG d   1       8.901  -0.468  -4.426  0.00  0.00     0.063 H 
ATOM     27  C   LIG d   1       5.646  -0.817  -3.602  0.00  0.00     0.130 A 
ATOM     28  H   LIG d   1       7.167  -2.197  -4.210  0.00  0.00     0.065 H 
ATOM     29  C   LIG d   1       5.337   0.508  -3.324  0.00  0.00    -0.019 A 
ATOM     30  C   LIG d   1       6.308   1.482  -3.437  0.00  0.00    -0.048 A 
ATOM     31  H   LIG d   1       4.338   0.777  -3.018  0.00  0.00     0.065 H 
ATOM     32  H   LIG d   1       6.068   2.512  -3.221  0.00  0.00     0.063 H 
BRANCH  27  33
ATOM     33  O   LIG d   1       4.688  -1.773  -3.489  0.00  0.00    -0.406 OA
BRANCH  33  34
ATOM     34  C   LIG d   1       3.849  -1.717  -2.334  0.00  0.00     0.575 C 
ATOM     35  F   LIG d   1       4.542  -1.110  -1.282  0.00  0.00    -0.133 F 
ATOM     36  F   LIG d   1       2.701  -0.974  -2.626  0.00  0.00    -0.133 F 
ATOM     37  F   LIG d   1       3.480  -3.015  -1.962  0.00  0.00    -0.133 F 
ENDBRANCH  33  34
ENDBRANCH  27  33
ENDBRANCH  21  23
ENDBRANCH  10  18
BRANCH   1  38
ATOM     38  C   LIG d   1       9.244   6.246  -3.098  0.00  0.00     0.042 C 
ATOM     39  H   LIG d   1       8.819   5.242  -3.070  0.00  0.00     0.049 H 
ATOM     40  H   LIG d   1       8.446   6.975  -3.235  0.00  0.00     0.049 H 
BRANCH  38  41
ATOM     41  C   LIG d   1       9.962   6.524  -1.802  0.00  0.00     0.055 A 
ATOM     42  N   LIG d   1       9.867   7.716  -1.247  0.00  0.00    -0.259 NA
ATOM     43  C   LIG d   1      10.479   8.004  -0.114  0.00  0.00     0.028 A 
ATOM     44  C   LIG d   1      11.245   7.056   0.536  0.00  0.00    -0.044 A 
ATOM     45  H   LIG d   1      10.377   8.991   0.311  0.00  0.00     0.083 H 
ATOM     46  C   LIG d   1      11.368   5.790  -0.018  0.00  0.00    -0.059 A 
ATOM     47  H   LIG d   1      11.742   7.297   1.464  0.00  0.00     0.063 H 
ATOM     48  C   LIG d   1      10.712   5.525  -1.210  0.00  0.00    -0.039 A 
ATOM     49  H   LIG d   1      11.964   5.031   0.466  0.00  0.00     0.062 H 
ATOM     50  H   LIG d   1      10.786   4.551  -1.670  0.00  0.00     0.064 H 
ENDBRANCH  38  41
ENDBRANCH   1  38
TORSDOF 6
ENDMDL
MODEL 6
REMARK VINA RESULT:      -6.8      4.501      8.543
REMARK  6 active torsions:
REMARK  status: ('A' for Active; 'I' for Inactive)
REMARK    1  A    between atoms: C_5  and  C_7 
REMARK    2  A    between atoms: C_7  and  N_8 
REMARK    3  A    between atoms: C_17  and  C_19 
REMARK    4  A    between atoms: C_21  and  C_24 
REMARK    5  A    between atoms: C_27  and  O_30 
REMARK    6  A    between atoms: O_30  and  C_31 
ROOT
ATOM      1  N   LIG d   1      10.554   5.793  -5.021  0.00  0.00    -0.277 N 
ATOM      2  C   LIG d   1      11.191   7.120  -4.963  0.00  0.00     0.066 C 
ATOM      3  C   LIG d   1      10.599   7.880  -3.803  0.00  0.00     0.159 A 
ATOM      4  C   LIG d   1       9.901   7.287  -2.807  0.00  0.00     0.148 A 
ATOM      5  N   LIG d   1       9.520   8.267  -1.945  0.00  0.00    -0.247 N 
ATOM      6  H   LIG d   1       9.005   8.153  -1.132  0.00  0.00     0.310 HD
ATOM      7  C   LIG d   1      10.000   9.434  -2.439  0.00  0.00     0.243 A 
ATOM      8  N   LIG d   1      10.644   9.188  -3.551  0.00  0.00    -0.246 N 
ATOM      9  C   LIG d   1       9.640   5.804  -2.742  0.00  0.00     0.037 C 
ATOM     10  C   LIG d   1      10.604   5.115  -3.718  0.00  0.00     0.098 C 
ATOM     11  H   LIG d   1      11.618   5.162  -3.322  0.00  0.00     0.057 H 
ATOM     12  H   LIG d   1      12.265   7.005  -4.817  0.00  0.00     0.051 H 
ATOM     13  H   LIG d   1      11.001   7.659  -5.891  0.00  0.00     0.051 H 
ATOM     14  H   LIG d   1       9.872  10.407  -1.988  0.00  0.00     0.158 H 
ATOM     15  H   LIG d   1       9.820   5.443  -1.729  0.00  0.00     0.037 H 
ATOM     16  H   LIG d   1       8.611   5.597  -3.031  0.00  0.00     0.037 H 
ATOM     17  H   LIG d   1      11.085   9.853  -4.103  0.00  0.00     0.310 HD
ENDROOT
BRANCH  10  18
ATOM     18  C   LIG d   1      10.199   3.672  -3.887  0.00  0.00     0.245 A 
ATOM     19  O   LIG d   1      11.015   2.665  -4.225  0.00  0.00    -0.336 OA
ATOM     20  N   LIG d   1      10.211   1.495  -4.265  0.00  0.00    -0.056 NA
ATOM     21  C   LIG d   1       8.993   1.871  -3.963  0.00  0.00     0.202 A 
ATOM     22  N   LIG d   1       8.996   3.197  -3.735  0.00  0.00    -0.190 NA
BRANCH  21  23
ATOM     23  C   LIG d   1       7.807   0.983  -3.885  0.00  0.00     0.023 A 
ATOM     24  C   LIG d   1       7.911  -0.354  -4.263  0.00  0.00    -0.048 A 
ATOM     25  C   LIG d   1       6.809  -1.179  -4.184  0.00  0.00    -0.019 A 
ATOM     26  H   LIG d   1       8.854  -0.746  -4.613  0.00  0.00     0.063 H 
ATOM     27  C   LIG d   1       5.594  -0.676  -3.739  0.00  0.00     0.130 A 
ATOM     28  H   LIG d   1       6.889  -2.217  -4.472  0.00  0.00     0.065 H 
ATOM     29  C   LIG d   1       5.485   0.657  -3.368  0.00  0.00    -0.019 A 
ATOM     30  C   LIG d   1       6.586   1.486  -3.439  0.00  0.00    -0.048 A 
ATOM     31  H   LIG d   1       4.540   1.046  -3.022  0.00  0.00     0.065 H 
ATOM     32  H   LIG d   1       6.501   2.523  -3.149  0.00  0.00     0.063 H 
BRANCH  27  33
ATOM     33  O   LIG d   1       4.508  -1.489  -3.668  0.00  0.00    -0.406 OA
BRANCH  33  34
ATOM     34  C   LIG d   1       3.822  -1.546  -2.416  0.00  0.00     0.575 C 
ATOM     35  F   LIG d   1       3.516  -2.877  -2.112  0.00  0.00    -0.133 F 
ATOM     36  F   LIG d   1       4.636  -1.013  -1.413  0.00  0.00    -0.133 F 
ATOM     37  F   LIG d   1       2.638  -0.803  -2.500  0.00  0.00    -0.133 F 
ENDBRANCH  33  34
ENDBRANCH  27  33
ENDBRANCH  21  23
ENDBRANCH  10  18
BRANCH   1  38
ATOM     38  C   LIG d   1      11.161   4.963  -6.069  0.00  0.00     0.042 C 
ATOM     39  H   LIG d   1      11.296   3.947  -5.697  0.00  0.00     0.049 H 
ATOM     40  H   LIG d   1      12.129   5.378  -6.348  0.00  0.00     0.049 H 
BRANCH  38  41
ATOM     41  C   LIG d   1      10.258   4.939  -7.276  0.00  0.00     0.055 A 
ATOM     42  N   LIG d   1      10.073   6.042  -7.974  0.00  0.00    -0.259 NA
ATOM     43  C   LIG d   1       9.292   6.068  -9.036  0.00  0.00     0.028 A 
ATOM     44  C   LIG d   1       8.634   4.929  -9.458  0.00  0.00    -0.044 A 
ATOM     45  H   LIG d   1       9.166   6.991  -9.583  0.00  0.00     0.083 H 
ATOM     46  C   LIG d   1       8.804   3.749  -8.748  0.00  0.00    -0.059 A 
ATOM     47  H   LIG d   1       7.997   4.956 -10.329  0.00  0.00     0.063 H 
ATOM     48  C   LIG d   1       9.632   3.760  -7.637  0.00  0.00    -0.039 A 
ATOM     49  H   LIG d   1       8.299   2.843  -9.052  0.00  0.00     0.062 H 
ATOM     50  H   LIG d   1       9.788   2.860  -7.061  0.00  0.00     0.064 H 
ENDBRANCH  38  41
ENDBRANCH   1  38
TORSDOF 6
ENDMDL
MODEL 7
REMARK VINA RESULT:      -6.6      5.242      7.283
REMARK  6 active torsions:
REMARK  status: ('A' for Active; 'I' for Inactive)
REMARK    1  A    between atoms: C_5  and  C_7 
REMARK    2  A    between atoms: C_7  and  N_8 
REMARK    3  A    between atoms: C_17  and  C_19 
REMARK    4  A    between atoms: C_21  and  C_24 
REMARK    5  A    between atoms: C_27  and  O_30 
REMARK    6  A    between atoms: O_30  and  C_31 
ROOT
ATOM      1  N   LIG d   1       5.815  -0.960 -11.587  0.00  0.00    -0.277 N 
ATOM      2  C   LIG d   1       6.398  -0.834 -12.934  0.00  0.00     0.066 C 
ATOM      3  C   LIG d   1       7.858  -1.200 -12.855  0.00  0.00     0.159 A 
ATOM      4  C   LIG d   1       8.399  -1.873 -11.813  0.00  0.00     0.148 A 
ATOM      5  N   LIG d   1       9.724  -2.023 -12.077  0.00  0.00    -0.247 N 
ATOM      6  H   LIG d   1      10.377  -2.466 -11.514  0.00  0.00     0.310 HD
ATOM      7  C   LIG d   1       9.956  -1.439 -13.276  0.00  0.00     0.243 A 
ATOM      8  N   LIG d   1       8.831  -0.950 -13.732  0.00  0.00    -0.246 N 
ATOM      9  C   LIG d   1       7.604  -2.335 -10.619  0.00  0.00     0.037 C 
ATOM     10  C   LIG d   1       6.116  -2.269 -10.991  0.00  0.00     0.098 C 
ATOM     11  H   LIG d   1       5.885  -3.057 -11.708  0.00  0.00     0.057 H 
ATOM     12  H   LIG d   1       5.886  -1.509 -13.620  0.00  0.00     0.051 H 
ATOM     13  H   LIG d   1       6.295   0.194 -13.283  0.00  0.00     0.051 H 
ATOM     14  H   LIG d   1      10.913  -1.386 -13.775  0.00  0.00     0.158 H 
ATOM     15  H   LIG d   1       7.877  -3.361 -10.369  0.00  0.00     0.037 H 
ATOM     16  H   LIG d   1       7.801  -1.683  -9.769  0.00  0.00     0.037 H 
ATOM     17  H   LIG d   1       8.723  -0.481 -14.574  0.00  0.00     0.310 HD
ENDROOT
BRANCH  10  18
ATOM     18  C   LIG d   1       5.280  -2.460  -9.751  0.00  0.00     0.245 A 
ATOM     19  O   LIG d   1       4.271  -3.329  -9.614  0.00  0.00    -0.336 OA
ATOM     20  N   LIG d   1       3.779  -3.167  -8.292  0.00  0.00    -0.056 NA
ATOM     21  C   LIG d   1       4.505  -2.227  -7.739  0.00  0.00     0.202 A 
ATOM     22  N   LIG d   1       5.415  -1.803  -8.634  0.00  0.00    -0.190 NA
BRANCH  21  23
ATOM     23  C   LIG d   1       4.349  -1.714  -6.355  0.00  0.00     0.023 A 
ATOM     24  C   LIG d   1       3.645  -0.534  -6.123  0.00  0.00    -0.048 A 
ATOM     25  C   LIG d   1       3.497  -0.064  -4.835  0.00  0.00    -0.019 A 
ATOM     26  H   LIG d   1       3.213   0.009  -6.950  0.00  0.00     0.063 H 
ATOM     27  C   LIG d   1       4.058  -0.758  -3.772  0.00  0.00     0.130 A 
ATOM     28  H   LIG d   1       2.948   0.848  -4.654  0.00  0.00     0.065 H 
ATOM     29  C   LIG d   1       4.765  -1.931  -4.000  0.00  0.00    -0.019 A 
ATOM     30  C   LIG d   1       4.911  -2.410  -5.286  0.00  0.00    -0.048 A 
ATOM     31  H   LIG d   1       5.199  -2.470  -3.172  0.00  0.00     0.065 H 
ATOM     32  H   LIG d   1       5.460  -3.323  -5.463  0.00  0.00     0.063 H 
BRANCH  27  33
ATOM     33  O   LIG d   1       3.915  -0.289  -2.506  0.00  0.00    -0.406 OA
BRANCH  33  34
ATOM     34  C   LIG d   1       4.441   1.011  -2.232  0.00  0.00     0.575 C 
ATOM     35  F   LIG d   1       5.613   1.205  -2.970  0.00  0.00    -0.133 F 
ATOM     36  F   LIG d   1       3.499   1.980  -2.588  0.00  0.00    -0.133 F 
ATOM     37  F   LIG d   1       4.727   1.120  -0.866  0.00  0.00    -0.133 F 
ENDBRANCH  33  34
ENDBRANCH  27  33
ENDBRANCH  21  23
ENDBRANCH  10  18
BRANCH   1  38
ATOM     38  C   LIG d   1       4.367  -0.715 -11.615  0.00  0.00     0.042 C 
ATOM     39  H   LIG d   1       3.838  -1.634 -11.361  0.00  0.00     0.049 H 
ATOM     40  H   LIG d   1       4.072  -0.390 -12.612  0.00  0.00     0.049 H 
BRANCH  38  41
ATOM     41  C   LIG d   1       4.020   0.357 -10.613  0.00  0.00     0.055 A 
ATOM     42  N   LIG d   1       4.890   1.314 -10.356  0.00  0.00    -0.259 NA
ATOM     43  C   LIG d   1       4.630   2.271  -9.487  0.00  0.00     0.028 A 
ATOM     44  C   LIG d   1       3.425   2.305  -8.811  0.00  0.00    -0.044 A 
ATOM     45  H   LIG d   1       5.367   3.039  -9.302  0.00  0.00     0.083 H 
ATOM     46  C   LIG d   1       2.485   1.314  -9.056  0.00  0.00    -0.059 A 
ATOM     47  H   LIG d   1       3.218   3.092  -8.102  0.00  0.00     0.063 H 
ATOM     48  C   LIG d   1       2.795   0.324  -9.975  0.00  0.00    -0.039 A 
ATOM     49  H   LIG d   1       1.537   1.313  -8.540  0.00  0.00     0.062 H 
ATOM     50  H   LIG d   1       2.087  -0.463 -10.191  0.00  0.00     0.064 H 
ENDBRANCH  38  41
ENDBRANCH   1  38
TORSDOF 6
ENDMDL
MODEL 8
REMARK VINA RESULT:      -6.5      6.952      9.653
REMARK  6 active torsions:
REMARK  status: ('A' for Active; 'I' for Inactive)
REMARK    1  A    between atoms: C_5  and  C_7 
REMARK    2  A    between atoms: C_7  and  N_8 
REMARK    3  A    between atoms: C_17  and  C_19 
REMARK    4  A    between atoms: C_21  and  C_24 
REMARK    5  A    between atoms: C_27  and  O_30 
REMARK    6  A    between atoms: O_30  and  C_31 
ROOT
ATOM      1  N   LIG d   1       4.282  -0.651  -6.664  0.00  0.00    -0.277 N 
ATOM      2  C   LIG d   1       3.245   0.351  -6.965  0.00  0.00     0.066 C 
ATOM      3  C   LIG d   1       3.567   0.980  -8.298  0.00  0.00     0.159 A 
ATOM      4  C   LIG d   1       4.431   0.436  -9.185  0.00  0.00     0.148 A 
ATOM      5  N   LIG d   1       4.478   1.266 -10.260  0.00  0.00    -0.247 N 
ATOM      6  H   LIG d   1       5.010   1.144 -11.061  0.00  0.00     0.310 HD
ATOM      7  C   LIG d   1       3.636   2.295 -10.000  0.00  0.00     0.243 A 
ATOM      8  N   LIG d   1       3.097   2.112  -8.822  0.00  0.00    -0.246 N 
ATOM      9  C   LIG d   1       5.165  -0.858  -8.946  0.00  0.00     0.037 C 
ATOM     10  C   LIG d   1       4.471  -1.584  -7.785  0.00  0.00     0.098 C 
ATOM     11  H   LIG d   1       3.502  -1.956  -8.115  0.00  0.00     0.057 H 
ATOM     12  H   LIG d   1       2.270  -0.134  -7.014  0.00  0.00     0.051 H 
ATOM     13  H   LIG d   1       3.238   1.116  -6.190  0.00  0.00     0.051 H 
ATOM     14  H   LIG d   1       3.443   3.130 -10.658  0.00  0.00     0.158 H 
ATOM     15  H   LIG d   1       5.125  -1.476  -9.843  0.00  0.00     0.037 H 
ATOM     16  H   LIG d   1       6.202  -0.653  -8.685  0.00  0.00     0.037 H 
ATOM     17  H   LIG d   1       2.457   2.705  -8.399  0.00  0.00     0.310 HD
ENDROOT
BRANCH  10  18
ATOM     18  C   LIG d   1       5.325  -2.742  -7.334  0.00  0.00     0.245 A 
ATOM     19  O   LIG d   1       6.657  -2.724  -7.194  0.00  0.00    -0.336 OA
ATOM     20  N   LIG d   1       7.031  -4.020  -6.752  0.00  0.00    -0.056 NA
ATOM     21  C   LIG d   1       5.924  -4.716  -6.665  0.00  0.00     0.202 A 
ATOM     22  N   LIG d   1       4.892  -3.930  -7.021  0.00  0.00    -0.190 NA
BRANCH  21  23
ATOM     23  C   LIG d   1       5.825  -6.135  -6.243  0.00  0.00     0.023 A 
ATOM     24  C   LIG d   1       6.773  -6.673  -5.375  0.00  0.00    -0.048 A 
ATOM     25  C   LIG d   1       6.674  -7.991  -4.980  0.00  0.00    -0.019 A 
ATOM     26  H   LIG d   1       7.580  -6.058  -5.007  0.00  0.00     0.063 H 
ATOM     27  C   LIG d   1       5.640  -8.784  -5.456  0.00  0.00     0.130 A 
ATOM     28  H   LIG d   1       7.406  -8.407  -4.303  0.00  0.00     0.065 H 
ATOM     29  C   LIG d   1       4.697  -8.253  -6.326  0.00  0.00    -0.019 A 
ATOM     30  C   LIG d   1       4.786  -6.934  -6.720  0.00  0.00    -0.048 A 
ATOM     31  H   LIG d   1       3.893  -8.872  -6.695  0.00  0.00     0.065 H 
ATOM     32  H   LIG d   1       4.053  -6.521  -7.396  0.00  0.00     0.063 H 
BRANCH  27  33
ATOM     33  O   LIG d   1       5.549 -10.083  -5.070  0.00  0.00    -0.406 OA
BRANCH  33  34
ATOM     34  C   LIG d   1       4.892 -10.347  -3.829  0.00  0.00     0.575 C 
ATOM     35  F   LIG d   1       4.283 -11.605  -3.881  0.00  0.00    -0.133 F 
ATOM     36  F   LIG d   1       5.829 -10.324  -2.791  0.00  0.00    -0.133 F 
ATOM     37  F   LIG d   1       3.919  -9.367  -3.599  0.00  0.00    -0.133 F 
ENDBRANCH  33  34
ENDBRANCH  27  33
ENDBRANCH  21  23
ENDBRANCH  10  18
BRANCH   1  38
ATOM     38  C   LIG d   1       3.970  -1.375  -5.424  0.00  0.00     0.042 C 
ATOM     39  H   LIG d   1       4.594  -2.267  -5.357  0.00  0.00     0.049 H 
ATOM     40  H   LIG d   1       2.920  -1.665  -5.427  0.00  0.00     0.049 H 
BRANCH  38  41
ATOM     41  C   LIG d   1       4.242  -0.482  -4.241  0.00  0.00     0.055 A 
ATOM     42  N   LIG d   1       3.251  -0.138  -3.442  0.00  0.00    -0.259 NA
ATOM     43  C   LIG d   1       3.443   0.642  -2.395  0.00  0.00     0.028 A 
ATOM     44  C   LIG d   1       4.701   1.128  -2.096  0.00  0.00    -0.044 A 
ATOM     45  H   LIG d   1       2.606   0.901  -1.764  0.00  0.00     0.083 H 
ATOM     46  C   LIG d   1       5.769   0.787  -2.914  0.00  0.00    -0.059 A 
ATOM     47  H   LIG d   1       4.851   1.764  -1.238  0.00  0.00     0.063 H 
ATOM     48  C   LIG d   1       5.528  -0.033  -4.005  0.00  0.00    -0.039 A 
ATOM     49  H   LIG d   1       6.762   1.155  -2.708  0.00  0.00     0.062 H 
ATOM     50  H   LIG d   1       6.336  -0.319  -4.664  0.00  0.00     0.064 H 
ENDBRANCH  38  41
ENDBRANCH   1  38
TORSDOF 6
ENDMDL
MODEL 9
REMARK VINA RESULT:      -6.5      4.738      8.798
REMARK  6 active torsions:
REMARK  status: ('A' for Active; 'I' for Inactive)
REMARK    1  A    between atoms: C_5  and  C_7 
REMARK    2  A    between atoms: C_7  and  N_8 
REMARK    3  A    between atoms: C_17  and  C_19 
REMARK    4  A    between atoms: C_21  and  C_24 
REMARK    5  A    between atoms: C_27  and  O_30 
REMARK    6  A    between atoms: O_30  and  C_31 
ROOT
ATOM      1  N   LIG d   1      12.074   4.041  -4.037  0.00  0.00    -0.277 N 
ATOM      2  C   LIG d   1      13.408   4.664  -4.016  0.00  0.00     0.066 C 
ATOM      3  C   LIG d   1      14.391   3.662  -3.464  0.00  0.00     0.159 A 
ATOM      4  C   LIG d   1      14.129   2.338  -3.375  0.00  0.00     0.148 A 
ATOM      5  N   LIG d   1      15.226   1.747  -2.833  0.00  0.00    -0.247 N 
ATOM      6  H   LIG d   1      15.340   0.803  -2.645  0.00  0.00     0.310 HD
ATOM      7  C   LIG d   1      16.132   2.728  -2.608  0.00  0.00     0.243 A 
ATOM      8  N   LIG d   1      15.620   3.870  -2.990  0.00  0.00    -0.246 N 
ATOM      9  C   LIG d   1      12.831   1.715  -3.820  0.00  0.00     0.037 C 
ATOM     10  C   LIG d   1      12.101   2.733  -4.707  0.00  0.00     0.098 C 
ATOM     11  H   LIG d   1      12.622   2.824  -5.660  0.00  0.00     0.057 H 
ATOM     12  H   LIG d   1      13.698   4.944  -5.029  0.00  0.00     0.051 H 
ATOM     13  H   LIG d   1      13.390   5.549  -3.380  0.00  0.00     0.051 H 
ATOM     14  H   LIG d   1      17.116   2.591  -2.183  0.00  0.00     0.158 H 
ATOM     15  H   LIG d   1      13.033   0.807  -4.390  0.00  0.00     0.037 H 
ATOM     16  H   LIG d   1      12.218   1.476  -2.951  0.00  0.00     0.037 H 
ATOM     17  H   LIG d   1      16.064   4.731  -2.938  0.00  0.00     0.310 HD
ENDROOT
BRANCH  10  18
ATOM     18  C   LIG d   1      10.689   2.265  -4.951  0.00  0.00     0.245 A 
ATOM     19  O   LIG d   1      10.046   2.294  -6.125  0.00  0.00    -0.336 OA
ATOM     20  N   LIG d   1       8.753   1.758  -5.888  0.00  0.00    -0.056 NA
ATOM     21  C   LIG d   1       8.704   1.456  -4.614  0.00  0.00     0.202 A 
ATOM     22  N   LIG d   1       9.886   1.768  -4.053  0.00  0.00    -0.190 NA
BRANCH  21  23
ATOM     23  C   LIG d   1       7.540   0.868  -3.908  0.00  0.00     0.023 A 
ATOM     24  C   LIG d   1       6.524   1.693  -3.430  0.00  0.00    -0.048 A 
ATOM     25  C   LIG d   1       5.439   1.143  -2.780  0.00  0.00    -0.019 A 
ATOM     26  H   LIG d   1       6.582   2.762  -3.574  0.00  0.00     0.063 H 
ATOM     27  C   LIG d   1       5.365  -0.230  -2.590  0.00  0.00     0.130 A 
ATOM     28  H   LIG d   1       4.649   1.781  -2.414  0.00  0.00     0.065 H 
ATOM     29  C   LIG d   1       6.379  -1.055  -3.059  0.00  0.00    -0.019 A 
ATOM     30  C   LIG d   1       7.463  -0.511  -3.716  0.00  0.00    -0.048 A 
ATOM     31  H   LIG d   1       6.319  -2.122  -2.911  0.00  0.00     0.065 H 
ATOM     32  H   LIG d   1       8.251  -1.152  -4.082  0.00  0.00     0.063 H 
BRANCH  27  33
ATOM     33  O   LIG d   1       4.299  -0.769  -1.944  0.00  0.00    -0.406 OA
BRANCH  33  34
ATOM     34  C   LIG d   1       3.421  -1.591  -2.714  0.00  0.00     0.575 C 
ATOM     35  F   LIG d   1       3.816  -1.566  -4.056  0.00  0.00    -0.133 F 
ATOM     36  F   LIG d   1       3.472  -2.904  -2.237  0.00  0.00    -0.133 F 
ATOM     37  F   LIG d   1       2.112  -1.106  -2.605  0.00  0.00    -0.133 F 
ENDBRANCH  33  34
ENDBRANCH  27  33
ENDBRANCH  21  23
ENDBRANCH  10  18
BRANCH   1  38
ATOM     38  C   LIG d   1      11.086   4.931  -4.660  0.00  0.00     0.042 C 
ATOM     39  H   LIG d   1      10.233   4.345  -5.003  0.00  0.00     0.049 H 
ATOM     40  H   LIG d   1      11.541   5.441  -5.509  0.00  0.00     0.049 H 
BRANCH  38  41
ATOM     41  C   LIG d   1      10.622   5.950  -3.651  0.00  0.00     0.055 A 
ATOM     42  N   LIG d   1      10.599   7.227  -3.977  0.00  0.00    -0.259 NA
ATOM     43  C   LIG d   1      10.200   8.153  -3.126  0.00  0.00     0.028 A 
ATOM     44  C   LIG d   1       9.788   7.812  -1.852  0.00  0.00    -0.044 A 
ATOM     45  H   LIG d   1      10.195   9.189  -3.429  0.00  0.00     0.083 H 
ATOM     46  C   LIG d   1       9.799   6.477  -1.473  0.00  0.00    -0.059 A 
ATOM     47  H   LIG d   1       9.462   8.574  -1.161  0.00  0.00     0.063 H 
ATOM     48  C   LIG d   1      10.225   5.533  -2.394  0.00  0.00    -0.039 A 
ATOM     49  H   LIG d   1       9.486   6.182  -0.483  0.00  0.00     0.062 H 
ATOM     50  H   LIG d   1      10.246   4.485  -2.133  0.00  0.00     0.064 H 
ENDBRANCH  38  41
ENDBRANCH   1  38
TORSDOF 6
ENDMDL
MODEL 10
REMARK VINA RESULT:      -6.4      5.318      8.172
REMARK  6 active torsions:
REMARK  status: ('A' for Active; 'I' for Inactive)
REMARK    1  A    between atoms: C_5  and  C_7 
REMARK    2  A    between atoms: C_7  and  N_8 
REMARK    3  A    between atoms: C_17  and  C_19 
REMARK    4  A    between atoms: C_21  and  C_24 
REMARK    5  A    between atoms: C_27  and  O_30 
REMARK    6  A    between atoms: O_30  and  C_31 
ROOT
ATOM      1  N   LIG d   1       3.444  -2.489 -12.129  0.00  0.00    -0.277 N 
ATOM      2  C   LIG d   1       4.191  -3.153 -13.211  0.00  0.00     0.066 C 
ATOM      3  C   LIG d   1       4.658  -2.097 -14.182  0.00  0.00     0.159 A 
ATOM      4  C   LIG d   1       4.690  -0.778 -13.884  0.00  0.00     0.148 A 
ATOM      5  N   LIG d   1       5.156  -0.129 -14.983  0.00  0.00    -0.247 N 
ATOM      6  H   LIG d   1       5.291   0.827 -15.076  0.00  0.00     0.310 HD
ATOM      7  C   LIG d   1       5.398  -1.072 -15.925  0.00  0.00     0.243 A 
ATOM      8  N   LIG d   1       5.095  -2.246 -15.433  0.00  0.00    -0.246 N 
ATOM      9  C   LIG d   1       4.271  -0.216 -12.549  0.00  0.00     0.037 C 
ATOM     10  C   LIG d   1       4.211  -1.378 -11.548  0.00  0.00     0.098 C 
ATOM     11  H   LIG d   1       5.222  -1.714 -11.320  0.00  0.00     0.057 H 
ATOM     12  H   LIG d   1       5.053  -3.675 -12.795  0.00  0.00     0.051 H 
ATOM     13  H   LIG d   1       3.542  -3.862 -13.724  0.00  0.00     0.051 H 
ATOM     14  H   LIG d   1       5.777  -0.886 -16.918  0.00  0.00     0.158 H 
ATOM     15  H   LIG d   1       5.000   0.522 -12.214  0.00  0.00     0.037 H 
ATOM     16  H   LIG d   1       3.289   0.248 -12.636  0.00  0.00     0.037 H 
ATOM     17  H   LIG d   1       5.177  -3.091 -15.903  0.00  0.00     0.310 HD
ENDROOT
BRANCH  10  18
ATOM     18  C   LIG d   1       3.539  -0.914 -10.281  0.00  0.00     0.245 A 
ATOM     19  O   LIG d   1       2.332  -0.339 -10.200  0.00  0.00    -0.336 OA
ATOM     20  N   LIG d   1       2.106  -0.073  -8.824  0.00  0.00    -0.056 NA
ATOM     21  C   LIG d   1       3.172  -0.490  -8.185  0.00  0.00     0.202 A 
ATOM     22  N   LIG d   1       4.037  -1.000  -9.080  0.00  0.00    -0.190 NA
BRANCH  21  23
ATOM     23  C   LIG d   1       3.388  -0.413  -6.719  0.00  0.00     0.023 A 
ATOM     24  C   LIG d   1       2.531   0.348  -5.927  0.00  0.00    -0.048 A 
ATOM     25  C   LIG d   1       2.731   0.412  -4.564  0.00  0.00    -0.019 A 
ATOM     26  H   LIG d   1       1.709   0.882  -6.378  0.00  0.00     0.063 H 
ATOM     27  C   LIG d   1       3.791  -0.270  -3.983  0.00  0.00     0.130 A 
ATOM     28  H   LIG d   1       2.065   0.998  -3.948  0.00  0.00     0.065 H 
ATOM     29  C   LIG d   1       4.650  -1.025  -4.771  0.00  0.00    -0.019 A 
ATOM     30  C   LIG d   1       4.452  -1.098  -6.134  0.00  0.00    -0.048 A 
ATOM     31  H   LIG d   1       5.474  -1.555  -4.317  0.00  0.00     0.065 H 
ATOM     32  H   LIG d   1       5.120  -1.686  -6.747  0.00  0.00     0.063 H 
BRANCH  27  33
ATOM     33  O   LIG d   1       3.989  -0.200  -2.641  0.00  0.00    -0.406 OA
BRANCH  33  34
ATOM     34  C   LIG d   1       4.347   1.075  -2.104  0.00  0.00     0.575 C 
ATOM     35  F   LIG d   1       3.208   1.882  -2.022  0.00  0.00    -0.133 F 
ATOM     36  F   LIG d   1       4.892   0.907  -0.827  0.00  0.00    -0.133 F 
ATOM     37  F   LIG d   1       5.292   1.684  -2.938  0.00  0.00    -0.133 F 
ENDBRANCH  33  34
ENDBRANCH  27  33
ENDBRANCH  21  23
ENDBRANCH  10  18
BRANCH   1  38
ATOM     38  C   LIG d   1       3.049  -3.454 -11.094  0.00  0.00     0.042 C 
ATOM     39  H   LIG d   1       3.188  -3.007 -10.109  0.00  0.00     0.049 H 
ATOM     40  H   LIG d   1       3.664  -4.349 -11.177  0.00  0.00     0.049 H 
BRANCH  38  41
ATOM     41  C   LIG d   1       1.599  -3.821 -11.278  0.00  0.00     0.055 A 
ATOM     42  N   LIG d   1       1.067  -4.769 -10.532  0.00  0.00    -0.259 NA
ATOM     43  C   LIG d   1      -0.198  -5.124 -10.659  0.00  0.00     0.028 A 
ATOM     44  C   LIG d   1      -1.016  -4.506 -11.585  0.00  0.00    -0.044 A 
ATOM     45  H   LIG d   1      -0.598  -5.905 -10.029  0.00  0.00     0.083 H 
ATOM     46  C   LIG d   1      -0.491  -3.503 -12.387  0.00  0.00    -0.059 A 
ATOM     47  H   LIG d   1      -2.050  -4.799 -11.682  0.00  0.00     0.063 H 
ATOM     48  C   LIG d   1       0.842  -3.159 -12.226  0.00  0.00    -0.039 A 
ATOM     49  H   LIG d   1      -1.106  -3.005 -13.123  0.00  0.00     0.062 H 
ATOM     50  H   LIG d   1       1.284  -2.382 -12.834  0.00  0.00     0.064 H 
ENDBRANCH  38  41
ENDBRANCH   1  38
TORSDOF 6
ENDMDL
