MODEL 1
REMARK VINA RESULT:      -7.1      0.000      0.000
REMARK  11 active torsions:
REMARK  status: ('A' for Active; 'I' for Inactive)
REMARK    1  A    between atoms: C_1  and  C_2 
REMARK    2  A    between atoms: C_2  and  C_3 
REMARK    3  A    between atoms: C_3  and  O_4 
REMARK    4  A    between atoms: O_4  and  C_5 
REMARK    5  A    between atoms: C_8  and  C_13 
REMARK    6  A    between atoms: C_10  and  O_11 
REMARK    7  A    between atoms: O_11  and  C_12 
REMARK    8  A    between atoms: N_20  and  C_35 
REMARK    9  A    between atoms: C_23  and  C_34 
REMARK   10  A    between atoms: C_35  and  C_36 
REMARK   11  A    between atoms: C_36  and  C_37 
ROOT
ATOM      1  C   LIG d   1       7.556  -1.700  -4.628  0.00  0.00     0.028 C 
ATOM      2  H   LIG d   1       7.901  -1.823  -3.601  0.00  0.00     0.041 H 
ATOM      3  C   LIG d   1       7.836  -2.983  -5.420  0.00  0.00     0.027 C 
ATOM      4  N   LIG d   1       7.056  -2.949  -6.671  0.00  0.00    -0.280 N 
ATOM      5  C   LIG d   1       7.698  -2.908  -7.842  0.00  0.00     0.234 C 
ATOM      6  O   LIG d   1       8.903  -3.043  -7.834  0.00  0.00    -0.274 OA
ATOM      7  C   LIG d   1       7.027  -2.707  -9.162  0.00  0.00     0.091 C 
ATOM      8  N   LIG d   1       5.593  -2.506  -9.024  0.00  0.00    -0.290 N 
ATOM      9  C   LIG d   1       4.941  -2.615  -7.867  0.00  0.00     0.245 C 
ATOM     10  O   LIG d   1       3.743  -2.421  -7.867  0.00  0.00    -0.273 OA
ATOM     11  C   LIG d   1       5.597  -2.962  -6.571  0.00  0.00     0.151 C 
ATOM     12  C   LIG d   1       5.193  -1.984  -5.494  0.00  0.00     0.054 A 
ATOM     13  C   LIG d   1       6.073  -1.429  -4.630  0.00  0.00    -0.008 A 
ATOM     14  C   LIG d   1       5.316  -0.557  -3.756  0.00  0.00     0.004 A 
ATOM     15  C   LIG d   1       5.685   0.266  -2.687  0.00  0.00    -0.052 A 
ATOM     16  C   LIG d   1       4.680   0.971  -2.070  0.00  0.00    -0.061 A 
ATOM     17  C   LIG d   1       3.360   0.879  -2.478  0.00  0.00    -0.060 A 
ATOM     18  C   LIG d   1       2.967   0.073  -3.533  0.00  0.00    -0.038 A 
ATOM     19  C   LIG d   1       3.965  -0.655  -4.177  0.00  0.00     0.047 A 
ATOM     20  N   LIG d   1       3.930  -1.526  -5.231  0.00  0.00    -0.356 N 
ATOM     21  H   LIG d   1       3.131  -1.782  -5.718  0.00  0.00     0.166 HD
ATOM     22  H   LIG d   1       8.898  -3.043  -5.653  0.00  0.00     0.047 H 
ATOM     23  H   LIG d   1       7.539  -3.849  -4.829  0.00  0.00     0.047 H 
ATOM     24  H   LIG d   1       7.461  -1.834  -9.650  0.00  0.00     0.056 H 
ATOM     25  H   LIG d   1       7.203  -3.583  -9.786  0.00  0.00     0.056 H 
ATOM     26  H   LIG d   1       6.712   0.344  -2.361  0.00  0.00     0.062 H 
ATOM     27  H   LIG d   1       4.928   1.617  -1.241  0.00  0.00     0.062 H 
ATOM     28  H   LIG d   1       2.612   1.457  -1.957  0.00  0.00     0.062 H 
ATOM     29  H   LIG d   1       1.934   0.011  -3.842  0.00  0.00     0.064 H 
ENDROOT
BRANCH   1  30
ATOM     30  C   LIG d   1       8.280  -0.545  -5.268  0.00  0.00    -0.035 A 
ATOM     31  C   LIG d   1       7.568   0.422  -5.953  0.00  0.00    -0.054 A 
ATOM     32  C   LIG d   1       8.229   1.484  -6.542  0.00  0.00    -0.016 A 
ATOM     33  H   LIG d   1       6.494   0.348  -6.028  0.00  0.00     0.062 H 
ATOM     34  C   LIG d   1       9.608   1.582  -6.447  0.00  0.00     0.162 A 
ATOM     35  H   LIG d   1       7.670   2.239  -7.075  0.00  0.00     0.066 H 
ATOM     36  C   LIG d   1      10.325   0.605  -5.762  0.00  0.00     0.162 A 
ATOM     37  C   LIG d   1       9.657  -0.454  -5.169  0.00  0.00    -0.013 A 
ATOM     38  H   LIG d   1      10.211  -1.210  -4.634  0.00  0.00     0.066 H 
BRANCH  34  39
ATOM     39  O   LIG d   1      10.258   2.626  -7.026  0.00  0.00    -0.488 OA
BRANCH  39  40
ATOM     40  C   LIG d   1       9.715   3.929  -6.811  0.00  0.00     0.089 C 
ATOM     41  H   LIG d   1      10.281   4.435  -6.029  0.00  0.00     0.070 H 
ATOM     42  H   LIG d   1       8.672   3.841  -6.505  0.00  0.00     0.070 H 
BRANCH  40  43
ATOM     43  C   LIG d   1       9.799   4.737  -8.107  0.00  0.00    -0.021 C 
ATOM     44  H   LIG d   1      10.807   4.663  -8.517  0.00  0.00     0.029 H 
ATOM     45  H   LIG d   1       9.568   5.782  -7.899  0.00  0.00     0.029 H 
BRANCH  43  46
ATOM     46  C   LIG d   1       8.794   4.184  -9.120  0.00  0.00    -0.062 C 
ATOM     47  H   LIG d   1       7.789   4.238  -8.701  0.00  0.00     0.023 H 
ATOM     48  H   LIG d   1       8.839   4.773 -10.036  0.00  0.00     0.023 H 
ATOM     49  H   LIG d   1       9.039   3.146  -9.343  0.00  0.00     0.023 H 
ENDBRANCH  43  46
ENDBRANCH  40  43
ENDBRANCH  39  40
ENDBRANCH  34  39
BRANCH  36  50
ATOM     50  O   LIG d   1      11.680   0.692  -5.672  0.00  0.00    -0.491 OA
BRANCH  50  51
ATOM     51  C   LIG d   1      12.235   0.820  -4.361  0.00  0.00     0.079 C 
ATOM     52  H   LIG d   1      12.405   1.873  -4.139  0.00  0.00     0.066 H 
ATOM     53  H   LIG d   1      11.541   0.403  -3.631  0.00  0.00     0.066 H 
ATOM     54  H   LIG d   1      13.180   0.280  -4.314  0.00  0.00     0.066 H 
ENDBRANCH  50  51
ENDBRANCH  36  50
ENDBRANCH   1  30
BRANCH  11  55
ATOM     55  C   LIG d   1       5.143  -4.359  -6.145  0.00  0.00    -0.029 C 
ATOM     56  H   LIG d   1       4.594  -4.293  -5.206  0.00  0.00     0.026 H 
ATOM     57  H   LIG d   1       4.496  -4.782  -6.914  0.00  0.00     0.026 H 
ATOM     58  H   LIG d   1       6.016  -5.001  -6.012  0.00  0.00     0.026 H 
ENDBRANCH  11  55
BRANCH   8  59
ATOM     59  C   LIG d   1       4.824  -2.165 -10.223  0.00  0.00     0.019 C 
ATOM     60  H   LIG d   1       4.748  -3.040 -10.867  0.00  0.00     0.047 H 
ATOM     61  H   LIG d   1       3.824  -1.840  -9.933  0.00  0.00     0.047 H 
BRANCH  59  62
ATOM     62  C   LIG d   1       5.528  -1.035 -10.977  0.00  0.00    -0.009 C 
ATOM     63  H   LIG d   1       6.607  -1.155 -10.888  0.00  0.00     0.033 H 
ATOM     64  H   LIG d   1       5.244  -1.069 -12.029  0.00  0.00     0.033 H 
BRANCH  62  65
ATOM     65  C   LIG d   1       5.120   0.291 -10.389  0.00  0.00    -0.011 A 
ATOM     66  C   LIG d   1       3.887   0.838 -10.700  0.00  0.00     0.127 A 
ATOM     67  C   LIG d   1       3.512   2.054 -10.155  0.00  0.00    -0.026 A 
ATOM     68  F   LIG d   1       3.048   0.182 -11.532  0.00  0.00    -0.205 F 
ATOM     69  C   LIG d   1       4.373   2.726  -9.308  0.00  0.00    -0.059 A 
ATOM     70  H   LIG d   1       2.548   2.479 -10.393  0.00  0.00     0.065 H 
ATOM     71  C   LIG d   1       5.607   2.182  -9.003  0.00  0.00    -0.061 A 
ATOM     72  H   LIG d   1       4.083   3.676  -8.885  0.00  0.00     0.062 H 
ATOM     73  C   LIG d   1       5.980   0.965  -9.542  0.00  0.00    -0.056 A 
ATOM     74  H   LIG d   1       6.280   2.708  -8.341  0.00  0.00     0.062 H 
ATOM     75  H   LIG d   1       6.945   0.542  -9.302  0.00  0.00     0.062 H 
ENDBRANCH  62  65
ENDBRANCH  59  62
ENDBRANCH   8  59
TORSDOF 11
ENDMDL
MODEL 2
REMARK VINA RESULT:      -6.9      2.592      4.487
REMARK  11 active torsions:
REMARK  status: ('A' for Active; 'I' for Inactive)
REMARK    1  A    between atoms: C_1  and  C_2 
REMARK    2  A    between atoms: C_2  and  C_3 
REMARK    3  A    between atoms: C_3  and  O_4 
REMARK    4  A    between atoms: O_4  and  C_5 
REMARK    5  A    between atoms: C_8  and  C_13 
REMARK    6  A    between atoms: C_10  and  O_11 
REMARK    7  A    between atoms: O_11  and  C_12 
REMARK    8  A    between atoms: N_20  and  C_35 
REMARK    9  A    between atoms: C_23  and  C_34 
REMARK   10  A    between atoms: C_35  and  C_36 
REMARK   11  A    between atoms: C_36  and  C_37 
ROOT
ATOM      1  C   LIG d   1       7.518  -0.850  -5.851  0.00  0.00     0.028 C 
ATOM      2  H   LIG d   1       8.255  -0.216  -5.356  0.00  0.00     0.041 H 
ATOM      3  C   LIG d   1       8.221  -2.059  -6.478  0.00  0.00     0.027 C 
ATOM      4  N   LIG d   1       7.207  -3.075  -6.819  0.00  0.00    -0.280 N 
ATOM      5  C   LIG d   1       7.008  -3.398  -8.099  0.00  0.00     0.234 C 
ATOM      6  O   LIG d   1       7.771  -2.943  -8.925  0.00  0.00    -0.274 OA
ATOM      7  C   LIG d   1       5.907  -4.285  -8.581  0.00  0.00     0.091 C 
ATOM      8  N   LIG d   1       5.037  -4.716  -7.499  0.00  0.00    -0.290 N 
ATOM      9  C   LIG d   1       5.271  -4.453  -6.213  0.00  0.00     0.245 C 
ATOM     10  O   LIG d   1       4.476  -4.859  -5.393  0.00  0.00    -0.273 OA
ATOM     11  C   LIG d   1       6.458  -3.690  -5.724  0.00  0.00     0.151 C 
ATOM     12  C   LIG d   1       6.028  -2.594  -4.777  0.00  0.00     0.054 A 
ATOM     13  C   LIG d   1       6.509  -1.331  -4.840  0.00  0.00    -0.008 A 
ATOM     14  C   LIG d   1       5.870  -0.581  -3.779  0.00  0.00     0.004 A 
ATOM     15  C   LIG d   1       5.971   0.751  -3.365  0.00  0.00    -0.052 A 
ATOM     16  C   LIG d   1       5.198   1.130  -2.296  0.00  0.00    -0.061 A 
ATOM     17  C   LIG d   1       4.352   0.244  -1.649  0.00  0.00    -0.060 A 
ATOM     18  C   LIG d   1       4.231  -1.079  -2.037  0.00  0.00    -0.038 A 
ATOM     19  C   LIG d   1       5.005  -1.492  -3.120  0.00  0.00     0.047 A 
ATOM     20  N   LIG d   1       5.128  -2.699  -3.752  0.00  0.00    -0.356 N 
ATOM     21  H   LIG d   1       4.650  -3.508  -3.510  0.00  0.00     0.166 HD
ATOM     22  H   LIG d   1       8.745  -1.748  -7.382  0.00  0.00     0.047 H 
ATOM     23  H   LIG d   1       8.933  -2.478  -5.767  0.00  0.00     0.047 H 
ATOM     24  H   LIG d   1       5.312  -3.742  -9.317  0.00  0.00     0.056 H 
ATOM     25  H   LIG d   1       6.341  -5.163  -9.058  0.00  0.00     0.056 H 
ATOM     26  H   LIG d   1       6.628   1.449  -3.862  0.00  0.00     0.062 H 
ATOM     27  H   LIG d   1       5.250   2.151  -1.948  0.00  0.00     0.062 H 
ATOM     28  H   LIG d   1       3.766   0.598  -0.814  0.00  0.00     0.062 H 
ATOM     29  H   LIG d   1       3.567  -1.760  -1.525  0.00  0.00     0.064 H 
ENDROOT
BRANCH   1  30
ATOM     30  C   LIG d   1       6.817  -0.061  -6.926  0.00  0.00    -0.035 A 
ATOM     31  C   LIG d   1       5.458  -0.216  -7.120  0.00  0.00    -0.054 A 
ATOM     32  C   LIG d   1       4.810   0.506  -8.106  0.00  0.00    -0.016 A 
ATOM     33  H   LIG d   1       4.900  -0.903  -6.501  0.00  0.00     0.062 H 
ATOM     34  C   LIG d   1       5.523   1.387  -8.902  0.00  0.00     0.162 A 
ATOM     35  H   LIG d   1       3.747   0.383  -8.254  0.00  0.00     0.066 H 
ATOM     36  C   LIG d   1       6.894   1.539  -8.710  0.00  0.00     0.162 A 
ATOM     37  C   LIG d   1       7.536   0.817  -7.717  0.00  0.00    -0.013 A 
ATOM     38  H   LIG d   1       8.598   0.937  -7.563  0.00  0.00     0.066 H 
BRANCH  34  39
ATOM     39  O   LIG d   1       4.887   2.097  -9.871  0.00  0.00    -0.488 OA
BRANCH  39  40
ATOM     40  C   LIG d   1       3.768   1.475 -10.503  0.00  0.00     0.089 C 
ATOM     41  H   LIG d   1       3.156   2.235 -10.990  0.00  0.00     0.070 H 
ATOM     42  H   LIG d   1       3.171   0.955  -9.754  0.00  0.00     0.070 H 
BRANCH  40  43
ATOM     43  C   LIG d   1       4.262   0.472 -11.547  0.00  0.00    -0.021 C 
ATOM     44  H   LIG d   1       5.125  -0.066 -11.153  0.00  0.00     0.029 H 
ATOM     45  H   LIG d   1       4.549   1.004 -12.454  0.00  0.00     0.029 H 
BRANCH  43  46
ATOM     46  C   LIG d   1       3.144  -0.521 -11.870  0.00  0.00    -0.062 C 
ATOM     47  H   LIG d   1       2.207  -0.163 -11.444  0.00  0.00     0.023 H 
ATOM     48  H   LIG d   1       3.041  -0.614 -12.951  0.00  0.00     0.023 H 
ATOM     49  H   LIG d   1       3.389  -1.494 -11.443  0.00  0.00     0.023 H 
ENDBRANCH  43  46
ENDBRANCH  40  43
ENDBRANCH  39  40
ENDBRANCH  34  39
BRANCH  36  50
ATOM     50  O   LIG d   1       7.600   2.398  -9.493  0.00  0.00    -0.491 OA
BRANCH  50  51
ATOM     51  C   LIG d   1       8.993   2.126  -9.662  0.00  0.00     0.079 C 
ATOM     52  H   LIG d   1       9.570   3.015  -9.409  0.00  0.00     0.066 H 
ATOM     53  H   LIG d   1       9.284   1.306  -9.007  0.00  0.00     0.066 H 
ATOM     54  H   LIG d   1       9.185   1.851 -10.698  0.00  0.00     0.066 H 
ENDBRANCH  50  51
ENDBRANCH  36  50
ENDBRANCH   1  30
BRANCH  11  55
ATOM     55  C   LIG d   1       7.382  -4.643  -4.966  0.00  0.00    -0.029 C 
ATOM     56  H   LIG d   1       7.544  -5.542  -5.560  0.00  0.00     0.026 H 
ATOM     57  H   LIG d   1       8.338  -4.153  -4.782  0.00  0.00     0.026 H 
ATOM     58  H   LIG d   1       6.925  -4.915  -4.013  0.00  0.00     0.026 H 
ENDBRANCH  11  55
BRANCH   8  59
ATOM     59  C   LIG d   1       3.836  -5.483  -7.839  0.00  0.00     0.019 C 
ATOM     60  H   LIG d   1       3.879  -6.459  -7.356  0.00  0.00     0.047 H 
ATOM     61  H   LIG d   1       2.952  -4.946  -7.495  0.00  0.00     0.047 H 
BRANCH  59  62
ATOM     62  C   LIG d   1       3.761  -5.667  -9.357  0.00  0.00    -0.009 C 
ATOM     63  H   LIG d   1       4.565  -5.104  -9.831  0.00  0.00     0.033 H 
ATOM     64  H   LIG d   1       3.866  -6.725  -9.599  0.00  0.00     0.033 H 
BRANCH  62  65
ATOM     65  C   LIG d   1       2.432  -5.166  -9.859  0.00  0.00    -0.011 A 
ATOM     66  C   LIG d   1       2.222  -3.807 -10.024  0.00  0.00     0.127 A 
ATOM     67  C   LIG d   1       1.002  -3.349 -10.491  0.00  0.00    -0.026 A 
ATOM     68  F   LIG d   1       3.208  -2.931  -9.736  0.00  0.00    -0.205 F 
ATOM     69  C   LIG d   1      -0.008  -4.246 -10.781  0.00  0.00    -0.059 A 
ATOM     70  H   LIG d   1       0.838  -2.289 -10.625  0.00  0.00     0.065 H 
ATOM     71  C   LIG d   1       0.201  -5.602 -10.610  0.00  0.00    -0.061 A 
ATOM     72  H   LIG d   1      -0.961  -3.888 -11.142  0.00  0.00     0.062 H 
ATOM     73  C   LIG d   1       1.421  -6.061 -10.150  0.00  0.00    -0.056 A 
ATOM     74  H   LIG d   1      -0.589  -6.302 -10.837  0.00  0.00     0.062 H 
ATOM     75  H   LIG d   1       1.582  -7.121 -10.017  0.00  0.00     0.062 H 
ENDBRANCH  62  65
ENDBRANCH  59  62
ENDBRANCH   8  59
TORSDOF 11
ENDMDL
MODEL 3
REMARK VINA RESULT:      -6.7      2.681      5.426
REMARK  11 active torsions:
REMARK  status: ('A' for Active; 'I' for Inactive)
REMARK    1  A    between atoms: C_1  and  C_2 
REMARK    2  A    between atoms: C_2  and  C_3 
REMARK    3  A    between atoms: C_3  and  O_4 
REMARK    4  A    between atoms: O_4  and  C_5 
REMARK    5  A    between atoms: C_8  and  C_13 
REMARK    6  A    between atoms: C_10  and  O_11 
REMARK    7  A    between atoms: O_11  and  C_12 
REMARK    8  A    between atoms: N_20  and  C_35 
REMARK    9  A    between atoms: C_23  and  C_34 
REMARK   10  A    between atoms: C_35  and  C_36 
REMARK   11  A    between atoms: C_36  and  C_37 
ROOT
ATOM      1  C   LIG d   1       4.861  -3.395  -5.391  0.00  0.00     0.028 C 
ATOM      2  H   LIG d   1       4.189  -3.972  -4.756  0.00  0.00     0.041 H 
ATOM      3  C   LIG d   1       4.537  -3.671  -6.864  0.00  0.00     0.027 C 
ATOM      4  N   LIG d   1       5.182  -2.637  -7.695  0.00  0.00    -0.280 N 
ATOM      5  C   LIG d   1       6.139  -2.992  -8.555  0.00  0.00     0.234 C 
ATOM      6  O   LIG d   1       6.344  -4.176  -8.720  0.00  0.00    -0.274 OA
ATOM      7  C   LIG d   1       6.976  -2.025  -9.328  0.00  0.00     0.091 C 
ATOM      8  N   LIG d   1       6.665  -0.644  -8.997  0.00  0.00    -0.290 N 
ATOM      9  C   LIG d   1       5.665  -0.285  -8.192  0.00  0.00     0.245 C 
ATOM     10  O   LIG d   1       5.498   0.898  -7.981  0.00  0.00    -0.273 OA
ATOM     11  C   LIG d   1       4.736  -1.253  -7.537  0.00  0.00     0.151 C 
ATOM     12  C   LIG d   1       4.626  -0.963  -6.059  0.00  0.00     0.054 A 
ATOM     13  C   LIG d   1       4.679  -1.925  -5.109  0.00  0.00    -0.008 A 
ATOM     14  C   LIG d   1       4.536  -1.265  -3.829  0.00  0.00     0.004 A 
ATOM     15  C   LIG d   1       4.517  -1.741  -2.513  0.00  0.00    -0.052 A 
ATOM     16  C   LIG d   1       4.360  -0.808  -1.518  0.00  0.00    -0.061 A 
ATOM     17  C   LIG d   1       4.227   0.543  -1.790  0.00  0.00    -0.060 A 
ATOM     18  C   LIG d   1       4.243   1.042  -3.081  0.00  0.00    -0.038 A 
ATOM     19  C   LIG d   1       4.399   0.118  -4.113  0.00  0.00     0.047 A 
ATOM     20  N   LIG d   1       4.459   0.262  -5.472  0.00  0.00    -0.356 N 
ATOM     21  H   LIG d   1       4.393   1.105  -5.948  0.00  0.00     0.166 HD
ATOM     22  H   LIG d   1       4.915  -4.654  -7.143  0.00  0.00     0.047 H 
ATOM     23  H   LIG d   1       3.457  -3.637  -7.013  0.00  0.00     0.047 H 
ATOM     24  H   LIG d   1       8.028  -2.213  -9.109  0.00  0.00     0.056 H 
ATOM     25  H   LIG d   1       6.805  -2.181 -10.393  0.00  0.00     0.056 H 
ATOM     26  H   LIG d   1       4.619  -2.793  -2.291  0.00  0.00     0.062 H 
ATOM     27  H   LIG d   1       4.341  -1.139  -0.490  0.00  0.00     0.062 H 
ATOM     28  H   LIG d   1       4.107   1.232  -0.967  0.00  0.00     0.062 H 
ATOM     29  H   LIG d   1       4.138   2.098  -3.280  0.00  0.00     0.064 H 
ENDROOT
BRANCH   1  30
ATOM     30  C   LIG d   1       6.287  -3.790  -5.107  0.00  0.00    -0.035 A 
ATOM     31  C   LIG d   1       7.171  -2.859  -4.596  0.00  0.00    -0.054 A 
ATOM     32  C   LIG d   1       8.481  -3.217  -4.333  0.00  0.00    -0.016 A 
ATOM     33  H   LIG d   1       6.840  -1.850  -4.402  0.00  0.00     0.062 H 
ATOM     34  C   LIG d   1       8.909  -4.511  -4.582  0.00  0.00     0.162 A 
ATOM     35  H   LIG d   1       9.170  -2.488  -3.933  0.00  0.00     0.066 H 
ATOM     36  C   LIG d   1       8.020  -5.447  -5.102  0.00  0.00     0.162 A 
ATOM     37  C   LIG d   1       6.707  -5.083  -5.358  0.00  0.00    -0.013 A 
ATOM     38  H   LIG d   1       6.014  -5.809  -5.756  0.00  0.00     0.066 H 
BRANCH  34  39
ATOM     39  O   LIG d   1      10.197  -4.864  -4.325  0.00  0.00    -0.488 OA
BRANCH  39  40
ATOM     40  C   LIG d   1      10.689  -4.608  -3.009  0.00  0.00     0.089 C 
ATOM     41  H   LIG d   1      10.602  -3.543  -2.788  0.00  0.00     0.070 H 
ATOM     42  H   LIG d   1      11.736  -4.906  -2.948  0.00  0.00     0.070 H 
BRANCH  40  43
ATOM     43  C   LIG d   1       9.872  -5.408  -1.993  0.00  0.00    -0.021 C 
ATOM     44  H   LIG d   1       8.813  -5.335  -2.240  0.00  0.00     0.029 H 
ATOM     45  H   LIG d   1      10.040  -5.006  -0.994  0.00  0.00     0.029 H 
BRANCH  43  46
ATOM     46  C   LIG d   1      10.305  -6.875  -2.032  0.00  0.00    -0.062 C 
ATOM     47  H   LIG d   1       9.640  -7.432  -2.693  0.00  0.00     0.023 H 
ATOM     48  H   LIG d   1      11.327  -6.943  -2.404  0.00  0.00     0.023 H 
ATOM     49  H   LIG d   1      10.254  -7.295  -1.028  0.00  0.00     0.023 H 
ENDBRANCH  43  46
ENDBRANCH  40  43
ENDBRANCH  39  40
ENDBRANCH  34  39
BRANCH  36  50
ATOM     50  O   LIG d   1       8.437  -6.717  -5.354  0.00  0.00    -0.491 OA
BRANCH  50  51
ATOM     51  C   LIG d   1       7.735  -7.772  -4.694  0.00  0.00     0.079 C 
ATOM     52  H   LIG d   1       7.377  -7.421  -3.727  0.00  0.00     0.066 H 
ATOM     53  H   LIG d   1       6.888  -8.082  -5.305  0.00  0.00     0.066 H 
ATOM     54  H   LIG d   1       8.407  -8.618  -4.548  0.00  0.00     0.066 H 
ENDBRANCH  50  51
ENDBRANCH  36  50
ENDBRANCH   1  30
BRANCH  11  55
ATOM     55  C   LIG d   1       3.347  -1.106  -8.160  0.00  0.00    -0.029 C 
ATOM     56  H   LIG d   1       3.245  -1.806  -8.989  0.00  0.00     0.026 H 
ATOM     57  H   LIG d   1       2.587  -1.321  -7.408  0.00  0.00     0.026 H 
ATOM     58  H   LIG d   1       3.218  -0.087  -8.526  0.00  0.00     0.026 H 
ENDBRANCH  11  55
BRANCH   8  59
ATOM     59  C   LIG d   1       7.497   0.412  -9.579  0.00  0.00     0.019 C 
ATOM     60  H   LIG d   1       7.488   0.324 -10.666  0.00  0.00     0.047 H 
ATOM     61  H   LIG d   1       7.103   1.386  -9.290  0.00  0.00     0.047 H 
BRANCH  59  62
ATOM     62  C   LIG d   1       8.933   0.271  -9.068  0.00  0.00    -0.009 C 
ATOM     63  H   LIG d   1       9.240  -0.773  -9.129  0.00  0.00     0.033 H 
ATOM     64  H   LIG d   1       9.597   0.882  -9.680  0.00  0.00     0.033 H 
BRANCH  62  65
ATOM     65  C   LIG d   1       9.003   0.732  -7.635  0.00  0.00    -0.011 A 
ATOM     66  C   LIG d   1       9.246  -0.182  -6.625  0.00  0.00     0.127 A 
ATOM     67  C   LIG d   1       9.316   0.244  -5.309  0.00  0.00    -0.026 A 
ATOM     68  F   LIG d   1       9.422  -1.488  -6.923  0.00  0.00    -0.205 F 
ATOM     69  C   LIG d   1       9.132   1.579  -5.005  0.00  0.00    -0.059 A 
ATOM     70  H   LIG d   1       9.511  -0.469  -4.520  0.00  0.00     0.065 H 
ATOM     71  C   LIG d   1       8.882   2.490  -6.014  0.00  0.00    -0.061 A 
ATOM     72  H   LIG d   1       9.182   1.911  -3.979  0.00  0.00     0.062 H 
ATOM     73  C   LIG d   1       8.819   2.067  -7.329  0.00  0.00    -0.056 A 
ATOM     74  H   LIG d   1       8.739   3.534  -5.776  0.00  0.00     0.062 H 
ATOM     75  H   LIG d   1       8.624   2.781  -8.116  0.00  0.00     0.062 H 
ENDBRANCH  62  65
ENDBRANCH  59  62
ENDBRANCH   8  59
TORSDOF 11
ENDMDL
MODEL 4
REMARK VINA RESULT:      -6.6      1.605      2.548
REMARK  11 active torsions:
REMARK  status: ('A' for Active; 'I' for Inactive)
REMARK    1  A    between atoms: C_1  and  C_2 
REMARK    2  A    between atoms: C_2  and  C_3 
REMARK    3  A    between atoms: C_3  and  O_4 
REMARK    4  A    between atoms: O_4  and  C_5 
REMARK    5  A    between atoms: C_8  and  C_13 
REMARK    6  A    between atoms: C_10  and  O_11 
REMARK    7  A    between atoms: O_11  and  C_12 
REMARK    8  A    between atoms: N_20  and  C_35 
REMARK    9  A    between atoms: C_23  and  C_34 
REMARK   10  A    between atoms: C_35  and  C_36 
REMARK   11  A    between atoms: C_36  and  C_37 
ROOT
ATOM      1  C   LIG d   1       7.657  -2.199  -4.306  0.00  0.00     0.028 C 
ATOM      2  H   LIG d   1       8.023  -2.123  -3.282  0.00  0.00     0.041 H 
ATOM      3  C   LIG d   1       8.108  -3.533  -4.912  0.00  0.00     0.027 C 
ATOM      4  N   LIG d   1       7.324  -3.788  -6.135  0.00  0.00    -0.280 N 
ATOM      5  C   LIG d   1       7.947  -3.832  -7.315  0.00  0.00     0.234 C 
ATOM      6  O   LIG d   1       9.159  -3.799  -7.319  0.00  0.00    -0.274 OA
ATOM      7  C   LIG d   1       7.247  -3.919  -8.633  0.00  0.00     0.091 C 
ATOM      8  N   LIG d   1       5.801  -3.896  -8.489  0.00  0.00    -0.290 N 
ATOM      9  C   LIG d   1       5.176  -3.923  -7.312  0.00  0.00     0.245 C 
ATOM     10  O   LIG d   1       3.963  -3.896  -7.308  0.00  0.00    -0.273 OA
ATOM     11  C   LIG d   1       5.881  -3.986  -5.997  0.00  0.00     0.151 C 
ATOM     12  C   LIG d   1       5.351  -2.924  -5.061  0.00  0.00     0.054 A 
ATOM     13  C   LIG d   1       6.152  -2.135  -4.309  0.00  0.00    -0.008 A 
ATOM     14  C   LIG d   1       5.287  -1.256  -3.550  0.00  0.00     0.004 A 
ATOM     15  C   LIG d   1       5.544  -0.243  -2.620  0.00  0.00    -0.052 A 
ATOM     16  C   LIG d   1       4.455   0.401  -2.085  0.00  0.00    -0.061 A 
ATOM     17  C   LIG d   1       3.158   0.072  -2.442  0.00  0.00    -0.060 A 
ATOM     18  C   LIG d   1       2.874  -0.925  -3.360  0.00  0.00    -0.038 A 
ATOM     19  C   LIG d   1       3.960  -1.596  -3.918  0.00  0.00     0.047 A 
ATOM     20  N   LIG d   1       4.039  -2.609  -4.834  0.00  0.00    -0.356 N 
ATOM     21  H   LIG d   1       3.280  -3.040  -5.259  0.00  0.00     0.166 HD
ATOM     22  H   LIG d   1       9.167  -3.482  -5.161  0.00  0.00     0.047 H 
ATOM     23  H   LIG d   1       7.937  -4.336  -4.195  0.00  0.00     0.047 H 
ATOM     24  H   LIG d   1       7.553  -3.075  -9.252  0.00  0.00     0.056 H 
ATOM     25  H   LIG d   1       7.539  -4.844  -9.129  0.00  0.00     0.056 H 
ATOM     26  H   LIG d   1       6.552   0.020  -2.335  0.00  0.00     0.062 H 
ATOM     27  H   LIG d   1       4.616   1.189  -1.365  0.00  0.00     0.062 H 
ATOM     28  H   LIG d   1       2.340   0.613  -1.990  0.00  0.00     0.062 H 
ATOM     29  H   LIG d   1       1.858  -1.171  -3.630  0.00  0.00     0.064 H 
ENDROOT
BRANCH   1  30
ATOM     30  C   LIG d   1       8.212  -1.062  -5.124  0.00  0.00    -0.035 A 
ATOM     31  C   LIG d   1       9.573  -0.819  -5.134  0.00  0.00    -0.054 A 
ATOM     32  C   LIG d   1      10.086   0.223  -5.884  0.00  0.00    -0.016 A 
ATOM     33  H   LIG d   1      10.236  -1.445  -4.557  0.00  0.00     0.062 H 
ATOM     34  C   LIG d   1       9.237   1.027  -6.627  0.00  0.00     0.162 A 
ATOM     35  H   LIG d   1      11.150   0.410  -5.891  0.00  0.00     0.066 H 
ATOM     36  C   LIG d   1       7.866   0.787  -6.611  0.00  0.00     0.162 A 
ATOM     37  C   LIG d   1       7.358  -0.263  -5.863  0.00  0.00    -0.013 A 
ATOM     38  H   LIG d   1       6.295  -0.455  -5.853  0.00  0.00     0.066 H 
BRANCH  34  39
ATOM     39  O   LIG d   1       9.741   2.053  -7.364  0.00  0.00    -0.488 OA
BRANCH  39  40
ATOM     40  C   LIG d   1      10.561   3.002  -6.681  0.00  0.00     0.089 C 
ATOM     41  H   LIG d   1      11.294   3.415  -7.375  0.00  0.00     0.070 H 
ATOM     42  H   LIG d   1      11.078   2.508  -5.858  0.00  0.00     0.070 H 
BRANCH  40  43
ATOM     43  C   LIG d   1       9.686   4.129  -6.129  0.00  0.00    -0.021 C 
ATOM     44  H   LIG d   1       8.686   4.054  -6.556  0.00  0.00     0.029 H 
ATOM     45  H   LIG d   1      10.124   5.091  -6.397  0.00  0.00     0.029 H 
BRANCH  43  46
ATOM     46  C   LIG d   1       9.603   4.012  -4.606  0.00  0.00    -0.062 C 
ATOM     47  H   LIG d   1      10.040   3.065  -4.291  0.00  0.00     0.023 H 
ATOM     48  H   LIG d   1      10.149   4.836  -4.147  0.00  0.00     0.023 H 
ATOM     49  H   LIG d   1       8.559   4.051  -4.296  0.00  0.00     0.023 H 
ENDBRANCH  43  46
ENDBRANCH  40  43
ENDBRANCH  39  40
ENDBRANCH  34  39
BRANCH  36  50
ATOM     50  O   LIG d   1       7.027   1.577  -7.333  0.00  0.00    -0.491 OA
BRANCH  50  51
ATOM     51  C   LIG d   1       6.706   1.143  -8.657  0.00  0.00     0.079 C 
ATOM     52  H   LIG d   1       6.722   0.054  -8.696  0.00  0.00     0.066 H 
ATOM     53  H   LIG d   1       5.712   1.501  -8.924  0.00  0.00     0.066 H 
ATOM     54  H   LIG d   1       7.438   1.543  -9.357  0.00  0.00     0.066 H 
ENDBRANCH  50  51
ENDBRANCH  36  50
ENDBRANCH   1  30
BRANCH  11  55
ATOM     55  C   LIG d   1       5.627  -5.354  -5.363  0.00  0.00    -0.029 C 
ATOM     56  H   LIG d   1       5.404  -5.228  -4.303  0.00  0.00     0.026 H 
ATOM     57  H   LIG d   1       4.781  -5.832  -5.857  0.00  0.00     0.026 H 
ATOM     58  H   LIG d   1       6.515  -5.978  -5.476  0.00  0.00     0.026 H 
ENDBRANCH  11  55
BRANCH   8  59
ATOM     59  C   LIG d   1       4.984  -3.842  -9.704  0.00  0.00     0.019 C 
ATOM     60  H   LIG d   1       5.343  -4.585 -10.416  0.00  0.00     0.047 H 
ATOM     61  H   LIG d   1       3.944  -4.051  -9.452  0.00  0.00     0.047 H 
BRANCH  59  62
ATOM     62  C   LIG d   1       5.088  -2.448 -10.326  0.00  0.00    -0.009 C 
ATOM     63  H   LIG d   1       5.817  -1.856  -9.773  0.00  0.00     0.033 H 
ATOM     64  H   LIG d   1       5.405  -2.537 -11.365  0.00  0.00     0.033 H 
BRANCH  62  65
ATOM     65  C   LIG d   1       3.743  -1.770 -10.267  0.00  0.00    -0.011 A 
ATOM     66  C   LIG d   1       3.390  -1.028  -9.153  0.00  0.00     0.127 A 
ATOM     67  C   LIG d   1       2.155  -0.402  -9.103  0.00  0.00    -0.026 A 
ATOM     68  F   LIG d   1       4.250  -0.910  -8.118  0.00  0.00    -0.205 F 
ATOM     69  C   LIG d   1       1.274  -0.527 -10.160  0.00  0.00    -0.059 A 
ATOM     70  H   LIG d   1       1.881   0.181  -8.236  0.00  0.00     0.065 H 
ATOM     71  C   LIG d   1       1.626  -1.274 -11.269  0.00  0.00    -0.061 A 
ATOM     72  H   LIG d   1       0.311  -0.042 -10.120  0.00  0.00     0.062 H 
ATOM     73  C   LIG d   1       2.860  -1.894 -11.323  0.00  0.00    -0.056 A 
ATOM     74  H   LIG d   1       0.937  -1.371 -12.095  0.00  0.00     0.062 H 
ATOM     75  H   LIG d   1       3.133  -2.477 -12.191  0.00  0.00     0.062 H 
ENDBRANCH  62  65
ENDBRANCH  59  62
ENDBRANCH   8  59
TORSDOF 11
ENDMDL
MODEL 5
REMARK VINA RESULT:      -6.6      3.041      7.707
REMARK  11 active torsions:
REMARK  status: ('A' for Active; 'I' for Inactive)
REMARK    1  A    between atoms: C_1  and  C_2 
REMARK    2  A    between atoms: C_2  and  C_3 
REMARK    3  A    between atoms: C_3  and  O_4 
REMARK    4  A    between atoms: O_4  and  C_5 
REMARK    5  A    between atoms: C_8  and  C_13 
REMARK    6  A    between atoms: C_10  and  O_11 
REMARK    7  A    between atoms: O_11  and  C_12 
REMARK    8  A    between atoms: N_20  and  C_35 
REMARK    9  A    between atoms: C_23  and  C_34 
REMARK   10  A    between atoms: C_35  and  C_36 
REMARK   11  A    between atoms: C_36  and  C_37 
ROOT
ATOM      1  C   LIG d   1       5.825  -3.384  -9.570  0.00  0.00     0.028 C 
ATOM      2  H   LIG d   1       5.615  -3.637 -10.610  0.00  0.00     0.041 H 
ATOM      3  C   LIG d   1       7.332  -3.166  -9.390  0.00  0.00     0.027 C 
ATOM      4  N   LIG d   1       7.563  -2.484  -8.104  0.00  0.00    -0.280 N 
ATOM      5  C   LIG d   1       8.239  -3.114  -7.140  0.00  0.00     0.234 C 
ATOM      6  O   LIG d   1       8.760  -4.175  -7.413  0.00  0.00    -0.274 OA
ATOM      7  C   LIG d   1       8.396  -2.597  -5.747  0.00  0.00     0.091 C 
ATOM      8  N   LIG d   1       7.681  -1.349  -5.541  0.00  0.00    -0.290 N 
ATOM      9  C   LIG d   1       7.064  -0.682  -6.516  0.00  0.00     0.245 C 
ATOM     10  O   LIG d   1       6.493   0.350  -6.231  0.00  0.00    -0.273 OA
ATOM     11  C   LIG d   1       7.036  -1.129  -7.941  0.00  0.00     0.151 C 
ATOM     12  C   LIG d   1       5.622  -1.111  -8.473  0.00  0.00     0.054 A 
ATOM     13  C   LIG d   1       5.092  -2.120  -9.202  0.00  0.00    -0.008 A 
ATOM     14  C   LIG d   1       3.734  -1.739  -9.528  0.00  0.00     0.004 A 
ATOM     15  C   LIG d   1       2.718  -2.375 -10.249  0.00  0.00    -0.052 A 
ATOM     16  C   LIG d   1       1.524  -1.705 -10.362  0.00  0.00    -0.061 A 
ATOM     17  C   LIG d   1       1.323  -0.459  -9.792  0.00  0.00    -0.060 A 
ATOM     18  C   LIG d   1       2.310   0.193  -9.073  0.00  0.00    -0.038 A 
ATOM     19  C   LIG d   1       3.533  -0.462  -8.943  0.00  0.00     0.047 A 
ATOM     20  N   LIG d   1       4.697  -0.116  -8.313  0.00  0.00    -0.356 N 
ATOM     21  H   LIG d   1       4.844   0.711  -7.827  0.00  0.00     0.166 HD
ATOM     22  H   LIG d   1       7.843  -4.129  -9.391  0.00  0.00     0.047 H 
ATOM     23  H   LIG d   1       7.711  -2.548 -10.204  0.00  0.00     0.047 H 
ATOM     24  H   LIG d   1       8.015  -3.342  -5.048  0.00  0.00     0.056 H 
ATOM     25  H   LIG d   1       9.455  -2.436  -5.546  0.00  0.00     0.056 H 
ATOM     26  H   LIG d   1       2.866  -3.346 -10.698  0.00  0.00     0.062 H 
ATOM     27  H   LIG d   1       0.717  -2.166 -10.912  0.00  0.00     0.062 H 
ATOM     28  H   LIG d   1       0.363   0.020  -9.912  0.00  0.00     0.062 H 
ATOM     29  H   LIG d   1       2.140   1.164  -8.634  0.00  0.00     0.064 H 
ENDROOT
BRANCH   1  30
ATOM     30  C   LIG d   1       5.369  -4.509  -8.677  0.00  0.00    -0.035 A 
ATOM     31  C   LIG d   1       4.665  -4.230  -7.521  0.00  0.00    -0.054 A 
ATOM     32  C   LIG d   1       4.244  -5.259  -6.698  0.00  0.00    -0.016 A 
ATOM     33  H   LIG d   1       4.443  -3.206  -7.259  0.00  0.00     0.062 H 
ATOM     34  C   LIG d   1       4.528  -6.573  -7.032  0.00  0.00     0.162 A 
ATOM     35  H   LIG d   1       3.693  -5.038  -5.797  0.00  0.00     0.066 H 
ATOM     36  C   LIG d   1       5.243  -6.854  -8.194  0.00  0.00     0.162 A 
ATOM     37  C   LIG d   1       5.656  -5.819  -9.016  0.00  0.00    -0.013 A 
ATOM     38  H   LIG d   1       6.206  -6.035  -9.921  0.00  0.00     0.066 H 
BRANCH  34  39
ATOM     39  O   LIG d   1       4.115  -7.586  -6.224  0.00  0.00    -0.488 OA
BRANCH  39  40
ATOM     40  C   LIG d   1       4.991  -7.966  -5.162  0.00  0.00     0.089 C 
ATOM     41  H   LIG d   1       4.902  -7.251  -4.343  0.00  0.00     0.070 H 
ATOM     42  H   LIG d   1       6.018  -7.977  -5.524  0.00  0.00     0.070 H 
BRANCH  40  43
ATOM     43  C   LIG d   1       4.612  -9.362  -4.663  0.00  0.00    -0.021 C 
ATOM     44  H   LIG d   1       3.621  -9.329  -4.210  0.00  0.00     0.029 H 
ATOM     45  H   LIG d   1       5.340  -9.693  -3.923  0.00  0.00     0.029 H 
BRANCH  43  46
ATOM     46  C   LIG d   1       4.602 -10.339  -5.841  0.00  0.00    -0.062 C 
ATOM     47  H   LIG d   1       3.621 -10.325  -6.316  0.00  0.00     0.023 H 
ATOM     48  H   LIG d   1       5.361 -10.044  -6.565  0.00  0.00     0.023 H 
ATOM     49  H   LIG d   1       4.815 -11.345  -5.479  0.00  0.00     0.023 H 
ENDBRANCH  43  46
ENDBRANCH  40  43
ENDBRANCH  39  40
ENDBRANCH  34  39
BRANCH  36  50
ATOM     50  O   LIG d   1       5.529  -8.142  -8.523  0.00  0.00    -0.491 OA
BRANCH  50  51
ATOM     51  C   LIG d   1       6.887  -8.563  -8.373  0.00  0.00     0.079 C 
ATOM     52  H   LIG d   1       6.922  -9.647  -8.269  0.00  0.00     0.066 H 
ATOM     53  H   LIG d   1       7.458  -8.264  -9.251  0.00  0.00     0.066 H 
ATOM     54  H   LIG d   1       7.315  -8.098  -7.485  0.00  0.00     0.066 H 
ENDBRANCH  50  51
ENDBRANCH  36  50
ENDBRANCH   1  30
BRANCH  11  55
ATOM     55  C   LIG d   1       7.877  -0.166  -8.780  0.00  0.00    -0.029 C 
ATOM     56  H   LIG d   1       8.133  -0.639  -9.728  0.00  0.00     0.026 H 
ATOM     57  H   LIG d   1       7.307   0.744  -8.969  0.00  0.00     0.026 H 
ATOM     58  H   LIG d   1       8.791   0.084  -8.240  0.00  0.00     0.026 H 
ENDBRANCH  11  55
BRANCH   8  59
ATOM     59  C   LIG d   1       7.636  -0.792  -4.187  0.00  0.00     0.019 C 
ATOM     60  H   LIG d   1       8.649  -0.713  -3.792  0.00  0.00     0.047 H 
ATOM     61  H   LIG d   1       7.179   0.197  -4.216  0.00  0.00     0.047 H 
BRANCH  59  62
ATOM     62  C   LIG d   1       6.807  -1.709  -3.285  0.00  0.00    -0.009 C 
ATOM     63  H   LIG d   1       6.649  -2.665  -3.785  0.00  0.00     0.033 H 
ATOM     64  H   LIG d   1       7.339  -1.873  -2.348  0.00  0.00     0.033 H 
BRANCH  62  65
ATOM     65  C   LIG d   1       5.475  -1.065  -3.002  0.00  0.00    -0.011 A 
ATOM     66  C   LIG d   1       4.306  -1.788  -3.166  0.00  0.00     0.127 A 
ATOM     67  C   LIG d   1       3.083  -1.196  -2.900  0.00  0.00    -0.026 A 
ATOM     68  F   LIG d   1       4.359  -3.073  -3.582  0.00  0.00    -0.205 F 
ATOM     69  C   LIG d   1       3.030   0.119  -2.480  0.00  0.00    -0.059 A 
ATOM     70  H   LIG d   1       2.171  -1.762  -3.024  0.00  0.00     0.065 H 
ATOM     71  C   LIG d   1       4.198   0.842  -2.321  0.00  0.00    -0.061 A 
ATOM     72  H   LIG d   1       2.076   0.582  -2.276  0.00  0.00     0.062 H 
ATOM     73  C   LIG d   1       5.419   0.250  -2.581  0.00  0.00    -0.056 A 
ATOM     74  H   LIG d   1       4.155   1.871  -1.993  0.00  0.00     0.062 H 
ATOM     75  H   LIG d   1       6.330   0.817  -2.456  0.00  0.00     0.062 H 
ENDBRANCH  62  65
ENDBRANCH  59  62
ENDBRANCH   8  59
TORSDOF 11
ENDMDL
MODEL 6
REMARK VINA RESULT:      -6.5      2.935      7.419
REMARK  11 active torsions:
REMARK  status: ('A' for Active; 'I' for Inactive)
REMARK    1  A    between atoms: C_1  and  C_2 
REMARK    2  A    between atoms: C_2  and  C_3 
REMARK    3  A    between atoms: C_3  and  O_4 
REMARK    4  A    between atoms: O_4  and  C_5 
REMARK    5  A    between atoms: C_8  and  C_13 
REMARK    6  A    between atoms: C_10  and  O_11 
REMARK    7  A    between atoms: O_11  and  C_12 
REMARK    8  A    between atoms: N_20  and  C_35 
REMARK    9  A    between atoms: C_23  and  C_34 
REMARK   10  A    between atoms: C_35  and  C_36 
REMARK   11  A    between atoms: C_36  and  C_37 
ROOT
ATOM      1  C   LIG d   1       4.348  -1.597  -6.914  0.00  0.00     0.028 C 
ATOM      2  H   LIG d   1       3.303  -1.295  -6.970  0.00  0.00     0.041 H 
ATOM      3  C   LIG d   1       5.029  -1.345  -8.264  0.00  0.00     0.027 C 
ATOM      4  N   LIG d   1       6.491  -1.408  -8.079  0.00  0.00    -0.280 N 
ATOM      5  C   LIG d   1       7.187  -2.370  -8.689  0.00  0.00     0.234 C 
ATOM      6  O   LIG d   1       6.605  -3.074  -9.487  0.00  0.00    -0.274 OA
ATOM      7  C   LIG d   1       8.638  -2.637  -8.452  0.00  0.00     0.091 C 
ATOM      8  N   LIG d   1       9.199  -1.761  -7.437  0.00  0.00    -0.290 N 
ATOM      9  C   LIG d   1       8.526  -0.755  -6.877  0.00  0.00     0.245 C 
ATOM     10  O   LIG d   1       9.091  -0.089  -6.035  0.00  0.00    -0.273 OA
ATOM     11  C   LIG d   1       7.119  -0.399  -7.226  0.00  0.00     0.151 C 
ATOM     12  C   LIG d   1       6.283  -0.258  -5.976  0.00  0.00     0.054 A 
ATOM     13  C   LIG d   1       5.047  -0.794  -5.847  0.00  0.00    -0.008 A 
ATOM     14  C   LIG d   1       4.570  -0.446  -4.525  0.00  0.00     0.004 A 
ATOM     15  C   LIG d   1       3.380  -0.720  -3.843  0.00  0.00    -0.052 A 
ATOM     16  C   LIG d   1       3.264  -0.221  -2.569  0.00  0.00    -0.061 A 
ATOM     17  C   LIG d   1       4.273   0.520  -1.975  0.00  0.00    -0.060 A 
ATOM     18  C   LIG d   1       5.461   0.806  -2.625  0.00  0.00    -0.038 A 
ATOM     19  C   LIG d   1       5.606   0.313  -3.921  0.00  0.00     0.047 A 
ATOM     20  N   LIG d   1       6.625   0.404  -4.829  0.00  0.00    -0.356 N 
ATOM     21  H   LIG d   1       7.464   0.869  -4.682  0.00  0.00     0.166 HD
ATOM     22  H   LIG d   1       4.717  -2.107  -8.978  0.00  0.00     0.047 H 
ATOM     23  H   LIG d   1       4.750  -0.358  -8.635  0.00  0.00     0.047 H 
ATOM     24  H   LIG d   1       8.759  -3.672  -8.131  0.00  0.00     0.056 H 
ATOM     25  H   LIG d   1       9.182  -2.492  -9.385  0.00  0.00     0.056 H 
ATOM     26  H   LIG d   1       2.588  -1.295  -4.298  0.00  0.00     0.062 H 
ATOM     27  H   LIG d   1       2.359  -0.413  -2.013  0.00  0.00     0.062 H 
ATOM     28  H   LIG d   1       4.127   0.886  -0.970  0.00  0.00     0.062 H 
ATOM     29  H   LIG d   1       6.240   1.383  -2.151  0.00  0.00     0.064 H 
ENDROOT
BRANCH   1  30
ATOM     30  C   LIG d   1       4.431  -3.063  -6.575  0.00  0.00    -0.035 A 
ATOM     31  C   LIG d   1       5.042  -3.467  -5.403  0.00  0.00    -0.054 A 
ATOM     32  C   LIG d   1       5.120  -4.811  -5.087  0.00  0.00    -0.016 A 
ATOM     33  H   LIG d   1       5.460  -2.731  -4.732  0.00  0.00     0.062 H 
ATOM     34  C   LIG d   1       4.585  -5.757  -5.947  0.00  0.00     0.162 A 
ATOM     35  H   LIG d   1       5.597  -5.123  -4.170  0.00  0.00     0.066 H 
ATOM     36  C   LIG d   1       3.974  -5.350  -7.130  0.00  0.00     0.162 A 
ATOM     37  C   LIG d   1       3.894  -4.002  -7.437  0.00  0.00    -0.013 A 
ATOM     38  H   LIG d   1       3.417  -3.684  -8.352  0.00  0.00     0.066 H 
BRANCH  34  39
ATOM     39  O   LIG d   1       4.661  -7.079  -5.638  0.00  0.00    -0.488 OA
BRANCH  39  40
ATOM     40  C   LIG d   1       5.962  -7.616  -5.401  0.00  0.00     0.089 C 
ATOM     41  H   LIG d   1       6.456  -7.042  -4.616  0.00  0.00     0.070 H 
ATOM     42  H   LIG d   1       6.551  -7.559  -6.317  0.00  0.00     0.070 H 
BRANCH  40  43
ATOM     43  C   LIG d   1       5.840  -9.077  -4.964  0.00  0.00    -0.021 C 
ATOM     44  H   LIG d   1       6.587  -9.291  -4.199  0.00  0.00     0.029 H 
ATOM     45  H   LIG d   1       6.005  -9.728  -5.823  0.00  0.00     0.029 H 
BRANCH  43  46
ATOM     46  C   LIG d   1       4.441  -9.325  -4.397  0.00  0.00    -0.062 C 
ATOM     47  H   LIG d   1       4.425  -9.054  -3.340  0.00  0.00     0.023 H 
ATOM     48  H   LIG d   1       3.716  -8.718  -4.939  0.00  0.00     0.023 H 
ATOM     49  H   LIG d   1       4.187 -10.379  -4.505  0.00  0.00     0.023 H 
ENDBRANCH  43  46
ENDBRANCH  40  43
ENDBRANCH  39  40
ENDBRANCH  34  39
BRANCH  36  50
ATOM     50  O   LIG d   1       3.453  -6.275  -7.980  0.00  0.00    -0.491 OA
BRANCH  50  51
ATOM     51  C   LIG d   1       3.092  -5.824  -9.288  0.00  0.00     0.079 C 
ATOM     52  H   LIG d   1       3.986  -5.495  -9.817  0.00  0.00     0.066 H 
ATOM     53  H   LIG d   1       2.625  -6.641  -9.837  0.00  0.00     0.066 H 
ATOM     54  H   LIG d   1       2.392  -4.994  -9.204  0.00  0.00     0.066 H 
ENDBRANCH  50  51
ENDBRANCH  36  50
ENDBRANCH   1  30
BRANCH  11  55
ATOM     55  C   LIG d   1       7.114   0.942  -7.960  0.00  0.00    -0.029 C 
ATOM     56  H   LIG d   1       7.875   0.932  -8.740  0.00  0.00     0.026 H 
ATOM     57  H   LIG d   1       6.135   1.107  -8.410  0.00  0.00     0.026 H 
ATOM     58  H   LIG d   1       7.329   1.745  -7.253  0.00  0.00     0.026 H 
ENDBRANCH  11  55
BRANCH   8  59
ATOM     59  C   LIG d   1      10.578  -1.995  -7.005  0.00  0.00     0.019 C 
ATOM     60  H   LIG d   1      11.265  -1.646  -7.776  0.00  0.00     0.047 H 
ATOM     61  H   LIG d   1      10.766  -1.453  -6.078  0.00  0.00     0.047 H 
BRANCH  59  62
ATOM     62  C   LIG d   1      10.793  -3.492  -6.770  0.00  0.00    -0.009 C 
ATOM     63  H   LIG d   1      10.162  -4.061  -7.453  0.00  0.00     0.033 H 
ATOM     64  H   LIG d   1      11.839  -3.741  -6.950  0.00  0.00     0.033 H 
BRANCH  62  65
ATOM     65  C   LIG d   1      10.431  -3.835  -5.349  0.00  0.00    -0.011 A 
ATOM     66  C   LIG d   1       9.205  -4.413  -5.066  0.00  0.00     0.127 A 
ATOM     67  C   LIG d   1       8.877  -4.732  -3.759  0.00  0.00    -0.026 A 
ATOM     68  F   LIG d   1       8.333  -4.671  -6.064  0.00  0.00    -0.205 F 
ATOM     69  C   LIG d   1       9.767  -4.464  -2.737  0.00  0.00    -0.059 A 
ATOM     70  H   LIG d   1       7.922  -5.188  -3.538  0.00  0.00     0.065 H 
ATOM     71  C   LIG d   1      10.989  -3.881  -3.021  0.00  0.00    -0.061 A 
ATOM     72  H   LIG d   1       9.510  -4.709  -1.718  0.00  0.00     0.062 H 
ATOM     73  C   LIG d   1      11.321  -3.567  -4.326  0.00  0.00    -0.056 A 
ATOM     74  H   LIG d   1      11.685  -3.671  -2.221  0.00  0.00     0.062 H 
ATOM     75  H   LIG d   1      12.275  -3.112  -4.544  0.00  0.00     0.062 H 
ENDBRANCH  62  65
ENDBRANCH  59  62
ENDBRANCH   8  59
TORSDOF 11
ENDMDL
MODEL 7
REMARK VINA RESULT:      -6.4      3.092      5.884
REMARK  11 active torsions:
REMARK  status: ('A' for Active; 'I' for Inactive)
REMARK    1  A    between atoms: C_1  and  C_2 
REMARK    2  A    between atoms: C_2  and  C_3 
REMARK    3  A    between atoms: C_3  and  O_4 
REMARK    4  A    between atoms: O_4  and  C_5 
REMARK    5  A    between atoms: C_8  and  C_13 
REMARK    6  A    between atoms: C_10  and  O_11 
REMARK    7  A    between atoms: O_11  and  C_12 
REMARK    8  A    between atoms: N_20  and  C_35 
REMARK    9  A    between atoms: C_23  and  C_34 
REMARK   10  A    between atoms: C_35  and  C_36 
REMARK   11  A    between atoms: C_36  and  C_37 
ROOT
ATOM      1  C   LIG d   1       8.245  -0.086  -5.275  0.00  0.00     0.028 C 
ATOM      2  H   LIG d   1       8.685   0.758  -4.744  0.00  0.00     0.041 H 
ATOM      3  C   LIG d   1       9.345  -1.092  -5.639  0.00  0.00     0.027 C 
ATOM      4  N   LIG d   1       8.714  -2.369  -6.021  0.00  0.00    -0.280 N 
ATOM      5  C   LIG d   1       8.849  -2.818  -7.271  0.00  0.00     0.234 C 
ATOM      6  O   LIG d   1       9.606  -2.225  -8.009  0.00  0.00    -0.274 OA
ATOM      7  C   LIG d   1       8.127  -4.006  -7.820  0.00  0.00     0.091 C 
ATOM      8  N   LIG d   1       7.214  -4.590  -6.851  0.00  0.00    -0.290 N 
ATOM      9  C   LIG d   1       7.128  -4.188  -5.583  0.00  0.00     0.245 C 
ATOM     10  O   LIG d   1       6.327  -4.744  -4.861  0.00  0.00    -0.273 OA
ATOM     11  C   LIG d   1       7.960  -3.095  -4.998  0.00  0.00     0.151 C 
ATOM     12  C   LIG d   1       7.090  -2.101  -4.265  0.00  0.00     0.054 A 
ATOM     13  C   LIG d   1       7.227  -0.761  -4.393  0.00  0.00    -0.008 A 
ATOM     14  C   LIG d   1       6.227  -0.150  -3.542  0.00  0.00     0.004 A 
ATOM     15  C   LIG d   1       5.898   1.182  -3.272  0.00  0.00    -0.052 A 
ATOM     16  C   LIG d   1       4.867   1.401  -2.392  0.00  0.00    -0.061 A 
ATOM     17  C   LIG d   1       4.176   0.360  -1.794  0.00  0.00    -0.060 A 
ATOM     18  C   LIG d   1       4.480  -0.968  -2.043  0.00  0.00    -0.038 A 
ATOM     19  C   LIG d   1       5.524  -1.220  -2.932  0.00  0.00     0.047 A 
ATOM     20  N   LIG d   1       6.074  -2.385  -3.394  0.00  0.00    -0.356 N 
ATOM     21  H   LIG d   1       5.787  -3.277  -3.142  0.00  0.00     0.166 HD
ATOM     22  H   LIG d   1       9.928  -0.708  -6.475  0.00  0.00     0.047 H 
ATOM     23  H   LIG d   1       9.995  -1.249  -4.778  0.00  0.00     0.047 H 
ATOM     24  H   LIG d   1       7.559  -3.699  -8.699  0.00  0.00     0.056 H 
ATOM     25  H   LIG d   1       8.857  -4.758  -8.117  0.00  0.00     0.056 H 
ATOM     26  H   LIG d   1       6.431   2.001  -3.732  0.00  0.00     0.062 H 
ATOM     27  H   LIG d   1       4.584   2.417  -2.159  0.00  0.00     0.062 H 
ATOM     28  H   LIG d   1       3.374   0.591  -1.110  0.00  0.00     0.062 H 
ATOM     29  H   LIG d   1       3.935  -1.771  -1.571  0.00  0.00     0.064 H 
ENDROOT
BRANCH   1  30
ATOM     30  C   LIG d   1       7.576   0.404  -6.533  0.00  0.00    -0.035 A 
ATOM     31  C   LIG d   1       6.428  -0.215  -6.989  0.00  0.00    -0.054 A 
ATOM     32  C   LIG d   1       5.810   0.232  -8.143  0.00  0.00    -0.016 A 
ATOM     33  H   LIG d   1       6.012  -1.049  -6.444  0.00  0.00     0.062 H 
ATOM     34  C   LIG d   1       6.341   1.302  -8.844  0.00  0.00     0.162 A 
ATOM     35  H   LIG d   1       4.912  -0.253  -8.497  0.00  0.00     0.066 H 
ATOM     36  C   LIG d   1       7.501   1.922  -8.387  0.00  0.00     0.162 A 
ATOM     37  C   LIG d   1       8.112   1.473  -7.228  0.00  0.00    -0.013 A 
ATOM     38  H   LIG d   1       9.009   1.955  -6.869  0.00  0.00     0.066 H 
BRANCH  34  39
ATOM     39  O   LIG d   1       5.735   1.742  -9.979  0.00  0.00    -0.488 OA
BRANCH  39  40
ATOM     40  C   LIG d   1       4.343   1.456 -10.123  0.00  0.00     0.089 C 
ATOM     41  H   LIG d   1       4.096   0.555  -9.560  0.00  0.00     0.070 H 
ATOM     42  H   LIG d   1       4.112   1.300 -11.177  0.00  0.00     0.070 H 
BRANCH  40  43
ATOM     43  C   LIG d   1       3.521   2.631  -9.590  0.00  0.00    -0.021 C 
ATOM     44  H   LIG d   1       2.818   2.960 -10.356  0.00  0.00     0.029 H 
ATOM     45  H   LIG d   1       4.189   3.454  -9.333  0.00  0.00     0.029 H 
BRANCH  43  46
ATOM     46  C   LIG d   1       2.750   2.191  -8.344  0.00  0.00    -0.062 C 
ATOM     47  H   LIG d   1       2.647   1.106  -8.346  0.00  0.00     0.023 H 
ATOM     48  H   LIG d   1       3.292   2.504  -7.452  0.00  0.00     0.023 H 
ATOM     49  H   LIG d   1       1.761   2.650  -8.349  0.00  0.00     0.023 H 
ENDBRANCH  43  46
ENDBRANCH  40  43
ENDBRANCH  39  40
ENDBRANCH  34  39
BRANCH  36  50
ATOM     50  O   LIG d   1       8.030   2.969  -9.076  0.00  0.00    -0.491 OA
BRANCH  50  51
ATOM     51  C   LIG d   1       9.171   3.612  -8.502  0.00  0.00     0.079 C 
ATOM     52  H   LIG d   1      10.020   2.930  -8.522  0.00  0.00     0.066 H 
ATOM     53  H   LIG d   1       9.410   4.506  -9.076  0.00  0.00     0.066 H 
ATOM     54  H   LIG d   1       8.951   3.889  -7.472  0.00  0.00     0.066 H 
ENDBRANCH  50  51
ENDBRANCH  36  50
ENDBRANCH   1  30
BRANCH  11  55
ATOM     55  C   LIG d   1       8.943  -3.702  -3.997  0.00  0.00    -0.029 C 
ATOM     56  H   LIG d   1       8.496  -4.582  -3.535  0.00  0.00     0.026 H 
ATOM     57  H   LIG d   1       9.858  -3.989  -4.514  0.00  0.00     0.026 H 
ATOM     58  H   LIG d   1       9.178  -2.967  -3.225  0.00  0.00     0.026 H 
ENDBRANCH  11  55
BRANCH   8  59
ATOM     59  C   LIG d   1       6.341  -5.680  -7.291  0.00  0.00     0.019 C 
ATOM     60  H   LIG d   1       5.499  -5.771  -6.605  0.00  0.00     0.047 H 
ATOM     61  H   LIG d   1       5.971  -5.467  -8.294  0.00  0.00     0.047 H 
BRANCH  59  62
ATOM     62  C   LIG d   1       7.130  -6.991  -7.308  0.00  0.00    -0.009 C 
ATOM     63  H   LIG d   1       7.112  -7.414  -8.312  0.00  0.00     0.033 H 
ATOM     64  H   LIG d   1       8.162  -6.797  -7.014  0.00  0.00     0.033 H 
BRANCH  62  65
ATOM     65  C   LIG d   1       6.507  -7.965  -6.341  0.00  0.00    -0.011 A 
ATOM     66  C   LIG d   1       7.035  -8.113  -5.070  0.00  0.00     0.127 A 
ATOM     67  C   LIG d   1       6.458  -9.004  -4.182  0.00  0.00    -0.026 A 
ATOM     68  F   LIG d   1       8.110  -7.386  -4.696  0.00  0.00    -0.205 F 
ATOM     69  C   LIG d   1       5.361  -9.752  -4.567  0.00  0.00    -0.059 A 
ATOM     70  H   LIG d   1       6.867  -9.118  -3.188  0.00  0.00     0.065 H 
ATOM     71  C   LIG d   1       4.838  -9.607  -5.839  0.00  0.00    -0.061 A 
ATOM     72  H   LIG d   1       4.913 -10.449  -3.876  0.00  0.00     0.062 H 
ATOM     73  C   LIG d   1       5.410  -8.713  -6.725  0.00  0.00    -0.056 A 
ATOM     74  H   LIG d   1       3.981 -10.191  -6.140  0.00  0.00     0.062 H 
ATOM     75  H   LIG d   1       5.000  -8.601  -7.718  0.00  0.00     0.062 H 
ENDBRANCH  62  65
ENDBRANCH  59  62
ENDBRANCH   8  59
TORSDOF 11
ENDMDL
MODEL 8
REMARK VINA RESULT:      -6.4      2.599      7.176
REMARK  11 active torsions:
REMARK  status: ('A' for Active; 'I' for Inactive)
REMARK    1  A    between atoms: C_1  and  C_2 
REMARK    2  A    between atoms: C_2  and  C_3 
REMARK    3  A    between atoms: C_3  and  O_4 
REMARK    4  A    between atoms: O_4  and  C_5 
REMARK    5  A    between atoms: C_8  and  C_13 
REMARK    6  A    between atoms: C_10  and  O_11 
REMARK    7  A    between atoms: O_11  and  C_12 
REMARK    8  A    between atoms: N_20  and  C_35 
REMARK    9  A    between atoms: C_23  and  C_34 
REMARK   10  A    between atoms: C_35  and  C_36 
REMARK   11  A    between atoms: C_36  and  C_37 
ROOT
ATOM      1  C   LIG d   1       9.075   1.297  -9.423  0.00  0.00     0.028 C 
ATOM      2  H   LIG d   1       9.540   1.559 -10.374  0.00  0.00     0.041 H 
ATOM      3  C   LIG d   1       9.605  -0.061  -8.950  0.00  0.00     0.027 C 
ATOM      4  N   LIG d   1       9.263  -0.235  -7.526  0.00  0.00    -0.280 N 
ATOM      5  C   LIG d   1       8.427  -1.213  -7.168  0.00  0.00     0.234 C 
ATOM      6  O   LIG d   1       8.090  -2.011  -8.016  0.00  0.00    -0.274 OA
ATOM      7  C   LIG d   1       7.879  -1.388  -5.789  0.00  0.00     0.091 C 
ATOM      8  N   LIG d   1       8.318  -0.336  -4.886  0.00  0.00    -0.290 N 
ATOM      9  C   LIG d   1       9.206   0.600  -5.220  0.00  0.00     0.245 C 
ATOM     10  O   LIG d   1       9.498   1.433  -4.389  0.00  0.00    -0.273 OA
ATOM     11  C   LIG d   1       9.864   0.682  -6.558  0.00  0.00     0.151 C 
ATOM     12  C   LIG d   1       9.760   2.083  -7.115  0.00  0.00     0.054 A 
ATOM     13  C   LIG d   1       9.410   2.347  -8.394  0.00  0.00    -0.008 A 
ATOM     14  C   LIG d   1       9.423   3.787  -8.548  0.00  0.00     0.004 A 
ATOM     15  C   LIG d   1       9.149   4.627  -9.633  0.00  0.00    -0.052 A 
ATOM     16  C   LIG d   1       9.262   5.978  -9.416  0.00  0.00    -0.061 A 
ATOM     17  C   LIG d   1       9.628   6.497  -8.185  0.00  0.00    -0.060 A 
ATOM     18  C   LIG d   1       9.904   5.690  -7.094  0.00  0.00    -0.038 A 
ATOM     19  C   LIG d   1       9.798   4.313  -7.286  0.00  0.00     0.047 A 
ATOM     20  N   LIG d   1       9.993   3.253  -6.444  0.00  0.00    -0.356 N 
ATOM     21  H   LIG d   1      10.257   3.319  -5.513  0.00  0.00     0.166 HD
ATOM     22  H   LIG d   1       9.146  -0.857  -9.536  0.00  0.00     0.047 H 
ATOM     23  H   LIG d   1      10.688  -0.094  -9.071  0.00  0.00     0.047 H 
ATOM     24  H   LIG d   1       6.789  -1.379  -5.837  0.00  0.00     0.056 H 
ATOM     25  H   LIG d   1       8.206  -2.351  -5.397  0.00  0.00     0.056 H 
ATOM     26  H   LIG d   1       8.864   4.231 -10.597  0.00  0.00     0.062 H 
ATOM     27  H   LIG d   1       9.059   6.657 -10.230  0.00  0.00     0.062 H 
ATOM     28  H   LIG d   1       9.700   7.568  -8.072  0.00  0.00     0.062 H 
ATOM     29  H   LIG d   1      10.187   6.107  -6.140  0.00  0.00     0.064 H 
ENDROOT
BRANCH   1  30
ATOM     30  C   LIG d   1       7.580   1.222  -9.598  0.00  0.00    -0.035 A 
ATOM     31  C   LIG d   1       6.761   2.100  -8.914  0.00  0.00    -0.054 A 
ATOM     32  C   LIG d   1       5.388   2.034  -9.071  0.00  0.00    -0.016 A 
ATOM     33  H   LIG d   1       7.193   2.838  -8.255  0.00  0.00     0.062 H 
ATOM     34  C   LIG d   1       4.832   1.087  -9.916  0.00  0.00     0.162 A 
ATOM     35  H   LIG d   1       4.751   2.722  -8.536  0.00  0.00     0.066 H 
ATOM     36  C   LIG d   1       5.658   0.199 -10.600  0.00  0.00     0.162 A 
ATOM     37  C   LIG d   1       7.032   0.274 -10.442  0.00  0.00    -0.013 A 
ATOM     38  H   LIG d   1       7.675  -0.411 -10.976  0.00  0.00     0.066 H 
BRANCH  34  39
ATOM     39  O   LIG d   1       3.483   1.022 -10.071  0.00  0.00    -0.488 OA
BRANCH  39  40
ATOM     40  C   LIG d   1       2.695   0.950  -8.882  0.00  0.00     0.089 C 
ATOM     41  H   LIG d   1       1.686   1.307  -9.092  0.00  0.00     0.070 H 
ATOM     42  H   LIG d   1       3.147   1.572  -8.109  0.00  0.00     0.070 H 
BRANCH  40  43
ATOM     43  C   LIG d   1       2.633  -0.500  -8.397  0.00  0.00    -0.021 C 
ATOM     44  H   LIG d   1       1.972  -0.565  -7.533  0.00  0.00     0.029 H 
ATOM     45  H   LIG d   1       3.632  -0.832  -8.116  0.00  0.00     0.029 H 
BRANCH  43  46
ATOM     46  C   LIG d   1       2.096  -1.390  -9.519  0.00  0.00    -0.062 C 
ATOM     47  H   LIG d   1       2.314  -2.434  -9.290  0.00  0.00     0.023 H 
ATOM     48  H   LIG d   1       1.018  -1.255  -9.606  0.00  0.00     0.023 H 
ATOM     49  H   LIG d   1       2.574  -1.117 -10.460  0.00  0.00     0.023 H 
ENDBRANCH  43  46
ENDBRANCH  40  43
ENDBRANCH  39  40
ENDBRANCH  34  39
BRANCH  36  50
ATOM     50  O   LIG d   1       5.116  -0.737 -11.425  0.00  0.00    -0.491 OA
BRANCH  50  51
ATOM     51  C   LIG d   1       5.614  -0.786 -12.764  0.00  0.00     0.079 C 
ATOM     52  H   LIG d   1       6.376  -0.019 -12.897  0.00  0.00     0.066 H 
ATOM     53  H   LIG d   1       6.048  -1.767 -12.953  0.00  0.00     0.066 H 
ATOM     54  H   LIG d   1       4.795  -0.610 -13.462  0.00  0.00     0.066 H 
ENDBRANCH  50  51
ENDBRANCH  36  50
ENDBRANCH   1  30
BRANCH  11  55
ATOM     55  C   LIG d   1      11.346   0.337  -6.404  0.00  0.00    -0.029 C 
ATOM     56  H   LIG d   1      11.846   0.443  -7.367  0.00  0.00     0.026 H 
ATOM     57  H   LIG d   1      11.803   1.013  -5.681  0.00  0.00     0.026 H 
ATOM     58  H   LIG d   1      11.446  -0.691  -6.054  0.00  0.00     0.026 H 
ENDBRANCH  11  55
BRANCH   8  59
ATOM     59  C   LIG d   1       7.755  -0.304  -3.534  0.00  0.00     0.019 C 
ATOM     60  H   LIG d   1       8.560  -0.381  -2.803  0.00  0.00     0.047 H 
ATOM     61  H   LIG d   1       7.219   0.634  -3.387  0.00  0.00     0.047 H 
BRANCH  59  62
ATOM     62  C   LIG d   1       6.788  -1.476  -3.356  0.00  0.00    -0.009 C 
ATOM     63  H   LIG d   1       6.773  -2.077  -4.265  0.00  0.00     0.033 H 
ATOM     64  H   LIG d   1       7.117  -2.093  -2.519  0.00  0.00     0.033 H 
BRANCH  62  65
ATOM     65  C   LIG d   1       5.404  -0.948  -3.079  0.00  0.00    -0.011 A 
ATOM     66  C   LIG d   1       4.309  -1.790  -3.177  0.00  0.00     0.127 A 
ATOM     67  C   LIG d   1       3.039  -1.304  -2.918  0.00  0.00    -0.026 A 
ATOM     68  F   LIG d   1       4.481  -3.085  -3.521  0.00  0.00    -0.205 F 
ATOM     69  C   LIG d   1       2.864   0.022  -2.570  0.00  0.00    -0.059 A 
ATOM     70  H   LIG d   1       2.184  -1.962  -2.989  0.00  0.00     0.065 H 
ATOM     71  C   LIG d   1       3.958   0.863  -2.478  0.00  0.00    -0.061 A 
ATOM     72  H   LIG d   1       1.873   0.402  -2.371  0.00  0.00     0.062 H 
ATOM     73  C   LIG d   1       5.227   0.377  -2.732  0.00  0.00    -0.056 A 
ATOM     74  H   LIG d   1       3.820   1.899  -2.207  0.00  0.00     0.062 H 
ATOM     75  H   LIG d   1       6.080   1.036  -2.659  0.00  0.00     0.062 H 
ENDBRANCH  62  65
ENDBRANCH  59  62
ENDBRANCH   8  59
TORSDOF 11
ENDMDL
MODEL 9
REMARK VINA RESULT:      -6.2      4.521      8.359
REMARK  11 active torsions:
REMARK  status: ('A' for Active; 'I' for Inactive)
REMARK    1  A    between atoms: C_1  and  C_2 
REMARK    2  A    between atoms: C_2  and  C_3 
REMARK    3  A    between atoms: C_3  and  O_4 
REMARK    4  A    between atoms: O_4  and  C_5 
REMARK    5  A    between atoms: C_8  and  C_13 
REMARK    6  A    between atoms: C_10  and  O_11 
REMARK    7  A    between atoms: O_11  and  C_12 
REMARK    8  A    between atoms: N_20  and  C_35 
REMARK    9  A    between atoms: C_23  and  C_34 
REMARK   10  A    between atoms: C_35  and  C_36 
REMARK   11  A    between atoms: C_36  and  C_37 
ROOT
ATOM      1  C   LIG d   1      12.818   4.058  -4.745  0.00  0.00     0.028 C 
ATOM      2  H   LIG d   1      13.750   4.575  -4.976  0.00  0.00     0.041 H 
ATOM      3  C   LIG d   1      11.901   4.081  -5.973  0.00  0.00     0.027 C 
ATOM      4  N   LIG d   1      10.824   3.091  -5.780  0.00  0.00    -0.280 N 
ATOM      5  C   LIG d   1       9.560   3.508  -5.686  0.00  0.00     0.234 C 
ATOM      6  O   LIG d   1       9.330   4.679  -5.904  0.00  0.00    -0.274 OA
ATOM      7  C   LIG d   1       8.408   2.626  -5.330  0.00  0.00     0.091 C 
ATOM      8  N   LIG d   1       8.827   1.264  -5.042  0.00  0.00    -0.290 N 
ATOM      9  C   LIG d   1      10.077   0.827  -5.202  0.00  0.00     0.245 C 
ATOM     10  O   LIG d   1      10.317  -0.329  -4.928  0.00  0.00    -0.273 OA
ATOM     11  C   LIG d   1      11.197   1.678  -5.702  0.00  0.00     0.151 C 
ATOM     12  C   LIG d   1      12.397   1.562  -4.791  0.00  0.00     0.054 A 
ATOM     13  C   LIG d   1      13.115   2.628  -4.372  0.00  0.00    -0.008 A 
ATOM     14  C   LIG d   1      14.175   2.120  -3.527  0.00  0.00     0.004 A 
ATOM     15  C   LIG d   1      15.209   2.746  -2.823  0.00  0.00    -0.052 A 
ATOM     16  C   LIG d   1      16.052   1.933  -2.105  0.00  0.00    -0.061 A 
ATOM     17  C   LIG d   1      15.896   0.558  -2.070  0.00  0.00    -0.060 A 
ATOM     18  C   LIG d   1      14.881  -0.088  -2.757  0.00  0.00    -0.038 A 
ATOM     19  C   LIG d   1      14.011   0.712  -3.495  0.00  0.00     0.047 A 
ATOM     20  N   LIG d   1      12.925   0.411  -4.271  0.00  0.00    -0.356 N 
ATOM     21  H   LIG d   1      12.581  -0.482  -4.430  0.00  0.00     0.166 HD
ATOM     22  H   LIG d   1      11.467   5.074  -6.087  0.00  0.00     0.047 H 
ATOM     23  H   LIG d   1      12.476   3.826  -6.863  0.00  0.00     0.047 H 
ATOM     24  H   LIG d   1       7.908   3.034  -4.451  0.00  0.00     0.056 H 
ATOM     25  H   LIG d   1       7.702   2.611  -6.160  0.00  0.00     0.056 H 
ATOM     26  H   LIG d   1      15.340   3.817  -2.844  0.00  0.00     0.062 H 
ATOM     27  H   LIG d   1      16.862   2.382  -1.549  0.00  0.00     0.062 H 
ATOM     28  H   LIG d   1      16.588  -0.031  -1.488  0.00  0.00     0.062 H 
ATOM     29  H   LIG d   1      14.770  -1.161  -2.721  0.00  0.00     0.064 H 
ENDROOT
BRANCH   1  30
ATOM     30  C   LIG d   1      12.134   4.748  -3.592  0.00  0.00    -0.035 A 
ATOM     31  C   LIG d   1      11.584   3.998  -2.569  0.00  0.00    -0.054 A 
ATOM     32  C   LIG d   1      10.955   4.626  -1.510  0.00  0.00    -0.016 A 
ATOM     33  H   LIG d   1      11.645   2.921  -2.597  0.00  0.00     0.062 H 
ATOM     34  C   LIG d   1      10.875   6.009  -1.472  0.00  0.00     0.162 A 
ATOM     35  H   LIG d   1      10.527   4.038  -0.711  0.00  0.00     0.066 H 
ATOM     36  C   LIG d   1      11.424   6.763  -2.505  0.00  0.00     0.162 A 
ATOM     37  C   LIG d   1      12.058   6.128  -3.561  0.00  0.00    -0.013 A 
ATOM     38  H   LIG d   1      12.489   6.711  -4.361  0.00  0.00     0.066 H 
BRANCH  34  39
ATOM     39  O   LIG d   1      10.257   6.627  -0.430  0.00  0.00    -0.488 OA
BRANCH  39  40
ATOM     40  C   LIG d   1      11.055   6.917   0.719  0.00  0.00     0.089 C 
ATOM     41  H   LIG d   1      10.686   7.824   1.199  0.00  0.00     0.070 H 
ATOM     42  H   LIG d   1      12.091   7.063   0.414  0.00  0.00     0.070 H 
BRANCH  40  43
ATOM     43  C   LIG d   1      10.974   5.749   1.704  0.00  0.00    -0.021 C 
ATOM     44  H   LIG d   1      11.839   5.098   1.567  0.00  0.00     0.029 H 
ATOM     45  H   LIG d   1      10.061   5.183   1.521  0.00  0.00     0.029 H 
BRANCH  43  46
ATOM     46  C   LIG d   1      10.964   6.288   3.135  0.00  0.00    -0.062 C 
ATOM     47  H   LIG d   1       9.951   6.236   3.535  0.00  0.00     0.023 H 
ATOM     48  H   LIG d   1      11.631   5.689   3.755  0.00  0.00     0.023 H 
ATOM     49  H   LIG d   1      11.300   7.325   3.135  0.00  0.00     0.023 H 
ENDBRANCH  43  46
ENDBRANCH  40  43
ENDBRANCH  39  40
ENDBRANCH  34  39
BRANCH  36  50
ATOM     50  O   LIG d   1      11.343   8.120  -2.475  0.00  0.00    -0.491 OA
BRANCH  50  51
ATOM     51  C   LIG d   1      10.453   8.737  -3.407  0.00  0.00     0.079 C 
ATOM     52  H   LIG d   1      10.428   9.812  -3.229  0.00  0.00     0.066 H 
ATOM     53  H   LIG d   1      10.800   8.545  -4.422  0.00  0.00     0.066 H 
ATOM     54  H   LIG d   1       9.452   8.324  -3.280  0.00  0.00     0.066 H 
ENDBRANCH  50  51
ENDBRANCH  36  50
ENDBRANCH   1  30
BRANCH  11  55
ATOM     55  C   LIG d   1      11.604   1.196  -7.095  0.00  0.00    -0.029 C 
ATOM     56  H   LIG d   1      10.811   0.574  -7.510  0.00  0.00     0.026 H 
ATOM     57  H   LIG d   1      11.768   2.056  -7.744  0.00  0.00     0.026 H 
ATOM     58  H   LIG d   1      12.523   0.613  -7.024  0.00  0.00     0.026 H 
ENDBRANCH  11  55
BRANCH   8  59
ATOM     59  C   LIG d   1       7.822   0.319  -4.550  0.00  0.00     0.019 C 
ATOM     60  H   LIG d   1       7.185   0.003  -5.376  0.00  0.00     0.047 H 
ATOM     61  H   LIG d   1       8.321  -0.551  -4.122  0.00  0.00     0.047 H 
BRANCH  59  62
ATOM     62  C   LIG d   1       6.967   0.996  -3.477  0.00  0.00    -0.009 C 
ATOM     63  H   LIG d   1       7.563   1.140  -2.575  0.00  0.00     0.033 H 
ATOM     64  H   LIG d   1       6.623   1.963  -3.844  0.00  0.00     0.033 H 
BRANCH  62  65
ATOM     65  C   LIG d   1       5.778   0.127  -3.160  0.00  0.00    -0.011 A 
ATOM     66  C   LIG d   1       4.557   0.705  -2.860  0.00  0.00     0.127 A 
ATOM     67  C   LIG d   1       3.464  -0.095  -2.574  0.00  0.00    -0.026 A 
ATOM     68  F   LIG d   1       4.431   2.050  -2.851  0.00  0.00    -0.205 F 
ATOM     69  C   LIG d   1       3.596  -1.471  -2.579  0.00  0.00    -0.059 A 
ATOM     70  H   LIG d   1       2.509   0.356  -2.344  0.00  0.00     0.065 H 
ATOM     71  C   LIG d   1       4.818  -2.048  -2.873  0.00  0.00    -0.061 A 
ATOM     72  H   LIG d   1       2.745  -2.095  -2.352  0.00  0.00     0.062 H 
ATOM     73  C   LIG d   1       5.908  -1.249  -3.164  0.00  0.00    -0.056 A 
ATOM     74  H   LIG d   1       4.919  -3.123  -2.876  0.00  0.00     0.062 H 
ATOM     75  H   LIG d   1       6.861  -1.702  -3.393  0.00  0.00     0.062 H 
ENDBRANCH  62  65
ENDBRANCH  59  62
ENDBRANCH   8  59
TORSDOF 11
ENDMDL
