MODEL 1
REMARK VINA RESULT:      -5.8      0.000      0.000
REMARK  3 active torsions:
REMARK  status: ('A' for Active; 'I' for Inactive)
REMARK    1  A    between atoms: C_4  and  C_7 
REMARK    2  A    between atoms: C_8  and  C_15 
REMARK    3  A    between atoms: C_15  and  O_16 
ROOT
ATOM      1  C   LIG d   1       3.833  -0.277  -5.850  0.00  0.00     0.096 A 
ATOM      2  C   LIG d   1       4.170  -1.442  -6.455  0.00  0.00     0.077 A 
ATOM      3  N   LIG d   1       3.687  -1.394  -7.758  0.00  0.00    -0.295 N 
ATOM      4  C   LIG d   1       3.672  -2.199  -8.876  0.00  0.00     0.019 A 
ATOM      5  C   LIG d   1       3.089  -1.792 -10.003  0.00  0.00    -0.004 A 
ATOM      6  S   LIG d   1       2.494  -0.171  -9.545  0.00  0.00    -0.058 SA
ATOM      7  C   LIG d   1       3.079  -0.170  -7.867  0.00  0.00     0.178 A 
ATOM      8  N   LIG d   1       3.166   0.481  -6.744  0.00  0.00    -0.221 NA
ATOM      9  H   LIG d   1       4.139  -3.172  -8.840  0.00  0.00     0.082 H 
ATOM     10  H   LIG d   1       3.000  -2.308 -10.948  0.00  0.00     0.071 H 
ENDROOT
BRANCH   1  11
ATOM     11  C   LIG d   1       4.145   0.099  -4.450  0.00  0.00     0.002 A 
ATOM     12  C   LIG d   1       3.114   0.325  -3.539  0.00  0.00    -0.052 A 
ATOM     13  C   LIG d   1       3.411   0.676  -2.238  0.00  0.00    -0.061 A 
ATOM     14  H   LIG d   1       2.085   0.228  -3.853  0.00  0.00     0.062 H 
ATOM     15  C   LIG d   1       4.729   0.801  -1.836  0.00  0.00    -0.062 A 
ATOM     16  H   LIG d   1       2.613   0.851  -1.532  0.00  0.00     0.062 H 
ATOM     17  C   LIG d   1       5.756   0.577  -2.735  0.00  0.00    -0.061 A 
ATOM     18  H   LIG d   1       4.956   1.074  -0.816  0.00  0.00     0.062 H 
ATOM     19  C   LIG d   1       5.471   0.223  -4.038  0.00  0.00    -0.052 A 
ATOM     20  H   LIG d   1       6.783   0.678  -2.416  0.00  0.00     0.062 H 
ATOM     21  H   LIG d   1       6.273   0.044  -4.737  0.00  0.00     0.062 H 
ENDBRANCH   1  11
BRANCH   2  22
ATOM     22  C   LIG d   1       4.930  -2.583  -5.829  0.00  0.00     0.087 C 
ATOM     23  H   LIG d   1       5.421  -3.163  -6.611  0.00  0.00     0.062 H 
ATOM     24  H   LIG d   1       5.681  -2.187  -5.144  0.00  0.00     0.062 H 
BRANCH  22  25
ATOM     25  O   LIG d   1       4.025  -3.422  -5.111  0.00  0.00    -0.389 OA
ATOM     26  H   LIG d   1       3.313  -2.943  -4.666  0.00  0.00     0.210 HD
ENDBRANCH  22  25
ENDBRANCH   2  22
TORSDOF 3
ENDMDL
MODEL 2
REMARK VINA RESULT:      -5.7      3.568      4.236
REMARK  3 active torsions:
REMARK  status: ('A' for Active; 'I' for Inactive)
REMARK    1  A    between atoms: C_4  and  C_7 
REMARK    2  A    between atoms: C_8  and  C_15 
REMARK    3  A    between atoms: C_15  and  O_16 
ROOT
ATOM      1  C   LIG d   1       5.022  -2.646  -4.247  0.00  0.00     0.096 A 
ATOM      2  C   LIG d   1       6.314  -2.941  -4.533  0.00  0.00     0.077 A 
ATOM      3  N   LIG d   1       6.336  -4.199  -5.125  0.00  0.00    -0.295 N 
ATOM      4  C   LIG d   1       7.268  -5.073  -5.641  0.00  0.00     0.019 A 
ATOM      5  C   LIG d   1       6.895  -6.244  -6.154  0.00  0.00    -0.004 A 
ATOM      6  S   LIG d   1       5.123  -6.195  -5.937  0.00  0.00    -0.058 SA
ATOM      7  C   LIG d   1       5.024  -4.595  -5.169  0.00  0.00     0.178 A 
ATOM      8  N   LIG d   1       4.257  -3.680  -4.651  0.00  0.00    -0.221 NA
ATOM      9  H   LIG d   1       8.314  -4.805  -5.629  0.00  0.00     0.082 H 
ATOM     10  H   LIG d   1       7.506  -7.022  -6.589  0.00  0.00     0.071 H 
ENDROOT
BRANCH   1  11
ATOM     11  C   LIG d   1       4.535  -1.401  -3.604  0.00  0.00     0.002 A 
ATOM     12  C   LIG d   1       4.820  -1.148  -2.263  0.00  0.00    -0.052 A 
ATOM     13  C   LIG d   1       4.364   0.011  -1.670  0.00  0.00    -0.061 A 
ATOM     14  H   LIG d   1       5.395  -1.860  -1.689  0.00  0.00     0.062 H 
ATOM     15  C   LIG d   1       3.628   0.923  -2.405  0.00  0.00    -0.062 A 
ATOM     16  H   LIG d   1       4.584   0.208  -0.631  0.00  0.00     0.062 H 
ATOM     17  C   LIG d   1       3.342   0.678  -3.736  0.00  0.00    -0.061 A 
ATOM     18  H   LIG d   1       3.274   1.830  -1.937  0.00  0.00     0.062 H 
ATOM     19  C   LIG d   1       3.796  -0.476  -4.340  0.00  0.00    -0.052 A 
ATOM     20  H   LIG d   1       2.765   1.393  -4.303  0.00  0.00     0.062 H 
ATOM     21  H   LIG d   1       3.577  -0.664  -5.380  0.00  0.00     0.062 H 
ENDBRANCH   1  11
BRANCH   2  22
ATOM     22  C   LIG d   1       7.509  -2.065  -4.260  0.00  0.00     0.087 C 
ATOM     23  H   LIG d   1       8.241  -2.192  -5.057  0.00  0.00     0.062 H 
ATOM     24  H   LIG d   1       7.193  -1.021  -4.219  0.00  0.00     0.062 H 
BRANCH  22  25
ATOM     25  O   LIG d   1       8.095  -2.435  -3.011  0.00  0.00    -0.389 OA
ATOM     26  H   LIG d   1       9.026  -2.688  -3.073  0.00  0.00     0.210 HD
ENDBRANCH  22  25
ENDBRANCH   2  22
TORSDOF 3
ENDMDL
MODEL 3
REMARK VINA RESULT:      -5.7      2.045      2.173
REMARK  3 active torsions:
REMARK  status: ('A' for Active; 'I' for Inactive)
REMARK    1  A    between atoms: C_4  and  C_7 
REMARK    2  A    between atoms: C_8  and  C_15 
REMARK    3  A    between atoms: C_15  and  O_16 
ROOT
ATOM      1  C   LIG d   1       3.955  -0.277  -5.789  0.00  0.00     0.096 A 
ATOM      2  C   LIG d   1       4.968  -0.242  -6.689  0.00  0.00     0.077 A 
ATOM      3  N   LIG d   1       4.411   0.005  -7.939  0.00  0.00    -0.295 N 
ATOM      4  C   LIG d   1       4.839   0.161  -9.239  0.00  0.00     0.019 A 
ATOM      5  C   LIG d   1       3.969   0.406 -10.219  0.00  0.00    -0.004 A 
ATOM      6  S   LIG d   1       2.417   0.437  -9.336  0.00  0.00    -0.058 SA
ATOM      7  C   LIG d   1       3.063   0.116  -7.711  0.00  0.00     0.178 A 
ATOM      8  N   LIG d   1       2.801  -0.051  -6.448  0.00  0.00    -0.221 NA
ATOM      9  H   LIG d   1       5.891   0.082  -9.468  0.00  0.00     0.082 H 
ATOM     10  H   LIG d   1       4.156   0.549 -11.273  0.00  0.00     0.071 H 
ENDROOT
BRANCH   1  11
ATOM     11  C   LIG d   1       4.093  -0.517  -4.331  0.00  0.00     0.002 A 
ATOM     12  C   LIG d   1       4.335   0.548  -3.466  0.00  0.00    -0.052 A 
ATOM     13  C   LIG d   1       4.463   0.319  -2.111  0.00  0.00    -0.061 A 
ATOM     14  H   LIG d   1       4.422   1.552  -3.856  0.00  0.00     0.062 H 
ATOM     15  C   LIG d   1       4.350  -0.966  -1.612  0.00  0.00    -0.062 A 
ATOM     16  H   LIG d   1       4.650   1.144  -1.440  0.00  0.00     0.062 H 
ATOM     17  C   LIG d   1       4.111  -2.028  -2.466  0.00  0.00    -0.061 A 
ATOM     18  H   LIG d   1       4.450  -1.141  -0.550  0.00  0.00     0.062 H 
ATOM     19  C   LIG d   1       3.977  -1.810  -3.821  0.00  0.00    -0.052 A 
ATOM     20  H   LIG d   1       4.026  -3.029  -2.070  0.00  0.00     0.062 H 
ATOM     21  H   LIG d   1       3.786  -2.638  -4.486  0.00  0.00     0.062 H 
ENDBRANCH   1  11
BRANCH   2  22
ATOM     22  C   LIG d   1       6.432  -0.437  -6.390  0.00  0.00     0.087 C 
ATOM     23  H   LIG d   1       6.544  -1.174  -5.594  0.00  0.00     0.062 H 
ATOM     24  H   LIG d   1       6.942  -0.790  -7.287  0.00  0.00     0.062 H 
BRANCH  22  25
ATOM     25  O   LIG d   1       7.003   0.804  -5.975  0.00  0.00    -0.389 OA
ATOM     26  H   LIG d   1       6.666   1.129  -5.129  0.00  0.00     0.210 HD
ENDBRANCH  22  25
ENDBRANCH   2  22
TORSDOF 3
ENDMDL
MODEL 4
REMARK VINA RESULT:      -5.7      3.804      4.763
REMARK  3 active torsions:
REMARK  status: ('A' for Active; 'I' for Inactive)
REMARK    1  A    between atoms: C_4  and  C_7 
REMARK    2  A    between atoms: C_8  and  C_15 
REMARK    3  A    between atoms: C_15  and  O_16 
ROOT
ATOM      1  C   LIG d   1       6.698  -2.302  -3.888  0.00  0.00     0.096 A 
ATOM      2  C   LIG d   1       6.293  -2.971  -4.994  0.00  0.00     0.077 A 
ATOM      3  N   LIG d   1       7.253  -3.937  -5.276  0.00  0.00    -0.295 N 
ATOM      4  C   LIG d   1       7.470  -4.923  -6.214  0.00  0.00     0.019 A 
ATOM      5  C   LIG d   1       8.556  -5.693  -6.154  0.00  0.00    -0.004 A 
ATOM      6  S   LIG d   1       9.384  -5.054  -4.706  0.00  0.00    -0.058 SA
ATOM      7  C   LIG d   1       8.199  -3.795  -4.294  0.00  0.00     0.178 A 
ATOM      8  N   LIG d   1       7.869  -2.833  -3.482  0.00  0.00    -0.221 NA
ATOM      9  H   LIG d   1       6.753  -5.074  -7.006  0.00  0.00     0.082 H 
ATOM     10  H   LIG d   1       8.856  -6.496  -6.811  0.00  0.00     0.071 H 
ENDROOT
BRANCH   1  11
ATOM     11  C   LIG d   1       5.976  -1.182  -3.234  0.00  0.00     0.002 A 
ATOM     12  C   LIG d   1       6.359   0.135  -3.481  0.00  0.00    -0.052 A 
ATOM     13  C   LIG d   1       5.685   1.173  -2.870  0.00  0.00    -0.061 A 
ATOM     14  H   LIG d   1       7.183   0.343  -4.148  0.00  0.00     0.062 H 
ATOM     15  C   LIG d   1       4.629   0.907  -2.016  0.00  0.00    -0.062 A 
ATOM     16  H   LIG d   1       5.981   2.194  -3.060  0.00  0.00     0.062 H 
ATOM     17  C   LIG d   1       4.245  -0.399  -1.768  0.00  0.00    -0.061 A 
ATOM     18  H   LIG d   1       4.104   1.722  -1.541  0.00  0.00     0.062 H 
ATOM     19  C   LIG d   1       4.910  -1.444  -2.376  0.00  0.00    -0.052 A 
ATOM     20  H   LIG d   1       3.422  -0.600  -1.099  0.00  0.00     0.062 H 
ATOM     21  H   LIG d   1       4.606  -2.461  -2.185  0.00  0.00     0.062 H 
ENDBRANCH   1  11
BRANCH   2  22
ATOM     22  C   LIG d   1       5.032  -2.715  -5.778  0.00  0.00     0.087 C 
ATOM     23  H   LIG d   1       4.739  -1.671  -5.664  0.00  0.00     0.062 H 
ATOM     24  H   LIG d   1       5.208  -2.930  -6.833  0.00  0.00     0.062 H 
BRANCH  22  25
ATOM     25  O   LIG d   1       3.987  -3.558  -5.289  0.00  0.00    -0.389 OA
ATOM     26  H   LIG d   1       4.026  -3.720  -4.337  0.00  0.00     0.210 HD
ENDBRANCH  22  25
ENDBRANCH   2  22
TORSDOF 3
ENDMDL
MODEL 5
REMARK VINA RESULT:      -5.6      2.725      3.445
REMARK  3 active torsions:
REMARK  status: ('A' for Active; 'I' for Inactive)
REMARK    1  A    between atoms: C_4  and  C_7 
REMARK    2  A    between atoms: C_8  and  C_15 
REMARK    3  A    between atoms: C_15  and  O_16 
ROOT
ATOM      1  C   LIG d   1       4.551  -2.317  -4.688  0.00  0.00     0.096 A 
ATOM      2  C   LIG d   1       4.514  -2.291  -6.042  0.00  0.00     0.077 A 
ATOM      3  N   LIG d   1       4.601  -3.605  -6.490  0.00  0.00    -0.295 N 
ATOM      4  C   LIG d   1       4.622  -4.280  -7.691  0.00  0.00     0.019 A 
ATOM      5  C   LIG d   1       4.714  -5.608  -7.726  0.00  0.00    -0.004 A 
ATOM      6  S   LIG d   1       4.781  -6.020  -5.989  0.00  0.00    -0.058 SA
ATOM      7  C   LIG d   1       4.679  -4.364  -5.350  0.00  0.00     0.178 A 
ATOM      8  N   LIG d   1       4.650  -3.603  -4.295  0.00  0.00    -0.221 NA
ATOM      9  H   LIG d   1       4.562  -3.725  -8.615  0.00  0.00     0.082 H 
ATOM     10  H   LIG d   1       4.741  -6.265  -8.583  0.00  0.00     0.071 H 
ENDROOT
BRANCH   1  11
ATOM     11  C   LIG d   1       4.488  -1.136  -3.792  0.00  0.00     0.002 A 
ATOM     12  C   LIG d   1       5.655  -0.454  -3.452  0.00  0.00    -0.052 A 
ATOM     13  C   LIG d   1       5.592   0.645  -2.618  0.00  0.00    -0.061 A 
ATOM     14  H   LIG d   1       6.608  -0.785  -3.839  0.00  0.00     0.062 H 
ATOM     15  C   LIG d   1       4.372   1.069  -2.123  0.00  0.00    -0.062 A 
ATOM     16  H   LIG d   1       6.495   1.174  -2.354  0.00  0.00     0.062 H 
ATOM     17  C   LIG d   1       3.210   0.396  -2.457  0.00  0.00    -0.061 A 
ATOM     18  H   LIG d   1       4.327   1.930  -1.471  0.00  0.00     0.062 H 
ATOM     19  C   LIG d   1       3.262  -0.700  -3.293  0.00  0.00    -0.052 A 
ATOM     20  H   LIG d   1       2.262   0.732  -2.065  0.00  0.00     0.062 H 
ATOM     21  H   LIG d   1       2.355  -1.222  -3.557  0.00  0.00     0.062 H 
ENDBRANCH   1  11
BRANCH   2  22
ATOM     22  C   LIG d   1       4.400  -1.063  -6.907  0.00  0.00     0.087 C 
ATOM     23  H   LIG d   1       4.949  -0.242  -6.445  0.00  0.00     0.062 H 
ATOM     24  H   LIG d   1       4.819  -1.271  -7.892  0.00  0.00     0.062 H 
BRANCH  22  25
ATOM     25  O   LIG d   1       3.025  -0.700  -7.040  0.00  0.00    -0.389 OA
ATOM     26  H   LIG d   1       2.812  -0.262  -7.876  0.00  0.00     0.210 HD
ENDBRANCH  22  25
ENDBRANCH   2  22
TORSDOF 3
ENDMDL
MODEL 6
REMARK VINA RESULT:      -5.5      2.495      5.156
REMARK  3 active torsions:
REMARK  status: ('A' for Active; 'I' for Inactive)
REMARK    1  A    between atoms: C_4  and  C_7 
REMARK    2  A    between atoms: C_8  and  C_15 
REMARK    3  A    between atoms: C_15  and  O_16 
ROOT
ATOM      1  C   LIG d   1       3.657  -0.091  -6.596  0.00  0.00     0.096 A 
ATOM      2  C   LIG d   1       4.183  -1.225  -6.074  0.00  0.00     0.077 A 
ATOM      3  N   LIG d   1       4.027  -1.165  -4.693  0.00  0.00    -0.295 N 
ATOM      4  C   LIG d   1       4.319  -1.941  -3.593  0.00  0.00     0.019 A 
ATOM      5  C   LIG d   1       3.995  -1.536  -2.366  0.00  0.00    -0.004 A 
ATOM      6  S   LIG d   1       3.219   0.040  -2.691  0.00  0.00    -0.058 SA
ATOM      7  C   LIG d   1       3.393   0.028  -4.460  0.00  0.00     0.178 A 
ATOM      8  N   LIG d   1       3.179   0.656  -5.579  0.00  0.00    -0.221 NA
ATOM      9  H   LIG d   1       4.818  -2.890  -3.727  0.00  0.00     0.082 H 
ATOM     10  H   LIG d   1       4.159  -2.032  -1.421  0.00  0.00     0.071 H 
ENDROOT
BRANCH   1  11
ATOM     11  C   LIG d   1       3.611   0.266  -8.035  0.00  0.00     0.002 A 
ATOM     12  C   LIG d   1       2.577  -0.207  -8.841  0.00  0.00    -0.052 A 
ATOM     13  C   LIG d   1       2.540   0.128 -10.179  0.00  0.00    -0.061 A 
ATOM     14  H   LIG d   1       1.807  -0.835  -8.418  0.00  0.00     0.062 H 
ATOM     15  C   LIG d   1       3.526   0.933 -10.720  0.00  0.00    -0.062 A 
ATOM     16  H   LIG d   1       1.739  -0.238 -10.804  0.00  0.00     0.062 H 
ATOM     17  C   LIG d   1       4.555   1.405  -9.926  0.00  0.00    -0.061 A 
ATOM     18  H   LIG d   1       3.492   1.193 -11.768  0.00  0.00     0.062 H 
ATOM     19  C   LIG d   1       4.600   1.080  -8.586  0.00  0.00    -0.052 A 
ATOM     20  H   LIG d   1       5.323   2.032 -10.355  0.00  0.00     0.062 H 
ATOM     21  H   LIG d   1       5.401   1.453  -7.965  0.00  0.00     0.062 H 
ENDBRANCH   1  11
BRANCH   2  22
ATOM     22  C   LIG d   1       4.822  -2.349  -6.848  0.00  0.00     0.087 C 
ATOM     23  H   LIG d   1       5.034  -2.015  -7.864  0.00  0.00     0.062 H 
ATOM     24  H   LIG d   1       5.752  -2.644  -6.361  0.00  0.00     0.062 H 
BRANCH  22  25
ATOM     25  O   LIG d   1       3.932  -3.465  -6.890  0.00  0.00    -0.389 OA
ATOM     26  H   LIG d   1       4.375  -4.324  -6.859  0.00  0.00     0.210 HD
ENDBRANCH  22  25
ENDBRANCH   2  22
TORSDOF 3
ENDMDL
MODEL 7
REMARK VINA RESULT:      -5.3      2.028      2.420
REMARK  3 active torsions:
REMARK  status: ('A' for Active; 'I' for Inactive)
REMARK    1  A    between atoms: C_4  and  C_7 
REMARK    2  A    between atoms: C_8  and  C_15 
REMARK    3  A    between atoms: C_15  and  O_16 
ROOT
ATOM      1  C   LIG d   1       4.325  -1.146  -5.711  0.00  0.00     0.096 A 
ATOM      2  C   LIG d   1       3.747  -0.711  -6.856  0.00  0.00     0.077 A 
ATOM      3  N   LIG d   1       3.919  -1.702  -7.816  0.00  0.00    -0.295 N 
ATOM      4  C   LIG d   1       3.597  -1.914  -9.139  0.00  0.00     0.019 A 
ATOM      5  C   LIG d   1       3.941  -3.046  -9.752  0.00  0.00    -0.004 A 
ATOM      6  S   LIG d   1       4.780  -3.932  -8.447  0.00  0.00    -0.058 SA
ATOM      7  C   LIG d   1       4.601  -2.703  -7.175  0.00  0.00     0.178 A 
ATOM      8  N   LIG d   1       4.838  -2.372  -5.939  0.00  0.00    -0.221 NA
ATOM      9  H   LIG d   1       3.060  -1.154  -9.687  0.00  0.00     0.082 H 
ATOM     10  H   LIG d   1       3.759  -3.349 -10.773  0.00  0.00     0.071 H 
ENDROOT
BRANCH   1  11
ATOM     11  C   LIG d   1       4.382  -0.404  -4.427  0.00  0.00     0.002 A 
ATOM     12  C   LIG d   1       3.227  -0.233  -3.666  0.00  0.00    -0.052 A 
ATOM     13  C   LIG d   1       3.285   0.458  -2.473  0.00  0.00    -0.061 A 
ATOM     14  H   LIG d   1       2.287  -0.641  -4.011  0.00  0.00     0.062 H 
ATOM     15  C   LIG d   1       4.488   0.980  -2.032  0.00  0.00    -0.062 A 
ATOM     16  H   LIG d   1       2.390   0.591  -1.883  0.00  0.00     0.062 H 
ATOM     17  C   LIG d   1       5.637   0.813  -2.783  0.00  0.00    -0.061 A 
ATOM     18  H   LIG d   1       4.529   1.519  -1.097  0.00  0.00     0.062 H 
ATOM     19  C   LIG d   1       5.592   0.120  -3.975  0.00  0.00    -0.052 A 
ATOM     20  H   LIG d   1       6.573   1.224  -2.433  0.00  0.00     0.062 H 
ATOM     21  H   LIG d   1       6.490  -0.013  -4.557  0.00  0.00     0.062 H 
ENDBRANCH   1  11
BRANCH   2  22
ATOM     22  C   LIG d   1       3.044   0.608  -7.054  0.00  0.00     0.087 C 
ATOM     23  H   LIG d   1       2.058   0.432  -7.483  0.00  0.00     0.062 H 
ATOM     24  H   LIG d   1       2.938   1.111  -6.092  0.00  0.00     0.062 H 
BRANCH  22  25
ATOM     25  O   LIG d   1       3.810   1.427  -7.939  0.00  0.00    -0.389 OA
ATOM     26  H   LIG d   1       4.758   1.237  -7.930  0.00  0.00     0.210 HD
ENDBRANCH  22  25
ENDBRANCH   2  22
TORSDOF 3
ENDMDL
MODEL 8
REMARK VINA RESULT:      -5.0      3.660      4.573
REMARK  3 active torsions:
REMARK  status: ('A' for Active; 'I' for Inactive)
REMARK    1  A    between atoms: C_4  and  C_7 
REMARK    2  A    between atoms: C_8  and  C_15 
REMARK    3  A    between atoms: C_15  and  O_16 
ROOT
ATOM      1  C   LIG d   1       6.819   0.021  -4.600  0.00  0.00     0.096 A 
ATOM      2  C   LIG d   1       7.672  -1.030  -4.545  0.00  0.00     0.077 A 
ATOM      3  N   LIG d   1       8.742  -0.747  -5.388  0.00  0.00    -0.295 N 
ATOM      4  C   LIG d   1       9.914  -1.347  -5.794  0.00  0.00     0.019 A 
ATOM      5  C   LIG d   1      10.730  -0.738  -6.653  0.00  0.00    -0.004 A 
ATOM      6  S   LIG d   1       9.865   0.794  -6.962  0.00  0.00    -0.058 SA
ATOM      7  C   LIG d   1       8.467   0.492  -5.907  0.00  0.00     0.178 A 
ATOM      8  N   LIG d   1       7.337   0.938  -5.442  0.00  0.00    -0.221 NA
ATOM      9  H   LIG d   1      10.174  -2.323  -5.413  0.00  0.00     0.082 H 
ATOM     10  H   LIG d   1      11.671  -1.082  -7.057  0.00  0.00     0.071 H 
ENDROOT
BRANCH   1  11
ATOM     11  C   LIG d   1       5.540   0.144  -3.858  0.00  0.00     0.002 A 
ATOM     12  C   LIG d   1       5.508   0.781  -2.619  0.00  0.00    -0.052 A 
ATOM     13  C   LIG d   1       4.315   0.891  -1.933  0.00  0.00    -0.061 A 
ATOM     14  H   LIG d   1       6.415   1.186  -2.196  0.00  0.00     0.062 H 
ATOM     15  C   LIG d   1       3.153   0.373  -2.475  0.00  0.00    -0.062 A 
ATOM     16  H   LIG d   1       4.289   1.385  -0.973  0.00  0.00     0.062 H 
ATOM     17  C   LIG d   1       3.179  -0.261  -3.704  0.00  0.00    -0.061 A 
ATOM     18  H   LIG d   1       2.221   0.462  -1.935  0.00  0.00     0.062 H 
ATOM     19  C   LIG d   1       4.364  -0.373  -4.401  0.00  0.00    -0.052 A 
ATOM     20  H   LIG d   1       2.268  -0.665  -4.121  0.00  0.00     0.062 H 
ATOM     21  H   LIG d   1       4.382  -0.863  -5.362  0.00  0.00     0.062 H 
ENDBRANCH   1  11
BRANCH   2  22
ATOM     22  C   LIG d   1       7.495  -2.279  -3.722  0.00  0.00     0.087 C 
ATOM     23  H   LIG d   1       8.473  -2.702  -3.489  0.00  0.00     0.062 H 
ATOM     24  H   LIG d   1       6.976  -2.033  -2.795  0.00  0.00     0.062 H 
BRANCH  22  25
ATOM     25  O   LIG d   1       6.728  -3.232  -4.460  0.00  0.00    -0.389 OA
ATOM     26  H   LIG d   1       5.959  -2.855  -4.908  0.00  0.00     0.210 HD
ENDBRANCH  22  25
ENDBRANCH   2  22
TORSDOF 3
ENDMDL
MODEL 9
REMARK VINA RESULT:      -4.9      3.019      3.303
REMARK  3 active torsions:
REMARK  status: ('A' for Active; 'I' for Inactive)
REMARK    1  A    between atoms: C_4  and  C_7 
REMARK    2  A    between atoms: C_8  and  C_15 
REMARK    3  A    between atoms: C_15  and  O_16 
ROOT
ATOM      1  C   LIG d   1       5.997  -0.459  -5.485  0.00  0.00     0.096 A 
ATOM      2  C   LIG d   1       5.286  -0.383  -6.636  0.00  0.00     0.077 A 
ATOM      3  N   LIG d   1       6.193  -0.375  -7.691  0.00  0.00    -0.295 N 
ATOM      4  C   LIG d   1       6.164  -0.316  -9.067  0.00  0.00     0.019 A 
ATOM      5  C   LIG d   1       7.293  -0.338  -9.774  0.00  0.00    -0.004 A 
ATOM      6  S   LIG d   1       8.531  -0.448  -8.492  0.00  0.00    -0.058 SA
ATOM      7  C   LIG d   1       7.427  -0.456  -7.099  0.00  0.00     0.178 A 
ATOM      8  N   LIG d   1       7.307  -0.505  -5.804  0.00  0.00    -0.221 NA
ATOM      9  H   LIG d   1       5.216  -0.251  -9.579  0.00  0.00     0.082 H 
ATOM     10  H   LIG d   1       7.424  -0.299 -10.846  0.00  0.00     0.071 H 
ENDROOT
BRANCH   1  11
ATOM     11  C   LIG d   1       5.433  -0.490  -4.114  0.00  0.00     0.002 A 
ATOM     12  C   LIG d   1       5.374   0.677  -3.355  0.00  0.00    -0.052 A 
ATOM     13  C   LIG d   1       4.848   0.642  -2.079  0.00  0.00    -0.061 A 
ATOM     14  H   LIG d   1       5.740   1.607  -3.764  0.00  0.00     0.062 H 
ATOM     15  C   LIG d   1       4.379  -0.549  -1.555  0.00  0.00    -0.062 A 
ATOM     16  H   LIG d   1       4.802   1.546  -1.490  0.00  0.00     0.062 H 
ATOM     17  C   LIG d   1       4.435  -1.711  -2.303  0.00  0.00    -0.061 A 
ATOM     18  H   LIG d   1       3.967  -0.571  -0.556  0.00  0.00     0.062 H 
ATOM     19  C   LIG d   1       4.954  -1.687  -3.581  0.00  0.00    -0.052 A 
ATOM     20  H   LIG d   1       4.068  -2.638  -1.887  0.00  0.00     0.062 H 
ATOM     21  H   LIG d   1       4.993  -2.593  -4.166  0.00  0.00     0.062 H 
ENDBRANCH   1  11
BRANCH   2  22
ATOM     22  C   LIG d   1       3.785  -0.318  -6.753  0.00  0.00     0.087 C 
ATOM     23  H   LIG d   1       3.449  -1.032  -7.506  0.00  0.00     0.062 H 
ATOM     24  H   LIG d   1       3.334  -0.565  -5.791  0.00  0.00     0.062 H 
BRANCH  22  25
ATOM     25  O   LIG d   1       3.394   1.000  -7.139  0.00  0.00    -0.389 OA
ATOM     26  H   LIG d   1       3.366   1.138  -8.095  0.00  0.00     0.210 HD
ENDBRANCH  22  25
ENDBRANCH   2  22
TORSDOF 3
ENDMDL
MODEL 10
REMARK VINA RESULT:      -4.9      4.276      5.270
REMARK  3 active torsions:
REMARK  status: ('A' for Active; 'I' for Inactive)
REMARK    1  A    between atoms: C_4  and  C_7 
REMARK    2  A    between atoms: C_8  and  C_15 
REMARK    3  A    between atoms: C_15  and  O_16 
ROOT
ATOM      1  C   LIG d   1       2.389  -1.674  -9.887  0.00  0.00     0.096 A 
ATOM      2  C   LIG d   1       3.032  -2.763  -9.399  0.00  0.00     0.077 A 
ATOM      3  N   LIG d   1       2.317  -3.887  -9.798  0.00  0.00    -0.295 N 
ATOM      4  C   LIG d   1       2.397  -5.256  -9.661  0.00  0.00     0.019 A 
ATOM      5  C   LIG d   1       1.485  -6.052 -10.217  0.00  0.00    -0.004 A 
ATOM      6  S   LIG d   1       0.401  -4.874 -11.010  0.00  0.00    -0.058 SA
ATOM      7  C   LIG d   1       1.264  -3.397 -10.528  0.00  0.00     0.178 A 
ATOM      8  N   LIG d   1       1.311  -2.098 -10.576  0.00  0.00    -0.221 NA
ATOM      9  H   LIG d   1       3.209  -5.688  -9.095  0.00  0.00     0.082 H 
ATOM     10  H   LIG d   1       1.420  -7.130 -10.194  0.00  0.00     0.071 H 
ENDROOT
BRANCH   1  11
ATOM     11  C   LIG d   1       2.803  -0.262  -9.698  0.00  0.00     0.002 A 
ATOM     12  C   LIG d   1       3.467   0.415 -10.720  0.00  0.00    -0.052 A 
ATOM     13  C   LIG d   1       3.850   1.728 -10.539  0.00  0.00    -0.061 A 
ATOM     14  H   LIG d   1       3.683  -0.089 -11.651  0.00  0.00     0.062 H 
ATOM     15  C   LIG d   1       3.574   2.373  -9.347  0.00  0.00    -0.062 A 
ATOM     16  H   LIG d   1       4.365   2.253 -11.330  0.00  0.00     0.062 H 
ATOM     17  C   LIG d   1       2.915   1.707  -8.330  0.00  0.00    -0.061 A 
ATOM     18  H   LIG d   1       3.875   3.402  -9.210  0.00  0.00     0.062 H 
ATOM     19  C   LIG d   1       2.524   0.395  -8.501  0.00  0.00    -0.052 A 
ATOM     20  H   LIG d   1       2.703   2.216  -7.401  0.00  0.00     0.062 H 
ATOM     21  H   LIG d   1       2.005  -0.122  -7.708  0.00  0.00     0.062 H 
ENDBRANCH   1  11
BRANCH   2  22
ATOM     22  C   LIG d   1       4.292  -2.758  -8.572  0.00  0.00     0.087 C 
ATOM     23  H   LIG d   1       4.912  -3.610  -8.851  0.00  0.00     0.062 H 
ATOM     24  H   LIG d   1       4.842  -1.833  -8.753  0.00  0.00     0.062 H 
BRANCH  22  25
ATOM     25  O   LIG d   1       3.954  -2.847  -7.187  0.00  0.00    -0.389 OA
ATOM     26  H   LIG d   1       4.185  -3.692  -6.779  0.00  0.00     0.210 HD
ENDBRANCH  22  25
ENDBRANCH   2  22
TORSDOF 3
ENDMDL
