MODEL 1
REMARK VINA RESULT:      -5.5      0.000      0.000
REMARK  23 active torsions:
REMARK  status: ('A' for Active; 'I' for Inactive)
REMARK    1  A    between atoms: C_1  and  C_2 
REMARK    2  A    between atoms: C_2  and  C_3 
REMARK    3  A    between atoms: C_3  and  C_4 
REMARK    4  A    between atoms: C_4  and  C_5 
REMARK    5  A    between atoms: C_5  and  C_7 
REMARK    6  A    between atoms: C_5  and  C_9 
REMARK    7  A    between atoms: C_7  and  C_8 
REMARK    8  A    between atoms: C_9  and  N_10 
REMARK       I    between atoms: N_10  and  C_11 
REMARK       I    between atoms: C_11  and  N_13 
REMARK       I    between atoms: N_13  and  C_14 
REMARK       I    between atoms: C_14  and  N_16 
REMARK    9  A    between atoms: N_16  and  C_17 
REMARK   10  A    between atoms: C_17  and  C_18 
REMARK   11  A    between atoms: C_18  and  C_19 
REMARK   12  A    between atoms: C_19  and  C_20 
REMARK   13  A    between atoms: C_20  and  C_21 
REMARK   14  A    between atoms: C_21  and  C_22 
REMARK   15  A    between atoms: C_22  and  N_23 
REMARK       I    between atoms: N_23  and  C_24 
REMARK       I    between atoms: C_24  and  N_25 
REMARK       I    between atoms: N_26  and  C_27 
REMARK       I    between atoms: C_27  and  N_28 
REMARK   16  A    between atoms: N_29  and  C_30 
REMARK   17  A    between atoms: C_30  and  C_31 
REMARK   18  A    between atoms: C_31  and  C_33 
REMARK   19  A    between atoms: C_31  and  C_35 
REMARK   20  A    between atoms: C_33  and  C_34 
REMARK   21  A    between atoms: C_35  and  C_36 
REMARK   22  A    between atoms: C_36  and  C_37 
REMARK   23  A    between atoms: C_37  and  C_38 
ROOT
ATOM      1  C   LIG d   1       2.681  -7.978 -11.642  0.00  0.00    -0.050 C 
ATOM      2  H   LIG d   1       3.488  -7.406 -12.100  0.00  0.00     0.027 H 
ATOM      3  H   LIG d   1       2.661  -8.982 -12.066  0.00  0.00     0.027 H 
ENDROOT
BRANCH   1   4
ATOM      4  C   LIG d   1       2.914  -8.067 -10.132  0.00  0.00    -0.022 C 
ATOM      5  H   LIG d   1       3.148  -9.096  -9.861  0.00  0.00     0.030 H 
ATOM      6  H   LIG d   1       2.015  -7.749  -9.606  0.00  0.00     0.030 H 
BRANCH   4   7
ATOM      7  C   LIG d   1       4.081  -7.158  -9.741  0.00  0.00     0.065 C 
ATOM      8  H   LIG d   1       4.083  -6.274 -10.380  0.00  0.00     0.066 H 
ATOM      9  H   LIG d   1       5.020  -7.698  -9.865  0.00  0.00     0.066 H 
BRANCH   7  10
ATOM     10  N   LIG d   1       3.934  -6.748  -8.343  0.00  0.00    -0.278 N 
ATOM     11  C   LIG d   1       4.267  -5.469  -7.963  0.00  0.00     0.352 C 
ATOM     12  N   LIG d   1       4.128  -5.083  -6.646  0.00  0.00    -0.191 N 
ATOM     13  N   LIG d   1       4.714  -4.622  -8.846  0.00  0.00    -0.291 N 
ATOM     14  C   LIG d   1       4.141  -3.745  -6.315  0.00  0.00     0.352 C 
ATOM     15  H   LIG d   1       4.022  -5.753  -5.952  0.00  0.00     0.271 HD
ATOM     16  N   LIG d   1       4.333  -3.361  -5.008  0.00  0.00    -0.278 N 
ATOM     17  N   LIG d   1       3.971  -2.843  -7.240  0.00  0.00    -0.291 N 
ATOM     18  H   LIG d   1       4.459  -4.032  -4.320  0.00  0.00     0.258 HD
ATOM     19  H   LIG d   1       3.729  -3.112  -8.140  0.00  0.00     0.255 HD
ATOM     20  H   LIG d   1       4.087  -1.903  -7.029  0.00  0.00     0.255 HD
ATOM     21  H   LIG d   1       4.710  -4.857  -9.787  0.00  0.00     0.255 HD
ATOM     22  H   LIG d   1       5.050  -3.759  -8.563  0.00  0.00     0.255 HD
ATOM     23  H   LIG d   1       3.601  -7.379  -7.685  0.00  0.00     0.258 HD
BRANCH  16  24
ATOM     24  C   LIG d   1       4.346  -1.939  -4.657  0.00  0.00     0.067 C 
ATOM     25  H   LIG d   1       3.901  -1.360  -5.467  0.00  0.00     0.066 H 
ATOM     26  H   LIG d   1       5.373  -1.613  -4.499  0.00  0.00     0.066 H 
BRANCH  24  27
ATOM     27  C   LIG d   1       3.540  -1.723  -3.374  0.00  0.00    -0.011 C 
ATOM     28  H   LIG d   1       3.057  -2.657  -3.087  0.00  0.00     0.033 H 
BRANCH  27  29
ATOM     29  C   LIG d   1       4.476  -1.267  -2.254  0.00  0.00    -0.047 C 
ATOM     30  H   LIG d   1       4.780  -2.130  -1.660  0.00  0.00     0.027 H 
ATOM     31  H   LIG d   1       3.957  -0.551  -1.616  0.00  0.00     0.027 H 
BRANCH  29  32
ATOM     32  C   LIG d   1       5.715  -0.605  -2.862  0.00  0.00    -0.053 C 
ATOM     33  H   LIG d   1       5.762  -0.834  -3.927  0.00  0.00     0.026 H 
ATOM     34  H   LIG d   1       6.609  -0.985  -2.368  0.00  0.00     0.026 H 
BRANCH  32  35
ATOM     35  C   LIG d   1       5.630   0.910  -2.669  0.00  0.00    -0.056 C 
ATOM     36  H   LIG d   1       5.332   1.380  -3.605  0.00  0.00     0.026 H 
ATOM     37  H   LIG d   1       6.604   1.293  -2.363  0.00  0.00     0.026 H 
BRANCH  35  38
ATOM     38  C   LIG d   1       4.595   1.229  -1.587  0.00  0.00    -0.065 C 
ATOM     39  H   LIG d   1       5.056   1.843  -0.814  0.00  0.00     0.023 H 
ATOM     40  H   LIG d   1       3.760   1.769  -2.031  0.00  0.00     0.023 H 
ATOM     41  H   LIG d   1       4.234   0.300  -1.146  0.00  0.00     0.023 H 
ENDBRANCH  35  38
ENDBRANCH  32  35
ENDBRANCH  29  32
ENDBRANCH  27  29
BRANCH  27  42
ATOM     42  C   LIG d   1       2.475  -0.652  -3.616  0.00  0.00    -0.050 C 
ATOM     43  H   LIG d   1       1.497  -1.125  -3.712  0.00  0.00     0.027 H 
ATOM     44  H   LIG d   1       2.460   0.043  -2.776  0.00  0.00     0.027 H 
BRANCH  42  45
ATOM     45  C   LIG d   1       2.800   0.110  -4.903  0.00  0.00    -0.065 C 
ATOM     46  H   LIG d   1       3.763   0.611  -4.795  0.00  0.00     0.023 H 
ATOM     47  H   LIG d   1       2.846  -0.590  -5.737  0.00  0.00     0.023 H 
ATOM     48  H   LIG d   1       2.024   0.851  -5.093  0.00  0.00     0.023 H 
ENDBRANCH  42  45
ENDBRANCH  27  42
ENDBRANCH  24  27
ENDBRANCH  16  24
ENDBRANCH   7  10
ENDBRANCH   4   7
ENDBRANCH   1   4
BRANCH   1  49
ATOM     49  C   LIG d   1       1.345  -7.283 -11.911  0.00  0.00    -0.050 C 
ATOM     50  H   LIG d   1       1.527  -6.282 -12.302  0.00  0.00     0.027 H 
ATOM     51  H   LIG d   1       0.776  -7.860 -12.641  0.00  0.00     0.027 H 
BRANCH  49  52
ATOM     52  C   LIG d   1       0.549  -7.184 -10.608  0.00  0.00    -0.022 C 
ATOM     53  H   LIG d   1      -0.295  -7.874 -10.644  0.00  0.00     0.030 H 
ATOM     54  H   LIG d   1       1.194  -7.442  -9.768  0.00  0.00     0.030 H 
BRANCH  52  55
ATOM     55  C   LIG d   1       0.032  -5.755 -10.434  0.00  0.00     0.065 C 
ATOM     56  H   LIG d   1      -0.299  -5.368 -11.398  0.00  0.00     0.066 H 
ATOM     57  H   LIG d   1      -0.806  -5.754  -9.735  0.00  0.00     0.066 H 
BRANCH  55  58
ATOM     58  N   LIG d   1       1.106  -4.907  -9.910  0.00  0.00    -0.276 N 
ATOM     59  C   LIG d   1       1.200  -3.602 -10.305  0.00  0.00     0.390 C 
ATOM     60  N   LIG d   1       0.292  -3.088 -11.189  0.00  0.00    -0.289 N 
ATOM     61  N   LIG d   1       2.167  -2.838  -9.834  0.00  0.00    -0.006 NA
ATOM     62  H   LIG d   1      -0.483  -3.611 -11.448  0.00  0.00     0.255 HD
ATOM     63  H   LIG d   1       0.423  -2.201 -11.558  0.00  0.00     0.255 HD
ATOM     64  C   LIG d   1       2.196  -1.525 -10.136  0.00  0.00     0.390 C 
ATOM     65  N   LIG d   1       1.037  -0.777 -10.081  0.00  0.00    -0.289 N 
ATOM     66  N   LIG d   1       3.326  -0.958 -10.483  0.00  0.00    -0.275 N 
ATOM     67  H   LIG d   1       0.195  -1.204  -9.862  0.00  0.00     0.255 HD
ATOM     68  H   LIG d   1       1.066   0.176 -10.262  0.00  0.00     0.255 HD
ATOM     69  H   LIG d   1       4.140  -1.483 -10.523  0.00  0.00     0.258 HD
ATOM     70  H   LIG d   1       1.749  -5.271  -9.283  0.00  0.00     0.258 HD
BRANCH  66  71
ATOM     71  C   LIG d   1       3.359   0.469 -10.812  0.00  0.00     0.068 C 
ATOM     72  H   LIG d   1       3.383   0.592 -11.895  0.00  0.00     0.066 H 
ATOM     73  H   LIG d   1       2.470   0.955 -10.411  0.00  0.00     0.066 H 
BRANCH  71  74
ATOM     74  C   LIG d   1       4.608   1.105 -10.200  0.00  0.00    -0.011 C 
ATOM     75  H   LIG d   1       5.283   1.418 -10.995  0.00  0.00     0.033 H 
BRANCH  74  76
ATOM     76  C   LIG d   1       4.204   2.323  -9.365  0.00  0.00    -0.050 C 
ATOM     77  H   LIG d   1       4.975   2.526  -8.622  0.00  0.00     0.027 H 
ATOM     78  H   LIG d   1       4.091   3.188 -10.017  0.00  0.00     0.027 H 
BRANCH  76  79
ATOM     79  C   LIG d   1       2.877   2.039  -8.659  0.00  0.00    -0.065 C 
ATOM     80  H   LIG d   1       3.066   1.792  -7.615  0.00  0.00     0.023 H 
ATOM     81  H   LIG d   1       2.240   2.921  -8.713  0.00  0.00     0.023 H 
ATOM     82  H   LIG d   1       2.378   1.201  -9.146  0.00  0.00     0.023 H 
ENDBRANCH  76  79
ENDBRANCH  74  76
BRANCH  74  83
ATOM     83  C   LIG d   1       5.313   0.085  -9.303  0.00  0.00    -0.047 C 
ATOM     84  H   LIG d   1       4.570  -0.480  -8.742  0.00  0.00     0.027 H 
ATOM     85  H   LIG d   1       5.899  -0.596  -9.920  0.00  0.00     0.027 H 
BRANCH  83  86
ATOM     86  C   LIG d   1       6.240   0.817  -8.329  0.00  0.00    -0.053 C 
ATOM     87  H   LIG d   1       7.267   0.760  -8.693  0.00  0.00     0.026 H 
ATOM     88  H   LIG d   1       5.937   1.861  -8.256  0.00  0.00     0.026 H 
BRANCH  86  89
ATOM     89  C   LIG d   1       6.151   0.161  -6.950  0.00  0.00    -0.056 C 
ATOM     90  H   LIG d   1       5.360   0.640  -6.371  0.00  0.00     0.026 H 
ATOM     91  H   LIG d   1       5.926  -0.899  -7.065  0.00  0.00     0.026 H 
BRANCH  89  92
ATOM     92  C   LIG d   1       7.486   0.324  -6.221  0.00  0.00    -0.065 C 
ATOM     93  H   LIG d   1       7.670  -0.553  -5.600  0.00  0.00     0.023 H 
ATOM     94  H   LIG d   1       8.288   0.426  -6.952  0.00  0.00     0.023 H 
ATOM     95  H   LIG d   1       7.451   1.213  -5.592  0.00  0.00     0.023 H 
ENDBRANCH  89  92
ENDBRANCH  86  89
ENDBRANCH  83  86
ENDBRANCH  74  83
ENDBRANCH  71  74
ENDBRANCH  66  71
ENDBRANCH  55  58
ENDBRANCH  52  55
ENDBRANCH  49  52
ENDBRANCH   1  49
TORSDOF 23
ENDMDL
MODEL 2
REMARK VINA RESULT:      -5.5      5.888     10.360
REMARK  23 active torsions:
REMARK  status: ('A' for Active; 'I' for Inactive)
REMARK    1  A    between atoms: C_1  and  C_2 
REMARK    2  A    between atoms: C_2  and  C_3 
REMARK    3  A    between atoms: C_3  and  C_4 
REMARK    4  A    between atoms: C_4  and  C_5 
REMARK    5  A    between atoms: C_5  and  C_7 
REMARK    6  A    between atoms: C_5  and  C_9 
REMARK    7  A    between atoms: C_7  and  C_8 
REMARK    8  A    between atoms: C_9  and  N_10 
REMARK       I    between atoms: N_10  and  C_11 
REMARK       I    between atoms: C_11  and  N_13 
REMARK       I    between atoms: N_13  and  C_14 
REMARK       I    between atoms: C_14  and  N_16 
REMARK    9  A    between atoms: N_16  and  C_17 
REMARK   10  A    between atoms: C_17  and  C_18 
REMARK   11  A    between atoms: C_18  and  C_19 
REMARK   12  A    between atoms: C_19  and  C_20 
REMARK   13  A    between atoms: C_20  and  C_21 
REMARK   14  A    between atoms: C_21  and  C_22 
REMARK   15  A    between atoms: C_22  and  N_23 
REMARK       I    between atoms: N_23  and  C_24 
REMARK       I    between atoms: C_24  and  N_25 
REMARK       I    between atoms: N_26  and  C_27 
REMARK       I    between atoms: C_27  and  N_28 
REMARK   16  A    between atoms: N_29  and  C_30 
REMARK   17  A    between atoms: C_30  and  C_31 
REMARK   18  A    between atoms: C_31  and  C_33 
REMARK   19  A    between atoms: C_31  and  C_35 
REMARK   20  A    between atoms: C_33  and  C_34 
REMARK   21  A    between atoms: C_35  and  C_36 
REMARK   22  A    between atoms: C_36  and  C_37 
REMARK   23  A    between atoms: C_37  and  C_38 
ROOT
ATOM      1  C   LIG d   1       4.703   0.611  -1.760  0.00  0.00    -0.050 C 
ATOM      2  H   LIG d   1       3.733   1.100  -1.845  0.00  0.00     0.027 H 
ATOM      3  H   LIG d   1       5.083   0.732  -0.745  0.00  0.00     0.027 H 
ENDROOT
BRANCH   1   4
ATOM      4  C   LIG d   1       4.552  -0.879  -2.074  0.00  0.00    -0.022 C 
ATOM      5  H   LIG d   1       4.592  -1.451  -1.147  0.00  0.00     0.030 H 
ATOM      6  H   LIG d   1       5.360  -1.196  -2.732  0.00  0.00     0.030 H 
BRANCH   4   7
ATOM      7  C   LIG d   1       3.208  -1.121  -2.764  0.00  0.00     0.065 C 
ATOM      8  H   LIG d   1       2.422  -1.203  -2.011  0.00  0.00     0.066 H 
ATOM      9  H   LIG d   1       3.256  -2.045  -3.340  0.00  0.00     0.066 H 
BRANCH   7  10
ATOM     10  N   LIG d   1       2.910  -0.002  -3.660  0.00  0.00    -0.278 N 
ATOM     11  C   LIG d   1       3.127  -0.127  -5.012  0.00  0.00     0.352 C 
ATOM     12  N   LIG d   1       2.847   0.927  -5.856  0.00  0.00    -0.191 N 
ATOM     13  N   LIG d   1       3.599  -1.241  -5.496  0.00  0.00    -0.291 N 
ATOM     14  C   LIG d   1       2.746   0.715  -7.214  0.00  0.00     0.352 C 
ATOM     15  H   LIG d   1       2.720   1.818  -5.493  0.00  0.00     0.271 HD
ATOM     16  N   LIG d   1       2.796   1.781  -8.082  0.00  0.00    -0.278 N 
ATOM     17  N   LIG d   1       2.606  -0.495  -7.676  0.00  0.00    -0.291 N 
ATOM     18  H   LIG d   1       2.901   2.681  -7.739  0.00  0.00     0.258 HD
ATOM     19  H   LIG d   1       2.463  -1.233  -7.064  0.00  0.00     0.255 HD
ATOM     20  H   LIG d   1       2.643  -0.657  -8.632  0.00  0.00     0.255 HD
ATOM     21  H   LIG d   1       3.694  -2.016  -4.921  0.00  0.00     0.255 HD
ATOM     22  H   LIG d   1       3.854  -1.294  -6.429  0.00  0.00     0.255 HD
ATOM     23  H   LIG d   1       2.559   0.828  -3.299  0.00  0.00     0.258 HD
BRANCH  16  24
ATOM     24  C   LIG d   1       2.689   1.555  -9.526  0.00  0.00     0.067 C 
ATOM     25  H   LIG d   1       1.889   2.174  -9.933  0.00  0.00     0.066 H 
ATOM     26  H   LIG d   1       2.467   0.505  -9.715  0.00  0.00     0.066 H 
BRANCH  24  27
ATOM     27  C   LIG d   1       4.013   1.925 -10.199  0.00  0.00    -0.011 C 
ATOM     28  H   LIG d   1       3.856   2.770 -10.870  0.00  0.00     0.033 H 
BRANCH  27  29
ATOM     29  C   LIG d   1       5.040   2.306  -9.131  0.00  0.00    -0.047 C 
ATOM     30  H   LIG d   1       4.579   2.244  -8.145  0.00  0.00     0.027 H 
ATOM     31  H   LIG d   1       5.386   3.324  -9.307  0.00  0.00     0.027 H 
BRANCH  29  32
ATOM     32  C   LIG d   1       6.228   1.344  -9.199  0.00  0.00    -0.053 C 
ATOM     33  H   LIG d   1       7.124   1.893  -9.489  0.00  0.00     0.026 H 
ATOM     34  H   LIG d   1       6.024   0.567  -9.937  0.00  0.00     0.026 H 
BRANCH  32  35
ATOM     35  C   LIG d   1       6.443   0.701  -7.828  0.00  0.00    -0.056 C 
ATOM     36  H   LIG d   1       5.730   1.115  -7.116  0.00  0.00     0.026 H 
ATOM     37  H   LIG d   1       7.458   0.905  -7.486  0.00  0.00     0.026 H 
BRANCH  35  38
ATOM     38  C   LIG d   1       6.237  -0.811  -7.935  0.00  0.00    -0.065 C 
ATOM     39  H   LIG d   1       6.503  -1.282  -6.990  0.00  0.00     0.023 H 
ATOM     40  H   LIG d   1       5.193  -1.020  -8.164  0.00  0.00     0.023 H 
ATOM     41  H   LIG d   1       6.870  -1.208  -8.729  0.00  0.00     0.023 H 
ENDBRANCH  35  38
ENDBRANCH  32  35
ENDBRANCH  29  32
ENDBRANCH  27  29
BRANCH  27  42
ATOM     42  C   LIG d   1       4.529   0.728 -10.999  0.00  0.00    -0.050 C 
ATOM     43  H   LIG d   1       4.974   1.077 -11.932  0.00  0.00     0.027 H 
ATOM     44  H   LIG d   1       5.281   0.197 -10.415  0.00  0.00     0.027 H 
BRANCH  42  45
ATOM     45  C   LIG d   1       3.367  -0.217 -11.313  0.00  0.00    -0.065 C 
ATOM     46  H   LIG d   1       2.534   0.355 -11.723  0.00  0.00     0.023 H 
ATOM     47  H   LIG d   1       3.690  -0.961 -12.041  0.00  0.00     0.023 H 
ATOM     48  H   LIG d   1       3.048  -0.717 -10.399  0.00  0.00     0.023 H 
ENDBRANCH  42  45
ENDBRANCH  27  42
ENDBRANCH  24  27
ENDBRANCH  16  24
ENDBRANCH   7  10
ENDBRANCH   4   7
ENDBRANCH   1   4
BRANCH   1  49
ATOM     49  C   LIG d   1       5.683   1.244  -2.750  0.00  0.00    -0.050 C 
ATOM     50  H   LIG d   1       5.128   1.794  -3.510  0.00  0.00     0.027 H 
ATOM     51  H   LIG d   1       6.346   1.926  -2.218  0.00  0.00     0.027 H 
BRANCH  49  52
ATOM     52  C   LIG d   1       6.511   0.145  -3.420  0.00  0.00    -0.022 C 
ATOM     53  H   LIG d   1       6.988  -0.468  -2.655  0.00  0.00     0.030 H 
ATOM     54  H   LIG d   1       5.860  -0.479  -4.032  0.00  0.00     0.030 H 
BRANCH  52  55
ATOM     55  C   LIG d   1       7.585   0.784  -4.304  0.00  0.00     0.065 C 
ATOM     56  H   LIG d   1       8.494   0.184  -4.261  0.00  0.00     0.066 H 
ATOM     57  H   LIG d   1       7.228   0.830  -5.333  0.00  0.00     0.066 H 
BRANCH  55  58
ATOM     58  N   LIG d   1       7.870   2.138  -3.824  0.00  0.00    -0.276 N 
ATOM     59  C   LIG d   1       9.140   2.477  -3.450  0.00  0.00     0.390 C 
ATOM     60  N   LIG d   1      10.145   1.552  -3.525  0.00  0.00    -0.289 N 
ATOM     61  N   LIG d   1       9.398   3.697  -3.018  0.00  0.00    -0.006 NA
ATOM     62  H   LIG d   1       9.984   0.694  -3.947  0.00  0.00     0.255 HD
ATOM     63  H   LIG d   1      11.018   1.753  -3.154  0.00  0.00     0.255 HD
ATOM     64  C   LIG d   1      10.668   4.064  -2.755  0.00  0.00     0.390 C 
ATOM     65  N   LIG d   1      11.680   3.733  -3.633  0.00  0.00    -0.289 N 
ATOM     66  N   LIG d   1      10.942   4.736  -1.663  0.00  0.00    -0.275 N 
ATOM     67  H   LIG d   1      11.483   3.203  -4.421  0.00  0.00     0.255 HD
ATOM     68  H   LIG d   1      12.587   4.030  -3.462  0.00  0.00     0.255 HD
ATOM     69  H   LIG d   1      10.232   4.969  -1.045  0.00  0.00     0.258 HD
ATOM     70  H   LIG d   1       7.158   2.795  -3.771  0.00  0.00     0.258 HD
BRANCH  66  71
ATOM     71  C   LIG d   1      12.322   5.136  -1.376  0.00  0.00     0.068 C 
ATOM     72  H   LIG d   1      12.717   4.523  -0.565  0.00  0.00     0.066 H 
ATOM     73  H   LIG d   1      12.933   4.997  -2.267  0.00  0.00     0.066 H 
BRANCH  71  74
ATOM     74  C   LIG d   1      12.351   6.608  -0.962  0.00  0.00    -0.011 C 
ATOM     75  H   LIG d   1      13.159   6.770  -0.250  0.00  0.00     0.033 H 
BRANCH  74  76
ATOM     76  C   LIG d   1      12.579   7.481  -2.198  0.00  0.00    -0.050 C 
ATOM     77  H   LIG d   1      11.642   7.595  -2.742  0.00  0.00     0.027 H 
ATOM     78  H   LIG d   1      12.941   8.461  -1.889  0.00  0.00     0.027 H 
BRANCH  76  79
ATOM     79  C   LIG d   1      13.617   6.818  -3.106  0.00  0.00    -0.065 C 
ATOM     80  H   LIG d   1      14.354   7.557  -3.417  0.00  0.00     0.023 H 
ATOM     81  H   LIG d   1      14.115   6.015  -2.563  0.00  0.00     0.023 H 
ATOM     82  H   LIG d   1      13.121   6.407  -3.986  0.00  0.00     0.023 H 
ENDBRANCH  76  79
ENDBRANCH  74  76
BRANCH  74  83
ATOM     83  C   LIG d   1      11.016   6.983  -0.314  0.00  0.00    -0.047 C 
ATOM     84  H   LIG d   1      10.508   7.724  -0.930  0.00  0.00     0.027 H 
ATOM     85  H   LIG d   1      10.393   6.093  -0.226  0.00  0.00     0.027 H 
BRANCH  83  86
ATOM     86  C   LIG d   1      11.272   7.566   1.078  0.00  0.00    -0.053 C 
ATOM     87  H   LIG d   1      10.407   7.378   1.715  0.00  0.00     0.026 H 
ATOM     88  H   LIG d   1      12.153   7.095   1.513  0.00  0.00     0.026 H 
BRANCH  86  89
ATOM     89  C   LIG d   1      11.503   9.074   0.964  0.00  0.00    -0.056 C 
ATOM     90  H   LIG d   1      11.553   9.510   1.962  0.00  0.00     0.026 H 
ATOM     91  H   LIG d   1      12.440   9.260   0.439  0.00  0.00     0.026 H 
BRANCH  89  92
ATOM     92  C   LIG d   1      10.348   9.710   0.188  0.00  0.00    -0.065 C 
ATOM     93  H   LIG d   1      10.374  10.792   0.319  0.00  0.00     0.023 H 
ATOM     94  H   LIG d   1      10.447   9.469  -0.871  0.00  0.00     0.023 H 
ATOM     95  H   LIG d   1       9.401   9.322   0.562  0.00  0.00     0.023 H 
ENDBRANCH  89  92
ENDBRANCH  86  89
ENDBRANCH  83  86
ENDBRANCH  74  83
ENDBRANCH  71  74
ENDBRANCH  66  71
ENDBRANCH  55  58
ENDBRANCH  52  55
ENDBRANCH  49  52
ENDBRANCH   1  49
TORSDOF 23
ENDMDL
MODEL 3
REMARK VINA RESULT:      -5.5      4.360      7.329
REMARK  23 active torsions:
REMARK  status: ('A' for Active; 'I' for Inactive)
REMARK    1  A    between atoms: C_1  and  C_2 
REMARK    2  A    between atoms: C_2  and  C_3 
REMARK    3  A    between atoms: C_3  and  C_4 
REMARK    4  A    between atoms: C_4  and  C_5 
REMARK    5  A    between atoms: C_5  and  C_7 
REMARK    6  A    between atoms: C_5  and  C_9 
REMARK    7  A    between atoms: C_7  and  C_8 
REMARK    8  A    between atoms: C_9  and  N_10 
REMARK       I    between atoms: N_10  and  C_11 
REMARK       I    between atoms: C_11  and  N_13 
REMARK       I    between atoms: N_13  and  C_14 
REMARK       I    between atoms: C_14  and  N_16 
REMARK    9  A    between atoms: N_16  and  C_17 
REMARK   10  A    between atoms: C_17  and  C_18 
REMARK   11  A    between atoms: C_18  and  C_19 
REMARK   12  A    between atoms: C_19  and  C_20 
REMARK   13  A    between atoms: C_20  and  C_21 
REMARK   14  A    between atoms: C_21  and  C_22 
REMARK   15  A    between atoms: C_22  and  N_23 
REMARK       I    between atoms: N_23  and  C_24 
REMARK       I    between atoms: C_24  and  N_25 
REMARK       I    between atoms: N_26  and  C_27 
REMARK       I    between atoms: C_27  and  N_28 
REMARK   16  A    between atoms: N_29  and  C_30 
REMARK   17  A    between atoms: C_30  and  C_31 
REMARK   18  A    between atoms: C_31  and  C_33 
REMARK   19  A    between atoms: C_31  and  C_35 
REMARK   20  A    between atoms: C_33  and  C_34 
REMARK   21  A    between atoms: C_35  and  C_36 
REMARK   22  A    between atoms: C_36  and  C_37 
REMARK   23  A    between atoms: C_37  and  C_38 
ROOT
ATOM      1  C   LIG d   1       4.517  -0.195 -11.246  0.00  0.00    -0.050 C 
ATOM      2  H   LIG d   1       5.103  -0.565 -10.404  0.00  0.00     0.027 H 
ATOM      3  H   LIG d   1       5.149  -0.143 -12.133  0.00  0.00     0.027 H 
ENDROOT
BRANCH   1   4
ATOM      4  C   LIG d   1       3.346  -1.144 -11.509  0.00  0.00    -0.022 C 
ATOM      5  H   LIG d   1       3.566  -1.759 -12.381  0.00  0.00     0.030 H 
ATOM      6  H   LIG d   1       2.443  -0.564 -11.692  0.00  0.00     0.030 H 
BRANCH   4   7
ATOM      7  C   LIG d   1       3.136  -2.045 -10.290  0.00  0.00     0.065 C 
ATOM      8  H   LIG d   1       4.103  -2.389  -9.922  0.00  0.00     0.066 H 
ATOM      9  H   LIG d   1       2.529  -2.905 -10.574  0.00  0.00     0.066 H 
BRANCH   7  10
ATOM     10  N   LIG d   1       2.453  -1.291  -9.237  0.00  0.00    -0.278 N 
ATOM     11  C   LIG d   1       3.085  -1.057  -8.039  0.00  0.00     0.352 C 
ATOM     12  N   LIG d   1       2.441  -0.347  -7.047  0.00  0.00    -0.191 N 
ATOM     13  N   LIG d   1       4.291  -1.507  -7.839  0.00  0.00    -0.291 N 
ATOM     14  C   LIG d   1       3.161   0.171  -5.991  0.00  0.00     0.352 C 
ATOM     15  H   LIG d   1       1.481  -0.211  -7.092  0.00  0.00     0.271 HD
ATOM     16  N   LIG d   1       2.511   0.584  -4.852  0.00  0.00    -0.278 N 
ATOM     17  N   LIG d   1       4.458   0.266  -6.072  0.00  0.00    -0.291 N 
ATOM     18  H   LIG d   1       1.546   0.513  -4.792  0.00  0.00     0.258 HD
ATOM     19  H   LIG d   1       4.906   0.076  -6.911  0.00  0.00     0.255 HD
ATOM     20  H   LIG d   1       4.975   0.528  -5.294  0.00  0.00     0.255 HD
ATOM     21  H   LIG d   1       4.784  -1.911  -8.570  0.00  0.00     0.255 HD
ATOM     22  H   LIG d   1       4.695  -1.438  -6.961  0.00  0.00     0.255 HD
ATOM     23  H   LIG d   1       1.554  -0.956  -9.386  0.00  0.00     0.258 HD
BRANCH  16  24
ATOM     24  C   LIG d   1       3.277   1.134  -3.731  0.00  0.00     0.067 C 
ATOM     25  H   LIG d   1       2.878   2.113  -3.463  0.00  0.00     0.066 H 
ATOM     26  H   LIG d   1       4.323   1.234  -4.018  0.00  0.00     0.066 H 
BRANCH  24  27
ATOM     27  C   LIG d   1       3.166   0.193  -2.528  0.00  0.00    -0.011 C 
ATOM     28  H   LIG d   1       2.367   0.536  -1.871  0.00  0.00     0.033 H 
BRANCH  27  29
ATOM     29  C   LIG d   1       2.855  -1.223  -3.015  0.00  0.00    -0.047 C 
ATOM     30  H   LIG d   1       2.763  -1.222  -4.102  0.00  0.00     0.027 H 
ATOM     31  H   LIG d   1       1.919  -1.562  -2.571  0.00  0.00     0.027 H 
BRANCH  29  32
ATOM     32  C   LIG d   1       3.988  -2.165  -2.601  0.00  0.00    -0.053 C 
ATOM     33  H   LIG d   1       3.591  -2.946  -1.952  0.00  0.00     0.026 H 
ATOM     34  H   LIG d   1       4.751  -1.602  -2.066  0.00  0.00     0.026 H 
BRANCH  32  35
ATOM     35  C   LIG d   1       4.603  -2.802  -3.849  0.00  0.00    -0.056 C 
ATOM     36  H   LIG d   1       4.020  -2.522  -4.725  0.00  0.00     0.026 H 
ATOM     37  H   LIG d   1       4.602  -3.886  -3.742  0.00  0.00     0.026 H 
BRANCH  35  38
ATOM     38  C   LIG d   1       6.042  -2.308  -4.016  0.00  0.00    -0.065 C 
ATOM     39  H   LIG d   1       6.334  -2.387  -5.062  0.00  0.00     0.023 H 
ATOM     40  H   LIG d   1       6.108  -1.268  -3.697  0.00  0.00     0.023 H 
ATOM     41  H   LIG d   1       6.708  -2.918  -3.405  0.00  0.00     0.023 H 
ENDBRANCH  35  38
ENDBRANCH  32  35
ENDBRANCH  29  32
ENDBRANCH  27  29
BRANCH  27  42
ATOM     42  C   LIG d   1       4.490   0.190  -1.761  0.00  0.00    -0.050 C 
ATOM     43  H   LIG d   1       4.326   0.558  -0.748  0.00  0.00     0.027 H 
ATOM     44  H   LIG d   1       4.883  -0.826  -1.719  0.00  0.00     0.027 H 
BRANCH  42  45
ATOM     45  C   LIG d   1       5.496   1.096  -2.475  0.00  0.00    -0.065 C 
ATOM     46  H   LIG d   1       6.269   0.484  -2.942  0.00  0.00     0.023 H 
ATOM     47  H   LIG d   1       4.982   1.678  -3.239  0.00  0.00     0.023 H 
ATOM     48  H   LIG d   1       5.955   1.770  -1.752  0.00  0.00     0.023 H 
ENDBRANCH  42  45
ENDBRANCH  27  42
ENDBRANCH  24  27
ENDBRANCH  16  24
ENDBRANCH   7  10
ENDBRANCH   4   7
ENDBRANCH   1   4
BRANCH   1  49
ATOM     49  C   LIG d   1       3.980   1.200 -10.919  0.00  0.00    -0.050 C 
ATOM     50  H   LIG d   1       4.096   1.847 -11.788  0.00  0.00     0.027 H 
ATOM     51  H   LIG d   1       2.924   1.130 -10.657  0.00  0.00     0.027 H 
BRANCH  49  52
ATOM     52  C   LIG d   1       4.761   1.784  -9.740  0.00  0.00    -0.022 C 
ATOM     53  H   LIG d   1       5.025   2.820  -9.957  0.00  0.00     0.030 H 
ATOM     54  H   LIG d   1       4.146   1.746  -8.842  0.00  0.00     0.030 H 
BRANCH  52  55
ATOM     55  C   LIG d   1       6.037   0.969  -9.520  0.00  0.00     0.065 C 
ATOM     56  H   LIG d   1       5.943   0.387  -8.603  0.00  0.00     0.066 H 
ATOM     57  H   LIG d   1       6.189   0.295 -10.364  0.00  0.00     0.066 H 
BRANCH  55  58
ATOM     58  N   LIG d   1       7.182   1.876  -9.407  0.00  0.00    -0.276 N 
ATOM     59  C   LIG d   1       7.787   2.064  -8.196  0.00  0.00     0.390 C 
ATOM     60  N   LIG d   1       7.324   1.406  -7.091  0.00  0.00    -0.289 N 
ATOM     61  N   LIG d   1       8.819   2.881  -8.094  0.00  0.00    -0.006 NA
ATOM     62  H   LIG d   1       6.643   0.722  -7.183  0.00  0.00     0.255 HD
ATOM     63  H   LIG d   1       7.676   1.624  -6.214  0.00  0.00     0.255 HD
ATOM     64  C   LIG d   1       9.484   2.983  -6.926  0.00  0.00     0.390 C 
ATOM     65  N   LIG d   1       9.806   1.846  -6.212  0.00  0.00    -0.289 N 
ATOM     66  N   LIG d   1       9.825   4.162  -6.467  0.00  0.00    -0.275 N 
ATOM     67  H   LIG d   1       9.521   0.976  -6.532  0.00  0.00     0.255 HD
ATOM     68  H   LIG d   1      10.318   1.917  -5.392  0.00  0.00     0.255 HD
ATOM     69  H   LIG d   1       9.599   4.961  -6.968  0.00  0.00     0.258 HD
ATOM     70  H   LIG d   1       7.511   2.343 -10.191  0.00  0.00     0.258 HD
BRANCH  66  71
ATOM     71  C   LIG d   1      10.548   4.274  -5.199  0.00  0.00     0.068 C 
ATOM     72  H   LIG d   1      10.992   3.310  -4.947  0.00  0.00     0.066 H 
ATOM     73  H   LIG d   1      11.335   5.022  -5.293  0.00  0.00     0.066 H 
BRANCH  71  74
ATOM     74  C   LIG d   1       9.577   4.691  -4.093  0.00  0.00    -0.011 C 
ATOM     75  H   LIG d   1       8.564   4.404  -4.371  0.00  0.00     0.033 H 
BRANCH  74  76
ATOM     76  C   LIG d   1       9.963   3.994  -2.786  0.00  0.00    -0.050 C 
ATOM     77  H   LIG d   1      10.305   4.737  -2.065  0.00  0.00     0.027 H 
ATOM     78  H   LIG d   1       9.096   3.471  -2.384  0.00  0.00     0.027 H 
BRANCH  76  79
ATOM     79  C   LIG d   1      11.086   2.990  -3.055  0.00  0.00    -0.065 C 
ATOM     80  H   LIG d   1      12.013   3.356  -2.616  0.00  0.00     0.023 H 
ATOM     81  H   LIG d   1      10.828   2.029  -2.612  0.00  0.00     0.023 H 
ATOM     82  H   LIG d   1      11.215   2.871  -4.131  0.00  0.00     0.023 H 
ENDBRANCH  76  79
ENDBRANCH  74  76
BRANCH  74  83
ATOM     83  C   LIG d   1       9.644   6.208  -3.900  0.00  0.00    -0.047 C 
ATOM     84  H   LIG d   1      10.602   6.578  -4.264  0.00  0.00     0.027 H 
ATOM     85  H   LIG d   1       8.835   6.681  -4.456  0.00  0.00     0.027 H 
BRANCH  83  86
ATOM     86  C   LIG d   1       9.501   6.539  -2.412  0.00  0.00    -0.053 C 
ATOM     87  H   LIG d   1       8.450   6.710  -2.178  0.00  0.00     0.026 H 
ATOM     88  H   LIG d   1       9.877   5.707  -1.818  0.00  0.00     0.026 H 
BRANCH  86  89
ATOM     89  C   LIG d   1      10.307   7.800  -2.092  0.00  0.00    -0.056 C 
ATOM     90  H   LIG d   1      11.254   7.518  -1.630  0.00  0.00     0.026 H 
ATOM     91  H   LIG d   1      10.500   8.352  -3.012  0.00  0.00     0.026 H 
BRANCH  89  92
ATOM     92  C   LIG d   1       9.512   8.680  -1.125  0.00  0.00    -0.065 C 
ATOM     93  H   LIG d   1       9.794   8.441  -0.100  0.00  0.00     0.023 H 
ATOM     94  H   LIG d   1       9.730   9.729  -1.327  0.00  0.00     0.023 H 
ATOM     95  H   LIG d   1       8.446   8.499  -1.261  0.00  0.00     0.023 H 
ENDBRANCH  89  92
ENDBRANCH  86  89
ENDBRANCH  83  86
ENDBRANCH  74  83
ENDBRANCH  71  74
ENDBRANCH  66  71
ENDBRANCH  55  58
ENDBRANCH  52  55
ENDBRANCH  49  52
ENDBRANCH   1  49
TORSDOF 23
ENDMDL
MODEL 4
REMARK VINA RESULT:      -5.5      8.495     12.476
REMARK  23 active torsions:
REMARK  status: ('A' for Active; 'I' for Inactive)
REMARK    1  A    between atoms: C_1  and  C_2 
REMARK    2  A    between atoms: C_2  and  C_3 
REMARK    3  A    between atoms: C_3  and  C_4 
REMARK    4  A    between atoms: C_4  and  C_5 
REMARK    5  A    between atoms: C_5  and  C_7 
REMARK    6  A    between atoms: C_5  and  C_9 
REMARK    7  A    between atoms: C_7  and  C_8 
REMARK    8  A    between atoms: C_9  and  N_10 
REMARK       I    between atoms: N_10  and  C_11 
REMARK       I    between atoms: C_11  and  N_13 
REMARK       I    between atoms: N_13  and  C_14 
REMARK       I    between atoms: C_14  and  N_16 
REMARK    9  A    between atoms: N_16  and  C_17 
REMARK   10  A    between atoms: C_17  and  C_18 
REMARK   11  A    between atoms: C_18  and  C_19 
REMARK   12  A    between atoms: C_19  and  C_20 
REMARK   13  A    between atoms: C_20  and  C_21 
REMARK   14  A    between atoms: C_21  and  C_22 
REMARK   15  A    between atoms: C_22  and  N_23 
REMARK       I    between atoms: N_23  and  C_24 
REMARK       I    between atoms: C_24  and  N_25 
REMARK       I    between atoms: N_26  and  C_27 
REMARK       I    between atoms: C_27  and  N_28 
REMARK   16  A    between atoms: N_29  and  C_30 
REMARK   17  A    between atoms: C_30  and  C_31 
REMARK   18  A    between atoms: C_31  and  C_33 
REMARK   19  A    between atoms: C_31  and  C_35 
REMARK   20  A    between atoms: C_33  and  C_34 
REMARK   21  A    between atoms: C_35  and  C_36 
REMARK   22  A    between atoms: C_36  and  C_37 
REMARK   23  A    between atoms: C_37  and  C_38 
ROOT
ATOM      1  C   LIG d   1      12.436   5.191  -2.015  0.00  0.00    -0.050 C 
ATOM      2  H   LIG d   1      12.989   4.253  -1.981  0.00  0.00     0.027 H 
ATOM      3  H   LIG d   1      12.795   5.795  -2.849  0.00  0.00     0.027 H 
ENDROOT
BRANCH   1   4
ATOM      4  C   LIG d   1      10.946   4.898  -2.202  0.00  0.00    -0.022 C 
ATOM      5  H   LIG d   1      10.501   5.666  -2.834  0.00  0.00     0.030 H 
ATOM      6  H   LIG d   1      10.451   4.896  -1.232  0.00  0.00     0.030 H 
BRANCH   4   7
ATOM      7  C   LIG d   1      10.774   3.530  -2.865  0.00  0.00     0.065 C 
ATOM      8  H   LIG d   1      11.074   2.748  -2.167  0.00  0.00     0.066 H 
ATOM      9  H   LIG d   1      11.397   3.477  -3.758  0.00  0.00     0.066 H 
BRANCH   7  10
ATOM     10  N   LIG d   1       9.371   3.340  -3.237  0.00  0.00    -0.278 N 
ATOM     11  C   LIG d   1       8.959   2.146  -3.781  0.00  0.00     0.352 C 
ATOM     12  N   LIG d   1       7.637   1.967  -4.131  0.00  0.00    -0.191 N 
ATOM     13  N   LIG d   1       9.818   1.183  -3.965  0.00  0.00    -0.291 N 
ATOM     14  C   LIG d   1       7.150   0.698  -4.362  0.00  0.00     0.352 C 
ATOM     15  H   LIG d   1       7.049   2.734  -4.215  0.00  0.00     0.271 HD
ATOM     16  N   LIG d   1       5.954   0.529  -5.019  0.00  0.00    -0.278 N 
ATOM     17  N   LIG d   1       7.825  -0.342  -3.960  0.00  0.00    -0.291 N 
ATOM     18  H   LIG d   1       5.452   1.302  -5.318  0.00  0.00     0.258 HD
ATOM     19  H   LIG d   1       8.611  -0.224  -3.405  0.00  0.00     0.255 HD
ATOM     20  H   LIG d   1       7.541  -1.234  -4.215  0.00  0.00     0.255 HD
ATOM     21  H   LIG d   1      10.720   1.268  -3.622  0.00  0.00     0.255 HD
ATOM     22  H   LIG d   1       9.554   0.384  -4.446  0.00  0.00     0.255 HD
ATOM     23  H   LIG d   1       8.731   4.057  -3.100  0.00  0.00     0.258 HD
BRANCH  16  24
ATOM     24  C   LIG d   1       5.438  -0.820  -5.264  0.00  0.00     0.067 C 
ATOM     25  H   LIG d   1       5.767  -1.486  -4.466  0.00  0.00     0.066 H 
ATOM     26  H   LIG d   1       5.813  -1.185  -6.220  0.00  0.00     0.066 H 
BRANCH  24  27
ATOM     27  C   LIG d   1       3.908  -0.782  -5.298  0.00  0.00    -0.011 C 
ATOM     28  H   LIG d   1       3.519  -1.801  -5.304  0.00  0.00     0.033 H 
BRANCH  27  29
ATOM     29  C   LIG d   1       3.388  -0.045  -4.062  0.00  0.00    -0.047 C 
ATOM     30  H   LIG d   1       2.419   0.401  -4.286  0.00  0.00     0.027 H 
ATOM     31  H   LIG d   1       4.094   0.738  -3.783  0.00  0.00     0.027 H 
BRANCH  29  32
ATOM     32  C   LIG d   1       3.239  -1.034  -2.904  0.00  0.00    -0.053 C 
ATOM     33  H   LIG d   1       3.359  -2.051  -3.278  0.00  0.00     0.026 H 
ATOM     34  H   LIG d   1       2.250  -0.925  -2.459  0.00  0.00     0.026 H 
BRANCH  32  35
ATOM     35  C   LIG d   1       4.309  -0.748  -1.848  0.00  0.00    -0.056 C 
ATOM     36  H   LIG d   1       5.251  -1.202  -2.153  0.00  0.00     0.026 H 
ATOM     37  H   LIG d   1       3.996  -1.166  -0.892  0.00  0.00     0.026 H 
BRANCH  35  38
ATOM     38  C   LIG d   1       4.494   0.765  -1.707  0.00  0.00    -0.065 C 
ATOM     39  H   LIG d   1       5.249   0.969  -0.949  0.00  0.00     0.023 H 
ATOM     40  H   LIG d   1       4.813   1.182  -2.661  0.00  0.00     0.023 H 
ATOM     41  H   LIG d   1       3.549   1.219  -1.409  0.00  0.00     0.023 H 
ENDBRANCH  35  38
ENDBRANCH  32  35
ENDBRANCH  29  32
ENDBRANCH  27  29
BRANCH  27  42
ATOM     42  C   LIG d   1       3.444  -0.052  -6.560  0.00  0.00    -0.050 C 
ATOM     43  H   LIG d   1       2.414   0.280  -6.431  0.00  0.00     0.027 H 
ATOM     44  H   LIG d   1       4.084   0.813  -6.735  0.00  0.00     0.027 H 
BRANCH  42  45
ATOM     45  C   LIG d   1       3.528  -0.999  -7.758  0.00  0.00    -0.065 C 
ATOM     46  H   LIG d   1       2.551  -1.064  -8.240  0.00  0.00     0.023 H 
ATOM     47  H   LIG d   1       4.259  -0.619  -8.471  0.00  0.00     0.023 H 
ATOM     48  H   LIG d   1       3.832  -1.989  -7.419  0.00  0.00     0.023 H 
ENDBRANCH  42  45
ENDBRANCH  27  42
ENDBRANCH  24  27
ENDBRANCH  16  24
ENDBRANCH   7  10
ENDBRANCH   4   7
ENDBRANCH   1   4
BRANCH   1  49
ATOM     49  C   LIG d   1      12.645   5.955  -0.705  0.00  0.00    -0.050 C 
ATOM     50  H   LIG d   1      13.622   5.707  -0.292  0.00  0.00     0.027 H 
ATOM     51  H   LIG d   1      12.593   7.027  -0.898  0.00  0.00     0.027 H 
BRANCH  49  52
ATOM     52  C   LIG d   1      11.554   5.562   0.293  0.00  0.00    -0.022 C 
ATOM     53  H   LIG d   1      10.755   5.035  -0.230  0.00  0.00     0.030 H 
ATOM     54  H   LIG d   1      11.977   4.912   1.058  0.00  0.00     0.030 H 
BRANCH  52  55
ATOM     55  C   LIG d   1      10.987   6.823   0.951  0.00  0.00     0.065 C 
ATOM     56  H   LIG d   1       9.902   6.744   1.012  0.00  0.00     0.066 H 
ATOM     57  H   LIG d   1      11.401   6.927   1.954  0.00  0.00     0.066 H 
BRANCH  55  58
ATOM     58  N   LIG d   1      11.347   7.995   0.149  0.00  0.00    -0.276 N 
ATOM     59  C   LIG d   1      10.451   8.515  -0.742  0.00  0.00     0.390 C 
ATOM     60  N   LIG d   1       9.218   7.941  -0.885  0.00  0.00    -0.289 N 
ATOM     61  N   LIG d   1      10.774   9.571  -1.464  0.00  0.00    -0.006 NA
ATOM     62  H   LIG d   1       8.936   7.239  -0.278  0.00  0.00     0.255 HD
ATOM     63  H   LIG d   1       8.625   8.234  -1.595  0.00  0.00     0.255 HD
ATOM     64  C   LIG d   1       9.854  10.150  -2.261  0.00  0.00     0.390 C 
ATOM     65  N   LIG d   1       8.573  10.366  -1.794  0.00  0.00    -0.289 N 
ATOM     66  N   LIG d   1      10.176  10.507  -3.480  0.00  0.00    -0.275 N 
ATOM     67  H   LIG d   1       8.324  10.067  -0.906  0.00  0.00     0.255 HD
ATOM     68  H   LIG d   1       7.922  10.817  -2.354  0.00  0.00     0.255 HD
ATOM     69  H   LIG d   1      11.075  10.355  -3.809  0.00  0.00     0.258 HD
ATOM     70  H   LIG d   1      12.221   8.403   0.251  0.00  0.00     0.258 HD
BRANCH  66  71
ATOM     71  C   LIG d   1       9.177  11.137  -4.347  0.00  0.00     0.068 C 
ATOM     72  H   LIG d   1       8.191  10.728  -4.122  0.00  0.00     0.066 H 
ATOM     73  H   LIG d   1       9.172  12.212  -4.174  0.00  0.00     0.066 H 
BRANCH  71  74
ATOM     74  C   LIG d   1       9.522  10.856  -5.811  0.00  0.00    -0.011 C 
ATOM     75  H   LIG d   1       8.603  10.765  -6.389  0.00  0.00     0.033 H 
BRANCH  74  76
ATOM     76  C   LIG d   1      10.362  12.008  -6.366  0.00  0.00    -0.050 C 
ATOM     77  H   LIG d   1      10.705  12.637  -5.545  0.00  0.00     0.027 H 
ATOM     78  H   LIG d   1      11.222  11.606  -6.899  0.00  0.00     0.027 H 
BRANCH  76  79
ATOM     79  C   LIG d   1       9.511  12.843  -7.326  0.00  0.00    -0.065 C 
ATOM     80  H   LIG d   1      10.076  13.718  -7.645  0.00  0.00     0.023 H 
ATOM     81  H   LIG d   1       9.250  12.242  -8.197  0.00  0.00     0.023 H 
ATOM     82  H   LIG d   1       8.600  13.162  -6.820  0.00  0.00     0.023 H 
ENDBRANCH  76  79
ENDBRANCH  74  76
BRANCH  74  83
ATOM     83  C   LIG d   1      10.317   9.553  -5.907  0.00  0.00    -0.047 C 
ATOM     84  H   LIG d   1      11.060   9.638  -6.700  0.00  0.00     0.027 H 
ATOM     85  H   LIG d   1      10.818   9.362  -4.958  0.00  0.00     0.027 H 
BRANCH  83  86
ATOM     86  C   LIG d   1       9.365   8.397  -6.223  0.00  0.00    -0.053 C 
ATOM     87  H   LIG d   1       8.341   8.770  -6.260  0.00  0.00     0.026 H 
ATOM     88  H   LIG d   1       9.629   7.962  -7.186  0.00  0.00     0.026 H 
BRANCH  86  89
ATOM     89  C   LIG d   1       9.479   7.330  -5.133  0.00  0.00    -0.056 C 
ATOM     90  H   LIG d   1      10.339   7.549  -4.499  0.00  0.00     0.026 H 
ATOM     91  H   LIG d   1       8.572   7.329  -4.528  0.00  0.00     0.026 H 
BRANCH  89  92
ATOM     92  C   LIG d   1       9.662   5.956  -5.781  0.00  0.00    -0.065 C 
ATOM     93  H   LIG d   1       9.004   5.235  -5.296  0.00  0.00     0.023 H 
ATOM     94  H   LIG d   1       9.413   6.019  -6.841  0.00  0.00     0.023 H 
ATOM     95  H   LIG d   1      10.697   5.636  -5.670  0.00  0.00     0.023 H 
ENDBRANCH  89  92
ENDBRANCH  86  89
ENDBRANCH  83  86
ENDBRANCH  74  83
ENDBRANCH  71  74
ENDBRANCH  66  71
ENDBRANCH  55  58
ENDBRANCH  52  55
ENDBRANCH  49  52
ENDBRANCH   1  49
TORSDOF 23
ENDMDL
MODEL 5
REMARK VINA RESULT:      -5.4      4.982      9.514
REMARK  23 active torsions:
REMARK  status: ('A' for Active; 'I' for Inactive)
REMARK    1  A    between atoms: C_1  and  C_2 
REMARK    2  A    between atoms: C_2  and  C_3 
REMARK    3  A    between atoms: C_3  and  C_4 
REMARK    4  A    between atoms: C_4  and  C_5 
REMARK    5  A    between atoms: C_5  and  C_7 
REMARK    6  A    between atoms: C_5  and  C_9 
REMARK    7  A    between atoms: C_7  and  C_8 
REMARK    8  A    between atoms: C_9  and  N_10 
REMARK       I    between atoms: N_10  and  C_11 
REMARK       I    between atoms: C_11  and  N_13 
REMARK       I    between atoms: N_13  and  C_14 
REMARK       I    between atoms: C_14  and  N_16 
REMARK    9  A    between atoms: N_16  and  C_17 
REMARK   10  A    between atoms: C_17  and  C_18 
REMARK   11  A    between atoms: C_18  and  C_19 
REMARK   12  A    between atoms: C_19  and  C_20 
REMARK   13  A    between atoms: C_20  and  C_21 
REMARK   14  A    between atoms: C_21  and  C_22 
REMARK   15  A    between atoms: C_22  and  N_23 
REMARK       I    between atoms: N_23  and  C_24 
REMARK       I    between atoms: C_24  and  N_25 
REMARK       I    between atoms: N_26  and  C_27 
REMARK       I    between atoms: C_27  and  N_28 
REMARK   16  A    between atoms: N_29  and  C_30 
REMARK   17  A    between atoms: C_30  and  C_31 
REMARK   18  A    between atoms: C_31  and  C_33 
REMARK   19  A    between atoms: C_31  and  C_35 
REMARK   20  A    between atoms: C_33  and  C_34 
REMARK   21  A    between atoms: C_35  and  C_36 
REMARK   22  A    between atoms: C_36  and  C_37 
REMARK   23  A    between atoms: C_37  and  C_38 
ROOT
ATOM      1  C   LIG d   1       4.330  -0.975  -2.108  0.00  0.00    -0.050 C 
ATOM      2  H   LIG d   1       4.988  -0.160  -1.806  0.00  0.00     0.027 H 
ATOM      3  H   LIG d   1       4.100  -1.597  -1.243  0.00  0.00     0.027 H 
ENDROOT
BRANCH   1   4
ATOM      4  C   LIG d   1       3.034  -0.399  -2.681  0.00  0.00    -0.022 C 
ATOM      5  H   LIG d   1       2.513   0.164  -1.906  0.00  0.00     0.030 H 
ATOM      6  H   LIG d   1       2.398  -1.211  -3.030  0.00  0.00     0.030 H 
BRANCH   4   7
ATOM      7  C   LIG d   1       3.362   0.530  -3.852  0.00  0.00     0.065 C 
ATOM      8  H   LIG d   1       4.422   0.447  -4.095  0.00  0.00     0.066 H 
ATOM      9  H   LIG d   1       3.133   1.559  -3.575  0.00  0.00     0.066 H 
BRANCH   7  10
ATOM     10  N   LIG d   1       2.562   0.148  -5.017  0.00  0.00    -0.278 N 
ATOM     11  C   LIG d   1       3.182  -0.152  -6.207  0.00  0.00     0.352 C 
ATOM     12  N   LIG d   1       2.428  -0.512  -7.306  0.00  0.00    -0.191 N 
ATOM     13  N   LIG d   1       4.480  -0.097  -6.299  0.00  0.00    -0.291 N 
ATOM     14  C   LIG d   1       3.030  -1.123  -8.385  0.00  0.00     0.352 C 
ATOM     15  H   LIG d   1       1.474  -0.335  -7.318  0.00  0.00     0.271 HD
ATOM     16  N   LIG d   1       2.375  -1.187  -9.592  0.00  0.00    -0.278 N 
ATOM     17  N   LIG d   1       4.220  -1.639  -8.261  0.00  0.00    -0.291 N 
ATOM     18  H   LIG d   1       1.490  -0.803  -9.685  0.00  0.00     0.258 HD
ATOM     19  H   LIG d   1       4.637  -1.690  -7.387  0.00  0.00     0.255 HD
ATOM     20  H   LIG d   1       4.689  -1.971  -9.043  0.00  0.00     0.255 HD
ATOM     21  H   LIG d   1       5.015   0.050  -5.504  0.00  0.00     0.255 HD
ATOM     22  H   LIG d   1       4.910  -0.202  -7.161  0.00  0.00     0.255 HD
ATOM     23  H   LIG d   1       1.595   0.107  -4.949  0.00  0.00     0.258 HD
BRANCH  16  24
ATOM     24  C   LIG d   1       3.016  -1.835 -10.739  0.00  0.00     0.067 C 
ATOM     25  H   LIG d   1       2.378  -2.642 -11.104  0.00  0.00     0.066 H 
ATOM     26  H   LIG d   1       3.980  -2.244 -10.436  0.00  0.00     0.066 H 
BRANCH  24  27
ATOM     27  C   LIG d   1       3.227  -0.808 -11.854  0.00  0.00    -0.011 C 
ATOM     28  H   LIG d   1       2.323  -0.210 -11.972  0.00  0.00     0.033 H 
BRANCH  27  29
ATOM     29  C   LIG d   1       4.400   0.104 -11.493  0.00  0.00    -0.047 C 
ATOM     30  H   LIG d   1       5.040   0.238 -12.365  0.00  0.00     0.027 H 
ATOM     31  H   LIG d   1       4.976  -0.349 -10.685  0.00  0.00     0.027 H 
BRANCH  29  32
ATOM     32  C   LIG d   1       3.867   1.465 -11.038  0.00  0.00    -0.053 C 
ATOM     33  H   LIG d   1       2.785   1.408 -10.917  0.00  0.00     0.026 H 
ATOM     34  H   LIG d   1       4.109   2.218 -11.787  0.00  0.00     0.026 H 
BRANCH  32  35
ATOM     35  C   LIG d   1       4.511   1.845  -9.704  0.00  0.00    -0.056 C 
ATOM     36  H   LIG d   1       5.362   2.501  -9.885  0.00  0.00     0.026 H 
ATOM     37  H   LIG d   1       4.850   0.944  -9.194  0.00  0.00     0.026 H 
BRANCH  35  38
ATOM     38  C   LIG d   1       3.485   2.570  -8.831  0.00  0.00    -0.065 C 
ATOM     39  H   LIG d   1       3.113   3.447  -9.359  0.00  0.00     0.023 H 
ATOM     40  H   LIG d   1       2.655   1.898  -8.612  0.00  0.00     0.023 H 
ATOM     41  H   LIG d   1       3.957   2.880  -7.898  0.00  0.00     0.023 H 
ENDBRANCH  35  38
ENDBRANCH  32  35
ENDBRANCH  29  32
ENDBRANCH  27  29
BRANCH  27  42
ATOM     42  C   LIG d   1       3.531  -1.536 -13.165  0.00  0.00    -0.050 C 
ATOM     43  H   LIG d   1       4.162  -2.402 -12.963  0.00  0.00     0.027 H 
ATOM     44  H   LIG d   1       2.599  -1.865 -13.624  0.00  0.00     0.027 H 
BRANCH  42  45
ATOM     45  C   LIG d   1       4.261  -0.587 -14.119  0.00  0.00    -0.065 C 
ATOM     46  H   LIG d   1       5.242  -0.343 -13.709  0.00  0.00     0.023 H 
ATOM     47  H   LIG d   1       4.382  -1.068 -15.088  0.00  0.00     0.023 H 
ATOM     48  H   LIG d   1       3.680   0.328 -14.237  0.00  0.00     0.023 H 
ENDBRANCH  42  45
ENDBRANCH  27  42
ENDBRANCH  24  27
ENDBRANCH  16  24
ENDBRANCH   7  10
ENDBRANCH   4   7
ENDBRANCH   1   4
BRANCH   1  49
ATOM     49  C   LIG d   1       5.026  -1.823  -3.175  0.00  0.00    -0.050 C 
ATOM     50  H   LIG d   1       4.779  -2.874  -3.022  0.00  0.00     0.027 H 
ATOM     51  H   LIG d   1       4.689  -1.511  -4.164  0.00  0.00     0.027 H 
BRANCH  49  52
ATOM     52  C   LIG d   1       6.540  -1.634  -3.069  0.00  0.00    -0.022 C 
ATOM     53  H   LIG d   1       6.781  -1.148  -2.123  0.00  0.00     0.030 H 
ATOM     54  H   LIG d   1       7.032  -2.606  -3.113  0.00  0.00     0.030 H 
BRANCH  52  55
ATOM     55  C   LIG d   1       7.028  -0.762  -4.228  0.00  0.00     0.065 C 
ATOM     56  H   LIG d   1       8.009  -1.107  -4.554  0.00  0.00     0.066 H 
ATOM     57  H   LIG d   1       6.324  -0.833  -5.058  0.00  0.00     0.066 H 
BRANCH  55  58
ATOM     58  N   LIG d   1       7.122   0.631  -3.784  0.00  0.00    -0.276 N 
ATOM     59  C   LIG d   1       8.311   1.299  -3.879  0.00  0.00     0.390 C 
ATOM     60  N   LIG d   1       9.412   0.667  -4.388  0.00  0.00    -0.289 N 
ATOM     61  N   LIG d   1       8.396   2.554  -3.480  0.00  0.00    -0.006 NA
ATOM     62  H   LIG d   1       9.325  -0.213  -4.786  0.00  0.00     0.255 HD
ATOM     63  H   LIG d   1      10.279   1.098  -4.349  0.00  0.00     0.255 HD
ATOM     64  C   LIG d   1       9.536   3.247  -3.674  0.00  0.00     0.390 C 
ATOM     65  N   LIG d   1      10.193   3.170  -4.886  0.00  0.00    -0.289 N 
ATOM     66  N   LIG d   1      10.021   3.993  -2.712  0.00  0.00    -0.275 N 
ATOM     67  H   LIG d   1       9.856   2.588  -5.584  0.00  0.00     0.255 HD
ATOM     68  H   LIG d   1      10.992   3.698  -5.038  0.00  0.00     0.255 HD
ATOM     69  H   LIG d   1       9.559   4.047  -1.861  0.00  0.00     0.258 HD
ATOM     70  H   LIG d   1       6.342   1.079  -3.424  0.00  0.00     0.258 HD
BRANCH  66  71
ATOM     71  C   LIG d   1      11.259   4.746  -2.922  0.00  0.00     0.068 C 
ATOM     72  H   LIG d   1      12.064   4.292  -2.342  0.00  0.00     0.066 H 
ATOM     73  H   LIG d   1      11.520   4.730  -3.980  0.00  0.00     0.066 H 
BRANCH  71  74
ATOM     74  C   LIG d   1      11.059   6.194  -2.469  0.00  0.00    -0.011 C 
ATOM     75  H   LIG d   1      12.020   6.622  -2.185  0.00  0.00     0.033 H 
BRANCH  74  76
ATOM     76  C   LIG d   1      10.457   7.009  -3.616  0.00  0.00    -0.050 C 
ATOM     77  H   LIG d   1       9.420   6.710  -3.770  0.00  0.00     0.027 H 
ATOM     78  H   LIG d   1      10.496   8.069  -3.368  0.00  0.00     0.027 H 
BRANCH  76  79
ATOM     79  C   LIG d   1      11.256   6.754  -4.896  0.00  0.00    -0.065 C 
ATOM     80  H   LIG d   1      11.727   5.774  -4.841  0.00  0.00     0.023 H 
ATOM     81  H   LIG d   1      10.586   6.788  -5.755  0.00  0.00     0.023 H 
ATOM     82  H   LIG d   1      12.023   7.521  -5.004  0.00  0.00     0.023 H 
ENDBRANCH  76  79
ENDBRANCH  74  76
BRANCH  74  83
ATOM     83  C   LIG d   1      10.111   6.226  -1.269  0.00  0.00    -0.047 C 
ATOM     84  H   LIG d   1       9.079   6.196  -1.619  0.00  0.00     0.027 H 
ATOM     85  H   LIG d   1      10.304   5.365  -0.630  0.00  0.00     0.027 H 
BRANCH  83  86
ATOM     86  C   LIG d   1      10.341   7.513  -0.473  0.00  0.00    -0.053 C 
ATOM     87  H   LIG d   1      10.722   8.289  -1.138  0.00  0.00     0.026 H 
ATOM     88  H   LIG d   1       9.399   7.841  -0.033  0.00  0.00     0.026 H 
BRANCH  86  89
ATOM     89  C   LIG d   1      11.358   7.250   0.639  0.00  0.00    -0.056 C 
ATOM     90  H   LIG d   1      12.363   7.242   0.216  0.00  0.00     0.026 H 
ATOM     91  H   LIG d   1      11.287   8.036   1.391  0.00  0.00     0.026 H 
BRANCH  89  92
ATOM     92  C   LIG d   1      11.067   5.895   1.287  0.00  0.00    -0.065 C 
ATOM     93  H   LIG d   1      11.745   5.145   0.880  0.00  0.00     0.023 H 
ATOM     94  H   LIG d   1      11.213   5.970   2.365  0.00  0.00     0.023 H 
ATOM     95  H   LIG d   1      10.038   5.606   1.078  0.00  0.00     0.023 H 
ENDBRANCH  89  92
ENDBRANCH  86  89
ENDBRANCH  83  86
ENDBRANCH  74  83
ENDBRANCH  71  74
ENDBRANCH  66  71
ENDBRANCH  55  58
ENDBRANCH  52  55
ENDBRANCH  49  52
ENDBRANCH   1  49
TORSDOF 23
ENDMDL
MODEL 6
REMARK VINA RESULT:      -5.4      4.740      9.215
REMARK  23 active torsions:
REMARK  status: ('A' for Active; 'I' for Inactive)
REMARK    1  A    between atoms: C_1  and  C_2 
REMARK    2  A    between atoms: C_2  and  C_3 
REMARK    3  A    between atoms: C_3  and  C_4 
REMARK    4  A    between atoms: C_4  and  C_5 
REMARK    5  A    between atoms: C_5  and  C_7 
REMARK    6  A    between atoms: C_5  and  C_9 
REMARK    7  A    between atoms: C_7  and  C_8 
REMARK    8  A    between atoms: C_9  and  N_10 
REMARK       I    between atoms: N_10  and  C_11 
REMARK       I    between atoms: C_11  and  N_13 
REMARK       I    between atoms: N_13  and  C_14 
REMARK       I    between atoms: C_14  and  N_16 
REMARK    9  A    between atoms: N_16  and  C_17 
REMARK   10  A    between atoms: C_17  and  C_18 
REMARK   11  A    between atoms: C_18  and  C_19 
REMARK   12  A    between atoms: C_19  and  C_20 
REMARK   13  A    between atoms: C_20  and  C_21 
REMARK   14  A    between atoms: C_21  and  C_22 
REMARK   15  A    between atoms: C_22  and  N_23 
REMARK       I    between atoms: N_23  and  C_24 
REMARK       I    between atoms: C_24  and  N_25 
REMARK       I    between atoms: N_26  and  C_27 
REMARK       I    between atoms: C_27  and  N_28 
REMARK   16  A    between atoms: N_29  and  C_30 
REMARK   17  A    between atoms: C_30  and  C_31 
REMARK   18  A    between atoms: C_31  and  C_33 
REMARK   19  A    between atoms: C_31  and  C_35 
REMARK   20  A    between atoms: C_33  and  C_34 
REMARK   21  A    between atoms: C_35  and  C_36 
REMARK   22  A    between atoms: C_36  and  C_37 
REMARK   23  A    between atoms: C_37  and  C_38 
ROOT
ATOM      1  C   LIG d   1      11.704   5.771  -3.519  0.00  0.00    -0.050 C 
ATOM      2  H   LIG d   1      12.015   6.754  -3.165  0.00  0.00     0.027 H 
ATOM      3  H   LIG d   1      12.573   5.116  -3.584  0.00  0.00     0.027 H 
ENDROOT
BRANCH   1   4
ATOM      4  C   LIG d   1      10.687   5.175  -2.543  0.00  0.00    -0.022 C 
ATOM      5  H   LIG d   1       9.722   5.661  -2.682  0.00  0.00     0.030 H 
ATOM      6  H   LIG d   1      11.029   5.333  -1.521  0.00  0.00     0.030 H 
BRANCH   4   7
ATOM      7  C   LIG d   1      10.546   3.675  -2.808  0.00  0.00     0.065 C 
ATOM      8  H   LIG d   1      10.801   3.121  -1.904  0.00  0.00     0.066 H 
ATOM      9  H   LIG d   1      11.217   3.383  -3.615  0.00  0.00     0.066 H 
BRANCH   7  10
ATOM     10  N   LIG d   1       9.164   3.375  -3.189  0.00  0.00    -0.278 N 
ATOM     11  C   LIG d   1       8.860   2.169  -3.776  0.00  0.00     0.352 C 
ATOM     12  N   LIG d   1       7.558   1.886  -4.135  0.00  0.00    -0.191 N 
ATOM     13  N   LIG d   1       9.800   1.294  -3.993  0.00  0.00    -0.291 N 
ATOM     14  C   LIG d   1       7.186   0.588  -4.413  0.00  0.00     0.352 C 
ATOM     15  H   LIG d   1       6.904   2.601  -4.192  0.00  0.00     0.271 HD
ATOM     16  N   LIG d   1       6.008   0.338  -5.077  0.00  0.00    -0.278 N 
ATOM     17  N   LIG d   1       7.950  -0.401  -4.047  0.00  0.00    -0.291 N 
ATOM     18  H   LIG d   1       5.439   1.074  -5.349  0.00  0.00     0.258 HD
ATOM     19  H   LIG d   1       8.724  -0.234  -3.486  0.00  0.00     0.255 HD
ATOM     20  H   LIG d   1       7.746  -1.305  -4.335  0.00  0.00     0.255 HD
ATOM     21  H   LIG d   1      10.692   1.446  -3.646  0.00  0.00     0.255 HD
ATOM     22  H   LIG d   1       9.607   0.493  -4.503  0.00  0.00     0.255 HD
ATOM     23  H   LIG d   1       8.464   4.026  -3.027  0.00  0.00     0.258 HD
BRANCH  16  24
ATOM     24  C   LIG d   1       5.613  -1.042  -5.372  0.00  0.00     0.067 C 
ATOM     25  H   LIG d   1       6.207  -1.728  -4.766  0.00  0.00     0.066 H 
ATOM     26  H   LIG d   1       5.782  -1.251  -6.428  0.00  0.00     0.066 H 
BRANCH  24  27
ATOM     27  C   LIG d   1       4.129  -1.228  -5.047  0.00  0.00    -0.011 C 
ATOM     28  H   LIG d   1       3.655  -1.811  -5.837  0.00  0.00     0.033 H 
BRANCH  27  29
ATOM     29  C   LIG d   1       3.987  -1.965  -3.714  0.00  0.00    -0.047 C 
ATOM     30  H   LIG d   1       4.967  -2.312  -3.384  0.00  0.00     0.027 H 
ATOM     31  H   LIG d   1       3.323  -2.820  -3.840  0.00  0.00     0.027 H 
BRANCH  29  32
ATOM     32  C   LIG d   1       3.404  -1.015  -2.666  0.00  0.00    -0.053 C 
ATOM     33  H   LIG d   1       2.608  -1.523  -2.119  0.00  0.00     0.026 H 
ATOM     34  H   LIG d   1       2.999  -0.133  -3.160  0.00  0.00     0.026 H 
BRANCH  32  35
ATOM     35  C   LIG d   1       4.505  -0.594  -1.691  0.00  0.00    -0.056 C 
ATOM     36  H   LIG d   1       5.461  -0.993  -2.027  0.00  0.00     0.026 H 
ATOM     37  H   LIG d   1       4.278  -0.981  -0.697  0.00  0.00     0.026 H 
BRANCH  35  38
ATOM     38  C   LIG d   1       4.580   0.934  -1.636  0.00  0.00    -0.065 C 
ATOM     39  H   LIG d   1       3.808   1.359  -2.277  0.00  0.00     0.023 H 
ATOM     40  H   LIG d   1       4.426   1.269  -0.611  0.00  0.00     0.023 H 
ATOM     41  H   LIG d   1       5.560   1.261  -1.982  0.00  0.00     0.023 H 
ENDBRANCH  35  38
ENDBRANCH  32  35
ENDBRANCH  29  32
ENDBRANCH  27  29
BRANCH  27  42
ATOM     42  C   LIG d   1       3.454   0.141  -4.948  0.00  0.00    -0.050 C 
ATOM     43  H   LIG d   1       2.848   0.183  -4.042  0.00  0.00     0.027 H 
ATOM     44  H   LIG d   1       4.215   0.920  -4.912  0.00  0.00     0.027 H 
BRANCH  42  45
ATOM     45  C   LIG d   1       2.558   0.358  -6.169  0.00  0.00    -0.065 C 
ATOM     46  H   LIG d   1       2.317   1.419  -6.259  0.00  0.00     0.023 H 
ATOM     47  H   LIG d   1       3.081   0.028  -7.066  0.00  0.00     0.023 H 
ATOM     48  H   LIG d   1       1.638  -0.214  -6.052  0.00  0.00     0.023 H 
ENDBRANCH  42  45
ENDBRANCH  27  42
ENDBRANCH  24  27
ENDBRANCH  16  24
ENDBRANCH   7  10
ENDBRANCH   4   7
ENDBRANCH   1   4
BRANCH   1  49
ATOM     49  C   LIG d   1      11.064   5.906  -4.903  0.00  0.00    -0.050 C 
ATOM     50  H   LIG d   1      10.352   5.095  -5.055  0.00  0.00     0.027 H 
ATOM     51  H   LIG d   1      10.545   6.863  -4.971  0.00  0.00     0.027 H 
BRANCH  49  52
ATOM     52  C   LIG d   1      12.152   5.838  -5.977  0.00  0.00    -0.022 C 
ATOM     53  H   LIG d   1      12.027   6.668  -6.673  0.00  0.00     0.030 H 
ATOM     54  H   LIG d   1      13.132   5.904  -5.506  0.00  0.00     0.030 H 
BRANCH  52  55
ATOM     55  C   LIG d   1      12.037   4.514  -6.735  0.00  0.00     0.065 C 
ATOM     56  H   LIG d   1      12.043   4.708  -7.807  0.00  0.00     0.066 H 
ATOM     57  H   LIG d   1      12.881   3.873  -6.477  0.00  0.00     0.066 H 
BRANCH  55  58
ATOM     58  N   LIG d   1      10.786   3.847  -6.366  0.00  0.00    -0.276 N 
ATOM     59  C   LIG d   1      10.129   3.075  -7.282  0.00  0.00     0.390 C 
ATOM     60  N   LIG d   1      10.638   2.925  -8.543  0.00  0.00    -0.289 N 
ATOM     61  N   LIG d   1       9.002   2.473  -6.951  0.00  0.00    -0.006 NA
ATOM     62  H   LIG d   1      11.519   3.270  -8.753  0.00  0.00     0.255 HD
ATOM     63  H   LIG d   1      10.118   2.474  -9.226  0.00  0.00     0.255 HD
ATOM     64  C   LIG d   1       8.411   1.624  -7.816  0.00  0.00     0.390 C 
ATOM     65  N   LIG d   1       9.170   0.696  -8.501  0.00  0.00    -0.289 N 
ATOM     66  N   LIG d   1       7.116   1.682  -8.007  0.00  0.00    -0.275 N 
ATOM     67  H   LIG d   1      10.132   0.679  -8.388  0.00  0.00     0.255 HD
ATOM     68  H   LIG d   1       8.739   0.061  -9.094  0.00  0.00     0.255 HD
ATOM     69  H   LIG d   1       6.583   2.333  -7.526  0.00  0.00     0.258 HD
ATOM     70  H   LIG d   1      10.425   3.952  -5.473  0.00  0.00     0.258 HD
BRANCH  66  71
ATOM     71  C   LIG d   1       6.473   0.760  -8.947  0.00  0.00     0.068 C 
ATOM     72  H   LIG d   1       6.780   1.005  -9.964  0.00  0.00     0.066 H 
ATOM     73  H   LIG d   1       6.769  -0.262  -8.714  0.00  0.00     0.066 H 
BRANCH  71  74
ATOM     74  C   LIG d   1       4.953   0.889  -8.829  0.00  0.00    -0.011 C 
ATOM     75  H   LIG d   1       4.636   0.562  -7.840  0.00  0.00     0.033 H 
BRANCH  74  76
ATOM     76  C   LIG d   1       4.548   2.351  -9.036  0.00  0.00    -0.050 C 
ATOM     77  H   LIG d   1       4.190   2.766  -8.095  0.00  0.00     0.027 H 
ATOM     78  H   LIG d   1       5.411   2.921  -9.380  0.00  0.00     0.027 H 
BRANCH  76  79
ATOM     79  C   LIG d   1       3.435   2.428 -10.084  0.00  0.00    -0.065 C 
ATOM     80  H   LIG d   1       3.825   2.113 -11.051  0.00  0.00     0.023 H 
ATOM     81  H   LIG d   1       2.615   1.773  -9.792  0.00  0.00     0.023 H 
ATOM     82  H   LIG d   1       3.073   3.454 -10.153  0.00  0.00     0.023 H 
ENDBRANCH  76  79
ENDBRANCH  74  76
BRANCH  74  83
ATOM     83  C   LIG d   1       4.283   0.019  -9.894  0.00  0.00    -0.047 C 
ATOM     84  H   LIG d   1       3.348   0.484 -10.207  0.00  0.00     0.027 H 
ATOM     85  H   LIG d   1       4.946  -0.079 -10.753  0.00  0.00     0.027 H 
BRANCH  83  86
ATOM     86  C   LIG d   1       3.994  -1.367  -9.312  0.00  0.00    -0.053 C 
ATOM     87  H   LIG d   1       4.419  -2.130  -9.964  0.00  0.00     0.026 H 
ATOM     88  H   LIG d   1       4.441  -1.444  -8.322  0.00  0.00     0.026 H 
BRANCH  86  89
ATOM     89  C   LIG d   1       2.481  -1.570  -9.207  0.00  0.00    -0.056 C 
ATOM     90  H   LIG d   1       2.254  -2.636  -9.251  0.00  0.00     0.026 H 
ATOM     91  H   LIG d   1       2.124  -1.162  -8.261  0.00  0.00     0.026 H 
BRANCH  89  92
ATOM     92  C   LIG d   1       1.788  -0.853 -10.367  0.00  0.00    -0.065 C 
ATOM     93  H   LIG d   1       1.180  -1.566 -10.924  0.00  0.00     0.023 H 
ATOM     94  H   LIG d   1       1.151  -0.061  -9.975  0.00  0.00     0.023 H 
ATOM     95  H   LIG d   1       2.539  -0.422 -11.029  0.00  0.00     0.023 H 
ENDBRANCH  89  92
ENDBRANCH  86  89
ENDBRANCH  83  86
ENDBRANCH  74  83
ENDBRANCH  71  74
ENDBRANCH  66  71
ENDBRANCH  55  58
ENDBRANCH  52  55
ENDBRANCH  49  52
ENDBRANCH   1  49
TORSDOF 23
ENDMDL
MODEL 7
REMARK VINA RESULT:      -5.3      7.610     11.800
REMARK  23 active torsions:
REMARK  status: ('A' for Active; 'I' for Inactive)
REMARK    1  A    between atoms: C_1  and  C_2 
REMARK    2  A    between atoms: C_2  and  C_3 
REMARK    3  A    between atoms: C_3  and  C_4 
REMARK    4  A    between atoms: C_4  and  C_5 
REMARK    5  A    between atoms: C_5  and  C_7 
REMARK    6  A    between atoms: C_5  and  C_9 
REMARK    7  A    between atoms: C_7  and  C_8 
REMARK    8  A    between atoms: C_9  and  N_10 
REMARK       I    between atoms: N_10  and  C_11 
REMARK       I    between atoms: C_11  and  N_13 
REMARK       I    between atoms: N_13  and  C_14 
REMARK       I    between atoms: C_14  and  N_16 
REMARK    9  A    between atoms: N_16  and  C_17 
REMARK   10  A    between atoms: C_17  and  C_18 
REMARK   11  A    between atoms: C_18  and  C_19 
REMARK   12  A    between atoms: C_19  and  C_20 
REMARK   13  A    between atoms: C_20  and  C_21 
REMARK   14  A    between atoms: C_21  and  C_22 
REMARK   15  A    between atoms: C_22  and  N_23 
REMARK       I    between atoms: N_23  and  C_24 
REMARK       I    between atoms: C_24  and  N_25 
REMARK       I    between atoms: N_26  and  C_27 
REMARK       I    between atoms: C_27  and  N_28 
REMARK   16  A    between atoms: N_29  and  C_30 
REMARK   17  A    between atoms: C_30  and  C_31 
REMARK   18  A    between atoms: C_31  and  C_33 
REMARK   19  A    between atoms: C_31  and  C_35 
REMARK   20  A    between atoms: C_33  and  C_34 
REMARK   21  A    between atoms: C_35  and  C_36 
REMARK   22  A    between atoms: C_36  and  C_37 
REMARK   23  A    between atoms: C_37  and  C_38 
ROOT
ATOM      1  C   LIG d   1      11.455   5.196  -1.011  0.00  0.00    -0.050 C 
ATOM      2  H   LIG d   1      11.573   4.179  -0.636  0.00  0.00     0.027 H 
ATOM      3  H   LIG d   1      12.436   5.614  -1.240  0.00  0.00     0.027 H 
ENDROOT
BRANCH   1   4
ATOM      4  C   LIG d   1      10.601   5.175  -2.280  0.00  0.00    -0.022 C 
ATOM      5  H   LIG d   1      11.049   5.826  -3.031  0.00  0.00     0.030 H 
ATOM      6  H   LIG d   1       9.597   5.527  -2.048  0.00  0.00     0.030 H 
BRANCH   4   7
ATOM      7  C   LIG d   1      10.527   3.746  -2.823  0.00  0.00     0.065 C 
ATOM      8  H   LIG d   1      10.807   3.045  -2.037  0.00  0.00     0.066 H 
ATOM      9  H   LIG d   1      11.213   3.641  -3.664  0.00  0.00     0.066 H 
BRANCH   7  10
ATOM     10  N   LIG d   1       9.162   3.462  -3.267  0.00  0.00    -0.278 N 
ATOM     11  C   LIG d   1       8.845   2.221  -3.766  0.00  0.00     0.352 C 
ATOM     12  N   LIG d   1       7.558   1.953  -4.185  0.00  0.00    -0.191 N 
ATOM     13  N   LIG d   1       9.761   1.297  -3.845  0.00  0.00    -0.291 N 
ATOM     14  C   LIG d   1       7.151   0.649  -4.373  0.00  0.00     0.352 C 
ATOM     15  H   LIG d   1       6.939   2.682  -4.347  0.00  0.00     0.271 HD
ATOM     16  N   LIG d   1       6.009   0.382  -5.089  0.00  0.00    -0.278 N 
ATOM     17  N   LIG d   1       7.851  -0.330  -3.873  0.00  0.00    -0.291 N 
ATOM     18  H   LIG d   1       5.489   1.110  -5.462  0.00  0.00     0.258 HD
ATOM     19  H   LIG d   1       8.594  -0.141  -3.279  0.00  0.00     0.255 HD
ATOM     20  H   LIG d   1       7.628  -1.248  -4.094  0.00  0.00     0.255 HD
ATOM     21  H   LIG d   1      10.635   1.448  -3.453  0.00  0.00     0.255 HD
ATOM     22  H   LIG d   1       9.568   0.461  -4.295  0.00  0.00     0.255 HD
ATOM     23  H   LIG d   1       8.480   4.150  -3.209  0.00  0.00     0.258 HD
BRANCH  16  24
ATOM     24  C   LIG d   1       5.577  -1.004  -5.289  0.00  0.00     0.067 C 
ATOM     25  H   LIG d   1       5.722  -1.566  -4.366  0.00  0.00     0.066 H 
ATOM     26  H   LIG d   1       6.165  -1.457  -6.087  0.00  0.00     0.066 H 
BRANCH  24  27
ATOM     27  C   LIG d   1       4.095  -1.026  -5.673  0.00  0.00    -0.011 C 
ATOM     28  H   LIG d   1       3.659  -1.982  -5.382  0.00  0.00     0.033 H 
BRANCH  27  29
ATOM     29  C   LIG d   1       3.365   0.109  -4.953  0.00  0.00    -0.047 C 
ATOM     30  H   LIG d   1       2.555   0.478  -5.583  0.00  0.00     0.027 H 
ATOM     31  H   LIG d   1       4.065   0.919  -4.748  0.00  0.00     0.027 H 
BRANCH  29  32
ATOM     32  C   LIG d   1       2.787  -0.412  -3.635  0.00  0.00    -0.053 C 
ATOM     33  H   LIG d   1       2.993  -1.479  -3.545  0.00  0.00     0.026 H 
ATOM     34  H   LIG d   1       1.710  -0.248  -3.620  0.00  0.00     0.026 H 
BRANCH  32  35
ATOM     35  C   LIG d   1       3.434   0.333  -2.466  0.00  0.00    -0.056 C 
ATOM     36  H   LIG d   1       2.665   0.630  -1.753  0.00  0.00     0.026 H 
ATOM     37  H   LIG d   1       3.945   1.221  -2.838  0.00  0.00     0.026 H 
BRANCH  35  38
ATOM     38  C   LIG d   1       4.444  -0.584  -1.773  0.00  0.00    -0.065 C 
ATOM     39  H   LIG d   1       5.441  -0.389  -2.167  0.00  0.00     0.023 H 
ATOM     40  H   LIG d   1       4.433  -0.392  -0.700  0.00  0.00     0.023 H 
ATOM     41  H   LIG d   1       4.177  -1.624  -1.959  0.00  0.00     0.023 H 
ENDBRANCH  35  38
ENDBRANCH  32  35
ENDBRANCH  29  32
ENDBRANCH  27  29
BRANCH  27  42
ATOM     42  C   LIG d   1       3.958  -0.842  -7.186  0.00  0.00    -0.050 C 
ATOM     43  H   LIG d   1       4.912  -0.514  -7.601  0.00  0.00     0.027 H 
ATOM     44  H   LIG d   1       3.671  -1.789  -7.642  0.00  0.00     0.027 H 
BRANCH  42  45
ATOM     45  C   LIG d   1       2.887   0.211  -7.477  0.00  0.00    -0.065 C 
ATOM     46  H   LIG d   1       2.984   1.034  -6.768  0.00  0.00     0.023 H 
ATOM     47  H   LIG d   1       3.016   0.589  -8.491  0.00  0.00     0.023 H 
ATOM     48  H   LIG d   1       1.899  -0.239  -7.380  0.00  0.00     0.023 H 
ENDBRANCH  42  45
ENDBRANCH  27  42
ENDBRANCH  24  27
ENDBRANCH  16  24
ENDBRANCH   7  10
ENDBRANCH   4   7
ENDBRANCH   1   4
BRANCH   1  49
ATOM     49  C   LIG d   1      10.769   6.057   0.051  0.00  0.00    -0.050 C 
ATOM     50  H   LIG d   1       9.828   6.440  -0.343  0.00  0.00     0.027 H 
ATOM     51  H   LIG d   1      10.573   5.452   0.937  0.00  0.00     0.027 H 
BRANCH  49  52
ATOM     52  C   LIG d   1      11.680   7.228   0.425  0.00  0.00    -0.022 C 
ATOM     53  H   LIG d   1      11.830   7.241   1.505  0.00  0.00     0.030 H 
ATOM     54  H   LIG d   1      12.643   7.113  -0.073  0.00  0.00     0.030 H 
BRANCH  52  55
ATOM     55  C   LIG d   1      11.030   8.541  -0.016  0.00  0.00     0.065 C 
ATOM     56  H   LIG d   1       9.949   8.414  -0.057  0.00  0.00     0.066 H 
ATOM     57  H   LIG d   1      11.277   9.327   0.699  0.00  0.00     0.066 H 
BRANCH  55  58
ATOM     58  N   LIG d   1      11.530   8.912  -1.342  0.00  0.00    -0.276 N 
ATOM     59  C   LIG d   1      10.688   8.893  -2.418  0.00  0.00     0.390 C 
ATOM     60  N   LIG d   1       9.380   8.528  -2.258  0.00  0.00    -0.289 N 
ATOM     61  N   LIG d   1      11.137   9.227  -3.614  0.00  0.00    -0.006 NA
ATOM     62  H   LIG d   1       9.020   8.393  -1.367  0.00  0.00     0.255 HD
ATOM     63  H   LIG d   1       8.812   8.403  -3.034  0.00  0.00     0.255 HD
ATOM     64  C   LIG d   1      10.284   9.315  -4.654  0.00  0.00     0.390 C 
ATOM     65  N   LIG d   1       9.067   9.945  -4.497  0.00  0.00    -0.289 N 
ATOM     66  N   LIG d   1      10.612   8.801  -5.814  0.00  0.00    -0.275 N 
ATOM     67  H   LIG d   1       8.808  10.292  -3.630  0.00  0.00     0.255 HD
ATOM     68  H   LIG d   1       8.470  10.042  -5.256  0.00  0.00     0.255 HD
ATOM     69  H   LIG d   1      11.467   8.357  -5.924  0.00  0.00     0.258 HD
ATOM     70  H   LIG d   1      12.457   9.171  -1.457  0.00  0.00     0.258 HD
BRANCH  66  71
ATOM     71  C   LIG d   1       9.686   8.896  -6.945  0.00  0.00     0.068 C 
ATOM     72  H   LIG d   1       8.749   9.345  -6.611  0.00  0.00     0.066 H 
ATOM     73  H   LIG d   1      10.127   9.515  -7.725  0.00  0.00     0.066 H 
BRANCH  71  74
ATOM     74  C   LIG d   1       9.411   7.497  -7.499  0.00  0.00    -0.011 C 
ATOM     75  H   LIG d   1       8.426   7.164  -7.172  0.00  0.00     0.033 H 
BRANCH  74  76
ATOM     76  C   LIG d   1       9.453   7.536  -9.028  0.00  0.00    -0.050 C 
ATOM     77  H   LIG d   1       8.934   8.427  -9.384  0.00  0.00     0.027 H 
ATOM     78  H   LIG d   1      10.490   7.563  -9.362  0.00  0.00     0.027 H 
BRANCH  76  79
ATOM     79  C   LIG d   1       8.768   6.289  -9.590  0.00  0.00    -0.065 C 
ATOM     80  H   LIG d   1       8.060   6.581 -10.364  0.00  0.00     0.023 H 
ATOM     81  H   LIG d   1       9.518   5.622 -10.015  0.00  0.00     0.023 H 
ATOM     82  H   LIG d   1       8.238   5.774  -8.788  0.00  0.00     0.023 H 
ENDBRANCH  76  79
ENDBRANCH  74  76
BRANCH  74  83
ATOM     83  C   LIG d   1      10.475   6.526  -6.985  0.00  0.00    -0.047 C 
ATOM     84  H   LIG d   1      11.048   6.136  -7.826  0.00  0.00     0.027 H 
ATOM     85  H   LIG d   1      11.143   7.048  -6.300  0.00  0.00     0.027 H 
BRANCH  83  86
ATOM     86  C   LIG d   1       9.796   5.367  -6.250  0.00  0.00    -0.053 C 
ATOM     87  H   LIG d   1       9.950   5.478  -5.176  0.00  0.00     0.026 H 
ATOM     88  H   LIG d   1       8.728   5.376  -6.467  0.00  0.00     0.026 H 
BRANCH  86  89
ATOM     89  C   LIG d   1      10.401   4.042  -6.718  0.00  0.00    -0.056 C 
ATOM     90  H   LIG d   1      11.165   4.238  -7.470  0.00  0.00     0.026 H 
ATOM     91  H   LIG d   1      10.850   3.527  -5.868  0.00  0.00     0.026 H 
BRANCH  89  92
ATOM     92  C   LIG d   1       9.303   3.166  -7.323  0.00  0.00    -0.065 C 
ATOM     93  H   LIG d   1       9.620   2.123  -7.307  0.00  0.00     0.023 H 
ATOM     94  H   LIG d   1       8.388   3.276  -6.740  0.00  0.00     0.023 H 
ATOM     95  H   LIG d   1       9.118   3.473  -8.352  0.00  0.00     0.023 H 
ENDBRANCH  89  92
ENDBRANCH  86  89
ENDBRANCH  83  86
ENDBRANCH  74  83
ENDBRANCH  71  74
ENDBRANCH  66  71
ENDBRANCH  55  58
ENDBRANCH  52  55
ENDBRANCH  49  52
ENDBRANCH   1  49
TORSDOF 23
ENDMDL
MODEL 8
REMARK VINA RESULT:      -5.2      7.512     11.588
REMARK  23 active torsions:
REMARK  status: ('A' for Active; 'I' for Inactive)
REMARK    1  A    between atoms: C_1  and  C_2 
REMARK    2  A    between atoms: C_2  and  C_3 
REMARK    3  A    between atoms: C_3  and  C_4 
REMARK    4  A    between atoms: C_4  and  C_5 
REMARK    5  A    between atoms: C_5  and  C_7 
REMARK    6  A    between atoms: C_5  and  C_9 
REMARK    7  A    between atoms: C_7  and  C_8 
REMARK    8  A    between atoms: C_9  and  N_10 
REMARK       I    between atoms: N_10  and  C_11 
REMARK       I    between atoms: C_11  and  N_13 
REMARK       I    between atoms: N_13  and  C_14 
REMARK       I    between atoms: C_14  and  N_16 
REMARK    9  A    between atoms: N_16  and  C_17 
REMARK   10  A    between atoms: C_17  and  C_18 
REMARK   11  A    between atoms: C_18  and  C_19 
REMARK   12  A    between atoms: C_19  and  C_20 
REMARK   13  A    between atoms: C_20  and  C_21 
REMARK   14  A    between atoms: C_21  and  C_22 
REMARK   15  A    between atoms: C_22  and  N_23 
REMARK       I    between atoms: N_23  and  C_24 
REMARK       I    between atoms: C_24  and  N_25 
REMARK       I    between atoms: N_26  and  C_27 
REMARK       I    between atoms: C_27  and  N_28 
REMARK   16  A    between atoms: N_29  and  C_30 
REMARK   17  A    between atoms: C_30  and  C_31 
REMARK   18  A    between atoms: C_31  and  C_33 
REMARK   19  A    between atoms: C_31  and  C_35 
REMARK   20  A    between atoms: C_33  and  C_34 
REMARK   21  A    between atoms: C_35  and  C_36 
REMARK   22  A    between atoms: C_36  and  C_37 
REMARK   23  A    between atoms: C_37  and  C_38 
ROOT
ATOM      1  C   LIG d   1       8.449   5.481  -9.531  0.00  0.00    -0.050 C 
ATOM      2  H   LIG d   1       8.711   6.075  -8.656  0.00  0.00     0.027 H 
ATOM      3  H   LIG d   1       7.373   5.538  -9.701  0.00  0.00     0.027 H 
ENDROOT
BRANCH   1   4
ATOM      4  C   LIG d   1       9.188   6.023 -10.756  0.00  0.00    -0.022 C 
ATOM      5  H   LIG d   1       8.470   6.239 -11.548  0.00  0.00     0.030 H 
ATOM      6  H   LIG d   1       9.903   5.281 -11.107  0.00  0.00     0.030 H 
BRANCH   4   7
ATOM      7  C   LIG d   1       9.929   7.307 -10.377  0.00  0.00     0.065 C 
ATOM      8  H   LIG d   1      10.018   7.948 -11.256  0.00  0.00     0.066 H 
ATOM      9  H   LIG d   1      10.923   7.058 -10.008  0.00  0.00     0.066 H 
BRANCH   7  10
ATOM     10  N   LIG d   1       9.183   8.012  -9.334  0.00  0.00    -0.278 N 
ATOM     11  C   LIG d   1       9.810   8.374  -8.165  0.00  0.00     0.352 C 
ATOM     12  N   LIG d   1       9.107   9.038  -7.182  0.00  0.00    -0.191 N 
ATOM     13  N   LIG d   1      11.068   8.089  -7.986  0.00  0.00    -0.291 N 
ATOM     14  C   LIG d   1       9.782   9.686  -6.169  0.00  0.00     0.352 C 
ATOM     15  H   LIG d   1       8.137   9.050  -7.202  0.00  0.00     0.271 HD
ATOM     16  N   LIG d   1       9.113  10.062  -5.028  0.00  0.00    -0.278 N 
ATOM     17  N   LIG d   1      11.053   9.942  -6.293  0.00  0.00    -0.291 N 
ATOM     18  H   LIG d   1       8.167   9.872  -4.935  0.00  0.00     0.258 HD
ATOM     19  H   LIG d   1      11.501   9.775  -7.137  0.00  0.00     0.255 HD
ATOM     20  H   LIG d   1      11.552  10.298  -5.542  0.00  0.00     0.255 HD
ATOM     21  H   LIG d   1      11.590   7.720  -8.715  0.00  0.00     0.255 HD
ATOM     22  H   LIG d   1      11.482   8.245  -7.123  0.00  0.00     0.255 HD
ATOM     23  H   LIG d   1       8.245   8.225  -9.467  0.00  0.00     0.258 HD
BRANCH  16  24
ATOM     24  C   LIG d   1       9.831  10.750  -3.952  0.00  0.00     0.067 C 
ATOM     25  H   LIG d   1       9.259  11.621  -3.631  0.00  0.00     0.066 H 
ATOM     26  H   LIG d   1      10.808  11.071  -4.313  0.00  0.00     0.066 H 
BRANCH  24  27
ATOM     27  C   LIG d   1      10.013   9.797  -2.768  0.00  0.00    -0.011 C 
ATOM     28  H   LIG d   1       9.413   8.901  -2.928  0.00  0.00     0.033 H 
BRANCH  27  29
ATOM     29  C   LIG d   1      11.488   9.409  -2.648  0.00  0.00    -0.047 C 
ATOM     30  H   LIG d   1      11.937   9.942  -1.810  0.00  0.00     0.027 H 
ATOM     31  H   LIG d   1      12.009   9.673  -3.568  0.00  0.00     0.027 H 
BRANCH  29  32
ATOM     32  C   LIG d   1      11.601   7.901  -2.412  0.00  0.00    -0.053 C 
ATOM     33  H   LIG d   1      11.425   7.684  -1.358  0.00  0.00     0.026 H 
ATOM     34  H   LIG d   1      12.600   7.564  -2.689  0.00  0.00     0.026 H 
BRANCH  32  35
ATOM     35  C   LIG d   1      10.561   7.172  -3.265  0.00  0.00    -0.056 C 
ATOM     36  H   LIG d   1      11.064   6.611  -4.052  0.00  0.00     0.026 H 
ATOM     37  H   LIG d   1       9.884   7.899  -3.712  0.00  0.00     0.026 H 
BRANCH  35  38
ATOM     38  C   LIG d   1       9.763   6.209  -2.382  0.00  0.00    -0.065 C 
ATOM     39  H   LIG d   1      10.426   5.432  -2.001  0.00  0.00     0.023 H 
ATOM     40  H   LIG d   1       9.327   6.758  -1.548  0.00  0.00     0.023 H 
ATOM     41  H   LIG d   1       8.968   5.752  -2.971  0.00  0.00     0.023 H 
ENDBRANCH  35  38
ENDBRANCH  32  35
ENDBRANCH  29  32
ENDBRANCH  27  29
BRANCH  27  42
ATOM     42  C   LIG d   1       9.561  10.490  -1.482  0.00  0.00    -0.050 C 
ATOM     43  H   LIG d   1      10.436  10.795  -0.906  0.00  0.00     0.027 H 
ATOM     44  H   LIG d   1       8.968  11.369  -1.732  0.00  0.00     0.027 H 
BRANCH  42  45
ATOM     45  C   LIG d   1       8.716   9.524  -0.650  0.00  0.00    -0.065 C 
ATOM     46  H   LIG d   1       8.756   8.529  -1.096  0.00  0.00     0.023 H 
ATOM     47  H   LIG d   1       9.106   9.481   0.366  0.00  0.00     0.023 H 
ATOM     48  H   LIG d   1       7.683   9.870  -0.629  0.00  0.00     0.023 H 
ENDBRANCH  42  45
ENDBRANCH  27  42
ENDBRANCH  24  27
ENDBRANCH  16  24
ENDBRANCH   7  10
ENDBRANCH   4   7
ENDBRANCH   1   4
BRANCH   1  49
ATOM     49  C   LIG d   1       8.851   4.023  -9.298  0.00  0.00    -0.050 C 
ATOM     50  H   LIG d   1       7.955   3.409  -9.205  0.00  0.00     0.027 H 
ATOM     51  H   LIG d   1       9.447   3.671 -10.140  0.00  0.00     0.027 H 
BRANCH  49  52
ATOM     52  C   LIG d   1       9.675   3.921  -8.012  0.00  0.00    -0.022 C 
ATOM     53  H   LIG d   1      10.736   3.973  -8.256  0.00  0.00     0.030 H 
ATOM     54  H   LIG d   1       9.414   4.744  -7.347  0.00  0.00     0.030 H 
BRANCH  52  55
ATOM     55  C   LIG d   1       9.376   2.590  -7.319  0.00  0.00     0.065 C 
ATOM     56  H   LIG d   1       8.692   2.006  -7.934  0.00  0.00     0.066 H 
ATOM     57  H   LIG d   1      10.304   2.036  -7.181  0.00  0.00     0.066 H 
BRANCH  55  58
ATOM     58  N   LIG d   1       8.760   2.847  -6.014  0.00  0.00    -0.276 N 
ATOM     59  C   LIG d   1       8.042   1.864  -5.393  0.00  0.00     0.390 C 
ATOM     60  N   LIG d   1       7.898   0.641  -5.988  0.00  0.00    -0.289 N 
ATOM     61  N   LIG d   1       7.488   2.094  -4.218  0.00  0.00    -0.006 NA
ATOM     62  H   LIG d   1       8.397   0.433  -6.794  0.00  0.00     0.255 HD
ATOM     63  H   LIG d   1       7.297  -0.017  -5.606  0.00  0.00     0.255 HD
ATOM     64  C   LIG d   1       6.874   1.094  -3.554  0.00  0.00     0.390 C 
ATOM     65  N   LIG d   1       7.468  -0.149  -3.476  0.00  0.00    -0.289 N 
ATOM     66  N   LIG d   1       5.712   1.303  -2.985  0.00  0.00    -0.275 N 
ATOM     67  H   LIG d   1       8.309  -0.315  -3.930  0.00  0.00     0.255 HD
ATOM     68  H   LIG d   1       7.044  -0.858  -2.966  0.00  0.00     0.255 HD
ATOM     69  H   LIG d   1       5.295   2.176  -3.040  0.00  0.00     0.258 HD
ATOM     70  H   LIG d   1       8.862   3.713  -5.592  0.00  0.00     0.258 HD
BRANCH  66  71
ATOM     71  C   LIG d   1       5.045   0.217  -2.263  0.00  0.00     0.068 C 
ATOM     72  H   LIG d   1       5.436  -0.742  -2.607  0.00  0.00     0.066 H 
ATOM     73  H   LIG d   1       5.230   0.322  -1.195  0.00  0.00     0.066 H 
BRANCH  71  74
ATOM     74  C   LIG d   1       3.540   0.277  -2.529  0.00  0.00    -0.011 C 
ATOM     75  H   LIG d   1       3.018   0.536  -1.609  0.00  0.00     0.033 H 
BRANCH  74  76
ATOM     76  C   LIG d   1       3.252   1.338  -3.594  0.00  0.00    -0.050 C 
ATOM     77  H   LIG d   1       2.653   2.138  -3.158  0.00  0.00     0.027 H 
ATOM     78  H   LIG d   1       4.192   1.748  -3.961  0.00  0.00     0.027 H 
BRANCH  76  79
ATOM     79  C   LIG d   1       2.484   0.702  -4.754  0.00  0.00    -0.065 C 
ATOM     80  H   LIG d   1       2.551  -0.383  -4.682  0.00  0.00     0.023 H 
ATOM     81  H   LIG d   1       1.439   1.006  -4.709  0.00  0.00     0.023 H 
ATOM     82  H   LIG d   1       2.917   1.030  -5.699  0.00  0.00     0.023 H 
ENDBRANCH  76  79
ENDBRANCH  74  76
BRANCH  74  83
ATOM     83  C   LIG d   1       3.054  -1.086  -3.025  0.00  0.00    -0.047 C 
ATOM     84  H   LIG d   1       2.067  -1.293  -2.611  0.00  0.00     0.027 H 
ATOM     85  H   LIG d   1       2.997  -1.078  -4.113  0.00  0.00     0.027 H 
BRANCH  83  86
ATOM     86  C   LIG d   1       4.034  -2.172  -2.573  0.00  0.00    -0.053 C 
ATOM     87  H   LIG d   1       4.928  -1.704  -2.159  0.00  0.00     0.026 H 
ATOM     88  H   LIG d   1       3.562  -2.793  -1.813  0.00  0.00     0.026 H 
BRANCH  86  89
ATOM     89  C   LIG d   1       4.421  -3.040  -3.772  0.00  0.00    -0.056 C 
ATOM     90  H   LIG d   1       5.297  -3.639  -3.519  0.00  0.00     0.026 H 
ATOM     91  H   LIG d   1       3.591  -3.699  -4.028  0.00  0.00     0.026 H 
BRANCH  89  92
ATOM     92  C   LIG d   1       4.747  -2.142  -4.967  0.00  0.00    -0.065 C 
ATOM     93  H   LIG d   1       3.838  -1.950  -5.536  0.00  0.00     0.023 H 
ATOM     94  H   LIG d   1       5.159  -1.197  -4.610  0.00  0.00     0.023 H 
ATOM     95  H   LIG d   1       5.477  -2.638  -5.606  0.00  0.00     0.023 H 
ENDBRANCH  89  92
ENDBRANCH  86  89
ENDBRANCH  83  86
ENDBRANCH  74  83
ENDBRANCH  71  74
ENDBRANCH  66  71
ENDBRANCH  55  58
ENDBRANCH  52  55
ENDBRANCH  49  52
ENDBRANCH   1  49
TORSDOF 23
ENDMDL
MODEL 9
REMARK VINA RESULT:      -5.2      4.589      8.965
REMARK  23 active torsions:
REMARK  status: ('A' for Active; 'I' for Inactive)
REMARK    1  A    between atoms: C_1  and  C_2 
REMARK    2  A    between atoms: C_2  and  C_3 
REMARK    3  A    between atoms: C_3  and  C_4 
REMARK    4  A    between atoms: C_4  and  C_5 
REMARK    5  A    between atoms: C_5  and  C_7 
REMARK    6  A    between atoms: C_5  and  C_9 
REMARK    7  A    between atoms: C_7  and  C_8 
REMARK    8  A    between atoms: C_9  and  N_10 
REMARK       I    between atoms: N_10  and  C_11 
REMARK       I    between atoms: C_11  and  N_13 
REMARK       I    between atoms: N_13  and  C_14 
REMARK       I    between atoms: C_14  and  N_16 
REMARK    9  A    between atoms: N_16  and  C_17 
REMARK   10  A    between atoms: C_17  and  C_18 
REMARK   11  A    between atoms: C_18  and  C_19 
REMARK   12  A    between atoms: C_19  and  C_20 
REMARK   13  A    between atoms: C_20  and  C_21 
REMARK   14  A    between atoms: C_21  and  C_22 
REMARK   15  A    between atoms: C_22  and  N_23 
REMARK       I    between atoms: N_23  and  C_24 
REMARK       I    between atoms: C_24  and  N_25 
REMARK       I    between atoms: N_26  and  C_27 
REMARK       I    between atoms: C_27  and  N_28 
REMARK   16  A    between atoms: N_29  and  C_30 
REMARK   17  A    between atoms: C_30  and  C_31 
REMARK   18  A    between atoms: C_31  and  C_33 
REMARK   19  A    between atoms: C_31  and  C_35 
REMARK   20  A    between atoms: C_33  and  C_34 
REMARK   21  A    between atoms: C_35  and  C_36 
REMARK   22  A    between atoms: C_36  and  C_37 
REMARK   23  A    between atoms: C_37  and  C_38 
ROOT
ATOM      1  C   LIG d   1      12.259   5.048  -5.961  0.00  0.00    -0.050 C 
ATOM      2  H   LIG d   1      12.971   5.644  -6.532  0.00  0.00     0.027 H 
ATOM      3  H   LIG d   1      11.972   4.170  -6.541  0.00  0.00     0.027 H 
ENDROOT
BRANCH   1   4
ATOM      4  C   LIG d   1      12.905   4.603  -4.647  0.00  0.00    -0.022 C 
ATOM      5  H   LIG d   1      13.540   5.402  -4.266  0.00  0.00     0.030 H 
ATOM      6  H   LIG d   1      13.506   3.712  -4.821  0.00  0.00     0.030 H 
BRANCH   4   7
ATOM      7  C   LIG d   1      11.812   4.289  -3.623  0.00  0.00     0.065 C 
ATOM      8  H   LIG d   1      10.971   4.968  -3.770  0.00  0.00     0.066 H 
ATOM      9  H   LIG d   1      12.209   4.417  -2.617  0.00  0.00     0.066 H 
BRANCH   7  10
ATOM     10  N   LIG d   1      11.360   2.908  -3.799  0.00  0.00    -0.278 N 
ATOM     11  C   LIG d   1      10.027   2.599  -3.671  0.00  0.00     0.352 C 
ATOM     12  N   LIG d   1       9.601   1.296  -3.837  0.00  0.00    -0.191 N 
ATOM     13  N   LIG d   1       9.165   3.535  -3.393  0.00  0.00    -0.291 N 
ATOM     14  C   LIG d   1       8.264   1.028  -4.036  0.00  0.00     0.352 C 
ATOM     15  H   LIG d   1      10.243   0.570  -3.813  0.00  0.00     0.271 HD
ATOM     16  N   LIG d   1       7.788  -0.252  -3.875  0.00  0.00    -0.278 N 
ATOM     17  N   LIG d   1       7.450   1.988  -4.376  0.00  0.00    -0.291 N 
ATOM     18  H   LIG d   1       8.393  -0.966  -3.622  0.00  0.00     0.258 HD
ATOM     19  H   LIG d   1       7.801   2.865  -4.594  0.00  0.00     0.255 HD
ATOM     20  H   LIG d   1       6.495   1.824  -4.411  0.00  0.00     0.255 HD
ATOM     21  H   LIG d   1       9.444   4.463  -3.383  0.00  0.00     0.255 HD
ATOM     22  H   LIG d   1       8.244   3.303  -3.196  0.00  0.00     0.255 HD
ATOM     23  H   LIG d   1      12.002   2.210  -4.006  0.00  0.00     0.258 HD
BRANCH  16  24
ATOM     24  C   LIG d   1       6.367  -0.537  -4.087  0.00  0.00     0.067 C 
ATOM     25  H   LIG d   1       6.191  -0.747  -5.143  0.00  0.00     0.066 H 
ATOM     26  H   LIG d   1       5.773   0.326  -3.785  0.00  0.00     0.066 H 
BRANCH  24  27
ATOM     27  C   LIG d   1       5.960  -1.753  -3.251  0.00  0.00    -0.011 C 
ATOM     28  H   LIG d   1       6.843  -2.177  -2.773  0.00  0.00     0.033 H 
BRANCH  27  29
ATOM     29  C   LIG d   1       4.957  -1.322  -2.179  0.00  0.00    -0.047 C 
ATOM     30  H   LIG d   1       5.011  -0.241  -2.042  0.00  0.00     0.027 H 
ATOM     31  H   LIG d   1       5.195  -1.819  -1.238  0.00  0.00     0.027 H 
BRANCH  29  32
ATOM     32  C   LIG d   1       3.543  -1.709  -2.618  0.00  0.00    -0.053 C 
ATOM     33  H   LIG d   1       3.040  -2.229  -1.803  0.00  0.00     0.026 H 
ATOM     34  H   LIG d   1       3.600  -2.365  -3.486  0.00  0.00     0.026 H 
BRANCH  32  35
ATOM     35  C   LIG d   1       2.758  -0.447  -2.981  0.00  0.00    -0.056 C 
ATOM     36  H   LIG d   1       1.761  -0.502  -2.546  0.00  0.00     0.026 H 
ATOM     37  H   LIG d   1       2.678  -0.368  -4.065  0.00  0.00     0.026 H 
BRANCH  35  38
ATOM     38  C   LIG d   1       3.487   0.782  -2.432  0.00  0.00    -0.065 C 
ATOM     39  H   LIG d   1       4.494   0.501  -2.128  0.00  0.00     0.023 H 
ATOM     40  H   LIG d   1       3.540   1.547  -3.206  0.00  0.00     0.023 H 
ATOM     41  H   LIG d   1       2.943   1.172  -1.572  0.00  0.00     0.023 H 
ENDBRANCH  35  38
ENDBRANCH  32  35
ENDBRANCH  29  32
ENDBRANCH  27  29
BRANCH  27  42
ATOM     42  C   LIG d   1       5.317  -2.803  -4.158  0.00  0.00    -0.050 C 
ATOM     43  H   LIG d   1       5.680  -3.793  -3.884  0.00  0.00     0.027 H 
ATOM     44  H   LIG d   1       4.233  -2.769  -4.043  0.00  0.00     0.027 H 
BRANCH  42  45
ATOM     45  C   LIG d   1       5.683  -2.512  -5.615  0.00  0.00    -0.065 C 
ATOM     46  H   LIG d   1       4.853  -2.798  -6.263  0.00  0.00     0.023 H 
ATOM     47  H   LIG d   1       5.885  -1.448  -5.733  0.00  0.00     0.023 H 
ATOM     48  H   LIG d   1       6.570  -3.083  -5.888  0.00  0.00     0.023 H 
ENDBRANCH  42  45
ENDBRANCH  27  42
ENDBRANCH  24  27
ENDBRANCH  16  24
ENDBRANCH   7  10
ENDBRANCH   4   7
ENDBRANCH   1   4
BRANCH   1  49
ATOM     49  C   LIG d   1      11.016   5.888  -5.660  0.00  0.00    -0.050 C 
ATOM     50  H   LIG d   1      10.670   5.676  -4.649  0.00  0.00     0.027 H 
ATOM     51  H   LIG d   1      11.264   6.947  -5.744  0.00  0.00     0.027 H 
BRANCH  49  52
ATOM     52  C   LIG d   1       9.912   5.542  -6.661  0.00  0.00    -0.022 C 
ATOM     53  H   LIG d   1       9.000   5.285  -6.121  0.00  0.00     0.030 H 
ATOM     54  H   LIG d   1       9.723   6.400  -7.306  0.00  0.00     0.030 H 
BRANCH  52  55
ATOM     55  C   LIG d   1      10.352   4.350  -7.514  0.00  0.00     0.065 C 
ATOM     56  H   LIG d   1      10.095   4.535  -8.557  0.00  0.00     0.066 H 
ATOM     57  H   LIG d   1      11.431   4.217  -7.424  0.00  0.00     0.066 H 
BRANCH  55  58
ATOM     58  N   LIG d   1       9.670   3.139  -7.050  0.00  0.00    -0.276 N 
ATOM     59  C   LIG d   1       8.638   2.616  -7.777  0.00  0.00     0.390 C 
ATOM     60  N   LIG d   1       8.243   3.221  -8.937  0.00  0.00    -0.289 N 
ATOM     61  N   LIG d   1       8.024   1.525  -7.360  0.00  0.00    -0.006 NA
ATOM     62  H   LIG d   1       8.763   3.953  -9.304  0.00  0.00     0.255 HD
ATOM     63  H   LIG d   1       7.441   2.921  -9.393  0.00  0.00     0.255 HD
ATOM     64  C   LIG d   1       7.081   0.946  -8.130  0.00  0.00     0.390 C 
ATOM     65  N   LIG d   1       7.298   0.786  -9.484  0.00  0.00    -0.289 N 
ATOM     66  N   LIG d   1       5.958   0.536  -7.593  0.00  0.00    -0.275 N 
ATOM     67  H   LIG d   1       8.112   1.124  -9.888  0.00  0.00     0.255 HD
ATOM     68  H   LIG d   1       6.636   0.335 -10.031  0.00  0.00     0.255 HD
ATOM     69  H   LIG d   1       5.806   0.648  -6.642  0.00  0.00     0.258 HD
ATOM     70  H   LIG d   1       9.951   2.709  -6.227  0.00  0.00     0.258 HD
BRANCH  66  71
ATOM     71  C   LIG d   1       4.934  -0.094  -8.429  0.00  0.00     0.068 C 
ATOM     72  H   LIG d   1       5.292  -0.158  -9.457  0.00  0.00     0.066 H 
ATOM     73  H   LIG d   1       4.724  -1.095  -8.055  0.00  0.00     0.066 H 
BRANCH  71  74
ATOM     74  C   LIG d   1       3.655   0.745  -8.387  0.00  0.00    -0.011 C 
ATOM     75  H   LIG d   1       3.648   1.352  -7.483  0.00  0.00     0.033 H 
BRANCH  74  76
ATOM     76  C   LIG d   1       3.604   1.659  -9.614  0.00  0.00    -0.050 C 
ATOM     77  H   LIG d   1       4.248   1.255 -10.395  0.00  0.00     0.027 H 
ATOM     78  H   LIG d   1       2.580   1.717  -9.982  0.00  0.00     0.027 H 
BRANCH  76  79
ATOM     79  C   LIG d   1       4.087   3.058  -9.227  0.00  0.00    -0.065 C 
ATOM     80  H   LIG d   1       3.666   3.791  -9.915  0.00  0.00     0.023 H 
ATOM     81  H   LIG d   1       3.766   3.286  -8.211  0.00  0.00     0.023 H 
ATOM     82  H   LIG d   1       5.176   3.094  -9.280  0.00  0.00     0.023 H 
ENDBRANCH  76  79
ENDBRANCH  74  76
BRANCH  74  83
ATOM     83  C   LIG d   1       2.437  -0.181  -8.391  0.00  0.00    -0.047 C 
ATOM     84  H   LIG d   1       2.011  -0.226  -7.389  0.00  0.00     0.027 H 
ATOM     85  H   LIG d   1       1.691   0.203  -9.087  0.00  0.00     0.027 H 
BRANCH  83  86
ATOM     86  C   LIG d   1       2.865  -1.585  -8.827  0.00  0.00    -0.053 C 
ATOM     87  H   LIG d   1       3.952  -1.626  -8.900  0.00  0.00     0.026 H 
ATOM     88  H   LIG d   1       2.522  -2.313  -8.092  0.00  0.00     0.026 H 
BRANCH  86  89
ATOM     89  C   LIG d   1       2.249  -1.906 -10.190  0.00  0.00    -0.056 C 
ATOM     90  H   LIG d   1       3.011  -1.809 -10.964  0.00  0.00     0.026 H 
ATOM     91  H   LIG d   1       1.864  -2.926 -10.184  0.00  0.00     0.026 H 
BRANCH  89  92
ATOM     92  C   LIG d   1       1.106  -0.930 -10.475  0.00  0.00    -0.065 C 
ATOM     93  H   LIG d   1       0.190  -1.490 -10.668  0.00  0.00     0.023 H 
ATOM     94  H   LIG d   1       0.960  -0.280  -9.612  0.00  0.00     0.023 H 
ATOM     95  H   LIG d   1       1.352  -0.326 -11.348  0.00  0.00     0.023 H 
ENDBRANCH  89  92
ENDBRANCH  86  89
ENDBRANCH  83  86
ENDBRANCH  74  83
ENDBRANCH  71  74
ENDBRANCH  66  71
ENDBRANCH  55  58
ENDBRANCH  52  55
ENDBRANCH  49  52
ENDBRANCH   1  49
TORSDOF 23
ENDMDL
