MODEL 1
REMARK VINA RESULT:      -6.1      0.000      0.000
REMARK  20 active torsions:
REMARK  status: ('A' for Active; 'I' for Inactive)
REMARK    1  A    between atoms: C_1  and  O_2 
REMARK    2  A    between atoms: O_2  and  C_3 
REMARK    3  A    between atoms: C_5  and  C_10 
REMARK    4  A    between atoms: C_8  and  O_9 
REMARK    5  A    between atoms: C_10  and  C_11 
REMARK    6  A    between atoms: C_11  and  C_13 
REMARK    7  A    between atoms: C_11  and  C_31 
REMARK    8  A    between atoms: C_13  and  O_14 
REMARK    9  A    between atoms: O_14  and  C_15 
REMARK   10  A    between atoms: C_17  and  O_30 
REMARK   11  A    between atoms: C_19  and  O_29 
REMARK   12  A    between atoms: C_21  and  O_28 
REMARK   13  A    between atoms: C_23  and  C_26 
REMARK   14  A    between atoms: C_26  and  O_27 
REMARK   15  A    between atoms: C_33  and  C_40 
REMARK   16  A    between atoms: C_35  and  O_38 
REMARK   17  A    between atoms: C_36  and  O_37 
REMARK   18  A    between atoms: O_38  and  C_39 
REMARK   19  A    between atoms: C_41  and  C_42 
REMARK   20  A    between atoms: C_42  and  O_43 
ROOT
ATOM      1  C   LIG d   1       7.352  -2.859  -5.054  0.00  0.00     0.015 C 
ATOM      2  H   LIG d   1       7.553  -1.803  -4.877  0.00  0.00     0.037 H 
ENDROOT
BRANCH   1   3
ATOM      3  C   LIG d   1       6.051  -3.256  -4.354  0.00  0.00    -0.018 C 
ATOM      4  H   LIG d   1       6.255  -4.042  -3.627  0.00  0.00     0.032 H 
ATOM      5  H   LIG d   1       5.337  -3.618  -5.093  0.00  0.00     0.032 H 
BRANCH   3   6
ATOM      6  C   LIG d   1       5.476  -2.056  -3.646  0.00  0.00    -0.043 A 
ATOM      7  C   LIG d   1       6.181  -0.867  -3.621  0.00  0.00    -0.013 A 
ATOM      8  C   LIG d   1       5.654   0.238  -2.971  0.00  0.00     0.162 A 
ATOM      9  H   LIG d   1       7.142  -0.799  -4.109  0.00  0.00     0.066 H 
ATOM     10  C   LIG d   1       4.417   0.145  -2.341  0.00  0.00     0.159 A 
ATOM     11  C   LIG d   1       3.713  -1.047  -2.374  0.00  0.00    -0.016 A 
ATOM     12  C   LIG d   1       4.244  -2.145  -3.024  0.00  0.00    -0.055 A 
ATOM     13  H   LIG d   1       2.750  -1.120  -1.890  0.00  0.00     0.066 H 
ATOM     14  H   LIG d   1       3.696  -3.076  -3.046  0.00  0.00     0.062 H 
BRANCH   8  15
ATOM     15  O   LIG d   1       6.347   1.408  -2.946  0.00  0.00    -0.491 OA
BRANCH  15  16
ATOM     16  C   LIG d   1       7.493   1.502  -3.794  0.00  0.00     0.079 C 
ATOM     17  H   LIG d   1       7.404   0.782  -4.607  0.00  0.00     0.066 H 
ATOM     18  H   LIG d   1       7.558   2.509  -4.206  0.00  0.00     0.066 H 
ATOM     19  H   LIG d   1       8.391   1.287  -3.215  0.00  0.00     0.066 H 
ENDBRANCH  15  16
ENDBRANCH   8  15
BRANCH  10  20
ATOM     20  O   LIG d   1       3.898   1.225  -1.697  0.00  0.00    -0.503 OA
ATOM     21  H   LIG d   1       4.031   1.215  -0.739  0.00  0.00     0.292 HD
ENDBRANCH  10  20
ENDBRANCH   3   6
ENDBRANCH   1   3
BRANCH   1  22
ATOM     22  C   LIG d   1       7.218  -3.108  -6.558  0.00  0.00     0.058 C 
ATOM     23  H   LIG d   1       8.189  -3.388  -6.968  0.00  0.00     0.057 H 
ATOM     24  H   LIG d   1       6.505  -3.915  -6.731  0.00  0.00     0.057 H 
BRANCH  22  25
ATOM     25  O   LIG d   1       6.755  -1.917  -7.198  0.00  0.00    -0.348 OA
BRANCH  25  26
ATOM     26  C   LIG d   1       5.655  -2.125  -8.086  0.00  0.00     0.188 C 
ATOM     27  H   LIG d   1       5.733  -3.114  -8.536  0.00  0.00     0.094 H 
ATOM     28  O   LIG d   1       5.675  -1.131  -9.112  0.00  0.00    -0.341 OA
ATOM     29  C   LIG d   1       5.603   0.211  -8.626  0.00  0.00     0.113 C 
ATOM     30  C   LIG d   1       4.289   0.407  -7.867  0.00  0.00     0.112 C 
ATOM     31  H   LIG d   1       6.442   0.400  -7.956  0.00  0.00     0.065 H 
ATOM     32  C   LIG d   1       4.211  -0.611  -6.725  0.00  0.00     0.114 C 
ATOM     33  H   LIG d   1       4.252   1.417  -7.457  0.00  0.00     0.065 H 
ATOM     34  C   LIG d   1       4.342  -2.022  -7.304  0.00  0.00     0.134 C 
ATOM     35  H   LIG d   1       5.022  -0.430  -6.019  0.00  0.00     0.065 H 
ATOM     36  H   LIG d   1       4.344  -2.751  -6.493  0.00  0.00     0.067 H 
BRANCH  29  37
ATOM     37  C   LIG d   1       5.662   1.184  -9.805  0.00  0.00     0.073 C 
ATOM     38  H   LIG d   1       6.698   1.310 -10.121  0.00  0.00     0.058 H 
ATOM     39  H   LIG d   1       5.076   0.787 -10.634  0.00  0.00     0.058 H 
BRANCH  37  40
ATOM     40  O   LIG d   1       5.129   2.449  -9.408  0.00  0.00    -0.392 OA
ATOM     41  H   LIG d   1       4.380   2.386  -8.800  0.00  0.00     0.209 HD
ENDBRANCH  37  40
ENDBRANCH  29  37
BRANCH  30  42
ATOM     42  O   LIG d   1       3.188   0.212  -8.757  0.00  0.00    -0.387 OA
ATOM     43  H   LIG d   1       3.054   0.939  -9.381  0.00  0.00     0.210 HD
ENDBRANCH  30  42
BRANCH  32  44
ATOM     44  O   LIG d   1       2.956  -0.484  -6.053  0.00  0.00    -0.386 OA
ATOM     45  H   LIG d   1       2.940  -0.879  -5.171  0.00  0.00     0.210 HD
ENDBRANCH  32  44
BRANCH  34  46
ATOM     46  O   LIG d   1       3.243  -2.284  -8.179  0.00  0.00    -0.384 OA
ATOM     47  H   LIG d   1       2.395  -2.386  -7.726  0.00  0.00     0.210 HD
ENDBRANCH  34  46
ENDBRANCH  25  26
ENDBRANCH  22  25
ENDBRANCH   1  22
BRANCH   1  48
ATOM     48  C   LIG d   1       8.489  -3.685  -4.508  0.00  0.00     0.004 A 
ATOM     49  C   LIG d   1       9.721  -3.095  -4.271  0.00  0.00     0.162 A 
ATOM     50  C   LIG d   1      10.772  -3.853  -3.761  0.00  0.00     0.162 A 
ATOM     51  C   LIG d   1      10.592  -5.198  -3.501  0.00  0.00    -0.009 A 
ATOM     52  C   LIG d   1       9.353  -5.794  -3.744  0.00  0.00    -0.021 A 
ATOM     53  H   LIG d   1      11.408  -5.788  -3.109  0.00  0.00     0.066 H 
ATOM     54  C   LIG d   1       8.302  -5.027  -4.250  0.00  0.00    -0.047 A 
ATOM     55  H   LIG d   1       7.343  -5.485  -4.439  0.00  0.00     0.063 H 
BRANCH  49  56
ATOM     56  O   LIG d   1       9.902  -1.772  -4.532  0.00  0.00    -0.503 OA
ATOM     57  H   LIG d   1      10.723  -1.574  -5.003  0.00  0.00     0.292 HD
ENDBRANCH  49  56
BRANCH  50  58
ATOM     58  O   LIG d   1      11.979  -3.271  -3.524  0.00  0.00    -0.491 OA
BRANCH  58  59
ATOM     59  C   LIG d   1      13.035  -3.573  -4.436  0.00  0.00     0.079 C 
ATOM     60  H   LIG d   1      13.086  -4.651  -4.590  0.00  0.00     0.066 H 
ATOM     61  H   LIG d   1      12.846  -3.079  -5.389  0.00  0.00     0.066 H 
ATOM     62  H   LIG d   1      13.982  -3.220  -4.026  0.00  0.00     0.066 H 
ENDBRANCH  58  59
ENDBRANCH  50  58
BRANCH  52  63
ATOM     63  C   LIG d   1       9.155  -7.231  -3.467  0.00  0.00    -0.056 C 
ATOM     64  C   LIG d   1       8.966  -7.648  -2.223  0.00  0.00    -0.058 C 
ATOM     65  H   LIG d   1       8.956  -6.936  -1.411  0.00  0.00     0.059 H 
ATOM     66  H   LIG d   1       9.165  -7.943  -4.279  0.00  0.00     0.062 H 
BRANCH  64  67
ATOM     67  C   LIG d   1       8.765  -9.114  -1.941  0.00  0.00     0.063 C 
ATOM     68  H   LIG d   1       8.390  -9.609  -2.837  0.00  0.00     0.060 H 
ATOM     69  H   LIG d   1       9.716  -9.562  -1.649  0.00  0.00     0.060 H 
BRANCH  67  70
ATOM     70  O   LIG d   1       7.820  -9.270  -0.880  0.00  0.00    -0.391 OA
ATOM     71  H   LIG d   1       8.112  -9.865  -0.177  0.00  0.00     0.210 HD
ENDBRANCH  67  70
ENDBRANCH  64  67
ENDBRANCH  52  63
ENDBRANCH   1  48
TORSDOF 20
ENDMDL
MODEL 2
REMARK VINA RESULT:      -6.0      2.430      3.122
REMARK  20 active torsions:
REMARK  status: ('A' for Active; 'I' for Inactive)
REMARK    1  A    between atoms: C_1  and  O_2 
REMARK    2  A    between atoms: O_2  and  C_3 
REMARK    3  A    between atoms: C_5  and  C_10 
REMARK    4  A    between atoms: C_8  and  O_9 
REMARK    5  A    between atoms: C_10  and  C_11 
REMARK    6  A    between atoms: C_11  and  C_13 
REMARK    7  A    between atoms: C_11  and  C_31 
REMARK    8  A    between atoms: C_13  and  O_14 
REMARK    9  A    between atoms: O_14  and  C_15 
REMARK   10  A    between atoms: C_17  and  O_30 
REMARK   11  A    between atoms: C_19  and  O_29 
REMARK   12  A    between atoms: C_21  and  O_28 
REMARK   13  A    between atoms: C_23  and  C_26 
REMARK   14  A    between atoms: C_26  and  O_27 
REMARK   15  A    between atoms: C_33  and  C_40 
REMARK   16  A    between atoms: C_35  and  O_38 
REMARK   17  A    between atoms: C_36  and  O_37 
REMARK   18  A    between atoms: O_38  and  C_39 
REMARK   19  A    between atoms: C_41  and  C_42 
REMARK   20  A    between atoms: C_42  and  O_43 
ROOT
ATOM      1  C   LIG d   1       5.835  -2.902  -5.529  0.00  0.00     0.015 C 
ATOM      2  H   LIG d   1       6.482  -2.044  -5.352  0.00  0.00     0.037 H 
ENDROOT
BRANCH   1   3
ATOM      3  C   LIG d   1       4.983  -3.165  -4.285  0.00  0.00    -0.018 C 
ATOM      4  H   LIG d   1       5.560  -3.745  -3.565  0.00  0.00     0.032 H 
ATOM      5  H   LIG d   1       4.090  -3.722  -4.569  0.00  0.00     0.032 H 
BRANCH   3   6
ATOM      6  C   LIG d   1       4.581  -1.852  -3.665  0.00  0.00    -0.043 A 
ATOM      7  C   LIG d   1       5.524  -0.855  -3.492  0.00  0.00    -0.013 A 
ATOM      8  C   LIG d   1       5.156   0.354  -2.923  0.00  0.00     0.162 A 
ATOM      9  H   LIG d   1       6.545  -1.017  -3.802  0.00  0.00     0.066 H 
ATOM     10  C   LIG d   1       3.840   0.559  -2.521  0.00  0.00     0.159 A 
ATOM     11  C   LIG d   1       2.899  -0.442  -2.702  0.00  0.00    -0.016 A 
ATOM     12  C   LIG d   1       3.272  -1.645  -3.271  0.00  0.00    -0.055 A 
ATOM     13  H   LIG d   1       1.876  -0.284  -2.396  0.00  0.00     0.066 H 
ATOM     14  H   LIG d   1       2.539  -2.426  -3.408  0.00  0.00     0.062 H 
BRANCH   8  15
ATOM     15  O   LIG d   1       6.082   1.336  -2.752  0.00  0.00    -0.491 OA
BRANCH  15  16
ATOM     16  C   LIG d   1       7.174   1.366  -3.673  0.00  0.00     0.079 C 
ATOM     17  H   LIG d   1       7.732   2.292  -3.545  0.00  0.00     0.066 H 
ATOM     18  H   LIG d   1       7.831   0.517  -3.485  0.00  0.00     0.066 H 
ATOM     19  H   LIG d   1       6.791   1.310  -4.692  0.00  0.00     0.066 H 
ENDBRANCH  15  16
ENDBRANCH   8  15
BRANCH  10  20
ATOM     20  O   LIG d   1       3.476   1.742  -1.957  0.00  0.00    -0.503 OA
ATOM     21  H   LIG d   1       3.782   2.520  -2.442  0.00  0.00     0.292 HD
ENDBRANCH  10  20
ENDBRANCH   3   6
ENDBRANCH   1   3
BRANCH   1  22
ATOM     22  C   LIG d   1       4.920  -2.615  -6.722  0.00  0.00     0.058 C 
ATOM     23  H   LIG d   1       4.698  -3.548  -7.241  0.00  0.00     0.057 H 
ATOM     24  H   LIG d   1       3.992  -2.166  -6.368  0.00  0.00     0.057 H 
BRANCH  22  25
ATOM     25  O   LIG d   1       5.575  -1.715  -7.617  0.00  0.00    -0.348 OA
BRANCH  25  26
ATOM     26  C   LIG d   1       5.736  -0.394  -7.097  0.00  0.00     0.188 C 
ATOM     27  H   LIG d   1       5.962  -0.447  -6.033  0.00  0.00     0.094 H 
ATOM     28  O   LIG d   1       4.529   0.346  -7.292  0.00  0.00    -0.341 OA
ATOM     29  C   LIG d   1       4.125   0.455  -8.659  0.00  0.00     0.113 C 
ATOM     30  C   LIG d   1       5.208   1.189  -9.452  0.00  0.00     0.112 C 
ATOM     31  H   LIG d   1       3.981  -0.542  -9.075  0.00  0.00     0.065 H 
ATOM     32  C   LIG d   1       6.533   0.432  -9.314  0.00  0.00     0.114 C 
ATOM     33  H   LIG d   1       4.922   1.234 -10.503  0.00  0.00     0.065 H 
ATOM     34  C   LIG d   1       6.884   0.307  -7.830  0.00  0.00     0.134 C 
ATOM     35  H   LIG d   1       6.431  -0.562  -9.750  0.00  0.00     0.065 H 
ATOM     36  H   LIG d   1       7.797  -0.279  -7.718  0.00  0.00     0.067 H 
BRANCH  29  37
ATOM     37  C   LIG d   1       2.813   1.237  -8.741  0.00  0.00     0.073 C 
ATOM     38  H   LIG d   1       2.715   1.680  -9.732  0.00  0.00     0.058 H 
ATOM     39  H   LIG d   1       1.975   0.562  -8.562  0.00  0.00     0.058 H 
BRANCH  37  40
ATOM     40  O   LIG d   1       2.810   2.271  -7.755  0.00  0.00    -0.392 OA
ATOM     41  H   LIG d   1       3.305   2.052  -6.955  0.00  0.00     0.209 HD
ENDBRANCH  37  40
ENDBRANCH  29  37
BRANCH  30  42
ATOM     42  O   LIG d   1       5.361   2.515  -8.941  0.00  0.00    -0.387 OA
ATOM     43  H   LIG d   1       5.681   2.550  -8.029  0.00  0.00     0.210 HD
ENDBRANCH  30  42
BRANCH  32  44
ATOM     44  O   LIG d   1       7.567   1.147  -9.992  0.00  0.00    -0.386 OA
ATOM     45  H   LIG d   1       7.609   2.086  -9.769  0.00  0.00     0.210 HD
ENDBRANCH  32  44
BRANCH  34  46
ATOM     46  O   LIG d   1       7.082   1.608  -7.273  0.00  0.00    -0.384 OA
ATOM     47  H   LIG d   1       7.705   1.629  -6.533  0.00  0.00     0.210 HD
ENDBRANCH  34  46
ENDBRANCH  25  26
ENDBRANCH  22  25
ENDBRANCH   1  22
BRANCH   1  48
ATOM     48  C   LIG d   1       6.680  -4.115  -5.825  0.00  0.00     0.004 A 
ATOM     49  C   LIG d   1       7.934  -3.961  -6.396  0.00  0.00     0.162 A 
ATOM     50  C   LIG d   1       8.721  -5.078  -6.665  0.00  0.00     0.162 A 
ATOM     51  C   LIG d   1       8.248  -6.344  -6.374  0.00  0.00    -0.009 A 
ATOM     52  C   LIG d   1       6.983  -6.499  -5.804  0.00  0.00    -0.021 A 
ATOM     53  H   LIG d   1       8.856  -7.212  -6.587  0.00  0.00     0.066 H 
ATOM     54  C   LIG d   1       6.202  -5.375  -5.531  0.00  0.00    -0.047 A 
ATOM     55  H   LIG d   1       5.224  -5.493  -5.090  0.00  0.00     0.063 H 
BRANCH  49  56
ATOM     56  O   LIG d   1       8.399  -2.717  -6.688  0.00  0.00    -0.503 OA
ATOM     57  H   LIG d   1       9.337  -2.591  -6.486  0.00  0.00     0.292 HD
ENDBRANCH  49  56
BRANCH  50  58
ATOM     58  O   LIG d   1       9.954  -4.925  -7.221  0.00  0.00    -0.491 OA
BRANCH  58  59
ATOM     59  C   LIG d   1      10.102  -5.311  -8.588  0.00  0.00     0.079 C 
ATOM     60  H   LIG d   1      10.204  -4.420  -9.208  0.00  0.00     0.066 H 
ATOM     61  H   LIG d   1      10.990  -5.932  -8.696  0.00  0.00     0.066 H 
ATOM     62  H   LIG d   1       9.223  -5.874  -8.905  0.00  0.00     0.066 H 
ENDBRANCH  58  59
ENDBRANCH  50  58
BRANCH  52  63
ATOM     63  C   LIG d   1       6.473  -7.850  -5.491  0.00  0.00    -0.056 C 
ATOM     64  C   LIG d   1       5.176  -8.041  -5.296  0.00  0.00    -0.058 C 
ATOM     65  H   LIG d   1       4.491  -7.209  -5.367  0.00  0.00     0.059 H 
ATOM     66  H   LIG d   1       7.158  -8.682  -5.420  0.00  0.00     0.062 H 
BRANCH  64  67
ATOM     67  C   LIG d   1       4.656  -9.419  -4.977  0.00  0.00     0.063 C 
ATOM     68  H   LIG d   1       4.177  -9.841  -5.860  0.00  0.00     0.060 H 
ATOM     69  H   LIG d   1       5.486 -10.059  -4.673  0.00  0.00     0.060 H 
BRANCH  67  70
ATOM     70  O   LIG d   1       3.705  -9.336  -3.914  0.00  0.00    -0.391 OA
ATOM     71  H   LIG d   1       4.098  -9.364  -3.031  0.00  0.00     0.210 HD
ENDBRANCH  67  70
ENDBRANCH  64  67
ENDBRANCH  52  63
ENDBRANCH   1  48
TORSDOF 20
ENDMDL
MODEL 3
REMARK VINA RESULT:      -6.0      1.646      2.358
REMARK  20 active torsions:
REMARK  status: ('A' for Active; 'I' for Inactive)
REMARK    1  A    between atoms: C_1  and  O_2 
REMARK    2  A    between atoms: O_2  and  C_3 
REMARK    3  A    between atoms: C_5  and  C_10 
REMARK    4  A    between atoms: C_8  and  O_9 
REMARK    5  A    between atoms: C_10  and  C_11 
REMARK    6  A    between atoms: C_11  and  C_13 
REMARK    7  A    between atoms: C_11  and  C_31 
REMARK    8  A    between atoms: C_13  and  O_14 
REMARK    9  A    between atoms: O_14  and  C_15 
REMARK   10  A    between atoms: C_17  and  O_30 
REMARK   11  A    between atoms: C_19  and  O_29 
REMARK   12  A    between atoms: C_21  and  O_28 
REMARK   13  A    between atoms: C_23  and  C_26 
REMARK   14  A    between atoms: C_26  and  O_27 
REMARK   15  A    between atoms: C_33  and  C_40 
REMARK   16  A    between atoms: C_35  and  O_38 
REMARK   17  A    between atoms: C_36  and  O_37 
REMARK   18  A    between atoms: O_38  and  C_39 
REMARK   19  A    between atoms: C_41  and  C_42 
REMARK   20  A    between atoms: C_42  and  O_43 
ROOT
ATOM      1  C   LIG d   1       6.655  -2.849  -5.421  0.00  0.00     0.015 C 
ATOM      2  H   LIG d   1       7.086  -1.865  -5.236  0.00  0.00     0.037 H 
ENDROOT
BRANCH   1   3
ATOM      3  C   LIG d   1       5.319  -2.967  -4.685  0.00  0.00    -0.018 C 
ATOM      4  H   LIG d   1       5.300  -3.895  -4.114  0.00  0.00     0.032 H 
ATOM      5  H   LIG d   1       4.505  -2.968  -5.409  0.00  0.00     0.032 H 
BRANCH   3   6
ATOM      6  C   LIG d   1       5.157  -1.798  -3.747  0.00  0.00    -0.043 A 
ATOM      7  C   LIG d   1       5.901  -0.649  -3.943  0.00  0.00    -0.013 A 
ATOM      8  C   LIG d   1       5.753   0.427  -3.082  0.00  0.00     0.162 A 
ATOM      9  H   LIG d   1       6.596  -0.590  -4.767  0.00  0.00     0.066 H 
ATOM     10  C   LIG d   1       4.860   0.345  -2.019  0.00  0.00     0.159 A 
ATOM     11  C   LIG d   1       4.113  -0.807  -1.831  0.00  0.00    -0.016 A 
ATOM     12  C   LIG d   1       4.265  -1.877  -2.693  0.00  0.00    -0.055 A 
ATOM     13  H   LIG d   1       3.415  -0.871  -1.009  0.00  0.00     0.066 H 
ATOM     14  H   LIG d   1       3.686  -2.776  -2.543  0.00  0.00     0.062 H 
BRANCH   8  15
ATOM     15  O   LIG d   1       6.484   1.557  -3.274  0.00  0.00    -0.491 OA
BRANCH  15  16
ATOM     16  C   LIG d   1       7.735   1.414  -3.949  0.00  0.00     0.079 C 
ATOM     17  H   LIG d   1       7.602   1.623  -5.010  0.00  0.00     0.066 H 
ATOM     18  H   LIG d   1       8.457   2.115  -3.529  0.00  0.00     0.066 H 
ATOM     19  H   LIG d   1       8.102   0.396  -3.822  0.00  0.00     0.066 H 
ENDBRANCH  15  16
ENDBRANCH   8  15
BRANCH  10  20
ATOM     20  O   LIG d   1       4.715   1.397  -1.169  0.00  0.00    -0.503 OA
ATOM     21  H   LIG d   1       5.051   2.234  -1.517  0.00  0.00     0.292 HD
ENDBRANCH  10  20
ENDBRANCH   3   6
ENDBRANCH   1   3
BRANCH   1  22
ATOM     22  C   LIG d   1       6.427  -3.032  -6.923  0.00  0.00     0.058 C 
ATOM     23  H   LIG d   1       7.252  -2.578  -7.473  0.00  0.00     0.057 H 
ATOM     24  H   LIG d   1       6.377  -4.096  -7.156  0.00  0.00     0.057 H 
BRANCH  22  25
ATOM     25  O   LIG d   1       5.201  -2.402  -7.298  0.00  0.00    -0.348 OA
BRANCH  25  26
ATOM     26  C   LIG d   1       5.355  -1.059  -7.761  0.00  0.00     0.188 C 
ATOM     27  H   LIG d   1       6.416  -0.822  -7.839  0.00  0.00     0.094 H 
ATOM     28  O   LIG d   1       4.733  -0.162  -6.839  0.00  0.00    -0.341 OA
ATOM     29  C   LIG d   1       3.338  -0.404  -6.640  0.00  0.00     0.113 C 
ATOM     30  C   LIG d   1       2.599  -0.232  -7.969  0.00  0.00     0.112 C 
ATOM     31  H   LIG d   1       3.194  -1.419  -6.272  0.00  0.00     0.065 H 
ATOM     32  C   LIG d   1       3.195  -1.190  -9.005  0.00  0.00     0.114 C 
ATOM     33  H   LIG d   1       1.542  -0.459  -7.829  0.00  0.00     0.065 H 
ATOM     34  C   LIG d   1       4.695  -0.914  -9.135  0.00  0.00     0.134 C 
ATOM     35  H   LIG d   1       3.041  -2.219  -8.680  0.00  0.00     0.065 H 
ATOM     36  H   LIG d   1       5.139  -1.628  -9.829  0.00  0.00     0.067 H 
BRANCH  29  37
ATOM     37  C   LIG d   1       2.789   0.592  -5.617  0.00  0.00     0.073 C 
ATOM     38  H   LIG d   1       3.616   1.046  -5.071  0.00  0.00     0.058 H 
ATOM     39  H   LIG d   1       2.225   1.370  -6.133  0.00  0.00     0.058 H 
BRANCH  37  40
ATOM     40  O   LIG d   1       1.930  -0.089  -4.701  0.00  0.00    -0.392 OA
ATOM     41  H   LIG d   1       2.278  -0.141  -3.800  0.00  0.00     0.209 HD
ENDBRANCH  37  40
ENDBRANCH  29  37
BRANCH  30  42
ATOM     42  O   LIG d   1       2.742   1.114  -8.426  0.00  0.00    -0.387 OA
ATOM     43  H   LIG d   1       1.907   1.598  -8.493  0.00  0.00     0.210 HD
ENDBRANCH  30  42
BRANCH  32  44
ATOM     44  O   LIG d   1       2.560  -0.988 -10.268  0.00  0.00    -0.386 OA
ATOM     45  H   LIG d   1       1.595  -1.038 -10.237  0.00  0.00     0.210 HD
ENDBRANCH  32  44
BRANCH  34  46
ATOM     46  O   LIG d   1       4.897   0.414  -9.624  0.00  0.00    -0.384 OA
ATOM     47  H   LIG d   1       4.091   0.948  -9.656  0.00  0.00     0.210 HD
ENDBRANCH  34  46
ENDBRANCH  25  26
ENDBRANCH  22  25
ENDBRANCH   1  22
BRANCH   1  48
ATOM     48  C   LIG d   1       7.599  -3.913  -4.922  0.00  0.00     0.004 A 
ATOM     49  C   LIG d   1       8.682  -3.561  -4.131  0.00  0.00     0.162 A 
ATOM     50  C   LIG d   1       9.554  -4.542  -3.663  0.00  0.00     0.162 A 
ATOM     51  C   LIG d   1       9.347  -5.867  -3.998  0.00  0.00    -0.009 A 
ATOM     52  C   LIG d   1       8.260  -6.220  -4.799  0.00  0.00    -0.021 A 
ATOM     53  H   LIG d   1      10.025  -6.628  -3.639  0.00  0.00     0.066 H 
ATOM     54  C   LIG d   1       7.387  -5.234  -5.260  0.00  0.00    -0.047 A 
ATOM     55  H   LIG d   1       6.546  -5.505  -5.879  0.00  0.00     0.063 H 
BRANCH  49  56
ATOM     56  O   LIG d   1       8.890  -2.257  -3.806  0.00  0.00    -0.503 OA
ATOM     57  H   LIG d   1       8.078  -1.739  -3.722  0.00  0.00     0.292 HD
ENDBRANCH  49  56
BRANCH  50  58
ATOM     58  O   LIG d   1      10.612  -4.195  -2.882  0.00  0.00    -0.491 OA
BRANCH  58  59
ATOM     59  C   LIG d   1      11.895  -4.153  -3.509  0.00  0.00     0.079 C 
ATOM     60  H   LIG d   1      12.391  -5.115  -3.388  0.00  0.00     0.066 H 
ATOM     61  H   LIG d   1      11.773  -3.937  -4.570  0.00  0.00     0.066 H 
ATOM     62  H   LIG d   1      12.500  -3.372  -3.047  0.00  0.00     0.066 H 
ENDBRANCH  58  59
ENDBRANCH  50  58
BRANCH  52  63
ATOM     63  C   LIG d   1       8.035  -7.636  -5.159  0.00  0.00    -0.056 C 
ATOM     64  C   LIG d   1       6.874  -8.214  -4.883  0.00  0.00    -0.058 C 
ATOM     65  H   LIG d   1       6.093  -7.651  -4.395  0.00  0.00     0.059 H 
ATOM     66  H   LIG d   1       8.816  -8.199  -5.647  0.00  0.00     0.062 H 
BRANCH  64  67
ATOM     67  C   LIG d   1       6.645  -9.658  -5.250  0.00  0.00     0.063 C 
ATOM     68  H   LIG d   1       6.450  -9.735  -6.319  0.00  0.00     0.060 H 
ATOM     69  H   LIG d   1       7.532 -10.241  -4.999  0.00  0.00     0.060 H 
BRANCH  67  70
ATOM     70  O   LIG d   1       5.523 -10.162  -4.524  0.00  0.00    -0.391 OA
ATOM     71  H   LIG d   1       5.547 -11.117  -4.374  0.00  0.00     0.210 HD
ENDBRANCH  67  70
ENDBRANCH  64  67
ENDBRANCH  52  63
ENDBRANCH   1  48
TORSDOF 20
ENDMDL
MODEL 4
REMARK VINA RESULT:      -5.9      2.659      3.165
REMARK  20 active torsions:
REMARK  status: ('A' for Active; 'I' for Inactive)
REMARK    1  A    between atoms: C_1  and  O_2 
REMARK    2  A    between atoms: O_2  and  C_3 
REMARK    3  A    between atoms: C_5  and  C_10 
REMARK    4  A    between atoms: C_8  and  O_9 
REMARK    5  A    between atoms: C_10  and  C_11 
REMARK    6  A    between atoms: C_11  and  C_13 
REMARK    7  A    between atoms: C_11  and  C_31 
REMARK    8  A    between atoms: C_13  and  O_14 
REMARK    9  A    between atoms: O_14  and  C_15 
REMARK   10  A    between atoms: C_17  and  O_30 
REMARK   11  A    between atoms: C_19  and  O_29 
REMARK   12  A    between atoms: C_21  and  O_28 
REMARK   13  A    between atoms: C_23  and  C_26 
REMARK   14  A    between atoms: C_26  and  O_27 
REMARK   15  A    between atoms: C_33  and  C_40 
REMARK   16  A    between atoms: C_35  and  O_38 
REMARK   17  A    between atoms: C_36  and  O_37 
REMARK   18  A    between atoms: O_38  and  C_39 
REMARK   19  A    between atoms: C_41  and  C_42 
REMARK   20  A    between atoms: C_42  and  O_43 
ROOT
ATOM      1  C   LIG d   1       5.137  -3.894  -5.609  0.00  0.00     0.015 C 
ATOM      2  H   LIG d   1       5.912  -3.129  -5.638  0.00  0.00     0.037 H 
ENDROOT
BRANCH   1   3
ATOM      3  C   LIG d   1       4.248  -3.674  -4.382  0.00  0.00    -0.018 C 
ATOM      4  H   LIG d   1       4.436  -4.460  -3.652  0.00  0.00     0.032 H 
ATOM      5  H   LIG d   1       3.201  -3.698  -4.684  0.00  0.00     0.032 H 
BRANCH   3   6
ATOM      6  C   LIG d   1       4.563  -2.333  -3.768  0.00  0.00    -0.043 A 
ATOM      7  C   LIG d   1       5.332  -1.420  -4.466  0.00  0.00    -0.013 A 
ATOM      8  C   LIG d   1       5.622  -0.187  -3.903  0.00  0.00     0.162 A 
ATOM      9  H   LIG d   1       5.705  -1.666  -5.449  0.00  0.00     0.066 H 
ATOM     10  C   LIG d   1       5.144   0.126  -2.635  0.00  0.00     0.159 A 
ATOM     11  C   LIG d   1       4.370  -0.792  -1.944  0.00  0.00    -0.016 A 
ATOM     12  C   LIG d   1       4.084  -2.020  -2.510  0.00  0.00    -0.055 A 
ATOM     13  H   LIG d   1       3.993  -0.550  -0.961  0.00  0.00     0.066 H 
ATOM     14  H   LIG d   1       3.484  -2.736  -1.969  0.00  0.00     0.062 H 
BRANCH   8  15
ATOM     15  O   LIG d   1       6.378   0.713  -4.588  0.00  0.00    -0.491 OA
BRANCH  15  16
ATOM     16  C   LIG d   1       7.175   0.208  -5.662  0.00  0.00     0.079 C 
ATOM     17  H   LIG d   1       6.528  -0.078  -6.490  0.00  0.00     0.066 H 
ATOM     18  H   LIG d   1       7.869   0.980  -5.993  0.00  0.00     0.066 H 
ATOM     19  H   LIG d   1       7.734  -0.663  -5.320  0.00  0.00     0.066 H 
ENDBRANCH  15  16
ENDBRANCH   8  15
BRANCH  10  20
ATOM     20  O   LIG d   1       5.431   1.332  -2.077  0.00  0.00    -0.503 OA
ATOM     21  H   LIG d   1       5.695   1.284  -1.148  0.00  0.00     0.292 HD
ENDBRANCH  10  20
ENDBRANCH   3   6
ENDBRANCH   1   3
BRANCH   1  22
ATOM     22  C   LIG d   1       4.285  -3.808  -6.877  0.00  0.00     0.058 C 
ATOM     23  H   LIG d   1       4.721  -4.440  -7.651  0.00  0.00     0.057 H 
ATOM     24  H   LIG d   1       3.272  -4.148  -6.659  0.00  0.00     0.057 H 
BRANCH  22  25
ATOM     25  O   LIG d   1       4.245  -2.454  -7.333  0.00  0.00    -0.348 OA
BRANCH  25  26
ATOM     26  C   LIG d   1       4.480  -2.306  -8.734  0.00  0.00     0.188 C 
ATOM     27  H   LIG d   1       5.054  -3.158  -9.099  0.00  0.00     0.094 H 
ATOM     28  O   LIG d   1       5.211  -1.102  -8.972  0.00  0.00    -0.341 OA
ATOM     29  C   LIG d   1       4.555   0.080  -8.506  0.00  0.00     0.113 C 
ATOM     30  C   LIG d   1       3.219   0.241  -9.234  0.00  0.00     0.112 C 
ATOM     31  H   LIG d   1       4.378  -0.001  -7.434  0.00  0.00     0.065 H 
ATOM     32  C   LIG d   1       2.364  -1.008  -8.998  0.00  0.00     0.114 C 
ATOM     33  H   LIG d   1       2.697   1.117  -8.849  0.00  0.00     0.065 H 
ATOM     34  C   LIG d   1       3.139  -2.241  -9.472  0.00  0.00     0.134 C 
ATOM     35  H   LIG d   1       2.143  -1.103  -7.934  0.00  0.00     0.065 H 
ATOM     36  H   LIG d   1       2.561  -3.140  -9.256  0.00  0.00     0.067 H 
BRANCH  29  37
ATOM     37  C   LIG d   1       5.439   1.297  -8.786  0.00  0.00     0.073 C 
ATOM     38  H   LIG d   1       6.145   1.430  -7.967  0.00  0.00     0.058 H 
ATOM     39  H   LIG d   1       5.988   1.141  -9.716  0.00  0.00     0.058 H 
BRANCH  37  40
ATOM     40  O   LIG d   1       4.622   2.463  -8.906  0.00  0.00    -0.392 OA
ATOM     41  H   LIG d   1       3.939   2.397  -9.586  0.00  0.00     0.209 HD
ENDBRANCH  37  40
ENDBRANCH  29  37
BRANCH  30  42
ATOM     42  O   LIG d   1       3.453   0.401 -10.635  0.00  0.00    -0.387 OA
ATOM     43  H   LIG d   1       3.480   1.323 -10.925  0.00  0.00     0.210 HD
ENDBRANCH  30  42
BRANCH  32  44
ATOM     44  O   LIG d   1       1.142  -0.900  -9.732  0.00  0.00    -0.386 OA
ATOM     45  H   LIG d   1       0.537  -0.228  -9.391  0.00  0.00     0.210 HD
ENDBRANCH  32  44
BRANCH  34  46
ATOM     46  O   LIG d   1       3.371  -2.149 -10.879  0.00  0.00    -0.384 OA
ATOM     47  H   LIG d   1       2.639  -1.756 -11.374  0.00  0.00     0.210 HD
ENDBRANCH  34  46
ENDBRANCH  25  26
ENDBRANCH  22  25
ENDBRANCH   1  22
BRANCH   1  48
ATOM     48  C   LIG d   1       5.779  -5.255  -5.526  0.00  0.00     0.004 A 
ATOM     49  C   LIG d   1       7.158  -5.374  -5.584  0.00  0.00     0.162 A 
ATOM     50  C   LIG d   1       7.757  -6.629  -5.502  0.00  0.00     0.162 A 
ATOM     51  C   LIG d   1       6.973  -7.761  -5.374  0.00  0.00    -0.009 A 
ATOM     52  C   LIG d   1       5.583  -7.642  -5.321  0.00  0.00    -0.021 A 
ATOM     53  H   LIG d   1       7.436  -8.736  -5.316  0.00  0.00     0.066 H 
ATOM     54  C   LIG d   1       4.991  -6.381  -5.399  0.00  0.00    -0.047 A 
ATOM     55  H   LIG d   1       3.916  -6.286  -5.357  0.00  0.00     0.063 H 
BRANCH  49  56
ATOM     56  O   LIG d   1       7.931  -4.262  -5.715  0.00  0.00    -0.503 OA
ATOM     57  H   LIG d   1       8.880  -4.434  -5.655  0.00  0.00     0.292 HD
ENDBRANCH  49  56
BRANCH  50  58
ATOM     58  O   LIG d   1       9.111  -6.743  -5.554  0.00  0.00    -0.491 OA
BRANCH  58  59
ATOM     59  C   LIG d   1       9.788  -7.005  -4.324  0.00  0.00     0.079 C 
ATOM     60  H   LIG d   1      10.857  -6.836  -4.455  0.00  0.00     0.066 H 
ATOM     61  H   LIG d   1       9.407  -6.339  -3.551  0.00  0.00     0.066 H 
ATOM     62  H   LIG d   1       9.618  -8.040  -4.028  0.00  0.00     0.066 H 
ENDBRANCH  58  59
ENDBRANCH  50  58
BRANCH  52  63
ATOM     63  C   LIG d   1       4.741  -8.849  -5.185  0.00  0.00    -0.056 C 
ATOM     64  C   LIG d   1       4.576  -9.412  -3.996  0.00  0.00    -0.058 C 
ATOM     65  H   LIG d   1       5.057  -8.988  -3.127  0.00  0.00     0.059 H 
ATOM     66  H   LIG d   1       4.261  -9.273  -6.054  0.00  0.00     0.062 H 
BRANCH  64  67
ATOM     67  C   LIG d   1       3.718 -10.642  -3.857  0.00  0.00     0.063 C 
ATOM     68  H   LIG d   1       3.612 -11.123  -4.829  0.00  0.00     0.060 H 
ATOM     69  H   LIG d   1       4.188 -11.336  -3.158  0.00  0.00     0.060 H 
BRANCH  67  70
ATOM     70  O   LIG d   1       2.429 -10.272  -3.366  0.00  0.00    -0.391 OA
ATOM     71  H   LIG d   1       1.826  -9.948  -4.048  0.00  0.00     0.210 HD
ENDBRANCH  67  70
ENDBRANCH  64  67
ENDBRANCH  52  63
ENDBRANCH   1  48
TORSDOF 20
ENDMDL
MODEL 5
REMARK VINA RESULT:      -5.9      1.679      1.813
REMARK  20 active torsions:
REMARK  status: ('A' for Active; 'I' for Inactive)
REMARK    1  A    between atoms: C_1  and  O_2 
REMARK    2  A    between atoms: O_2  and  C_3 
REMARK    3  A    between atoms: C_5  and  C_10 
REMARK    4  A    between atoms: C_8  and  O_9 
REMARK    5  A    between atoms: C_10  and  C_11 
REMARK    6  A    between atoms: C_11  and  C_13 
REMARK    7  A    between atoms: C_11  and  C_31 
REMARK    8  A    between atoms: C_13  and  O_14 
REMARK    9  A    between atoms: O_14  and  C_15 
REMARK   10  A    between atoms: C_17  and  O_30 
REMARK   11  A    between atoms: C_19  and  O_29 
REMARK   12  A    between atoms: C_21  and  O_28 
REMARK   13  A    between atoms: C_23  and  C_26 
REMARK   14  A    between atoms: C_26  and  O_27 
REMARK   15  A    between atoms: C_33  and  C_40 
REMARK   16  A    between atoms: C_35  and  O_38 
REMARK   17  A    between atoms: C_36  and  O_37 
REMARK   18  A    between atoms: O_38  and  C_39 
REMARK   19  A    between atoms: C_41  and  C_42 
REMARK   20  A    between atoms: C_42  and  O_43 
ROOT
ATOM      1  C   LIG d   1       6.695  -3.007  -5.402  0.00  0.00     0.015 C 
ATOM      2  H   LIG d   1       7.209  -2.091  -5.113  0.00  0.00     0.037 H 
ENDROOT
BRANCH   1   3
ATOM      3  C   LIG d   1       5.306  -3.038  -4.759  0.00  0.00    -0.018 C 
ATOM      4  H   LIG d   1       5.182  -3.969  -4.207  0.00  0.00     0.032 H 
ATOM      5  H   LIG d   1       4.545  -2.970  -5.535  0.00  0.00     0.032 H 
BRANCH   3   6
ATOM      6  C   LIG d   1       5.165  -1.872  -3.814  0.00  0.00    -0.043 A 
ATOM      7  C   LIG d   1       5.981  -0.765  -3.958  0.00  0.00    -0.013 A 
ATOM      8  C   LIG d   1       5.853   0.308  -3.090  0.00  0.00     0.162 A 
ATOM      9  H   LIG d   1       6.718  -0.736  -4.746  0.00  0.00     0.066 H 
ATOM     10  C   LIG d   1       4.906   0.265  -2.072  0.00  0.00     0.159 A 
ATOM     11  C   LIG d   1       4.086  -0.844  -1.936  0.00  0.00    -0.016 A 
ATOM     12  C   LIG d   1       4.220  -1.911  -2.805  0.00  0.00    -0.055 A 
ATOM     13  H   LIG d   1       3.347  -0.877  -1.150  0.00  0.00     0.066 H 
ATOM     14  H   LIG d   1       3.584  -2.777  -2.696  0.00  0.00     0.062 H 
BRANCH   8  15
ATOM     15  O   LIG d   1       6.655   1.397  -3.230  0.00  0.00    -0.491 OA
BRANCH  15  16
ATOM     16  C   LIG d   1       7.869   1.219  -3.963  0.00  0.00     0.079 C 
ATOM     17  H   LIG d   1       7.745   0.407  -4.679  0.00  0.00     0.066 H 
ATOM     18  H   LIG d   1       8.109   2.138  -4.496  0.00  0.00     0.066 H 
ATOM     19  H   LIG d   1       8.677   0.976  -3.274  0.00  0.00     0.066 H 
ENDBRANCH  15  16
ENDBRANCH   8  15
BRANCH  10  20
ATOM     20  O   LIG d   1       4.779   1.314  -1.214  0.00  0.00    -0.503 OA
ATOM     21  H   LIG d   1       3.997   1.267  -0.648  0.00  0.00     0.292 HD
ENDBRANCH  10  20
ENDBRANCH   3   6
ENDBRANCH   1   3
BRANCH   1  22
ATOM     22  C   LIG d   1       6.551  -3.054  -6.925  0.00  0.00     0.058 C 
ATOM     23  H   LIG d   1       7.502  -3.348  -7.370  0.00  0.00     0.057 H 
ATOM     24  H   LIG d   1       5.784  -3.780  -7.195  0.00  0.00     0.057 H 
BRANCH  22  25
ATOM     25  O   LIG d   1       6.178  -1.762  -7.408  0.00  0.00    -0.348 OA
BRANCH  25  26
ATOM     26  C   LIG d   1       5.123  -1.786  -8.372  0.00  0.00     0.188 C 
ATOM     27  H   LIG d   1       5.180  -2.708  -8.950  0.00  0.00     0.094 H 
ATOM     28  O   LIG d   1       5.252  -0.665  -9.248  0.00  0.00    -0.341 OA
ATOM     29  C   LIG d   1       5.217   0.602  -8.585  0.00  0.00     0.113 C 
ATOM     30  C   LIG d   1       3.872   0.766  -7.875  0.00  0.00     0.112 C 
ATOM     31  H   LIG d   1       6.023   0.651  -7.853  0.00  0.00     0.065 H 
ATOM     32  C   LIG d   1       3.677  -0.391  -6.891  0.00  0.00     0.114 C 
ATOM     33  H   LIG d   1       3.860   1.712  -7.332  0.00  0.00     0.065 H 
ATOM     34  C   LIG d   1       3.773  -1.715  -7.652  0.00  0.00     0.134 C 
ATOM     35  H   LIG d   1       4.453  -0.353  -6.126  0.00  0.00     0.065 H 
ATOM     36  H   LIG d   1       3.691  -2.547  -6.951  0.00  0.00     0.067 H 
BRANCH  29  37
ATOM     37  C   LIG d   1       5.393   1.720  -9.613  0.00  0.00     0.073 C 
ATOM     38  H   LIG d   1       6.447   1.990  -9.681  0.00  0.00     0.058 H 
ATOM     39  H   LIG d   1       5.043   1.377 -10.587  0.00  0.00     0.058 H 
BRANCH  37  40
ATOM     40  O   LIG d   1       4.635   2.863  -9.210  0.00  0.00    -0.392 OA
ATOM     41  H   LIG d   1       4.664   3.595  -9.840  0.00  0.00     0.209 HD
ENDBRANCH  37  40
ENDBRANCH  29  37
BRANCH  30  42
ATOM     42  O   LIG d   1       2.817   0.756  -8.839  0.00  0.00    -0.387 OA
ATOM     43  H   LIG d   1       2.569   1.634  -9.160  0.00  0.00     0.210 HD
ENDBRANCH  30  42
BRANCH  32  44
ATOM     44  O   LIG d   1       2.392  -0.286  -6.274  0.00  0.00    -0.386 OA
ATOM     45  H   LIG d   1       2.193   0.593  -5.925  0.00  0.00     0.210 HD
ENDBRANCH  32  44
BRANCH  34  46
ATOM     46  O   LIG d   1       2.716  -1.795  -8.611  0.00  0.00    -0.384 OA
ATOM     47  H   LIG d   1       2.114  -2.539  -8.473  0.00  0.00     0.210 HD
ENDBRANCH  34  46
ENDBRANCH  25  26
ENDBRANCH  22  25
ENDBRANCH   1  22
BRANCH   1  48
ATOM     48  C   LIG d   1       7.491  -4.198  -4.935  0.00  0.00     0.004 A 
ATOM     49  C   LIG d   1       8.610  -4.012  -4.138  0.00  0.00     0.162 A 
ATOM     50  C   LIG d   1       9.346  -5.111  -3.699  0.00  0.00     0.162 A 
ATOM     51  C   LIG d   1       8.968  -6.388  -4.067  0.00  0.00    -0.009 A 
ATOM     52  C   LIG d   1       7.843  -6.575  -4.874  0.00  0.00    -0.021 A 
ATOM     53  H   LIG d   1       9.540  -7.240  -3.731  0.00  0.00     0.066 H 
ATOM     54  C   LIG d   1       7.108  -5.470  -5.306  0.00  0.00    -0.047 A 
ATOM     55  H   LIG d   1       6.238  -5.613  -5.929  0.00  0.00     0.063 H 
BRANCH  49  56
ATOM     56  O   LIG d   1       8.987  -2.756  -3.779  0.00  0.00    -0.503 OA
ATOM     57  H   LIG d   1       9.914  -2.686  -3.511  0.00  0.00     0.292 HD
ENDBRANCH  49  56
BRANCH  50  58
ATOM     58  O   LIG d   1      10.441  -4.927  -2.913  0.00  0.00    -0.491 OA
BRANCH  58  59
ATOM     59  C   LIG d   1      11.717  -5.008  -3.548  0.00  0.00     0.079 C 
ATOM     60  H   LIG d   1      11.720  -4.382  -4.440  0.00  0.00     0.066 H 
ATOM     61  H   LIG d   1      12.488  -4.663  -2.860  0.00  0.00     0.066 H 
ATOM     62  H   LIG d   1      11.918  -6.042  -3.831  0.00  0.00     0.066 H 
ENDBRANCH  58  59
ENDBRANCH  50  58
BRANCH  52  63
ATOM     63  C   LIG d   1       7.435  -7.938  -5.270  0.00  0.00    -0.056 C 
ATOM     64  C   LIG d   1       6.176  -8.325  -5.118  0.00  0.00    -0.058 C 
ATOM     65  H   LIG d   1       5.448  -7.642  -4.704  0.00  0.00     0.059 H 
ATOM     66  H   LIG d   1       8.163  -8.621  -5.683  0.00  0.00     0.062 H 
BRANCH  64  67
ATOM     67  C   LIG d   1       5.760  -9.716  -5.522  0.00  0.00     0.063 C 
ATOM     68  H   LIG d   1       6.241  -9.980  -6.463  0.00  0.00     0.060 H 
ATOM     69  H   LIG d   1       6.061 -10.424  -4.748  0.00  0.00     0.060 H 
BRANCH  67  70
ATOM     70  O   LIG d   1       4.341  -9.761  -5.683  0.00  0.00    -0.391 OA
ATOM     71  H   LIG d   1       3.917  -8.893  -5.681  0.00  0.00     0.210 HD
ENDBRANCH  67  70
ENDBRANCH  64  67
ENDBRANCH  52  63
ENDBRANCH   1  48
TORSDOF 20
ENDMDL
MODEL 6
REMARK VINA RESULT:      -5.8      3.070      7.971
REMARK  20 active torsions:
REMARK  status: ('A' for Active; 'I' for Inactive)
REMARK    1  A    between atoms: C_1  and  O_2 
REMARK    2  A    between atoms: O_2  and  C_3 
REMARK    3  A    between atoms: C_5  and  C_10 
REMARK    4  A    between atoms: C_8  and  O_9 
REMARK    5  A    between atoms: C_10  and  C_11 
REMARK    6  A    between atoms: C_11  and  C_13 
REMARK    7  A    between atoms: C_11  and  C_31 
REMARK    8  A    between atoms: C_13  and  O_14 
REMARK    9  A    between atoms: O_14  and  C_15 
REMARK   10  A    between atoms: C_17  and  O_30 
REMARK   11  A    between atoms: C_19  and  O_29 
REMARK   12  A    between atoms: C_21  and  O_28 
REMARK   13  A    between atoms: C_23  and  C_26 
REMARK   14  A    between atoms: C_26  and  O_27 
REMARK   15  A    between atoms: C_33  and  C_40 
REMARK   16  A    between atoms: C_35  and  O_38 
REMARK   17  A    between atoms: C_36  and  O_37 
REMARK   18  A    between atoms: O_38  and  C_39 
REMARK   19  A    between atoms: C_41  and  C_42 
REMARK   20  A    between atoms: C_42  and  O_43 
ROOT
ATOM      1  C   LIG d   1       5.270  -4.253  -5.336  0.00  0.00     0.015 C 
ATOM      2  H   LIG d   1       4.354  -4.374  -4.758  0.00  0.00     0.037 H 
ENDROOT
BRANCH   1   3
ATOM      3  C   LIG d   1       6.277  -3.430  -4.529  0.00  0.00    -0.018 C 
ATOM      4  H   LIG d   1       7.018  -3.001  -5.204  0.00  0.00     0.032 H 
ATOM      5  H   LIG d   1       6.774  -4.074  -3.805  0.00  0.00     0.032 H 
BRANCH   3   6
ATOM      6  C   LIG d   1       5.556  -2.323  -3.806  0.00  0.00    -0.043 A 
ATOM      7  C   LIG d   1       6.146  -1.078  -3.687  0.00  0.00    -0.013 A 
ATOM      8  C   LIG d   1       5.484  -0.058  -3.022  0.00  0.00     0.162 A 
ATOM      9  H   LIG d   1       7.123  -0.900  -4.112  0.00  0.00     0.066 H 
ATOM     10  C   LIG d   1       4.228  -0.291  -2.471  0.00  0.00     0.159 A 
ATOM     11  C   LIG d   1       3.639  -1.539  -2.599  0.00  0.00    -0.016 A 
ATOM     12  C   LIG d   1       4.305  -2.552  -3.263  0.00  0.00    -0.055 A 
ATOM     13  H   LIG d   1       2.662  -1.722  -2.177  0.00  0.00     0.066 H 
ATOM     14  H   LIG d   1       3.847  -3.526  -3.358  0.00  0.00     0.062 H 
BRANCH   8  15
ATOM     15  O   LIG d   1       6.063   1.167  -2.904  0.00  0.00    -0.491 OA
BRANCH  15  16
ATOM     16  C   LIG d   1       7.238   1.406  -3.682  0.00  0.00     0.079 C 
ATOM     17  H   LIG d   1       7.009   2.114  -4.477  0.00  0.00     0.066 H 
ATOM     18  H   LIG d   1       8.019   1.819  -3.043  0.00  0.00     0.066 H 
ATOM     19  H   LIG d   1       7.582   0.468  -4.117  0.00  0.00     0.066 H 
ENDBRANCH  15  16
ENDBRANCH   8  15
BRANCH  10  20
ATOM     20  O   LIG d   1       3.576   0.705  -1.814  0.00  0.00    -0.503 OA
ATOM     21  H   LIG d   1       4.132   1.197  -1.194  0.00  0.00     0.292 HD
ENDBRANCH  10  20
ENDBRANCH   3   6
ENDBRANCH   1   3
BRANCH   1  22
ATOM     22  C   LIG d   1       5.866  -5.629  -5.642  0.00  0.00     0.058 C 
ATOM     23  H   LIG d   1       6.065  -5.709  -6.711  0.00  0.00     0.057 H 
ATOM     24  H   LIG d   1       6.796  -5.754  -5.088  0.00  0.00     0.057 H 
BRANCH  22  25
ATOM     25  O   LIG d   1       4.939  -6.646  -5.253  0.00  0.00    -0.348 OA
BRANCH  25  26
ATOM     26  C   LIG d   1       5.031  -7.842  -6.030  0.00  0.00     0.188 C 
ATOM     27  H   LIG d   1       4.685  -7.645  -7.044  0.00  0.00     0.094 H 
ATOM     28  O   LIG d   1       4.219  -8.858  -5.438  0.00  0.00    -0.341 OA
ATOM     29  C   LIG d   1       4.574  -9.177  -4.090  0.00  0.00     0.113 C 
ATOM     30  C   LIG d   1       6.010  -9.702  -4.053  0.00  0.00     0.112 C 
ATOM     31  H   LIG d   1       4.497  -8.282  -3.473  0.00  0.00     0.065 H 
ATOM     32  C   LIG d   1       6.948  -8.647  -4.648  0.00  0.00     0.114 C 
ATOM     33  H   LIG d   1       6.298  -9.904  -3.021  0.00  0.00     0.065 H 
ATOM     34  C   LIG d   1       6.487  -8.314  -6.069  0.00  0.00     0.134 C 
ATOM     35  H   LIG d   1       6.917  -7.745  -4.035  0.00  0.00     0.065 H 
ATOM     36  H   LIG d   1       7.115  -7.522  -6.481  0.00  0.00     0.067 H 
BRANCH  29  37
ATOM     37  C   LIG d   1       3.624 -10.250  -3.554  0.00  0.00     0.073 C 
ATOM     38  H   LIG d   1       3.337 -10.920  -4.364  0.00  0.00     0.058 H 
ATOM     39  H   LIG d   1       4.125 -10.820  -2.771  0.00  0.00     0.058 H 
BRANCH  37  40
ATOM     40  O   LIG d   1       2.456  -9.627  -3.016  0.00  0.00    -0.392 OA
ATOM     41  H   LIG d   1       2.036 -10.128  -2.303  0.00  0.00     0.209 HD
ENDBRANCH  37  40
ENDBRANCH  29  37
BRANCH  30  42
ATOM     42  O   LIG d   1       6.101 -10.906  -4.818  0.00  0.00    -0.387 OA
ATOM     43  H   LIG d   1       6.281 -10.761  -5.758  0.00  0.00     0.210 HD
ENDBRANCH  30  42
BRANCH  32  44
ATOM     44  O   LIG d   1       8.283  -9.155  -4.684  0.00  0.00    -0.386 OA
ATOM     45  H   LIG d   1       8.840  -8.751  -5.363  0.00  0.00     0.210 HD
ENDBRANCH  32  44
BRANCH  34  46
ATOM     46  O   LIG d   1       6.590  -9.479  -6.891  0.00  0.00    -0.384 OA
ATOM     47  H   LIG d   1       7.234 -10.128  -6.575  0.00  0.00     0.210 HD
ENDBRANCH  34  46
ENDBRANCH  25  26
ENDBRANCH  22  25
ENDBRANCH   1  22
BRANCH   1  48
ATOM     48  C   LIG d   1       4.959  -3.542  -6.628  0.00  0.00     0.004 A 
ATOM     49  C   LIG d   1       3.919  -3.986  -7.429  0.00  0.00     0.162 A 
ATOM     50  C   LIG d   1       3.624  -3.329  -8.621  0.00  0.00     0.162 A 
ATOM     51  C   LIG d   1       4.377  -2.238  -9.012  0.00  0.00    -0.009 A 
ATOM     52  C   LIG d   1       5.428  -1.793  -8.208  0.00  0.00    -0.021 A 
ATOM     53  H   LIG d   1       4.153  -1.729  -9.939  0.00  0.00     0.066 H 
ATOM     54  C   LIG d   1       5.714  -2.453  -7.013  0.00  0.00    -0.047 A 
ATOM     55  H   LIG d   1       6.526  -2.111  -6.389  0.00  0.00     0.063 H 
BRANCH  49  56
ATOM     56  O   LIG d   1       3.181  -5.063  -7.048  0.00  0.00    -0.503 OA
ATOM     57  H   LIG d   1       2.246  -5.004  -7.290  0.00  0.00     0.292 HD
ENDBRANCH  49  56
BRANCH  50  58
ATOM     58  O   LIG d   1       2.600  -3.763  -9.403  0.00  0.00    -0.491 OA
BRANCH  58  59
ATOM     59  C   LIG d   1       2.893  -4.007 -10.780  0.00  0.00     0.079 C 
ATOM     60  H   LIG d   1       1.963  -4.052 -11.346  0.00  0.00     0.066 H 
ATOM     61  H   LIG d   1       3.516  -3.202 -11.167  0.00  0.00     0.066 H 
ATOM     62  H   LIG d   1       3.423  -4.955 -10.876  0.00  0.00     0.066 H 
ENDBRANCH  58  59
ENDBRANCH  50  58
BRANCH  52  63
ATOM     63  C   LIG d   1       6.235  -0.627  -8.622  0.00  0.00    -0.056 C 
ATOM     64  C   LIG d   1       6.438   0.374  -7.777  0.00  0.00    -0.058 C 
ATOM     65  H   LIG d   1       6.013   0.338  -6.785  0.00  0.00     0.059 H 
ATOM     66  H   LIG d   1       6.660  -0.590  -9.614  0.00  0.00     0.062 H 
BRANCH  64  67
ATOM     67  C   LIG d   1       7.261   1.564  -8.200  0.00  0.00     0.063 C 
ATOM     68  H   LIG d   1       7.307   2.283  -7.383  0.00  0.00     0.060 H 
ATOM     69  H   LIG d   1       8.270   1.235  -8.453  0.00  0.00     0.060 H 
BRANCH  67  70
ATOM     70  O   LIG d   1       6.661   2.177  -9.342  0.00  0.00    -0.391 OA
ATOM     71  H   LIG d   1       5.892   1.703  -9.685  0.00  0.00     0.210 HD
ENDBRANCH  67  70
ENDBRANCH  64  67
ENDBRANCH  52  63
ENDBRANCH   1  48
TORSDOF 20
ENDMDL
MODEL 7
REMARK VINA RESULT:      -5.8      3.231      5.256
REMARK  20 active torsions:
REMARK  status: ('A' for Active; 'I' for Inactive)
REMARK    1  A    between atoms: C_1  and  O_2 
REMARK    2  A    between atoms: O_2  and  C_3 
REMARK    3  A    between atoms: C_5  and  C_10 
REMARK    4  A    between atoms: C_8  and  O_9 
REMARK    5  A    between atoms: C_10  and  C_11 
REMARK    6  A    between atoms: C_11  and  C_13 
REMARK    7  A    between atoms: C_11  and  C_31 
REMARK    8  A    between atoms: C_13  and  O_14 
REMARK    9  A    between atoms: O_14  and  C_15 
REMARK   10  A    between atoms: C_17  and  O_30 
REMARK   11  A    between atoms: C_19  and  O_29 
REMARK   12  A    between atoms: C_21  and  O_28 
REMARK   13  A    between atoms: C_23  and  C_26 
REMARK   14  A    between atoms: C_26  and  O_27 
REMARK   15  A    between atoms: C_33  and  C_40 
REMARK   16  A    between atoms: C_35  and  O_38 
REMARK   17  A    between atoms: C_36  and  O_37 
REMARK   18  A    between atoms: O_38  and  C_39 
REMARK   19  A    between atoms: C_41  and  C_42 
REMARK   20  A    between atoms: C_42  and  O_43 
ROOT
ATOM      1  C   LIG d   1       5.931  -3.032  -5.582  0.00  0.00     0.015 C 
ATOM      2  H   LIG d   1       5.615  -2.083  -6.012  0.00  0.00     0.037 H 
ENDROOT
BRANCH   1   3
ATOM      3  C   LIG d   1       5.091  -3.334  -4.338  0.00  0.00    -0.018 C 
ATOM      4  H   LIG d   1       5.701  -3.865  -3.608  0.00  0.00     0.032 H 
ATOM      5  H   LIG d   1       4.237  -3.951  -4.618  0.00  0.00     0.032 H 
BRANCH   3   6
ATOM      6  C   LIG d   1       4.601  -2.041  -3.738  0.00  0.00    -0.043 A 
ATOM      7  C   LIG d   1       3.980  -1.101  -4.539  0.00  0.00    -0.013 A 
ATOM      8  C   LIG d   1       3.529   0.089  -3.988  0.00  0.00     0.162 A 
ATOM      9  H   LIG d   1       3.846  -1.293  -5.593  0.00  0.00     0.066 H 
ATOM     10  C   LIG d   1       3.708   0.335  -2.631  0.00  0.00     0.159 A 
ATOM     11  C   LIG d   1       4.326  -0.614  -1.832  0.00  0.00    -0.016 A 
ATOM     12  C   LIG d   1       4.774  -1.798  -2.388  0.00  0.00    -0.055 A 
ATOM     13  H   LIG d   1       4.462  -0.428  -0.777  0.00  0.00     0.066 H 
ATOM     14  H   LIG d   1       5.259  -2.535  -1.765  0.00  0.00     0.062 H 
BRANCH   8  15
ATOM     15  O   LIG d   1       2.919   1.015  -4.775  0.00  0.00    -0.491 OA
BRANCH  15  16
ATOM     16  C   LIG d   1       2.655   0.643  -6.129  0.00  0.00     0.079 C 
ATOM     17  H   LIG d   1       1.705   1.072  -6.446  0.00  0.00     0.066 H 
ATOM     18  H   LIG d   1       3.453   1.017  -6.770  0.00  0.00     0.066 H 
ATOM     19  H   LIG d   1       2.606  -0.443  -6.205  0.00  0.00     0.066 H 
ENDBRANCH  15  16
ENDBRANCH   8  15
BRANCH  10  20
ATOM     20  O   LIG d   1       3.272   1.503  -2.087  0.00  0.00    -0.503 OA
ATOM     21  H   LIG d   1       3.505   1.615  -1.155  0.00  0.00     0.292 HD
ENDBRANCH  10  20
ENDBRANCH   3   6
ENDBRANCH   1   3
BRANCH   1  22
ATOM     22  C   LIG d   1       5.737  -4.149  -6.610  0.00  0.00     0.058 C 
ATOM     23  H   LIG d   1       4.826  -3.965  -7.179  0.00  0.00     0.057 H 
ATOM     24  H   LIG d   1       6.591  -4.171  -7.288  0.00  0.00     0.057 H 
BRANCH  22  25
ATOM     25  O   LIG d   1       5.632  -5.404  -5.935  0.00  0.00    -0.348 OA
BRANCH  25  26
ATOM     26  C   LIG d   1       4.497  -6.180  -6.325  0.00  0.00     0.188 C 
ATOM     27  H   LIG d   1       3.602  -5.560  -6.286  0.00  0.00     0.094 H 
ATOM     28  O   LIG d   1       4.348  -7.289  -5.436  0.00  0.00    -0.341 OA
ATOM     29  C   LIG d   1       5.483  -8.157  -5.391  0.00  0.00     0.113 C 
ATOM     30  C   LIG d   1       5.724  -8.752  -6.780  0.00  0.00     0.112 C 
ATOM     31  H   LIG d   1       6.361  -7.591  -5.080  0.00  0.00     0.065 H 
ATOM     32  C   LIG d   1       5.923  -7.615  -7.787  0.00  0.00     0.114 C 
ATOM     33  H   LIG d   1       6.615  -9.379  -6.759  0.00  0.00     0.065 H 
ATOM     34  C   LIG d   1       4.699  -6.697  -7.753  0.00  0.00     0.134 C 
ATOM     35  H   LIG d   1       6.814  -7.045  -7.521  0.00  0.00     0.065 H 
ATOM     36  H   LIG d   1       4.856  -5.853  -8.426  0.00  0.00     0.067 H 
BRANCH  29  37
ATOM     37  C   LIG d   1       5.223  -9.285  -4.391  0.00  0.00     0.073 C 
ATOM     38  H   LIG d   1       5.690 -10.203  -4.747  0.00  0.00     0.058 H 
ATOM     39  H   LIG d   1       5.645  -9.015  -3.422  0.00  0.00     0.058 H 
BRANCH  37  40
ATOM     40  O   LIG d   1       3.815  -9.489  -4.256  0.00  0.00    -0.392 OA
ATOM     41  H   LIG d   1       3.277  -8.780  -4.634  0.00  0.00     0.209 HD
ENDBRANCH  37  40
ENDBRANCH  29  37
BRANCH  30  42
ATOM     42  O   LIG d   1       4.595  -9.539  -7.166  0.00  0.00    -0.387 OA
ATOM     43  H   LIG d   1       3.803  -9.019  -7.364  0.00  0.00     0.210 HD
ENDBRANCH  30  42
BRANCH  32  44
ATOM     44  O   LIG d   1       6.078  -8.157  -9.100  0.00  0.00    -0.386 OA
ATOM     45  H   LIG d   1       6.860  -8.715  -9.207  0.00  0.00     0.210 HD
ENDBRANCH  32  44
BRANCH  34  46
ATOM     46  O   LIG d   1       3.541  -7.426  -8.165  0.00  0.00    -0.384 OA
ATOM     47  H   LIG d   1       3.053  -7.012  -8.890  0.00  0.00     0.210 HD
ENDBRANCH  34  46
ENDBRANCH  25  26
ENDBRANCH  22  25
ENDBRANCH   1  22
BRANCH   1  48
ATOM     48  C   LIG d   1       7.386  -2.950  -5.197  0.00  0.00     0.004 A 
ATOM     49  C   LIG d   1       8.237  -2.105  -5.892  0.00  0.00     0.162 A 
ATOM     50  C   LIG d   1       9.582  -2.021  -5.536  0.00  0.00     0.162 A 
ATOM     51  C   LIG d   1      10.071  -2.790  -4.497  0.00  0.00    -0.009 A 
ATOM     52  C   LIG d   1       9.215  -3.645  -3.802  0.00  0.00    -0.021 A 
ATOM     53  H   LIG d   1      11.115  -2.729  -4.224  0.00  0.00     0.066 H 
ATOM     54  C   LIG d   1       7.868  -3.720  -4.159  0.00  0.00    -0.047 A 
ATOM     55  H   LIG d   1       7.204  -4.381  -3.622  0.00  0.00     0.063 H 
BRANCH  49  56
ATOM     56  O   LIG d   1       7.759  -1.352  -6.918  0.00  0.00    -0.503 OA
ATOM     57  H   LIG d   1       6.815  -1.477  -7.091  0.00  0.00     0.292 HD
ENDBRANCH  49  56
BRANCH  50  58
ATOM     58  O   LIG d   1      10.415  -1.187  -6.215  0.00  0.00    -0.491 OA
BRANCH  58  59
ATOM     59  C   LIG d   1      10.789   0.028  -5.565  0.00  0.00     0.079 C 
ATOM     60  H   LIG d   1      11.715   0.403  -6.000  0.00  0.00     0.066 H 
ATOM     61  H   LIG d   1      10.000   0.768  -5.696  0.00  0.00     0.066 H 
ATOM     62  H   LIG d   1      10.938  -0.160  -4.501  0.00  0.00     0.066 H 
ENDBRANCH  58  59
ENDBRANCH  50  58
BRANCH  52  63
ATOM     63  C   LIG d   1       9.733  -4.469  -2.690  0.00  0.00    -0.056 C 
ATOM     64  C   LIG d   1       9.635  -5.790  -2.741  0.00  0.00    -0.058 C 
ATOM     65  H   LIG d   1       9.176  -6.265  -3.595  0.00  0.00     0.059 H 
ATOM     66  H   LIG d   1      10.193  -3.994  -1.836  0.00  0.00     0.062 H 
BRANCH  64  67
ATOM     67  C   LIG d   1      10.165  -6.630  -1.607  0.00  0.00     0.063 C 
ATOM     68  H   LIG d   1       9.673  -7.602  -1.614  0.00  0.00     0.060 H 
ATOM     69  H   LIG d   1      11.240  -6.766  -1.728  0.00  0.00     0.060 H 
BRANCH  67  70
ATOM     70  O   LIG d   1       9.904  -5.973  -0.365  0.00  0.00    -0.391 OA
ATOM     71  H   LIG d   1       9.233  -5.279  -0.420  0.00  0.00     0.210 HD
ENDBRANCH  67  70
ENDBRANCH  64  67
ENDBRANCH  52  63
ENDBRANCH   1  48
TORSDOF 20
ENDMDL
MODEL 8
REMARK VINA RESULT:      -5.8      1.429      2.228
REMARK  20 active torsions:
REMARK  status: ('A' for Active; 'I' for Inactive)
REMARK    1  A    between atoms: C_1  and  O_2 
REMARK    2  A    between atoms: O_2  and  C_3 
REMARK    3  A    between atoms: C_5  and  C_10 
REMARK    4  A    between atoms: C_8  and  O_9 
REMARK    5  A    between atoms: C_10  and  C_11 
REMARK    6  A    between atoms: C_11  and  C_13 
REMARK    7  A    between atoms: C_11  and  C_31 
REMARK    8  A    between atoms: C_13  and  O_14 
REMARK    9  A    between atoms: O_14  and  C_15 
REMARK   10  A    between atoms: C_17  and  O_30 
REMARK   11  A    between atoms: C_19  and  O_29 
REMARK   12  A    between atoms: C_21  and  O_28 
REMARK   13  A    between atoms: C_23  and  C_26 
REMARK   14  A    between atoms: C_26  and  O_27 
REMARK   15  A    between atoms: C_33  and  C_40 
REMARK   16  A    between atoms: C_35  and  O_38 
REMARK   17  A    between atoms: C_36  and  O_37 
REMARK   18  A    between atoms: O_38  and  C_39 
REMARK   19  A    between atoms: C_41  and  C_42 
REMARK   20  A    between atoms: C_42  and  O_43 
ROOT
ATOM      1  C   LIG d   1       7.299  -2.668  -5.267  0.00  0.00     0.015 C 
ATOM      2  H   LIG d   1       7.219  -1.587  -5.377  0.00  0.00     0.037 H 
ENDROOT
BRANCH   1   3
ATOM      3  C   LIG d   1       6.291  -3.150  -4.221  0.00  0.00    -0.018 C 
ATOM      4  H   LIG d   1       6.802  -3.766  -3.481  0.00  0.00     0.032 H 
ATOM      5  H   LIG d   1       5.514  -3.737  -4.710  0.00  0.00     0.032 H 
BRANCH   3   6
ATOM      6  C   LIG d   1       5.667  -1.960  -3.538  0.00  0.00    -0.043 A 
ATOM      7  C   LIG d   1       6.276  -0.721  -3.622  0.00  0.00    -0.013 A 
ATOM      8  C   LIG d   1       5.704   0.375  -2.995  0.00  0.00     0.162 A 
ATOM      9  H   LIG d   1       7.195  -0.607  -4.176  0.00  0.00     0.066 H 
ATOM     10  C   LIG d   1       4.521   0.224  -2.278  0.00  0.00     0.159 A 
ATOM     11  C   LIG d   1       3.914  -1.020  -2.203  0.00  0.00    -0.016 A 
ATOM     12  C   LIG d   1       4.490  -2.109  -2.830  0.00  0.00    -0.055 A 
ATOM     13  H   LIG d   1       2.993  -1.139  -1.651  0.00  0.00     0.066 H 
ATOM     14  H   LIG d   1       4.018  -3.078  -2.767  0.00  0.00     0.062 H 
BRANCH   8  15
ATOM     15  O   LIG d   1       6.301   1.594  -3.077  0.00  0.00    -0.491 OA
BRANCH  15  16
ATOM     16  C   LIG d   1       7.523   1.670  -3.813  0.00  0.00     0.079 C 
ATOM     17  H   LIG d   1       7.459   2.477  -4.542  0.00  0.00     0.066 H 
ATOM     18  H   LIG d   1       8.348   1.865  -3.127  0.00  0.00     0.066 H 
ATOM     19  H   LIG d   1       7.695   0.726  -4.329  0.00  0.00     0.066 H 
ENDBRANCH  15  16
ENDBRANCH   8  15
BRANCH  10  20
ATOM     20  O   LIG d   1       3.959   1.295  -1.657  0.00  0.00    -0.503 OA
ATOM     21  H   LIG d   1       3.191   1.659  -2.118  0.00  0.00     0.292 HD
ENDBRANCH  10  20
ENDBRANCH   3   6
ENDBRANCH   1   3
BRANCH   1  22
ATOM     22  C   LIG d   1       7.002  -3.341  -6.608  0.00  0.00     0.058 C 
ATOM     23  H   LIG d   1       7.842  -3.978  -6.888  0.00  0.00     0.057 H 
ATOM     24  H   LIG d   1       6.101  -3.948  -6.519  0.00  0.00     0.057 H 
BRANCH  22  25
ATOM     25  O   LIG d   1       6.808  -2.341  -7.610  0.00  0.00    -0.348 OA
BRANCH  25  26
ATOM     26  C   LIG d   1       6.316  -1.099  -7.102  0.00  0.00     0.188 C 
ATOM     27  H   LIG d   1       6.576  -1.009  -6.048  0.00  0.00     0.094 H 
ATOM     28  O   LIG d   1       4.895  -1.054  -7.247  0.00  0.00    -0.341 OA
ATOM     29  C   LIG d   1       4.442  -1.191  -8.596  0.00  0.00     0.113 C 
ATOM     30  C   LIG d   1       4.994  -0.039  -9.438  0.00  0.00     0.112 C 
ATOM     31  H   LIG d   1       4.792  -2.139  -9.003  0.00  0.00     0.065 H 
ATOM     32  C   LIG d   1       6.524  -0.043  -9.354  0.00  0.00     0.114 C 
ATOM     33  H   LIG d   1       4.687  -0.165 -10.476  0.00  0.00     0.065 H 
ATOM     34  C   LIG d   1       6.944   0.057  -7.885  0.00  0.00     0.134 C 
ATOM     35  H   LIG d   1       6.910  -0.969  -9.781  0.00  0.00     0.065 H 
ATOM     36  H   LIG d   1       8.031  -0.002  -7.811  0.00  0.00     0.067 H 
BRANCH  29  37
ATOM     37  C   LIG d   1       2.913  -1.157  -8.626  0.00  0.00     0.073 C 
ATOM     38  H   LIG d   1       2.576  -0.711  -9.562  0.00  0.00     0.058 H 
ATOM     39  H   LIG d   1       2.525  -2.173  -8.549  0.00  0.00     0.058 H 
BRANCH  37  40
ATOM     40  O   LIG d   1       2.430  -0.379  -7.528  0.00  0.00    -0.392 OA
ATOM     41  H   LIG d   1       2.736   0.538  -7.532  0.00  0.00     0.209 HD
ENDBRANCH  37  40
ENDBRANCH  29  37
BRANCH  30  42
ATOM     42  O   LIG d   1       4.493   1.203  -8.939  0.00  0.00    -0.387 OA
ATOM     43  H   LIG d   1       3.537   1.309  -9.038  0.00  0.00     0.210 HD
ENDBRANCH  30  42
BRANCH  32  44
ATOM     44  O   LIG d   1       7.048   1.072 -10.079  0.00  0.00    -0.386 OA
ATOM     45  H   LIG d   1       7.308   0.865 -10.986  0.00  0.00     0.210 HD
ENDBRANCH  32  44
BRANCH  34  46
ATOM     46  O   LIG d   1       6.496   1.301  -7.343  0.00  0.00    -0.384 OA
ATOM     47  H   LIG d   1       7.209   1.870  -7.021  0.00  0.00     0.210 HD
ENDBRANCH  34  46
ENDBRANCH  25  26
ENDBRANCH  22  25
ENDBRANCH   1  22
BRANCH   1  48
ATOM     48  C   LIG d   1       8.694  -3.026  -4.822  0.00  0.00     0.004 A 
ATOM     49  C   LIG d   1       9.738  -2.142  -5.044  0.00  0.00     0.162 A 
ATOM     50  C   LIG d   1      11.029  -2.465  -4.630  0.00  0.00     0.162 A 
ATOM     51  C   LIG d   1      11.271  -3.675  -4.007  0.00  0.00    -0.009 A 
ATOM     52  C   LIG d   1      10.220  -4.568  -3.789  0.00  0.00    -0.021 A 
ATOM     53  H   LIG d   1      12.272  -3.929  -3.690  0.00  0.00     0.066 H 
ATOM     54  C   LIG d   1       8.930  -4.235  -4.201  0.00  0.00    -0.047 A 
ATOM     55  H   LIG d   1       8.115  -4.924  -4.033  0.00  0.00     0.063 H 
BRANCH  49  56
ATOM     56  O   LIG d   1       9.502  -0.953  -5.661  0.00  0.00    -0.503 OA
ATOM     57  H   LIG d   1       9.257  -1.036  -6.593  0.00  0.00     0.292 HD
ENDBRANCH  49  56
BRANCH  50  58
ATOM     58  O   LIG d   1      12.051  -1.594  -4.843  0.00  0.00    -0.491 OA
BRANCH  58  59
ATOM     59  C   LIG d   1      13.190  -2.090  -5.547  0.00  0.00     0.079 C 
ATOM     60  H   LIG d   1      13.486  -1.371  -6.311  0.00  0.00     0.066 H 
ATOM     61  H   LIG d   1      14.013  -2.237  -4.849  0.00  0.00     0.066 H 
ATOM     62  H   LIG d   1      12.940  -3.040  -6.021  0.00  0.00     0.066 H 
ENDBRANCH  58  59
ENDBRANCH  50  58
BRANCH  52  63
ATOM     63  C   LIG d   1      10.475  -5.863  -3.123  0.00  0.00    -0.056 C 
ATOM     64  C   LIG d   1      10.152  -6.028  -1.848  0.00  0.00    -0.058 C 
ATOM     65  H   LIG d   1       9.702  -5.217  -1.296  0.00  0.00     0.059 H 
ATOM     66  H   LIG d   1      10.925  -6.674  -3.676  0.00  0.00     0.062 H 
BRANCH  64  67
ATOM     67  C   LIG d   1      10.412  -7.349  -1.170  0.00  0.00     0.063 C 
ATOM     68  H   LIG d   1       9.509  -7.958  -1.203  0.00  0.00     0.060 H 
ATOM     69  H   LIG d   1      11.221  -7.869  -1.686  0.00  0.00     0.060 H 
BRANCH  67  70
ATOM     70  O   LIG d   1      10.783  -7.121   0.190  0.00  0.00    -0.391 OA
ATOM     71  H   LIG d   1      11.333  -7.819   0.571  0.00  0.00     0.210 HD
ENDBRANCH  67  70
ENDBRANCH  64  67
ENDBRANCH  52  63
ENDBRANCH   1  48
TORSDOF 20
ENDMDL
MODEL 9
REMARK VINA RESULT:      -5.6      3.114      6.164
REMARK  20 active torsions:
REMARK  status: ('A' for Active; 'I' for Inactive)
REMARK    1  A    between atoms: C_1  and  O_2 
REMARK    2  A    between atoms: O_2  and  C_3 
REMARK    3  A    between atoms: C_5  and  C_10 
REMARK    4  A    between atoms: C_8  and  O_9 
REMARK    5  A    between atoms: C_10  and  C_11 
REMARK    6  A    between atoms: C_11  and  C_13 
REMARK    7  A    between atoms: C_11  and  C_31 
REMARK    8  A    between atoms: C_13  and  O_14 
REMARK    9  A    between atoms: O_14  and  C_15 
REMARK   10  A    between atoms: C_17  and  O_30 
REMARK   11  A    between atoms: C_19  and  O_29 
REMARK   12  A    between atoms: C_21  and  O_28 
REMARK   13  A    between atoms: C_23  and  C_26 
REMARK   14  A    between atoms: C_26  and  O_27 
REMARK   15  A    between atoms: C_33  and  C_40 
REMARK   16  A    between atoms: C_35  and  O_38 
REMARK   17  A    between atoms: C_36  and  O_37 
REMARK   18  A    between atoms: O_38  and  C_39 
REMARK   19  A    between atoms: C_41  and  C_42 
REMARK   20  A    between atoms: C_42  and  O_43 
ROOT
ATOM      1  C   LIG d   1       8.439   1.874  -4.862  0.00  0.00     0.015 C 
ATOM      2  H   LIG d   1       7.971   2.651  -5.464  0.00  0.00     0.037 H 
ENDROOT
BRANCH   1   3
ATOM      3  C   LIG d   1       9.816   2.350  -4.394  0.00  0.00    -0.018 C 
ATOM      4  H   LIG d   1      10.533   2.243  -5.208  0.00  0.00     0.032 H 
ATOM      5  H   LIG d   1      10.138   1.750  -3.543  0.00  0.00     0.032 H 
BRANCH   3   6
ATOM      6  C   LIG d   1       9.735   3.798  -3.985  0.00  0.00    -0.043 A 
ATOM      7  C   LIG d   1      10.077   4.171  -2.698  0.00  0.00    -0.013 A 
ATOM      8  C   LIG d   1      10.003   5.503  -2.321  0.00  0.00     0.162 A 
ATOM      9  H   LIG d   1      10.403   3.426  -1.988  0.00  0.00     0.066 H 
ATOM     10  C   LIG d   1       9.578   6.460  -3.237  0.00  0.00     0.159 A 
ATOM     11  C   LIG d   1       9.242   6.080  -4.527  0.00  0.00    -0.016 A 
ATOM     12  C   LIG d   1       9.318   4.750  -4.897  0.00  0.00    -0.055 A 
ATOM     13  H   LIG d   1       8.917   6.822  -5.241  0.00  0.00     0.066 H 
ATOM     14  H   LIG d   1       9.051   4.455  -5.900  0.00  0.00     0.062 H 
BRANCH   8  15
ATOM     15  O   LIG d   1      10.339   5.872  -1.056  0.00  0.00    -0.491 OA
BRANCH  15  16
ATOM     16  C   LIG d   1      11.583   5.386  -0.547  0.00  0.00     0.079 C 
ATOM     17  H   LIG d   1      12.310   5.331  -1.357  0.00  0.00     0.066 H 
ATOM     18  H   LIG d   1      11.950   6.064   0.224  0.00  0.00     0.066 H 
ATOM     19  H   LIG d   1      11.438   4.394  -0.121  0.00  0.00     0.066 H 
ENDBRANCH  15  16
ENDBRANCH   8  15
BRANCH  10  20
ATOM     20  O   LIG d   1       9.499   7.767  -2.870  0.00  0.00    -0.503 OA
ATOM     21  H   LIG d   1       9.622   7.918  -1.923  0.00  0.00     0.292 HD
ENDBRANCH  10  20
ENDBRANCH   3   6
ENDBRANCH   1   3
BRANCH   1  22
ATOM     22  C   LIG d   1       7.563   1.574  -3.643  0.00  0.00     0.058 C 
ATOM     23  H   LIG d   1       8.011   0.765  -3.065  0.00  0.00     0.057 H 
ATOM     24  H   LIG d   1       7.487   2.467  -3.021  0.00  0.00     0.057 H 
BRANCH  22  25
ATOM     25  O   LIG d   1       6.259   1.184  -4.079  0.00  0.00    -0.348 OA
BRANCH  25  26
ATOM     26  C   LIG d   1       5.561   0.354  -3.149  0.00  0.00     0.188 C 
ATOM     27  H   LIG d   1       5.744   0.710  -2.135  0.00  0.00     0.094 H 
ATOM     28  O   LIG d   1       6.022  -0.993  -3.271  0.00  0.00    -0.341 OA
ATOM     29  C   LIG d   1       5.853  -1.552  -4.577  0.00  0.00     0.113 C 
ATOM     30  C   LIG d   1       4.365  -1.576  -4.930  0.00  0.00     0.112 C 
ATOM     31  H   LIG d   1       6.390  -0.943  -5.304  0.00  0.00     0.065 H 
ATOM     32  C   LIG d   1       3.805  -0.153  -4.849  0.00  0.00     0.114 C 
ATOM     33  H   LIG d   1       4.237  -1.960  -5.942  0.00  0.00     0.065 H 
ATOM     34  C   LIG d   1       4.060   0.405  -3.446  0.00  0.00     0.134 C 
ATOM     35  H   LIG d   1       4.302   0.477  -5.587  0.00  0.00     0.065 H 
ATOM     36  H   LIG d   1       3.715   1.439  -3.396  0.00  0.00     0.067 H 
BRANCH  29  37
ATOM     37  C   LIG d   1       6.407  -2.978  -4.596  0.00  0.00     0.073 C 
ATOM     38  H   LIG d   1       5.658  -3.664  -4.201  0.00  0.00     0.058 H 
ATOM     39  H   LIG d   1       6.651  -3.259  -5.621  0.00  0.00     0.058 H 
BRANCH  37  40
ATOM     40  O   LIG d   1       7.585  -3.044  -3.791  0.00  0.00    -0.392 OA
ATOM     41  H   LIG d   1       8.368  -2.660  -4.208  0.00  0.00     0.209 HD
ENDBRANCH  37  40
ENDBRANCH  29  37
BRANCH  30  42
ATOM     42  O   LIG d   1       3.667  -2.416  -4.008  0.00  0.00    -0.387 OA
ATOM     43  H   LIG d   1       3.326  -3.232  -4.401  0.00  0.00     0.210 HD
ENDBRANCH  30  42
BRANCH  32  44
ATOM     44  O   LIG d   1       2.400  -0.173  -5.108  0.00  0.00    -0.386 OA
ATOM     45  H   LIG d   1       1.959   0.674  -4.958  0.00  0.00     0.210 HD
ENDBRANCH  32  44
BRANCH  34  46
ATOM     46  O   LIG d   1       3.354  -0.381  -2.483  0.00  0.00    -0.384 OA
ATOM     47  H   LIG d   1       2.543  -0.784  -2.822  0.00  0.00     0.210 HD
ENDBRANCH  34  46
ENDBRANCH  25  26
ENDBRANCH  22  25
ENDBRANCH   1  22
BRANCH   1  48
ATOM     48  C   LIG d   1       8.594   0.623  -5.689  0.00  0.00     0.004 A 
ATOM     49  C   LIG d   1       7.783   0.421  -6.795  0.00  0.00     0.162 A 
ATOM     50  C   LIG d   1       7.926  -0.730  -7.566  0.00  0.00     0.162 A 
ATOM     51  C   LIG d   1       8.870  -1.679  -7.222  0.00  0.00    -0.009 A 
ATOM     52  C   LIG d   1       9.683  -1.479  -6.104  0.00  0.00    -0.021 A 
ATOM     53  H   LIG d   1       8.979  -2.575  -7.816  0.00  0.00     0.066 H 
ATOM     54  C   LIG d   1       9.538  -0.320  -5.340  0.00  0.00    -0.047 A 
ATOM     55  H   LIG d   1      10.166  -0.163  -4.476  0.00  0.00     0.063 H 
BRANCH  49  56
ATOM     56  O   LIG d   1       6.850   1.351  -7.132  0.00  0.00    -0.503 OA
ATOM     57  H   LIG d   1       5.947   1.006  -7.170  0.00  0.00     0.292 HD
ENDBRANCH  49  56
BRANCH  50  58
ATOM     58  O   LIG d   1       7.133  -0.924  -8.654  0.00  0.00    -0.491 OA
BRANCH  58  59
ATOM     59  C   LIG d   1       6.026  -1.813  -8.500  0.00  0.00     0.079 C 
ATOM     60  H   LIG d   1       5.315  -1.651  -9.310  0.00  0.00     0.066 H 
ATOM     61  H   LIG d   1       6.380  -2.843  -8.528  0.00  0.00     0.066 H 
ATOM     62  H   LIG d   1       5.536  -1.622  -7.544  0.00  0.00     0.066 H 
ENDBRANCH  58  59
ENDBRANCH  50  58
BRANCH  52  63
ATOM     63  C   LIG d   1      10.694  -2.490  -5.733  0.00  0.00    -0.056 C 
ATOM     64  C   LIG d   1      11.057  -2.631  -4.466  0.00  0.00    -0.058 C 
ATOM     65  H   LIG d   1      10.614  -2.007  -3.704  0.00  0.00     0.059 H 
ATOM     66  H   LIG d   1      11.137  -3.115  -6.494  0.00  0.00     0.062 H 
BRANCH  64  67
ATOM     67  C   LIG d   1      12.087  -3.664  -4.087  0.00  0.00     0.063 C 
ATOM     68  H   LIG d   1      12.174  -4.401  -4.885  0.00  0.00     0.060 H 
ATOM     69  H   LIG d   1      13.051  -3.176  -3.936  0.00  0.00     0.060 H 
BRANCH  67  70
ATOM     70  O   LIG d   1      11.689  -4.315  -2.880  0.00  0.00    -0.391 OA
ATOM     71  H   LIG d   1      10.913  -3.922  -2.457  0.00  0.00     0.210 HD
ENDBRANCH  67  70
ENDBRANCH  64  67
ENDBRANCH  52  63
ENDBRANCH   1  48
TORSDOF 20
ENDMDL
