MODEL 1
REMARK VINA RESULT:      -4.5      0.000      0.000
REMARK  6 active torsions:
REMARK  status: ('A' for Active; 'I' for Inactive)
REMARK    1  A    between atoms: C_2  and  C_14 
REMARK    2  A    between atoms: C_3  and  O_13 
REMARK    3  A    between atoms: C_5  and  O_12 
REMARK    4  A    between atoms: C_7  and  O_11 
REMARK    5  A    between atoms: C_9  and  N_25 
REMARK    6  A    between atoms: C_14  and  O_15 
ROOT
ATOM      1  C   LIG d   1       3.084   0.686  -4.496  0.00  0.00    -0.030 C 
ATOM      2  C   LIG d   1       3.864   0.457  -3.488  0.00  0.00    -0.012 C 
ATOM      3  C   LIG d   1       4.966  -0.561  -3.491  0.00  0.00     0.107 C 
ATOM      4  H   LIG d   1       4.961  -1.103  -2.545  0.00  0.00     0.067 H 
ATOM      5  C   LIG d   1       4.766  -1.550  -4.642  0.00  0.00     0.116 C 
ATOM      6  H   LIG d   1       5.659  -2.165  -4.756  0.00  0.00     0.065 H 
ATOM      7  C   LIG d   1       4.519  -0.757  -5.931  0.00  0.00     0.130 C 
ATOM      8  H   LIG d   1       4.502  -1.438  -6.782  0.00  0.00     0.068 H 
ATOM      9  C   LIG d   1       3.167  -0.043  -5.804  0.00  0.00     0.024 C 
ATOM     10  H   LIG d   1       2.368  -0.781  -5.859  0.00  0.00     0.092 H 
ATOM     11  H   LIG d   1       2.328   1.449  -4.387  0.00  0.00     0.063 H 
ENDROOT
BRANCH   2  12
ATOM     12  C   LIG d   1       3.653   1.265  -2.234  0.00  0.00     0.068 C 
ATOM     13  H   LIG d   1       3.517   2.315  -2.496  0.00  0.00     0.060 H 
ATOM     14  H   LIG d   1       2.767   0.903  -1.713  0.00  0.00     0.060 H 
BRANCH  12  15
ATOM     15  O   LIG d   1       4.794   1.130  -1.383  0.00  0.00    -0.391 OA
ATOM     16  H   LIG d   1       5.043   0.214  -1.202  0.00  0.00     0.210 HD
ENDBRANCH  12  15
ENDBRANCH   2  12
BRANCH   3  17
ATOM     17  O   LIG d   1       6.221   0.103  -3.650  0.00  0.00    -0.385 OA
ATOM     18  H   LIG d   1       6.167   1.066  -3.590  0.00  0.00     0.210 HD
ENDBRANCH   3  17
BRANCH   9  19
ATOM     19  N   LIG d   1       3.020   0.901  -6.927  0.00  0.00     0.226 N 
ATOM     20  H   LIG d   1       3.926   1.298  -7.171  0.00  0.00     0.200 HD
ATOM     21  H   LIG d   1       2.630   0.422  -7.736  0.00  0.00     0.200 HD
ATOM     22  H   LIG d   1       2.386   1.660  -6.649  0.00  0.00     0.200 HD
ENDBRANCH   9  19
BRANCH   5  23
ATOM     23  O   LIG d   1       3.639  -2.385  -4.368  0.00  0.00    -0.386 OA
ATOM     24  H   LIG d   1       3.861  -3.206  -3.908  0.00  0.00     0.210 HD
ENDBRANCH   5  23
BRANCH   7  25
ATOM     25  O   LIG d   1       5.556   0.211  -6.106  0.00  0.00    -0.383 OA
ATOM     26  H   LIG d   1       6.379  -0.153  -6.462  0.00  0.00     0.210 HD
ENDBRANCH   7  25
TORSDOF 6
ENDMDL
MODEL 2
REMARK VINA RESULT:      -4.4      2.099      3.074
REMARK  6 active torsions:
REMARK  status: ('A' for Active; 'I' for Inactive)
REMARK    1  A    between atoms: C_2  and  C_14 
REMARK    2  A    between atoms: C_3  and  O_13 
REMARK    3  A    between atoms: C_5  and  O_12 
REMARK    4  A    between atoms: C_7  and  O_11 
REMARK    5  A    between atoms: C_9  and  N_25 
REMARK    6  A    between atoms: C_14  and  O_15 
ROOT
ATOM      1  C   LIG d   1       5.802  -0.950  -3.370  0.00  0.00    -0.030 C 
ATOM      2  C   LIG d   1       4.732  -0.240  -3.202  0.00  0.00    -0.012 C 
ATOM      3  C   LIG d   1       3.624  -0.140  -4.209  0.00  0.00     0.107 C 
ATOM      4  H   LIG d   1       3.297   0.898  -4.284  0.00  0.00     0.067 H 
ATOM      5  C   LIG d   1       4.111  -0.618  -5.579  0.00  0.00     0.116 C 
ATOM      6  H   LIG d   1       3.261  -0.721  -6.254  0.00  0.00     0.065 H 
ATOM      7  C   LIG d   1       4.801  -1.976  -5.406  0.00  0.00     0.130 C 
ATOM      8  H   LIG d   1       5.041  -2.392  -6.384  0.00  0.00     0.068 H 
ATOM      9  C   LIG d   1       6.087  -1.762  -4.598  0.00  0.00     0.024 C 
ATOM     10  H   LIG d   1       6.815  -1.237  -5.218  0.00  0.00     0.092 H 
ATOM     11  H   LIG d   1       6.533  -0.957  -2.575  0.00  0.00     0.063 H 
ENDROOT
BRANCH   2  12
ATOM     12  C   LIG d   1       4.589   0.531  -1.916  0.00  0.00     0.068 C 
ATOM     13  H   LIG d   1       4.496  -0.166  -1.083  0.00  0.00     0.060 H 
ATOM     14  H   LIG d   1       5.468   1.159  -1.769  0.00  0.00     0.060 H 
BRANCH  12  15
ATOM     15  O   LIG d   1       3.422   1.354  -1.981  0.00  0.00    -0.391 OA
ATOM     16  H   LIG d   1       3.296   1.790  -2.835  0.00  0.00     0.210 HD
ENDBRANCH  12  15
ENDBRANCH   2  12
BRANCH   3  17
ATOM     17  O   LIG d   1       2.527  -0.953  -3.787  0.00  0.00    -0.385 OA
ATOM     18  H   LIG d   1       2.103  -0.649  -2.973  0.00  0.00     0.210 HD
ENDBRANCH   3  17
BRANCH   9  19
ATOM     19  N   LIG d   1       6.641  -3.077  -4.226  0.00  0.00     0.226 N 
ATOM     20  H   LIG d   1       6.020  -3.820  -4.543  0.00  0.00     0.200 HD
ATOM     21  H   LIG d   1       7.560  -3.199  -4.646  0.00  0.00     0.200 HD
ATOM     22  H   LIG d   1       6.729  -3.129  -3.204  0.00  0.00     0.200 HD
ENDBRANCH   9  19
BRANCH   5  23
ATOM     23  O   LIG d   1       5.039   0.328  -6.116  0.00  0.00    -0.386 OA
ATOM     24  H   LIG d   1       4.735   0.761  -6.925  0.00  0.00     0.210 HD
ENDBRANCH   5  23
BRANCH   7  25
ATOM     25  O   LIG d   1       3.936  -2.868  -4.699  0.00  0.00    -0.383 OA
ATOM     26  H   LIG d   1       4.362  -3.691  -4.422  0.00  0.00     0.210 HD
ENDBRANCH   7  25
TORSDOF 6
ENDMDL
MODEL 3
REMARK VINA RESULT:      -4.4      2.427      2.755
REMARK  6 active torsions:
REMARK  status: ('A' for Active; 'I' for Inactive)
REMARK    1  A    between atoms: C_2  and  C_14 
REMARK    2  A    between atoms: C_3  and  O_13 
REMARK    3  A    between atoms: C_5  and  O_12 
REMARK    4  A    between atoms: C_7  and  O_11 
REMARK    5  A    between atoms: C_9  and  N_25 
REMARK    6  A    between atoms: C_14  and  O_15 
ROOT
ATOM      1  C   LIG d   1       4.610  -1.959  -3.134  0.00  0.00    -0.030 C 
ATOM      2  C   LIG d   1       5.127  -0.830  -2.768  0.00  0.00    -0.012 C 
ATOM      3  C   LIG d   1       6.401  -0.269  -3.327  0.00  0.00     0.107 C 
ATOM      4  H   LIG d   1       7.000   0.145  -2.516  0.00  0.00     0.067 H 
ATOM      5  C   LIG d   1       7.196  -1.368  -4.035  0.00  0.00     0.116 C 
ATOM      6  H   LIG d   1       8.017  -0.923  -4.596  0.00  0.00     0.065 H 
ATOM      7  C   LIG d   1       6.258  -2.110  -4.995  0.00  0.00     0.130 C 
ATOM      8  H   LIG d   1       6.832  -2.810  -5.600  0.00  0.00     0.068 H 
ATOM      9  C   LIG d   1       5.218  -2.868  -4.160  0.00  0.00     0.024 C 
ATOM     10  H   LIG d   1       5.705  -3.705  -3.659  0.00  0.00     0.092 H 
ATOM     11  H   LIG d   1       3.683  -2.264  -2.671  0.00  0.00     0.063 H 
ENDROOT
BRANCH   2  12
ATOM     12  C   LIG d   1       4.403  -0.028  -1.717  0.00  0.00     0.068 C 
ATOM     13  H   LIG d   1       3.348   0.048  -1.981  0.00  0.00     0.060 H 
ATOM     14  H   LIG d   1       4.501  -0.523  -0.751  0.00  0.00     0.060 H 
BRANCH  12  15
ATOM     15  O   LIG d   1       4.971   1.281  -1.642  0.00  0.00    -0.391 OA
ATOM     16  H   LIG d   1       5.900   1.322  -1.910  0.00  0.00     0.210 HD
ENDBRANCH  12  15
ENDBRANCH   2  12
BRANCH   3  17
ATOM     17  O   LIG d   1       6.090   0.767  -4.262  0.00  0.00    -0.385 OA
ATOM     18  H   LIG d   1       6.350   0.568  -5.171  0.00  0.00     0.210 HD
ENDBRANCH   3  17
BRANCH   9  19
ATOM     19  N   LIG d   1       4.176  -3.395  -5.060  0.00  0.00     0.226 N 
ATOM     20  H   LIG d   1       3.950  -2.704  -5.774  0.00  0.00     0.200 HD
ATOM     21  H   LIG d   1       4.501  -4.251  -5.506  0.00  0.00     0.200 HD
ATOM     22  H   LIG d   1       3.331  -3.601  -4.514  0.00  0.00     0.200 HD
ENDBRANCH   9  19
BRANCH   5  23
ATOM     23  O   LIG d   1       7.715  -2.283  -3.068  0.00  0.00    -0.386 OA
ATOM     24  H   LIG d   1       8.637  -2.534  -3.219  0.00  0.00     0.210 HD
ENDBRANCH   5  23
BRANCH   7  25
ATOM     25  O   LIG d   1       5.594  -1.168  -5.842  0.00  0.00    -0.383 OA
ATOM     26  H   LIG d   1       6.009  -1.058  -6.708  0.00  0.00     0.210 HD
ENDBRANCH   7  25
TORSDOF 6
ENDMDL
MODEL 4
REMARK VINA RESULT:      -4.4      1.794      3.039
REMARK  6 active torsions:
REMARK  status: ('A' for Active; 'I' for Inactive)
REMARK    1  A    between atoms: C_2  and  C_14 
REMARK    2  A    between atoms: C_3  and  O_13 
REMARK    3  A    between atoms: C_5  and  O_12 
REMARK    4  A    between atoms: C_7  and  O_11 
REMARK    5  A    between atoms: C_9  and  N_25 
REMARK    6  A    between atoms: C_14  and  O_15 
ROOT
ATOM      1  C   LIG d   1       5.220  -0.253  -4.867  0.00  0.00    -0.030 C 
ATOM      2  C   LIG d   1       5.655  -0.245  -3.648  0.00  0.00    -0.012 C 
ATOM      3  C   LIG d   1       4.785  -0.019  -2.447  0.00  0.00     0.107 C 
ATOM      4  H   LIG d   1       5.294   0.650  -1.752  0.00  0.00     0.067 H 
ATOM      5  C   LIG d   1       3.454   0.606  -2.869  0.00  0.00     0.116 C 
ATOM      6  H   LIG d   1       2.759   0.592  -2.028  0.00  0.00     0.065 H 
ATOM      7  C   LIG d   1       2.875  -0.213  -4.029  0.00  0.00     0.130 C 
ATOM      8  H   LIG d   1       1.869   0.137  -4.260  0.00  0.00     0.068 H 
ATOM      9  C   LIG d   1       3.787  -0.029  -5.249  0.00  0.00     0.024 C 
ATOM     10  H   LIG d   1       3.669   0.985  -5.632  0.00  0.00     0.092 H 
ATOM     11  H   LIG d   1       5.933  -0.433  -5.658  0.00  0.00     0.063 H 
ENDROOT
BRANCH   2  12
ATOM     12  C   LIG d   1       7.126  -0.478  -3.421  0.00  0.00     0.068 C 
ATOM     13  H   LIG d   1       7.672  -0.282  -4.345  0.00  0.00     0.060 H 
ATOM     14  H   LIG d   1       7.484   0.192  -2.639  0.00  0.00     0.060 H 
BRANCH  12  15
ATOM     15  O   LIG d   1       7.338  -1.833  -3.021  0.00  0.00    -0.391 OA
ATOM     16  H   LIG d   1       7.682  -2.401  -3.724  0.00  0.00     0.210 HD
ENDBRANCH  12  15
ENDBRANCH   2  12
BRANCH   3  17
ATOM     17  O   LIG d   1       4.537  -1.271  -1.802  0.00  0.00    -0.385 OA
ATOM     18  H   LIG d   1       4.508  -1.218  -0.837  0.00  0.00     0.210 HD
ENDBRANCH   3  17
BRANCH   9  19
ATOM     19  N   LIG d   1       3.380  -0.983  -6.297  0.00  0.00     0.226 N 
ATOM     20  H   LIG d   1       3.433  -0.539  -7.213  0.00  0.00     0.200 HD
ATOM     21  H   LIG d   1       3.989  -1.799  -6.280  0.00  0.00     0.200 HD
ATOM     22  H   LIG d   1       2.413  -1.282  -6.124  0.00  0.00     0.200 HD
ENDBRANCH   9  19
BRANCH   5  23
ATOM     23  O   LIG d   1       3.669   1.953  -3.293  0.00  0.00    -0.386 OA
ATOM     24  H   LIG d   1       3.881   2.041  -4.232  0.00  0.00     0.210 HD
ENDBRANCH   5  23
BRANCH   7  25
ATOM     25  O   LIG d   1       2.835  -1.596  -3.668  0.00  0.00    -0.383 OA
ATOM     26  H   LIG d   1       2.530  -1.758  -2.765  0.00  0.00     0.210 HD
ENDBRANCH   7  25
TORSDOF 6
ENDMDL
MODEL 5
REMARK VINA RESULT:      -4.4      2.410      3.732
REMARK  6 active torsions:
REMARK  status: ('A' for Active; 'I' for Inactive)
REMARK    1  A    between atoms: C_2  and  C_14 
REMARK    2  A    between atoms: C_3  and  O_13 
REMARK    3  A    between atoms: C_5  and  O_12 
REMARK    4  A    between atoms: C_7  and  O_11 
REMARK    5  A    between atoms: C_9  and  N_25 
REMARK    6  A    between atoms: C_14  and  O_15 
ROOT
ATOM      1  C   LIG d   1       5.521  -0.695  -4.704  0.00  0.00    -0.030 C 
ATOM      2  C   LIG d   1       4.301  -0.363  -4.982  0.00  0.00    -0.012 C 
ATOM      3  C   LIG d   1       3.324   0.169  -3.976  0.00  0.00     0.107 C 
ATOM      4  H   LIG d   1       2.352  -0.300  -4.132  0.00  0.00     0.067 H 
ATOM      5  C   LIG d   1       3.811  -0.135  -2.557  0.00  0.00     0.116 C 
ATOM      6  H   LIG d   1       3.202   0.413  -1.836  0.00  0.00     0.065 H 
ATOM      7  C   LIG d   1       5.274   0.305  -2.436  0.00  0.00     0.130 C 
ATOM      8  H   LIG d   1       5.600   0.215  -1.400  0.00  0.00     0.068 H 
ATOM      9  C   LIG d   1       6.124  -0.604  -3.333  0.00  0.00     0.024 C 
ATOM     10  H   LIG d   1       6.170  -1.599  -2.891  0.00  0.00     0.092 H 
ATOM     11  H   LIG d   1       6.142  -1.060  -5.508  0.00  0.00     0.063 H 
ENDROOT
BRANCH   2  12
ATOM     12  C   LIG d   1       3.834  -0.519  -6.406  0.00  0.00     0.068 C 
ATOM     13  H   LIG d   1       4.414   0.140  -7.053  0.00  0.00     0.060 H 
ATOM     14  H   LIG d   1       3.971  -1.553  -6.723  0.00  0.00     0.060 H 
BRANCH  12  15
ATOM     15  O   LIG d   1       2.450  -0.173  -6.493  0.00  0.00    -0.391 OA
ATOM     16  H   LIG d   1       2.041  -0.399  -7.340  0.00  0.00     0.210 HD
ENDBRANCH  12  15
ENDBRANCH   2  12
BRANCH   3  17
ATOM     17  O   LIG d   1       3.200   1.583  -4.141  0.00  0.00    -0.385 OA
ATOM     18  H   LIG d   1       2.516   1.847  -4.771  0.00  0.00     0.210 HD
ENDBRANCH   3  17
BRANCH   9  19
ATOM     19  N   LIG d   1       7.490  -0.055  -3.411  0.00  0.00     0.226 N 
ATOM     20  H   LIG d   1       7.714   0.190  -4.374  0.00  0.00     0.200 HD
ATOM     21  H   LIG d   1       7.566   0.774  -2.824  0.00  0.00     0.200 HD
ATOM     22  H   LIG d   1       8.158  -0.762  -3.081  0.00  0.00     0.200 HD
ENDBRANCH   9  19
BRANCH   5  23
ATOM     23  O   LIG d   1       3.708  -1.538  -2.304  0.00  0.00    -0.386 OA
ATOM     24  H   LIG d   1       3.321  -1.756  -1.445  0.00  0.00     0.210 HD
ENDBRANCH   5  23
BRANCH   7  25
ATOM     25  O   LIG d   1       5.406   1.661  -2.870  0.00  0.00    -0.383 OA
ATOM     26  H   LIG d   1       5.582   1.756  -3.816  0.00  0.00     0.210 HD
ENDBRANCH   7  25
TORSDOF 6
ENDMDL
MODEL 6
REMARK VINA RESULT:      -4.3      2.504      4.128
REMARK  6 active torsions:
REMARK  status: ('A' for Active; 'I' for Inactive)
REMARK    1  A    between atoms: C_2  and  C_14 
REMARK    2  A    between atoms: C_3  and  O_13 
REMARK    3  A    between atoms: C_5  and  O_12 
REMARK    4  A    between atoms: C_7  and  O_11 
REMARK    5  A    between atoms: C_9  and  N_25 
REMARK    6  A    between atoms: C_14  and  O_15 
ROOT
ATOM      1  C   LIG d   1       6.435  -2.117  -3.903  0.00  0.00    -0.030 C 
ATOM      2  C   LIG d   1       5.255  -2.540  -4.229  0.00  0.00    -0.012 C 
ATOM      3  C   LIG d   1       3.984  -1.807  -3.919  0.00  0.00     0.107 C 
ATOM      4  H   LIG d   1       3.232  -2.517  -3.572  0.00  0.00     0.067 H 
ATOM      5  C   LIG d   1       4.230  -0.759  -2.831  0.00  0.00     0.116 C 
ATOM      6  H   LIG d   1       3.360  -0.108  -2.746  0.00  0.00     0.065 H 
ATOM      7  C   LIG d   1       5.459   0.071  -3.222  0.00  0.00     0.130 C 
ATOM      8  H   LIG d   1       5.575   0.902  -2.527  0.00  0.00     0.068 H 
ATOM      9  C   LIG d   1       6.693  -0.839  -3.161  0.00  0.00     0.024 C 
ATOM     10  H   LIG d   1       6.918  -1.065  -2.119  0.00  0.00     0.092 H 
ATOM     11  H   LIG d   1       7.284  -2.721  -4.183  0.00  0.00     0.063 H 
ENDROOT
BRANCH   2  12
ATOM     12  C   LIG d   1       5.154  -3.850  -4.967  0.00  0.00     0.068 C 
ATOM     13  H   LIG d   1       5.962  -3.920  -5.695  0.00  0.00     0.060 H 
ATOM     14  H   LIG d   1       5.230  -4.674  -4.258  0.00  0.00     0.060 H 
BRANCH  12  15
ATOM     15  O   LIG d   1       3.896  -3.919  -5.644  0.00  0.00    -0.391 OA
ATOM     16  H   LIG d   1       3.892  -3.487  -6.509  0.00  0.00     0.210 HD
ENDBRANCH  12  15
ENDBRANCH   2  12
BRANCH   3  17
ATOM     17  O   LIG d   1       3.512  -1.159  -5.103  0.00  0.00    -0.385 OA
ATOM     18  H   LIG d   1       4.162  -0.577  -5.518  0.00  0.00     0.210 HD
ENDBRANCH   3  17
BRANCH   9  19
ATOM     19  N   LIG d   1       7.840  -0.126  -3.751  0.00  0.00     0.226 N 
ATOM     20  H   LIG d   1       8.374  -0.757  -4.348  0.00  0.00     0.200 HD
ATOM     21  H   LIG d   1       7.513   0.665  -4.302  0.00  0.00     0.200 HD
ATOM     22  H   LIG d   1       8.448   0.217  -2.999  0.00  0.00     0.200 HD
ENDBRANCH   9  19
BRANCH   5  23
ATOM     23  O   LIG d   1       4.468  -1.410  -1.582  0.00  0.00    -0.386 OA
ATOM     24  H   LIG d   1       3.947  -2.215  -1.452  0.00  0.00     0.210 HD
ENDBRANCH   5  23
BRANCH   7  25
ATOM     25  O   LIG d   1       5.299   0.570  -4.552  0.00  0.00    -0.383 OA
ATOM     26  H   LIG d   1       4.385   0.786  -4.784  0.00  0.00     0.210 HD
ENDBRANCH   7  25
TORSDOF 6
ENDMDL
MODEL 7
REMARK VINA RESULT:      -4.1     10.824     12.047
REMARK  6 active torsions:
REMARK  status: ('A' for Active; 'I' for Inactive)
REMARK    1  A    between atoms: C_2  and  C_14 
REMARK    2  A    between atoms: C_3  and  O_13 
REMARK    3  A    between atoms: C_5  and  O_12 
REMARK    4  A    between atoms: C_7  and  O_11 
REMARK    5  A    between atoms: C_9  and  N_25 
REMARK    6  A    between atoms: C_14  and  O_15 
ROOT
ATOM      1  C   LIG d   1      10.056   9.541  -3.752  0.00  0.00    -0.030 C 
ATOM      2  C   LIG d   1       9.827   9.276  -2.505  0.00  0.00    -0.012 C 
ATOM      3  C   LIG d   1       9.431  10.303  -1.487  0.00  0.00     0.107 C 
ATOM      4  H   LIG d   1       9.981  10.127  -0.562  0.00  0.00     0.067 H 
ATOM      5  C   LIG d   1       9.748  11.709  -2.004  0.00  0.00     0.116 C 
ATOM      6  H   LIG d   1       9.290  12.451  -1.350  0.00  0.00     0.065 H 
ATOM      7  C   LIG d   1       9.178  11.848  -3.421  0.00  0.00     0.130 C 
ATOM      8  H   LIG d   1       9.281  12.879  -3.757  0.00  0.00     0.068 H 
ATOM      9  C   LIG d   1       9.966  10.914  -4.349  0.00  0.00     0.024 C 
ATOM     10  H   LIG d   1      10.970  11.314  -4.488  0.00  0.00     0.092 H 
ATOM     11  H   LIG d   1      10.328   8.722  -4.402  0.00  0.00     0.063 H 
ENDROOT
BRANCH   2  12
ATOM     12  C   LIG d   1       9.966   7.846  -2.050  0.00  0.00     0.068 C 
ATOM     13  H   LIG d   1      10.157   7.207  -2.912  0.00  0.00     0.060 H 
ATOM     14  H   LIG d   1      10.796   7.767  -1.348  0.00  0.00     0.060 H 
BRANCH  12  15
ATOM     15  O   LIG d   1       8.759   7.432  -1.408  0.00  0.00    -0.391 OA
ATOM     16  H   LIG d   1       7.974   7.490  -1.971  0.00  0.00     0.210 HD
ENDBRANCH  12  15
ENDBRANCH   2  12
BRANCH   3  17
ATOM     17  O   LIG d   1       8.029  10.197  -1.231  0.00  0.00    -0.385 OA
ATOM     18  H   LIG d   1       7.802  10.166  -0.292  0.00  0.00     0.210 HD
ENDBRANCH   3  17
BRANCH   9  19
ATOM     19  N   LIG d   1       9.289  10.861  -5.657  0.00  0.00     0.226 N 
ATOM     20  H   LIG d   1       8.281  10.943  -5.533  0.00  0.00     0.200 HD
ATOM     21  H   LIG d   1       9.621  11.618  -6.252  0.00  0.00     0.200 HD
ATOM     22  H   LIG d   1       9.499   9.963  -6.109  0.00  0.00     0.200 HD
ENDBRANCH   9  19
BRANCH   5  23
ATOM     23  O   LIG d   1      11.163  11.902  -2.033  0.00  0.00    -0.386 OA
ATOM     24  H   LIG d   1      11.641  11.420  -1.344  0.00  0.00     0.210 HD
ENDBRANCH   5  23
BRANCH   7  25
ATOM     25  O   LIG d   1       7.799  11.472  -3.424  0.00  0.00    -0.383 OA
ATOM     26  H   LIG d   1       7.532  10.964  -4.203  0.00  0.00     0.210 HD
ENDBRANCH   7  25
TORSDOF 6
ENDMDL
MODEL 8
REMARK VINA RESULT:      -4.1      8.560      9.819
REMARK  6 active torsions:
REMARK  status: ('A' for Active; 'I' for Inactive)
REMARK    1  A    between atoms: C_2  and  C_14 
REMARK    2  A    between atoms: C_3  and  O_13 
REMARK    3  A    between atoms: C_5  and  O_12 
REMARK    4  A    between atoms: C_7  and  O_11 
REMARK    5  A    between atoms: C_9  and  N_25 
REMARK    6  A    between atoms: C_14  and  O_15 
ROOT
ATOM      1  C   LIG d   1       9.675   6.085  -2.446  0.00  0.00    -0.030 C 
ATOM      2  C   LIG d   1      10.488   5.101  -2.228  0.00  0.00    -0.012 C 
ATOM      3  C   LIG d   1      11.729   5.205  -1.391  0.00  0.00     0.107 C 
ATOM      4  H   LIG d   1      12.545   4.678  -1.886  0.00  0.00     0.067 H 
ATOM      5  C   LIG d   1      12.115   6.673  -1.200  0.00  0.00     0.116 C 
ATOM      6  H   LIG d   1      12.896   6.751  -0.443  0.00  0.00     0.065 H 
ATOM      7  C   LIG d   1      10.875   7.450  -0.743  0.00  0.00     0.130 C 
ATOM      8  H   LIG d   1      11.157   8.469  -0.479  0.00  0.00     0.068 H 
ATOM      9  C   LIG d   1       9.866   7.469  -1.899  0.00  0.00     0.024 C 
ATOM     10  H   LIG d   1      10.240   8.121  -2.688  0.00  0.00     0.092 H 
ATOM     11  H   LIG d   1       8.806   5.897  -3.058  0.00  0.00     0.063 H 
ENDROOT
BRANCH   2  12
ATOM     12  C   LIG d   1      10.168   3.768  -2.853  0.00  0.00     0.068 C 
ATOM     13  H   LIG d   1       9.089   3.607  -2.833  0.00  0.00     0.060 H 
ATOM     14  H   LIG d   1      10.517   3.757  -3.885  0.00  0.00     0.060 H 
BRANCH  12  15
ATOM     15  O   LIG d   1      10.819   2.729  -2.119  0.00  0.00    -0.391 OA
ATOM     16  H   LIG d   1      11.729   2.561  -2.399  0.00  0.00     0.210 HD
ENDBRANCH  12  15
ENDBRANCH   2  12
BRANCH   3  17
ATOM     17  O   LIG d   1      11.487   4.609  -0.114  0.00  0.00    -0.385 OA
ATOM     18  H   LIG d   1      11.650   5.201   0.633  0.00  0.00     0.210 HD
ENDBRANCH   3  17
BRANCH   9  19
ATOM     19  N   LIG d   1       8.585   8.006  -1.405  0.00  0.00     0.226 N 
ATOM     20  H   LIG d   1       8.048   8.393  -2.179  0.00  0.00     0.200 HD
ATOM     21  H   LIG d   1       8.048   7.267  -0.955  0.00  0.00     0.200 HD
ATOM     22  H   LIG d   1       8.772   8.749  -0.721  0.00  0.00     0.200 HD
ENDBRANCH   9  19
BRANCH   5  23
ATOM     23  O   LIG d   1      12.589   7.210  -2.437  0.00  0.00    -0.386 OA
ATOM     24  H   LIG d   1      13.067   8.045  -2.346  0.00  0.00     0.210 HD
ENDBRANCH   5  23
BRANCH   7  25
ATOM     25  O   LIG d   1      10.291   6.801   0.390  0.00  0.00    -0.383 OA
ATOM     26  H   LIG d   1      10.003   7.408   1.085  0.00  0.00     0.210 HD
ENDBRANCH   7  25
TORSDOF 6
ENDMDL
MODEL 9
REMARK VINA RESULT:      -4.0      1.975      3.763
REMARK  6 active torsions:
REMARK  status: ('A' for Active; 'I' for Inactive)
REMARK    1  A    between atoms: C_2  and  C_14 
REMARK    2  A    between atoms: C_3  and  O_13 
REMARK    3  A    between atoms: C_5  and  O_12 
REMARK    4  A    between atoms: C_7  and  O_11 
REMARK    5  A    between atoms: C_9  and  N_25 
REMARK    6  A    between atoms: C_14  and  O_15 
ROOT
ATOM      1  C   LIG d   1       2.930   0.252  -5.273  0.00  0.00    -0.030 C 
ATOM      2  C   LIG d   1       3.396  -0.076  -6.436  0.00  0.00    -0.012 C 
ATOM      3  C   LIG d   1       4.599  -0.949  -6.644  0.00  0.00     0.107 C 
ATOM      4  H   LIG d   1       5.218  -0.529  -7.437  0.00  0.00     0.067 H 
ATOM      5  C   LIG d   1       5.418  -1.035  -5.354  0.00  0.00     0.116 C 
ATOM      6  H   LIG d   1       6.176  -1.812  -5.453  0.00  0.00     0.065 H 
ATOM      7  C   LIG d   1       4.473  -1.380  -4.197  0.00  0.00     0.130 C 
ATOM      8  H   LIG d   1       5.053  -1.571  -3.294  0.00  0.00     0.068 H 
ATOM      9  C   LIG d   1       3.533  -0.189  -3.972  0.00  0.00     0.024 C 
ATOM     10  H   LIG d   1       4.099   0.635  -3.539  0.00  0.00     0.092 H 
ATOM     11  H   LIG d   1       2.053   0.880  -5.239  0.00  0.00     0.063 H 
ENDROOT
BRANCH   2  12
ATOM     12  C   LIG d   1       2.687   0.452  -7.656  0.00  0.00     0.068 C 
ATOM     13  H   LIG d   1       3.027  -0.092  -8.538  0.00  0.00     0.060 H 
ATOM     14  H   LIG d   1       1.612   0.317  -7.538  0.00  0.00     0.060 H 
BRANCH  12  15
ATOM     15  O   LIG d   1       2.979   1.843  -7.812  0.00  0.00    -0.391 OA
ATOM     16  H   LIG d   1       3.261   2.087  -8.704  0.00  0.00     0.210 HD
ENDBRANCH  12  15
ENDBRANCH   2  12
BRANCH   3  17
ATOM     17  O   LIG d   1       4.170  -2.259  -7.021  0.00  0.00    -0.385 OA
ATOM     18  H   LIG d   1       3.693  -2.732  -6.326  0.00  0.00     0.210 HD
ENDBRANCH   3  17
BRANCH   9  19
ATOM     19  N   LIG d   1       2.475  -0.588  -3.026  0.00  0.00     0.226 N 
ATOM     20  H   LIG d   1       1.995   0.238  -2.671  0.00  0.00     0.200 HD
ATOM     21  H   LIG d   1       1.804  -1.197  -3.491  0.00  0.00     0.200 HD
ATOM     22  H   LIG d   1       2.898  -1.094  -2.240  0.00  0.00     0.200 HD
ENDBRANCH   9  19
BRANCH   5  23
ATOM     23  O   LIG d   1       6.048   0.222  -5.101  0.00  0.00    -0.386 OA
ATOM     24  H   LIG d   1       5.775   0.640  -4.272  0.00  0.00     0.210 HD
ENDBRANCH   5  23
BRANCH   7  25
ATOM     25  O   LIG d   1       3.704  -2.538  -4.533  0.00  0.00    -0.383 OA
ATOM     26  H   LIG d   1       2.909  -2.652  -3.994  0.00  0.00     0.210 HD
ENDBRANCH   7  25
TORSDOF 6
ENDMDL
MODEL 10
REMARK VINA RESULT:      -4.0     10.079     11.324
REMARK  6 active torsions:
REMARK  status: ('A' for Active; 'I' for Inactive)
REMARK    1  A    between atoms: C_2  and  C_14 
REMARK    2  A    between atoms: C_3  and  O_13 
REMARK    3  A    between atoms: C_5  and  O_12 
REMARK    4  A    between atoms: C_7  and  O_11 
REMARK    5  A    between atoms: C_9  and  N_25 
REMARK    6  A    between atoms: C_14  and  O_15 
ROOT
ATOM      1  C   LIG d   1      -2.997  -7.217 -11.093  0.00  0.00    -0.030 C 
ATOM      2  C   LIG d   1      -1.850  -7.250 -10.493  0.00  0.00    -0.012 C 
ATOM      3  C   LIG d   1      -1.301  -6.124  -9.667  0.00  0.00     0.107 C 
ATOM      4  H   LIG d   1      -0.242  -5.993  -9.894  0.00  0.00     0.067 H 
ATOM      5  C   LIG d   1      -2.051  -4.827  -9.978  0.00  0.00     0.116 C 
ATOM      6  H   LIG d   1      -1.781  -4.063  -9.248  0.00  0.00     0.065 H 
ATOM      7  C   LIG d   1      -3.557  -5.103  -9.902  0.00  0.00     0.130 C 
ATOM      8  H   LIG d   1      -4.106  -4.166  -9.994  0.00  0.00     0.068 H 
ATOM      9  C   LIG d   1      -3.932  -6.045 -11.054  0.00  0.00     0.024 C 
ATOM     10  H   LIG d   1      -3.868  -5.500 -11.995  0.00  0.00     0.092 H 
ATOM     11  H   LIG d   1      -3.299  -8.088 -11.655  0.00  0.00     0.063 H 
ENDROOT
BRANCH   2  12
ATOM     12  C   LIG d   1      -1.015  -8.497 -10.631  0.00  0.00     0.068 C 
ATOM     13  H   LIG d   1      -1.457  -9.297 -10.037  0.00  0.00     0.060 H 
ATOM     14  H   LIG d   1      -0.982  -8.798 -11.678  0.00  0.00     0.060 H 
BRANCH  12  15
ATOM     15  O   LIG d   1       0.311  -8.235 -10.169  0.00  0.00    -0.391 OA
ATOM     16  H   LIG d   1       0.914  -7.926 -10.859  0.00  0.00     0.210 HD
ENDBRANCH  12  15
ENDBRANCH   2  12
BRANCH   3  17
ATOM     17  O   LIG d   1      -1.453  -6.438  -8.281  0.00  0.00    -0.385 OA
ATOM     18  H   LIG d   1      -2.165  -5.954  -7.843  0.00  0.00     0.210 HD
ENDBRANCH   3  17
BRANCH   9  19
ATOM     19  N   LIG d   1      -5.320  -6.503 -10.862  0.00  0.00     0.226 N 
ATOM     20  H   LIG d   1      -5.637  -6.275  -9.921  0.00  0.00     0.200 HD
ATOM     21  H   LIG d   1      -5.931  -6.056 -11.544  0.00  0.00     0.200 HD
ATOM     22  H   LIG d   1      -5.361  -7.521 -10.992  0.00  0.00     0.200 HD
ENDBRANCH   9  19
BRANCH   5  23
ATOM     23  O   LIG d   1      -1.710  -4.379 -11.291  0.00  0.00    -0.386 OA
ATOM     24  H   LIG d   1      -1.835  -3.429 -11.427  0.00  0.00     0.210 HD
ENDBRANCH   5  23
BRANCH   7  25
ATOM     25  O   LIG d   1      -3.870  -5.727  -8.654  0.00  0.00    -0.383 OA
ATOM     26  H   LIG d   1      -3.434  -5.321  -7.892  0.00  0.00     0.210 HD
ENDBRANCH   7  25
TORSDOF 6
ENDMDL
