MODEL 1
REMARK VINA RESULT:      -7.7      0.000      0.000
REMARK  4 active torsions:
REMARK  status: ('A' for Active; 'I' for Inactive)
REMARK    1  A    between atoms: C_4  and  C_7 
REMARK    2  A    between atoms: C_7  and  S_8 
REMARK    3  A    between atoms: S_8  and  N_11 
REMARK    4  A    between atoms: N_11  and  C_12 
ROOT
ATOM      1  C   LIG d   1       7.309  -0.235  -5.636  0.00  0.00     0.112 C 
ATOM      2  C   LIG d   1       7.612   0.784  -4.775  0.00  0.00    -0.032 C 
ATOM      3  C   LIG d   1       6.856   0.930  -3.607  0.00  0.00    -0.040 C 
ATOM      4  C   LIG d   1       5.855   0.058  -3.320  0.00  0.00     0.030 C 
ATOM      5  N   LIG d   1       5.614  -1.008  -4.122  0.00  0.00    -0.310 N 
ATOM      6  C   LIG d   1       6.267  -1.124  -5.305  0.00  0.00     0.274 C 
ATOM      7  O   LIG d   1       5.950  -2.005  -6.087  0.00  0.00    -0.266 OA
ATOM      8  C   LIG d   1       4.707  -2.095  -3.753  0.00  0.00     0.034 C 
ATOM      9  C   LIG d   1       3.706  -1.674  -2.691  0.00  0.00     0.018 C 
ATOM     10  H   LIG d   1       3.242  -2.571  -2.280  0.00  0.00     0.037 H 
ATOM     11  C   LIG d   1       4.440  -0.959  -1.552  0.00  0.00    -0.031 C 
ATOM     12  C   LIG d   1       4.994   0.356  -2.112  0.00  0.00     0.040 C 
ATOM     13  H   LIG d   1       5.570   0.890  -1.355  0.00  0.00     0.042 H 
ATOM     14  C   LIG d   1       3.807   1.209  -2.587  0.00  0.00    -0.025 C 
ATOM     15  C   LIG d   1       2.611  -0.786  -3.266  0.00  0.00    -0.029 C 
ATOM     16  H   LIG d   1       8.420   1.465  -4.995  0.00  0.00     0.064 H 
ATOM     17  H   LIG d   1       7.072   1.740  -2.926  0.00  0.00     0.064 H 
ATOM     18  H   LIG d   1       4.164  -2.420  -4.641  0.00  0.00     0.050 H 
ATOM     19  H   LIG d   1       5.293  -2.932  -3.375  0.00  0.00     0.050 H 
ATOM     20  H   LIG d   1       5.259  -1.582  -1.193  0.00  0.00     0.028 H 
ATOM     21  H   LIG d   1       3.746  -0.752  -0.738  0.00  0.00     0.028 H 
ATOM     22  H   LIG d   1       3.097   1.341  -1.770  0.00  0.00     0.082 H 
ATOM     23  H   LIG d   1       4.164   2.182  -2.925  0.00  0.00     0.082 H 
ATOM     24  H   LIG d   1       1.851  -0.615  -2.504  0.00  0.00     0.082 H 
ATOM     25  H   LIG d   1       2.156  -1.289  -4.119  0.00  0.00     0.082 H 
ATOM     26  N   LIG d   1       3.155   0.509  -3.712  0.00  0.00     0.228 N 
ATOM     27  H   LIG d   1       3.845   0.347  -4.456  0.00  0.00     0.201 HD
ATOM     28  H   LIG d   1       2.390   1.090  -4.076  0.00  0.00     0.201 HD
ENDROOT
BRANCH   1  29
ATOM     29  N   LIG d   1       8.026  -0.395  -6.829  0.00  0.00    -0.215 N 
ATOM     30  H   LIG d   1       8.707  -1.081  -6.896  0.00  0.00     0.173 HD
BRANCH  29  31
ATOM     31  S   LIG d   1       7.708   0.588  -8.123  0.00  0.00     0.047 S 
ATOM     32  O   LIG d   1       8.891   0.545  -8.910  0.00  0.00    -0.155 OA
ATOM     33  O   LIG d   1       7.264   1.810  -7.549  0.00  0.00    -0.155 OA
BRANCH  31  34
ATOM     34  C   LIG d   1       6.343  -0.223  -9.001  0.00  0.00     0.110 C 
ATOM     35  H   LIG d   1       6.169  -1.208  -8.569  0.00  0.00     0.057 H 
ATOM     36  H   LIG d   1       6.601  -0.328 -10.055  0.00  0.00     0.057 H 
BRANCH  34  37
ATOM     37  C   LIG d   1       5.096   0.612  -8.869  0.00  0.00    -0.025 A 
ATOM     38  C   LIG d   1       4.126   0.266  -7.947  0.00  0.00    -0.057 A 
ATOM     39  C   LIG d   1       2.981   1.032  -7.827  0.00  0.00    -0.061 A 
ATOM     40  H   LIG d   1       4.262  -0.603  -7.321  0.00  0.00     0.062 H 
ATOM     41  C   LIG d   1       2.807   2.145  -8.628  0.00  0.00    -0.062 A 
ATOM     42  H   LIG d   1       2.227   0.765  -7.102  0.00  0.00     0.062 H 
ATOM     43  C   LIG d   1       3.776   2.490  -9.552  0.00  0.00    -0.061 A 
ATOM     44  H   LIG d   1       1.913   2.744  -8.534  0.00  0.00     0.062 H 
ATOM     45  C   LIG d   1       4.921   1.724  -9.672  0.00  0.00    -0.057 A 
ATOM     46  H   LIG d   1       3.639   3.359 -10.179  0.00  0.00     0.062 H 
ATOM     47  H   LIG d   1       5.677   1.995 -10.393  0.00  0.00     0.062 H 
ENDBRANCH  34  37
ENDBRANCH  31  34
ENDBRANCH  29  31
ENDBRANCH   1  29
TORSDOF 4
ENDMDL
MODEL 2
REMARK VINA RESULT:      -7.5      2.743      3.760
REMARK  4 active torsions:
REMARK  status: ('A' for Active; 'I' for Inactive)
REMARK    1  A    between atoms: C_4  and  C_7 
REMARK    2  A    between atoms: C_7  and  S_8 
REMARK    3  A    between atoms: S_8  and  N_11 
REMARK    4  A    between atoms: N_11  and  C_12 
ROOT
ATOM      1  C   LIG d   1       3.511  -0.292  -7.092  0.00  0.00     0.112 C 
ATOM      2  C   LIG d   1       4.254  -1.437  -7.189  0.00  0.00    -0.032 C 
ATOM      3  C   LIG d   1       4.682  -2.068  -6.016  0.00  0.00    -0.040 C 
ATOM      4  C   LIG d   1       4.342  -1.567  -4.801  0.00  0.00     0.030 C 
ATOM      5  N   LIG d   1       3.526  -0.488  -4.700  0.00  0.00    -0.310 N 
ATOM      6  C   LIG d   1       3.172   0.197  -5.815  0.00  0.00     0.274 C 
ATOM      7  O   LIG d   1       2.555   1.245  -5.712  0.00  0.00    -0.266 OA
ATOM      8  C   LIG d   1       2.948  -0.041  -3.432  0.00  0.00     0.034 C 
ATOM      9  C   LIG d   1       3.735  -0.541  -2.232  0.00  0.00     0.018 C 
ATOM     10  H   LIG d   1       3.128  -0.399  -1.339  0.00  0.00     0.037 H 
ATOM     11  C   LIG d   1       4.003  -2.041  -2.388  0.00  0.00    -0.031 C 
ATOM     12  C   LIG d   1       4.950  -2.222  -3.580  0.00  0.00     0.040 C 
ATOM     13  H   LIG d   1       5.141  -3.278  -3.769  0.00  0.00     0.042 H 
ATOM     14  C   LIG d   1       6.262  -1.485  -3.263  0.00  0.00    -0.025 C 
ATOM     15  C   LIG d   1       5.040   0.223  -2.054  0.00  0.00    -0.029 C 
ATOM     16  H   LIG d   1       4.508  -1.845  -8.156  0.00  0.00     0.064 H 
ATOM     17  H   LIG d   1       5.284  -2.963  -6.077  0.00  0.00     0.064 H 
ATOM     18  H   LIG d   1       2.934   1.049  -3.415  0.00  0.00     0.050 H 
ATOM     19  H   LIG d   1       1.924  -0.406  -3.361  0.00  0.00     0.050 H 
ATOM     20  H   LIG d   1       3.067  -2.565  -2.576  0.00  0.00     0.028 H 
ATOM     21  H   LIG d   1       4.470  -2.429  -1.482  0.00  0.00     0.028 H 
ATOM     22  H   LIG d   1       6.667  -1.845  -2.318  0.00  0.00     0.082 H 
ATOM     23  H   LIG d   1       6.982  -1.655  -4.063  0.00  0.00     0.082 H 
ATOM     24  H   LIG d   1       5.506  -0.078  -1.116  0.00  0.00     0.082 H 
ATOM     25  H   LIG d   1       4.825   1.292  -2.020  0.00  0.00     0.082 H 
ATOM     26  N   LIG d   1       5.969  -0.040  -3.167  0.00  0.00     0.228 N 
ATOM     27  H   LIG d   1       5.542   0.278  -4.045  0.00  0.00     0.201 HD
ATOM     28  H   LIG d   1       6.844   0.473  -3.006  0.00  0.00     0.201 HD
ENDROOT
BRANCH   1  29
ATOM     29  N   LIG d   1       3.090   0.382  -8.245  0.00  0.00    -0.215 N 
ATOM     30  H   LIG d   1       2.256   0.136  -8.674  0.00  0.00     0.173 HD
BRANCH  29  31
ATOM     31  S   LIG d   1       4.017   1.601  -8.876  0.00  0.00     0.047 S 
ATOM     32  O   LIG d   1       5.326   1.355  -8.379  0.00  0.00    -0.155 OA
ATOM     33  O   LIG d   1       3.325   2.795  -8.537  0.00  0.00    -0.155 OA
BRANCH  31  34
ATOM     34  C   LIG d   1       3.971   1.340 -10.671  0.00  0.00     0.110 C 
ATOM     35  H   LIG d   1       4.917   1.658 -11.108  0.00  0.00     0.057 H 
ATOM     36  H   LIG d   1       3.157   1.924 -11.101  0.00  0.00     0.057 H 
BRANCH  34  37
ATOM     37  C   LIG d   1       3.750  -0.122 -10.959  0.00  0.00    -0.025 A 
ATOM     38  C   LIG d   1       4.801  -1.014 -10.856  0.00  0.00    -0.057 A 
ATOM     39  C   LIG d   1       4.597  -2.356 -11.120  0.00  0.00    -0.061 A 
ATOM     40  H   LIG d   1       5.780  -0.664 -10.567  0.00  0.00     0.062 H 
ATOM     41  C   LIG d   1       3.343  -2.805 -11.490  0.00  0.00    -0.062 A 
ATOM     42  H   LIG d   1       5.416  -3.053 -11.033  0.00  0.00     0.062 H 
ATOM     43  C   LIG d   1       2.292  -1.913 -11.595  0.00  0.00    -0.061 A 
ATOM     44  H   LIG d   1       3.184  -3.853 -11.696  0.00  0.00     0.062 H 
ATOM     45  C   LIG d   1       2.496  -0.571 -11.329  0.00  0.00    -0.057 A 
ATOM     46  H   LIG d   1       1.312  -2.264 -11.884  0.00  0.00     0.062 H 
ATOM     47  H   LIG d   1       1.675   0.125 -11.412  0.00  0.00     0.062 H 
ENDBRANCH  34  37
ENDBRANCH  31  34
ENDBRANCH  29  31
ENDBRANCH   1  29
TORSDOF 4
ENDMDL
MODEL 3
REMARK VINA RESULT:      -7.5      2.522      3.096
REMARK  4 active torsions:
REMARK  status: ('A' for Active; 'I' for Inactive)
REMARK    1  A    between atoms: C_4  and  C_7 
REMARK    2  A    between atoms: C_7  and  S_8 
REMARK    3  A    between atoms: S_8  and  N_11 
REMARK    4  A    between atoms: N_11  and  C_12 
ROOT
ATOM      1  C   LIG d   1       4.888  -0.656  -7.238  0.00  0.00     0.112 C 
ATOM      2  C   LIG d   1       6.032  -1.177  -6.697  0.00  0.00    -0.032 C 
ATOM      3  C   LIG d   1       6.138  -1.279  -5.306  0.00  0.00    -0.040 C 
ATOM      4  C   LIG d   1       5.111  -0.892  -4.506  0.00  0.00     0.030 C 
ATOM      5  N   LIG d   1       3.940  -0.466  -5.040  0.00  0.00    -0.310 N 
ATOM      6  C   LIG d   1       3.840  -0.269  -6.378  0.00  0.00     0.274 C 
ATOM      7  O   LIG d   1       2.835   0.246  -6.841  0.00  0.00    -0.266 OA
ATOM      8  C   LIG d   1       2.732  -0.249  -4.244  0.00  0.00     0.034 C 
ATOM      9  C   LIG d   1       3.043  -0.038  -2.772  0.00  0.00     0.018 C 
ATOM     10  H   LIG d   1       2.117  -0.140  -2.206  0.00  0.00     0.037 H 
ATOM     11  C   LIG d   1       4.010  -1.125  -2.293  0.00  0.00    -0.031 C 
ATOM     12  C   LIG d   1       5.347  -0.905  -3.012  0.00  0.00     0.040 C 
ATOM     13  H   LIG d   1       6.065  -1.680  -2.745  0.00  0.00     0.042 H 
ATOM     14  C   LIG d   1       5.878   0.482  -2.615  0.00  0.00    -0.025 C 
ATOM     15  C   LIG d   1       3.617   1.347  -2.509  0.00  0.00    -0.029 C 
ATOM     16  H   LIG d   1       6.841  -1.502  -7.335  0.00  0.00     0.064 H 
ATOM     17  H   LIG d   1       7.042  -1.672  -4.865  0.00  0.00     0.064 H 
ATOM     18  H   LIG d   1       2.210   0.629  -4.624  0.00  0.00     0.050 H 
ATOM     19  H   LIG d   1       2.080  -1.117  -4.347  0.00  0.00     0.050 H 
ATOM     20  H   LIG d   1       3.613  -2.108  -2.544  0.00  0.00     0.028 H 
ATOM     21  H   LIG d   1       4.152  -1.046  -1.216  0.00  0.00     0.028 H 
ATOM     22  H   LIG d   1       5.943   0.555  -1.529  0.00  0.00     0.082 H 
ATOM     23  H   LIG d   1       6.864   0.639  -3.053  0.00  0.00     0.082 H 
ATOM     24  H   LIG d   1       3.704   1.501  -1.434  0.00  0.00     0.082 H 
ATOM     25  H   LIG d   1       2.944   2.097  -2.924  0.00  0.00     0.082 H 
ATOM     26  N   LIG d   1       4.943   1.502  -3.132  0.00  0.00     0.228 N 
ATOM     27  H   LIG d   1       4.853   1.392  -4.150  0.00  0.00     0.201 HD
ATOM     28  H   LIG d   1       5.310   2.437  -2.920  0.00  0.00     0.201 HD
ENDROOT
BRANCH   1  29
ATOM     29  N   LIG d   1       4.758  -0.512  -8.624  0.00  0.00    -0.215 N 
ATOM     30  H   LIG d   1       4.275  -1.178  -9.138  0.00  0.00     0.173 HD
BRANCH  29  31
ATOM     31  S   LIG d   1       5.429   0.797  -9.387  0.00  0.00     0.047 S 
ATOM     32  O   LIG d   1       6.465   0.254 -10.194  0.00  0.00    -0.155 OA
ATOM     33  O   LIG d   1       5.727   1.711  -8.341  0.00  0.00    -0.155 OA
BRANCH  31  34
ATOM     34  C   LIG d   1       4.102   1.456 -10.434  0.00  0.00     0.110 C 
ATOM     35  H   LIG d   1       4.538   1.986 -11.281  0.00  0.00     0.057 H 
ATOM     36  H   LIG d   1       3.488   2.143  -9.852  0.00  0.00     0.057 H 
BRANCH  34  37
ATOM     37  C   LIG d   1       3.249   0.320 -10.938  0.00  0.00    -0.025 A 
ATOM     38  C   LIG d   1       3.624  -0.376 -12.072  0.00  0.00    -0.057 A 
ATOM     39  C   LIG d   1       2.841  -1.418 -12.533  0.00  0.00    -0.061 A 
ATOM     40  H   LIG d   1       4.528  -0.107 -12.596  0.00  0.00     0.062 H 
ATOM     41  C   LIG d   1       1.683  -1.763 -11.861  0.00  0.00    -0.062 A 
ATOM     42  H   LIG d   1       3.137  -1.966 -13.415  0.00  0.00     0.062 H 
ATOM     43  C   LIG d   1       1.308  -1.066 -10.728  0.00  0.00    -0.061 A 
ATOM     44  H   LIG d   1       1.072  -2.578 -12.221  0.00  0.00     0.062 H 
ATOM     45  C   LIG d   1       2.091  -0.024 -10.266  0.00  0.00    -0.057 A 
ATOM     46  H   LIG d   1       0.403  -1.335 -10.203  0.00  0.00     0.062 H 
ATOM     47  H   LIG d   1       1.797   0.520  -9.381  0.00  0.00     0.062 H 
ENDBRANCH  34  37
ENDBRANCH  31  34
ENDBRANCH  29  31
ENDBRANCH   1  29
TORSDOF 4
ENDMDL
MODEL 4
REMARK VINA RESULT:      -7.5      2.351      6.021
REMARK  4 active torsions:
REMARK  status: ('A' for Active; 'I' for Inactive)
REMARK    1  A    between atoms: C_4  and  C_7 
REMARK    2  A    between atoms: C_7  and  S_8 
REMARK    3  A    between atoms: S_8  and  N_11 
REMARK    4  A    between atoms: N_11  and  C_12 
ROOT
ATOM      1  C   LIG d   1       4.657  -1.593  -6.455  0.00  0.00     0.112 C 
ATOM      2  C   LIG d   1       3.903  -0.554  -5.980  0.00  0.00    -0.032 C 
ATOM      3  C   LIG d   1       3.158   0.211  -6.885  0.00  0.00    -0.040 C 
ATOM      4  C   LIG d   1       3.161  -0.091  -8.208  0.00  0.00     0.030 C 
ATOM      5  N   LIG d   1       3.829  -1.177  -8.670  0.00  0.00    -0.310 N 
ATOM      6  C   LIG d   1       4.632  -1.880  -7.834  0.00  0.00     0.274 C 
ATOM      7  O   LIG d   1       5.339  -2.770  -8.281  0.00  0.00    -0.266 OA
ATOM      8  C   LIG d   1       3.689  -1.678 -10.038  0.00  0.00     0.034 C 
ATOM      9  C   LIG d   1       3.175  -0.612 -10.991  0.00  0.00     0.018 C 
ATOM     10  H   LIG d   1       2.852  -1.100 -11.911  0.00  0.00     0.037 H 
ATOM     11  C   LIG d   1       1.958   0.082 -10.373  0.00  0.00    -0.031 C 
ATOM     12  C   LIG d   1       2.442   0.858  -9.142  0.00  0.00     0.040 C 
ATOM     13  H   LIG d   1       1.607   1.338  -8.630  0.00  0.00     0.042 H 
ATOM     14  C   LIG d   1       3.462   1.908  -9.612  0.00  0.00    -0.025 C 
ATOM     15  C   LIG d   1       4.254   0.404 -11.338  0.00  0.00    -0.029 C 
ATOM     16  H   LIG d   1       3.887  -0.326  -4.925  0.00  0.00     0.064 H 
ATOM     17  H   LIG d   1       2.573   1.045  -6.526  0.00  0.00     0.064 H 
ATOM     18  H   LIG d   1       4.660  -2.026 -10.388  0.00  0.00     0.050 H 
ATOM     19  H   LIG d   1       2.994  -2.517 -10.038  0.00  0.00     0.050 H 
ATOM     20  H   LIG d   1       1.221  -0.663 -10.074  0.00  0.00     0.028 H 
ATOM     21  H   LIG d   1       1.518   0.770 -11.095  0.00  0.00     0.028 H 
ATOM     22  H   LIG d   1       3.015   2.536 -10.383  0.00  0.00     0.082 H 
ATOM     23  H   LIG d   1       3.771   2.525  -8.768  0.00  0.00     0.082 H 
ATOM     24  H   LIG d   1       3.884   1.069 -12.117  0.00  0.00     0.082 H 
ATOM     25  H   LIG d   1       5.135  -0.124 -11.707  0.00  0.00     0.082 H 
ATOM     26  N   LIG d   1       4.637   1.199 -10.159  0.00  0.00     0.228 N 
ATOM     27  H   LIG d   1       5.020   0.575  -9.439  0.00  0.00     0.201 HD
ATOM     28  H   LIG d   1       5.350   1.886 -10.431  0.00  0.00     0.201 HD
ENDROOT
BRANCH   1  29
ATOM     29  N   LIG d   1       5.437  -2.362  -5.584  0.00  0.00    -0.215 N 
ATOM     30  H   LIG d   1       5.043  -3.112  -5.113  0.00  0.00     0.173 HD
BRANCH  29  31
ATOM     31  S   LIG d   1       7.036  -1.989  -5.357  0.00  0.00     0.047 S 
ATOM     32  O   LIG d   1       7.219  -0.754  -6.036  0.00  0.00    -0.155 OA
ATOM     33  O   LIG d   1       7.741  -3.153  -5.767  0.00  0.00    -0.155 OA
BRANCH  31  34
ATOM     34  C   LIG d   1       7.209  -1.750  -3.568  0.00  0.00     0.110 C 
ATOM     35  H   LIG d   1       8.165  -1.271  -3.356  0.00  0.00     0.057 H 
ATOM     36  H   LIG d   1       7.169  -2.717  -3.067  0.00  0.00     0.057 H 
BRANCH  34  37
ATOM     37  C   LIG d   1       6.088  -0.876  -3.067  0.00  0.00    -0.025 A 
ATOM     38  C   LIG d   1       6.178   0.498  -3.182  0.00  0.00    -0.057 A 
ATOM     39  C   LIG d   1       5.149   1.299  -2.722  0.00  0.00    -0.061 A 
ATOM     40  H   LIG d   1       7.051   0.946  -3.630  0.00  0.00     0.062 H 
ATOM     41  C   LIG d   1       4.030   0.725  -2.148  0.00  0.00    -0.062 A 
ATOM     42  H   LIG d   1       5.216   2.372  -2.817  0.00  0.00     0.062 H 
ATOM     43  C   LIG d   1       3.940  -0.650  -2.032  0.00  0.00    -0.061 A 
ATOM     44  H   LIG d   1       3.226   1.350  -1.789  0.00  0.00     0.062 H 
ATOM     45  C   LIG d   1       4.970  -1.450  -2.492  0.00  0.00    -0.057 A 
ATOM     46  H   LIG d   1       3.067  -1.098  -1.583  0.00  0.00     0.062 H 
ATOM     47  H   LIG d   1       4.899  -2.524  -2.401  0.00  0.00     0.062 H 
ENDBRANCH  34  37
ENDBRANCH  31  34
ENDBRANCH  29  31
ENDBRANCH   1  29
TORSDOF 4
ENDMDL
MODEL 5
REMARK VINA RESULT:      -7.5      2.462      3.269
REMARK  4 active torsions:
REMARK  status: ('A' for Active; 'I' for Inactive)
REMARK    1  A    between atoms: C_4  and  C_7 
REMARK    2  A    between atoms: C_7  and  S_8 
REMARK    3  A    between atoms: S_8  and  N_11 
REMARK    4  A    between atoms: N_11  and  C_12 
ROOT
ATOM      1  C   LIG d   1       4.359  -0.196  -7.188  0.00  0.00     0.112 C 
ATOM      2  C   LIG d   1       3.090   0.260  -6.958  0.00  0.00    -0.032 C 
ATOM      3  C   LIG d   1       2.672   0.460  -5.637  0.00  0.00    -0.040 C 
ATOM      4  C   LIG d   1       3.521   0.231  -4.603  0.00  0.00     0.030 C 
ATOM      5  N   LIG d   1       4.809  -0.129  -4.831  0.00  0.00    -0.310 N 
ATOM      6  C   LIG d   1       5.215  -0.419  -6.092  0.00  0.00     0.274 C 
ATOM      7  O   LIG d   1       6.332  -0.876  -6.278  0.00  0.00    -0.266 OA
ATOM      8  C   LIG d   1       5.823  -0.173  -3.777  0.00  0.00     0.034 C 
ATOM      9  C   LIG d   1       5.211  -0.296  -2.393  0.00  0.00     0.018 C 
ATOM     10  H   LIG d   1       5.979  -0.067  -1.654  0.00  0.00     0.037 H 
ATOM     11  C   LIG d   1       4.087   0.733  -2.239  0.00  0.00    -0.031 C 
ATOM     12  C   LIG d   1       2.961   0.338  -3.202  0.00  0.00     0.040 C 
ATOM     13  H   LIG d   1       2.148   1.064  -3.171  0.00  0.00     0.042 H 
ATOM     14  C   LIG d   1       2.455  -1.056  -2.797  0.00  0.00    -0.025 C 
ATOM     15  C   LIG d   1       4.692  -1.703  -2.128  0.00  0.00    -0.029 C 
ATOM     16  H   LIG d   1       2.421   0.460  -7.782  0.00  0.00     0.064 H 
ATOM     17  H   LIG d   1       1.667   0.803  -5.439  0.00  0.00     0.064 H 
ATOM     18  H   LIG d   1       6.477  -1.027  -3.951  0.00  0.00     0.050 H 
ATOM     19  H   LIG d   1       6.418   0.739  -3.821  0.00  0.00     0.050 H 
ATOM     20  H   LIG d   1       4.458   1.726  -2.492  0.00  0.00     0.028 H 
ATOM     21  H   LIG d   1       3.716   0.725  -1.214  0.00  0.00     0.028 H 
ATOM     22  H   LIG d   1       2.157  -1.049  -1.748  0.00  0.00     0.082 H 
ATOM     23  H   LIG d   1       1.604  -1.334  -3.420  0.00  0.00     0.082 H 
ATOM     24  H   LIG d   1       4.381  -1.779  -1.087  0.00  0.00     0.082 H 
ATOM     25  H   LIG d   1       5.492  -2.419  -2.316  0.00  0.00     0.082 H 
ATOM     26  N   LIG d   1       3.551  -2.024  -3.003  0.00  0.00     0.228 N 
ATOM     27  H   LIG d   1       3.856  -1.987  -3.983  0.00  0.00     0.201 HD
ATOM     28  H   LIG d   1       3.214  -2.970  -2.785  0.00  0.00     0.201 HD
ENDROOT
BRANCH   1  29
ATOM     29  N   LIG d   1       4.803  -0.435  -8.495  0.00  0.00    -0.215 N 
ATOM     30  H   LIG d   1       4.726  -1.322  -8.878  0.00  0.00     0.173 HD
BRANCH  29  31
ATOM     31  S   LIG d   1       5.458   0.799  -9.385  0.00  0.00     0.047 S 
ATOM     32  O   LIG d   1       6.410   0.170 -10.231  0.00  0.00    -0.155 OA
ATOM     33  O   LIG d   1       5.869   1.761  -8.422  0.00  0.00    -0.155 OA
BRANCH  31  34
ATOM     34  C   LIG d   1       4.079   1.448 -10.368  0.00  0.00     0.110 C 
ATOM     35  H   LIG d   1       4.466   2.105 -11.147  0.00  0.00     0.057 H 
ATOM     36  H   LIG d   1       3.405   2.010  -9.721  0.00  0.00     0.057 H 
BRANCH  34  37
ATOM     37  C   LIG d   1       3.332   0.303 -11.001  0.00  0.00    -0.025 A 
ATOM     38  C   LIG d   1       3.829  -0.302 -12.140  0.00  0.00    -0.057 A 
ATOM     39  C   LIG d   1       3.143  -1.353 -12.720  0.00  0.00    -0.061 A 
ATOM     40  H   LIG d   1       4.754   0.046 -12.576  0.00  0.00     0.062 H 
ATOM     41  C   LIG d   1       1.960  -1.798 -12.162  0.00  0.00    -0.062 A 
ATOM     42  H   LIG d   1       3.535  -1.829 -13.606  0.00  0.00     0.062 H 
ATOM     43  C   LIG d   1       1.461  -1.192 -11.024  0.00  0.00    -0.061 A 
ATOM     44  H   LIG d   1       1.424  -2.619 -12.615  0.00  0.00     0.062 H 
ATOM     45  C   LIG d   1       2.148  -0.141 -10.443  0.00  0.00    -0.057 A 
ATOM     46  H   LIG d   1       0.536  -1.540 -10.588  0.00  0.00     0.062 H 
ATOM     47  H   LIG d   1       1.758   0.331  -9.554  0.00  0.00     0.062 H 
ENDBRANCH  34  37
ENDBRANCH  31  34
ENDBRANCH  29  31
ENDBRANCH   1  29
TORSDOF 4
ENDMDL
MODEL 6
REMARK VINA RESULT:      -7.1      2.356      5.705
REMARK  4 active torsions:
REMARK  status: ('A' for Active; 'I' for Inactive)
REMARK    1  A    between atoms: C_4  and  C_7 
REMARK    2  A    between atoms: C_7  and  S_8 
REMARK    3  A    between atoms: S_8  and  N_11 
REMARK    4  A    between atoms: N_11  and  C_12 
ROOT
ATOM      1  C   LIG d   1       6.117  -1.322  -6.797  0.00  0.00     0.112 C 
ATOM      2  C   LIG d   1       6.808  -0.194  -7.148  0.00  0.00    -0.032 C 
ATOM      3  C   LIG d   1       6.176   0.765  -7.947  0.00  0.00    -0.040 C 
ATOM      4  C   LIG d   1       4.889   0.593  -8.344  0.00  0.00     0.030 C 
ATOM      5  N   LIG d   1       4.171  -0.475  -7.919  0.00  0.00    -0.310 N 
ATOM      6  C   LIG d   1       4.782  -1.466  -7.223  0.00  0.00     0.274 C 
ATOM      7  O   LIG d   1       4.169  -2.489  -6.962  0.00  0.00    -0.266 OA
ATOM      8  C   LIG d   1       2.728  -0.600  -8.127  0.00  0.00     0.034 C 
ATOM      9  C   LIG d   1       2.234   0.270  -9.271  0.00  0.00     0.018 C 
ATOM     10  H   LIG d   1       1.148   0.333  -9.212  0.00  0.00     0.037 H 
ATOM     11  C   LIG d   1       2.798   1.685  -9.116  0.00  0.00    -0.031 C 
ATOM     12  C   LIG d   1       4.316   1.603  -9.314  0.00  0.00     0.040 C 
ATOM     13  H   LIG d   1       4.782   2.578  -9.168  0.00  0.00     0.042 H 
ATOM     14  C   LIG d   1       4.585   1.084 -10.736  0.00  0.00    -0.025 C 
ATOM     15  C   LIG d   1       2.609  -0.313 -10.627  0.00  0.00    -0.029 C 
ATOM     16  H   LIG d   1       7.826  -0.050  -6.817  0.00  0.00     0.064 H 
ATOM     17  H   LIG d   1       6.716   1.652  -8.247  0.00  0.00     0.064 H 
ATOM     18  H   LIG d   1       2.491  -1.641  -8.347  0.00  0.00     0.050 H 
ATOM     19  H   LIG d   1       2.212  -0.308  -7.213  0.00  0.00     0.050 H 
ATOM     20  H   LIG d   1       2.575   2.064  -8.119  0.00  0.00     0.028 H 
ATOM     21  H   LIG d   1       2.362   2.341  -9.869  0.00  0.00     0.028 H 
ATOM     22  H   LIG d   1       4.078   1.721 -11.462  0.00  0.00     0.082 H 
ATOM     23  H   LIG d   1       5.657   1.083 -10.931  0.00  0.00     0.082 H 
ATOM     24  H   LIG d   1       2.128   0.269 -11.412  0.00  0.00     0.082 H 
ATOM     25  H   LIG d   1       2.258  -1.345 -10.680  0.00  0.00     0.082 H 
ATOM     26  N   LIG d   1       4.068  -0.296 -10.830  0.00  0.00     0.228 N 
ATOM     27  H   LIG d   1       4.516  -0.875 -10.109  0.00  0.00     0.201 HD
ATOM     28  H   LIG d   1       4.284  -0.677 -11.759  0.00  0.00     0.201 HD
ENDROOT
BRANCH   1  29
ATOM     29  N   LIG d   1       6.726  -2.318  -6.024  0.00  0.00    -0.215 N 
ATOM     30  H   LIG d   1       7.069  -3.119  -6.447  0.00  0.00     0.173 HD
BRANCH  29  31
ATOM     31  S   LIG d   1       6.861  -2.124  -4.384  0.00  0.00     0.047 S 
ATOM     32  O   LIG d   1       7.253  -0.770  -4.209  0.00  0.00    -0.155 OA
ATOM     33  O   LIG d   1       7.708  -3.185  -3.962  0.00  0.00    -0.155 OA
BRANCH  31  34
ATOM     34  C   LIG d   1       5.181  -2.375  -3.746  0.00  0.00     0.110 C 
ATOM     35  H   LIG d   1       5.212  -3.064  -2.902  0.00  0.00     0.057 H 
ATOM     36  H   LIG d   1       4.553  -2.792  -4.533  0.00  0.00     0.057 H 
BRANCH  34  37
ATOM     37  C   LIG d   1       4.613  -1.054  -3.295  0.00  0.00    -0.025 A 
ATOM     38  C   LIG d   1       3.745  -0.359  -4.116  0.00  0.00    -0.057 A 
ATOM     39  C   LIG d   1       3.224   0.854  -3.701  0.00  0.00    -0.061 A 
ATOM     40  H   LIG d   1       3.473  -0.762  -5.079  0.00  0.00     0.062 H 
ATOM     41  C   LIG d   1       3.572   1.370  -2.467  0.00  0.00    -0.062 A 
ATOM     42  H   LIG d   1       2.542   1.394  -4.340  0.00  0.00     0.062 H 
ATOM     43  C   LIG d   1       4.441   0.675  -1.647  0.00  0.00    -0.061 A 
ATOM     44  H   LIG d   1       3.165   2.317  -2.144  0.00  0.00     0.062 H 
ATOM     45  C   LIG d   1       4.962  -0.537  -2.061  0.00  0.00    -0.057 A 
ATOM     46  H   LIG d   1       4.714   1.079  -0.683  0.00  0.00     0.062 H 
ATOM     47  H   LIG d   1       5.641  -1.080  -1.420  0.00  0.00     0.062 H 
ENDBRANCH  34  37
ENDBRANCH  31  34
ENDBRANCH  29  31
ENDBRANCH   1  29
TORSDOF 4
ENDMDL
MODEL 7
REMARK VINA RESULT:      -7.0      1.355      2.223
REMARK  4 active torsions:
REMARK  status: ('A' for Active; 'I' for Inactive)
REMARK    1  A    between atoms: C_4  and  C_7 
REMARK    2  A    between atoms: C_7  and  S_8 
REMARK    3  A    between atoms: S_8  and  N_11 
REMARK    4  A    between atoms: N_11  and  C_12 
ROOT
ATOM      1  C   LIG d   1       5.730  -0.713  -6.702  0.00  0.00     0.112 C 
ATOM      2  C   LIG d   1       4.437  -0.386  -7.007  0.00  0.00    -0.032 C 
ATOM      3  C   LIG d   1       3.568  -0.025  -5.972  0.00  0.00    -0.040 C 
ATOM      4  C   LIG d   1       4.009   0.028  -4.689  0.00  0.00     0.030 C 
ATOM      5  N   LIG d   1       5.313  -0.201  -4.395  0.00  0.00    -0.310 N 
ATOM      6  C   LIG d   1       6.155  -0.642  -5.361  0.00  0.00     0.274 C 
ATOM      7  O   LIG d   1       7.290  -0.981  -5.066  0.00  0.00    -0.266 OA
ATOM      8  C   LIG d   1       5.890   0.057  -3.075  0.00  0.00     0.034 C 
ATOM      9  C   LIG d   1       4.835   0.089  -1.981  0.00  0.00     0.018 C 
ATOM     10  H   LIG d   1       5.278   0.531  -1.089  0.00  0.00     0.037 H 
ATOM     11  C   LIG d   1       3.671   0.981  -2.422  0.00  0.00    -0.031 C 
ATOM     12  C   LIG d   1       2.984   0.295  -3.609  0.00  0.00     0.040 C 
ATOM     13  H   LIG d   1       2.171   0.909  -3.997  0.00  0.00     0.042 H 
ATOM     14  C   LIG d   1       2.451  -1.065  -3.129  0.00  0.00    -0.025 C 
ATOM     15  C   LIG d   1       4.341  -1.308  -1.633  0.00  0.00    -0.029 C 
ATOM     16  H   LIG d   1       4.092  -0.410  -8.030  0.00  0.00     0.064 H 
ATOM     17  H   LIG d   1       2.540   0.218  -6.196  0.00  0.00     0.064 H 
ATOM     18  H   LIG d   1       6.612  -0.726  -2.845  0.00  0.00     0.050 H 
ATOM     19  H   LIG d   1       6.407   1.016  -3.096  0.00  0.00     0.050 H 
ATOM     20  H   LIG d   1       4.048   1.957  -2.727  0.00  0.00     0.028 H 
ATOM     21  H   LIG d   1       2.963   1.097  -1.601  0.00  0.00     0.028 H 
ATOM     22  H   LIG d   1       1.801  -0.922  -2.265  0.00  0.00     0.082 H 
ATOM     23  H   LIG d   1       1.894  -1.546  -3.933  0.00  0.00     0.082 H 
ATOM     24  H   LIG d   1       3.686  -1.250  -0.763  0.00  0.00     0.082 H 
ATOM     25  H   LIG d   1       5.197  -1.940  -1.394  0.00  0.00     0.082 H 
ATOM     26  N   LIG d   1       3.604  -1.910  -2.758  0.00  0.00     0.228 N 
ATOM     27  H   LIG d   1       4.233  -1.997  -3.565  0.00  0.00     0.201 HD
ATOM     28  H   LIG d   1       3.268  -2.840  -2.483  0.00  0.00     0.201 HD
ENDROOT
BRANCH   1  29
ATOM     29  N   LIG d   1       6.621  -1.107  -7.709  0.00  0.00    -0.215 N 
ATOM     30  H   LIG d   1       6.577  -2.006  -8.070  0.00  0.00     0.173 HD
BRANCH  29  31
ATOM     31  S   LIG d   1       7.749  -0.037  -8.281  0.00  0.00     0.047 S 
ATOM     32  O   LIG d   1       8.968  -0.767  -8.291  0.00  0.00    -0.155 OA
ATOM     33  O   LIG d   1       7.600   1.117  -7.465  0.00  0.00    -0.155 OA
BRANCH  31  34
ATOM     34  C   LIG d   1       7.225   0.327  -9.980  0.00  0.00     0.110 C 
ATOM     35  H   LIG d   1       7.181  -0.599 -10.552  0.00  0.00     0.057 H 
ATOM     36  H   LIG d   1       7.941   1.006 -10.442  0.00  0.00     0.057 H 
BRANCH  34  37
ATOM     37  C   LIG d   1       5.863   0.970  -9.957  0.00  0.00    -0.025 A 
ATOM     38  C   LIG d   1       5.655   2.123  -9.225  0.00  0.00    -0.057 A 
ATOM     39  C   LIG d   1       4.404   2.713  -9.205  0.00  0.00    -0.061 A 
ATOM     40  H   LIG d   1       6.468   2.564  -8.669  0.00  0.00     0.062 H 
ATOM     41  C   LIG d   1       3.362   2.149  -9.917  0.00  0.00    -0.062 A 
ATOM     42  H   LIG d   1       4.243   3.617  -8.638  0.00  0.00     0.062 H 
ATOM     43  C   LIG d   1       3.570   0.995 -10.648  0.00  0.00    -0.061 A 
ATOM     44  H   LIG d   1       2.385   2.610  -9.902  0.00  0.00     0.062 H 
ATOM     45  C   LIG d   1       4.821   0.405 -10.669  0.00  0.00    -0.057 A 
ATOM     46  H   LIG d   1       2.756   0.554 -11.205  0.00  0.00     0.062 H 
ATOM     47  H   LIG d   1       4.982  -0.496 -11.241  0.00  0.00     0.062 H 
ENDBRANCH  34  37
ENDBRANCH  31  34
ENDBRANCH  29  31
ENDBRANCH   1  29
TORSDOF 4
ENDMDL
MODEL 8
REMARK VINA RESULT:      -6.9      3.851      4.633
REMARK  4 active torsions:
REMARK  status: ('A' for Active; 'I' for Inactive)
REMARK    1  A    between atoms: C_4  and  C_7 
REMARK    2  A    between atoms: C_7  and  S_8 
REMARK    3  A    between atoms: S_8  and  N_11 
REMARK    4  A    between atoms: N_11  and  C_12 
ROOT
ATOM      1  C   LIG d   1       4.215  -0.982  -7.273  0.00  0.00     0.112 C 
ATOM      2  C   LIG d   1       4.868  -2.155  -7.009  0.00  0.00    -0.032 C 
ATOM      3  C   LIG d   1       5.041  -2.550  -5.678  0.00  0.00    -0.040 C 
ATOM      4  C   LIG d   1       4.544  -1.794  -4.665  0.00  0.00     0.030 C 
ATOM      5  N   LIG d   1       3.813  -0.682  -4.925  0.00  0.00    -0.310 N 
ATOM      6  C   LIG d   1       3.708  -0.226  -6.197  0.00  0.00     0.274 C 
ATOM      7  O   LIG d   1       3.169   0.848  -6.413  0.00  0.00    -0.266 OA
ATOM      8  C   LIG d   1       3.069   0.043  -3.894  0.00  0.00     0.034 C 
ATOM      9  C   LIG d   1       3.601  -0.235  -2.498  0.00  0.00     0.018 C 
ATOM     10  H   LIG d   1       2.866   0.115  -1.773  0.00  0.00     0.037 H 
ATOM     11  C   LIG d   1       3.769  -1.746  -2.307  0.00  0.00    -0.031 C 
ATOM     12  C   LIG d   1       4.884  -2.211  -3.251  0.00  0.00     0.040 C 
ATOM     13  H   LIG d   1       5.019  -3.291  -3.193  0.00  0.00     0.042 H 
ATOM     14  C   LIG d   1       6.180  -1.485  -2.853  0.00  0.00    -0.025 C 
ATOM     15  C   LIG d   1       4.915   0.489  -2.239  0.00  0.00    -0.029 C 
ATOM     16  H   LIG d   1       5.247  -2.765  -7.816  0.00  0.00     0.064 H 
ATOM     17  H   LIG d   1       5.571  -3.464  -5.454  0.00  0.00     0.064 H 
ATOM     18  H   LIG d   1       3.140   1.112  -4.092  0.00  0.00     0.050 H 
ATOM     19  H   LIG d   1       2.022  -0.254  -3.939  0.00  0.00     0.050 H 
ATOM     20  H   LIG d   1       2.838  -2.255  -2.556  0.00  0.00     0.028 H 
ATOM     21  H   LIG d   1       4.045  -1.959  -1.275  0.00  0.00     0.028 H 
ATOM     22  H   LIG d   1       6.391  -1.661  -1.798  0.00  0.00     0.082 H 
ATOM     23  H   LIG d   1       7.008  -1.849  -3.460  0.00  0.00     0.082 H 
ATOM     24  H   LIG d   1       5.191   0.366  -1.193  0.00  0.00     0.082 H 
ATOM     25  H   LIG d   1       4.785   1.550  -2.453  0.00  0.00     0.082 H 
ATOM     26  N   LIG d   1       5.992  -0.039  -3.094  0.00  0.00     0.228 N 
ATOM     27  H   LIG d   1       5.746   0.110  -4.079  0.00  0.00     0.201 HD
ATOM     28  H   LIG d   1       6.867   0.456  -2.880  0.00  0.00     0.201 HD
ENDROOT
BRANCH   1  29
ATOM     29  N   LIG d   1       4.048  -0.541  -8.591  0.00  0.00    -0.215 N 
ATOM     30  H   LIG d   1       4.671   0.097  -8.971  0.00  0.00     0.173 HD
BRANCH  29  31
ATOM     31  S   LIG d   1       2.786  -1.111  -9.501  0.00  0.00     0.047 S 
ATOM     32  O   LIG d   1       1.622  -0.607  -8.861  0.00  0.00    -0.155 OA
ATOM     33  O   LIG d   1       3.012  -2.511  -9.597  0.00  0.00    -0.155 OA
BRANCH  31  34
ATOM     34  C   LIG d   1       2.994  -0.332 -11.125  0.00  0.00     0.110 C 
ATOM     35  H   LIG d   1       4.052  -0.310 -11.385  0.00  0.00     0.057 H 
ATOM     36  H   LIG d   1       2.607   0.687 -11.092  0.00  0.00     0.057 H 
BRANCH  34  37
ATOM     37  C   LIG d   1       2.239  -1.123 -12.162  0.00  0.00    -0.025 A 
ATOM     38  C   LIG d   1       2.900  -1.620 -13.270  0.00  0.00    -0.057 A 
ATOM     39  C   LIG d   1       2.207  -2.346 -14.220  0.00  0.00    -0.061 A 
ATOM     40  H   LIG d   1       3.958  -1.442 -13.392  0.00  0.00     0.062 H 
ATOM     41  C   LIG d   1       0.853  -2.574 -14.063  0.00  0.00    -0.062 A 
ATOM     42  H   LIG d   1       2.724  -2.739 -15.082  0.00  0.00     0.062 H 
ATOM     43  C   LIG d   1       0.191  -2.076 -12.957  0.00  0.00    -0.061 A 
ATOM     44  H   LIG d   1       0.311  -3.142 -14.806  0.00  0.00     0.062 H 
ATOM     45  C   LIG d   1       0.885  -1.351 -12.006  0.00  0.00    -0.057 A 
ATOM     46  H   LIG d   1      -0.867  -2.254 -12.834  0.00  0.00     0.062 H 
ATOM     47  H   LIG d   1       0.367  -0.962 -11.141  0.00  0.00     0.062 H 
ENDBRANCH  34  37
ENDBRANCH  31  34
ENDBRANCH  29  31
ENDBRANCH   1  29
TORSDOF 4
ENDMDL
MODEL 9
REMARK VINA RESULT:      -6.8      2.803      6.254
REMARK  4 active torsions:
REMARK  status: ('A' for Active; 'I' for Inactive)
REMARK    1  A    between atoms: C_4  and  C_7 
REMARK    2  A    between atoms: C_7  and  S_8 
REMARK    3  A    between atoms: S_8  and  N_11 
REMARK    4  A    between atoms: N_11  and  C_12 
ROOT
ATOM      1  C   LIG d   1       5.042  -0.516  -7.033  0.00  0.00     0.112 C 
ATOM      2  C   LIG d   1       4.857  -1.865  -6.905  0.00  0.00    -0.032 C 
ATOM      3  C   LIG d   1       4.289  -2.575  -7.968  0.00  0.00    -0.040 C 
ATOM      4  C   LIG d   1       3.952  -1.939  -9.120  0.00  0.00     0.030 C 
ATOM      5  N   LIG d   1       4.222  -0.621  -9.287  0.00  0.00    -0.310 N 
ATOM      6  C   LIG d   1       4.686   0.111  -8.244  0.00  0.00     0.274 C 
ATOM      7  O   LIG d   1       4.795   1.322  -8.355  0.00  0.00    -0.266 OA
ATOM      8  C   LIG d   1       4.089   0.064 -10.573  0.00  0.00     0.034 C 
ATOM      9  C   LIG d   1       3.156  -0.670 -11.522  0.00  0.00     0.018 C 
ATOM     10  H   LIG d   1       3.296  -0.266 -12.524  0.00  0.00     0.037 H 
ATOM     11  C   LIG d   1       3.528  -2.155 -11.556  0.00  0.00    -0.031 C 
ATOM     12  C   LIG d   1       3.221  -2.742 -10.173  0.00  0.00     0.040 C 
ATOM     13  H   LIG d   1       3.510  -3.792 -10.121  0.00  0.00     0.042 H 
ATOM     14  C   LIG d   1       1.714  -2.585  -9.912  0.00  0.00    -0.025 C 
ATOM     15  C   LIG d   1       1.696  -0.490 -11.131  0.00  0.00    -0.029 C 
ATOM     16  H   LIG d   1       5.143  -2.374  -5.996  0.00  0.00     0.064 H 
ATOM     17  H   LIG d   1       4.121  -3.638  -7.874  0.00  0.00     0.064 H 
ATOM     18  H   LIG d   1       3.699   1.067 -10.401  0.00  0.00     0.050 H 
ATOM     19  H   LIG d   1       5.072   0.144 -11.035  0.00  0.00     0.050 H 
ATOM     20  H   LIG d   1       4.589  -2.265 -11.776  0.00  0.00     0.028 H 
ATOM     21  H   LIG d   1       2.936  -2.668 -12.315  0.00  0.00     0.028 H 
ATOM     22  H   LIG d   1       1.150  -3.046 -10.724  0.00  0.00     0.082 H 
ATOM     23  H   LIG d   1       1.452  -3.057  -8.966  0.00  0.00     0.082 H 
ATOM     24  H   LIG d   1       1.062  -0.922 -11.905  0.00  0.00     0.082 H 
ATOM     25  H   LIG d   1       1.479   0.575 -11.043  0.00  0.00     0.082 H 
ATOM     26  N   LIG d   1       1.405  -1.142  -9.842  0.00  0.00     0.228 N 
ATOM     27  H   LIG d   1       1.977  -0.709  -9.107  0.00  0.00     0.201 HD
ATOM     28  H   LIG d   1       0.410  -1.019  -9.618  0.00  0.00     0.201 HD
ENDROOT
BRANCH   1  29
ATOM     29  N   LIG d   1       5.581   0.232  -5.979  0.00  0.00    -0.215 N 
ATOM     30  H   LIG d   1       4.994   0.649  -5.330  0.00  0.00     0.173 HD
BRANCH  29  31
ATOM     31  S   LIG d   1       7.224   0.404  -5.842  0.00  0.00     0.047 S 
ATOM     32  O   LIG d   1       7.508   1.659  -6.444  0.00  0.00    -0.155 OA
ATOM     33  O   LIG d   1       7.759  -0.798  -6.381  0.00  0.00    -0.155 OA
BRANCH  31  34
ATOM     34  C   LIG d   1       7.536   0.482  -4.057  0.00  0.00     0.110 C 
ATOM     35  H   LIG d   1       7.750   1.511  -3.771  0.00  0.00     0.057 H 
ATOM     36  H   LIG d   1       8.390  -0.149  -3.810  0.00  0.00     0.057 H 
BRANCH  34  37
ATOM     37  C   LIG d   1       6.319  -0.005  -3.313  0.00  0.00    -0.025 A 
ATOM     38  C   LIG d   1       6.037  -1.357  -3.259  0.00  0.00    -0.057 A 
ATOM     39  C   LIG d   1       4.920  -1.803  -2.576  0.00  0.00    -0.061 A 
ATOM     40  H   LIG d   1       6.688  -2.065  -3.750  0.00  0.00     0.062 H 
ATOM     41  C   LIG d   1       4.087  -0.897  -1.948  0.00  0.00    -0.062 A 
ATOM     42  H   LIG d   1       4.703  -2.859  -2.529  0.00  0.00     0.062 H 
ATOM     43  C   LIG d   1       4.368   0.455  -2.003  0.00  0.00    -0.061 A 
ATOM     44  H   LIG d   1       3.214  -1.245  -1.414  0.00  0.00     0.062 H 
ATOM     45  C   LIG d   1       5.485   0.901  -2.686  0.00  0.00    -0.057 A 
ATOM     46  H   LIG d   1       3.716   1.163  -1.513  0.00  0.00     0.062 H 
ATOM     47  H   LIG d   1       5.705   1.958  -2.728  0.00  0.00     0.062 H 
ENDBRANCH  34  37
ENDBRANCH  31  34
ENDBRANCH  29  31
ENDBRANCH   1  29
TORSDOF 4
ENDMDL
