MODEL 1
REMARK VINA RESULT:      -6.3      0.000      0.000
REMARK  5 active torsions:
REMARK  status: ('A' for Active; 'I' for Inactive)
REMARK    1  A    between atoms: C_1  and  C_2 
REMARK    2  A    between atoms: C_3  and  O_21 
REMARK    3  A    between atoms: C_10  and  C_11 
REMARK    4  A    between atoms: C_15  and  O_17 
REMARK    5  A    between atoms: O_17  and  C_18 
ROOT
ATOM      1  C   LIG d   1       6.420  -1.044  -4.772  0.00  0.00     0.034 A 
ATOM      2  C   LIG d   1       6.732  -1.551  -3.521  0.00  0.00     0.123 A 
ATOM      3  C   LIG d   1       5.754  -1.665  -2.539  0.00  0.00    -0.019 A 
ATOM      4  C   LIG d   1       4.470  -1.275  -2.801  0.00  0.00    -0.044 A 
ATOM      5  C   LIG d   1       4.141  -0.763  -4.055  0.00  0.00     0.068 A 
ATOM      6  C   LIG d   1       5.121  -0.644  -5.055  0.00  0.00     0.146 A 
ATOM      7  O   LIG d   1       4.569  -0.127  -6.175  0.00  0.00    -0.451 OA
ATOM      8  C   LIG d   1       3.248   0.125  -6.015  0.00  0.00     0.176 A 
ATOM      9  C   LIG d   1       2.414   0.644  -6.949  0.00  0.00    -0.008 C 
ATOM     10  C   LIG d   1       2.885  -0.260  -4.642  0.00  0.00     0.232 A 
ATOM     11  O   LIG d   1       1.792  -0.183  -4.110  0.00  0.00    -0.283 OA
ATOM     12  H   LIG d   1       6.009  -2.062  -1.567  0.00  0.00     0.065 H 
ATOM     13  H   LIG d   1       3.711  -1.363  -2.037  0.00  0.00     0.063 H 
ATOM     14  H   LIG d   1       1.375   0.888  -6.683  0.00  0.00     0.066 H 
ENDROOT
BRANCH   9  15
ATOM     15  C   LIG d   1       2.897   0.880  -8.317  0.00  0.00    -0.018 A 
ATOM     16  C   LIG d   1       2.717  -0.094  -9.304  0.00  0.00    -0.013 A 
ATOM     17  C   LIG d   1       3.175   0.137 -10.590  0.00  0.00     0.121 A 
ATOM     18  H   LIG d   1       2.222  -1.024  -9.064  0.00  0.00     0.066 H 
ATOM     19  C   LIG d   1       3.812   1.332 -10.897  0.00  0.00    -0.020 A 
ATOM     20  C   LIG d   1       3.991   2.298  -9.923  0.00  0.00    -0.058 A 
ATOM     21  H   LIG d   1       4.168   1.508 -11.901  0.00  0.00     0.065 H 
ATOM     22  C   LIG d   1       3.540   2.082  -8.639  0.00  0.00    -0.054 A 
ATOM     23  H   LIG d   1       4.490   3.224 -10.169  0.00  0.00     0.062 H 
ATOM     24  H   LIG d   1       3.681   2.838  -7.881  0.00  0.00     0.062 H 
BRANCH  17  25
ATOM     25  O   LIG d   1       3.003  -0.808 -11.551  0.00  0.00    -0.495 OA
BRANCH  25  26
ATOM     26  C   LIG d   1       1.664  -1.235 -11.808  0.00  0.00     0.079 C 
ATOM     27  H   LIG d   1       1.675  -2.266 -12.192  0.00  0.00     0.066 H 
ATOM     28  H   LIG d   1       1.203  -0.571 -12.553  0.00  0.00     0.066 H 
ATOM     29  H   LIG d   1       1.083  -1.198 -10.875  0.00  0.00     0.066 H 
ENDBRANCH  25  26
ENDBRANCH  17  25
ENDBRANCH   9  15
BRANCH   1  30
ATOM     30  C   LIG d   1       7.491  -0.927  -5.826  0.00  0.00    -0.033 C 
ATOM     31  H   LIG d   1       8.455  -0.705  -5.347  0.00  0.00     0.028 H 
ATOM     32  H   LIG d   1       7.233  -0.116  -6.523  0.00  0.00     0.028 H 
ATOM     33  H   LIG d   1       7.566  -1.875  -6.380  0.00  0.00     0.028 H 
ENDBRANCH   1  30
BRANCH   2  34
ATOM     34  O   LIG d   1       8.004  -1.940  -3.252  0.00  0.00    -0.506 OA
ATOM     35  H   LIG d   1       8.488  -2.707  -3.874  0.00  0.00     0.292 HD
ENDBRANCH   2  34
TORSDOF 5
ENDMDL
MODEL 2
REMARK VINA RESULT:      -6.2      2.454      6.848
REMARK  5 active torsions:
REMARK  status: ('A' for Active; 'I' for Inactive)
REMARK    1  A    between atoms: C_1  and  C_2 
REMARK    2  A    between atoms: C_3  and  O_21 
REMARK    3  A    between atoms: C_10  and  C_11 
REMARK    4  A    between atoms: C_15  and  O_17 
REMARK    5  A    between atoms: O_17  and  C_18 
ROOT
ATOM      1  C   LIG d   1       3.093  -0.829  -8.637  0.00  0.00     0.034 A 
ATOM      2  C   LIG d   1       2.736  -1.313  -9.884  0.00  0.00     0.123 A 
ATOM      3  C   LIG d   1       3.004  -2.633 -10.235  0.00  0.00    -0.019 A 
ATOM      4  C   LIG d   1       3.628  -3.465  -9.349  0.00  0.00    -0.044 A 
ATOM      5  C   LIG d   1       3.994  -2.991  -8.089  0.00  0.00     0.068 A 
ATOM      6  C   LIG d   1       3.727  -1.661  -7.724  0.00  0.00     0.146 A 
ATOM      7  O   LIG d   1       4.169  -1.436  -6.467  0.00  0.00    -0.451 OA
ATOM      8  C   LIG d   1       4.736  -2.541  -5.927  0.00  0.00     0.176 A 
ATOM      9  C   LIG d   1       5.273  -2.640  -4.686  0.00  0.00    -0.008 C 
ATOM     10  C   LIG d   1       4.667  -3.613  -6.934  0.00  0.00     0.232 A 
ATOM     11  O   LIG d   1       5.073  -4.757  -6.835  0.00  0.00    -0.283 OA
ATOM     12  H   LIG d   1       2.721  -3.000 -11.211  0.00  0.00     0.065 H 
ATOM     13  H   LIG d   1       3.837  -4.489  -9.622  0.00  0.00     0.063 H 
ATOM     14  H   LIG d   1       5.786  -3.565  -4.381  0.00  0.00     0.066 H 
ENDROOT
BRANCH   9  15
ATOM     15  C   LIG d   1       5.173  -1.513  -3.749  0.00  0.00    -0.018 A 
ATOM     16  C   LIG d   1       5.941  -0.362  -3.949  0.00  0.00    -0.013 A 
ATOM     17  C   LIG d   1       5.840   0.695  -3.061  0.00  0.00     0.121 A 
ATOM     18  H   LIG d   1       6.611  -0.298  -4.794  0.00  0.00     0.066 H 
ATOM     19  C   LIG d   1       4.979   0.610  -1.974  0.00  0.00    -0.020 A 
ATOM     20  C   LIG d   1       4.217  -0.527  -1.774  0.00  0.00    -0.058 A 
ATOM     21  H   LIG d   1       4.903   1.437  -1.284  0.00  0.00     0.065 H 
ATOM     22  C   LIG d   1       4.308  -1.587  -2.650  0.00  0.00    -0.054 A 
ATOM     23  H   LIG d   1       3.552  -0.586  -0.925  0.00  0.00     0.062 H 
ATOM     24  H   LIG d   1       3.712  -2.473  -2.490  0.00  0.00     0.062 H 
BRANCH  17  25
ATOM     25  O   LIG d   1       6.585   1.815  -3.251  0.00  0.00    -0.495 OA
BRANCH  25  26
ATOM     26  C   LIG d   1       7.804   1.667  -3.980  0.00  0.00     0.079 C 
ATOM     27  H   LIG d   1       7.879   0.641  -4.367  0.00  0.00     0.066 H 
ATOM     28  H   LIG d   1       8.656   1.871  -3.314  0.00  0.00     0.066 H 
ATOM     29  H   LIG d   1       7.818   2.377  -4.820  0.00  0.00     0.066 H 
ENDBRANCH  25  26
ENDBRANCH  17  25
ENDBRANCH   9  15
BRANCH   1  30
ATOM     30  C   LIG d   1       2.795   0.602  -8.271  0.00  0.00    -0.033 C 
ATOM     31  H   LIG d   1       1.771   0.855  -8.583  0.00  0.00     0.028 H 
ATOM     32  H   LIG d   1       3.509   1.268  -8.778  0.00  0.00     0.028 H 
ATOM     33  H   LIG d   1       2.887   0.729  -7.182  0.00  0.00     0.028 H 
ENDBRANCH   1  30
BRANCH   2  34
ATOM     34  O   LIG d   1       2.117  -0.494 -10.772  0.00  0.00    -0.506 OA
ATOM     35  H   LIG d   1       1.200  -0.826 -11.281  0.00  0.00     0.292 HD
ENDBRANCH   2  34
TORSDOF 5
ENDMDL
MODEL 3
REMARK VINA RESULT:      -6.1      1.682      6.666
REMARK  5 active torsions:
REMARK  status: ('A' for Active; 'I' for Inactive)
REMARK    1  A    between atoms: C_1  and  C_2 
REMARK    2  A    between atoms: C_3  and  O_21 
REMARK    3  A    between atoms: C_10  and  C_11 
REMARK    4  A    between atoms: C_15  and  O_17 
REMARK    5  A    between atoms: O_17  and  C_18 
ROOT
ATOM      1  C   LIG d   1       3.265  -2.287  -9.316  0.00  0.00     0.034 A 
ATOM      2  C   LIG d   1       3.074  -2.158 -10.682  0.00  0.00     0.123 A 
ATOM      3  C   LIG d   1       2.826  -0.911 -11.248  0.00  0.00    -0.019 A 
ATOM      4  C   LIG d   1       2.769   0.202 -10.457  0.00  0.00    -0.044 A 
ATOM      5  C   LIG d   1       2.959   0.087  -9.080  0.00  0.00     0.068 A 
ATOM      6  C   LIG d   1       3.210  -1.166  -8.498  0.00  0.00     0.146 A 
ATOM      7  O   LIG d   1       3.359  -1.027  -7.162  0.00  0.00    -0.451 OA
ATOM      8  C   LIG d   1       3.226   0.263  -6.772  0.00  0.00     0.176 A 
ATOM      9  C   LIG d   1       3.320   0.730  -5.503  0.00  0.00    -0.008 C 
ATOM     10  C   LIG d   1       2.954   1.065  -7.976  0.00  0.00     0.232 A 
ATOM     11  O   LIG d   1       2.768   2.267  -8.046  0.00  0.00    -0.283 OA
ATOM     12  H   LIG d   1       2.679  -0.823 -12.314  0.00  0.00     0.065 H 
ATOM     13  H   LIG d   1       2.575   1.169 -10.897  0.00  0.00     0.063 H 
ATOM     14  H   LIG d   1       3.109   1.788  -5.289  0.00  0.00     0.066 H 
ENDROOT
BRANCH   9  15
ATOM     15  C   LIG d   1       3.705  -0.177  -4.413  0.00  0.00    -0.018 A 
ATOM     16  C   LIG d   1       5.043  -0.554  -4.250  0.00  0.00    -0.013 A 
ATOM     17  C   LIG d   1       5.396  -1.409  -3.221  0.00  0.00     0.121 A 
ATOM     18  H   LIG d   1       5.797  -0.178  -4.927  0.00  0.00     0.066 H 
ATOM     19  C   LIG d   1       4.425  -1.891  -2.353  0.00  0.00    -0.020 A 
ATOM     20  C   LIG d   1       3.101  -1.521  -2.511  0.00  0.00    -0.058 A 
ATOM     21  H   LIG d   1       4.705  -2.558  -1.551  0.00  0.00     0.065 H 
ATOM     22  C   LIG d   1       2.735  -0.671  -3.531  0.00  0.00    -0.054 A 
ATOM     23  H   LIG d   1       2.352  -1.903  -1.833  0.00  0.00     0.062 H 
ATOM     24  H   LIG d   1       1.701  -0.383  -3.651  0.00  0.00     0.062 H 
BRANCH  17  25
ATOM     25  O   LIG d   1       6.694  -1.777  -3.060  0.00  0.00    -0.495 OA
BRANCH  25  26
ATOM     26  C   LIG d   1       7.286  -2.545  -4.109  0.00  0.00     0.079 C 
ATOM     27  H   LIG d   1       7.122  -2.039  -5.072  0.00  0.00     0.066 H 
ATOM     28  H   LIG d   1       6.826  -3.544  -4.137  0.00  0.00     0.066 H 
ATOM     29  H   LIG d   1       8.365  -2.644  -3.927  0.00  0.00     0.066 H 
ENDBRANCH  25  26
ENDBRANCH  17  25
ENDBRANCH   9  15
BRANCH   1  30
ATOM     30  C   LIG d   1       3.533  -3.644  -8.717  0.00  0.00    -0.033 C 
ATOM     31  H   LIG d   1       4.102  -3.527  -7.784  0.00  0.00     0.028 H 
ATOM     32  H   LIG d   1       4.113  -4.251  -9.428  0.00  0.00     0.028 H 
ATOM     33  H   LIG d   1       2.577  -4.145  -8.503  0.00  0.00     0.028 H 
ENDBRANCH   1  30
BRANCH   2  34
ATOM     34  O   LIG d   1       3.129  -3.258 -11.475  0.00  0.00    -0.506 OA
ATOM     35  H   LIG d   1       3.509  -4.208 -11.072  0.00  0.00     0.292 HD
ENDBRANCH   2  34
TORSDOF 5
ENDMDL
MODEL 4
REMARK VINA RESULT:      -5.6      2.059      3.030
REMARK  5 active torsions:
REMARK  status: ('A' for Active; 'I' for Inactive)
REMARK    1  A    between atoms: C_1  and  C_2 
REMARK    2  A    between atoms: C_3  and  O_21 
REMARK    3  A    between atoms: C_10  and  C_11 
REMARK    4  A    between atoms: C_15  and  O_17 
REMARK    5  A    between atoms: O_17  and  C_18 
ROOT
ATOM      1  C   LIG d   1       3.455   0.217  -4.075  0.00  0.00     0.034 A 
ATOM      2  C   LIG d   1       3.646   0.105  -2.707  0.00  0.00     0.123 A 
ATOM      3  C   LIG d   1       4.297  -1.002  -2.171  0.00  0.00    -0.019 A 
ATOM      4  C   LIG d   1       4.754  -1.994  -2.993  0.00  0.00    -0.044 A 
ATOM      5  C   LIG d   1       4.569  -1.895  -4.372  0.00  0.00     0.068 A 
ATOM      6  C   LIG d   1       3.914  -0.782  -4.924  0.00  0.00     0.146 A 
ATOM      7  O   LIG d   1       3.855  -0.909  -6.268  0.00  0.00    -0.451 OA
ATOM      8  C   LIG d   1       4.435  -2.056  -6.692  0.00  0.00     0.176 A 
ATOM      9  C   LIG d   1       4.538  -2.474  -7.978  0.00  0.00    -0.008 C 
ATOM     10  C   LIG d   1       4.927  -2.771  -5.503  0.00  0.00     0.232 A 
ATOM     11  O   LIG d   1       5.504  -3.843  -5.462  0.00  0.00    -0.283 OA
ATOM     12  H   LIG d   1       4.440  -1.079  -1.103  0.00  0.00     0.065 H 
ATOM     13  H   LIG d   1       5.258  -2.853  -2.576  0.00  0.00     0.063 H 
ATOM     14  H   LIG d   1       4.954  -3.467  -8.202  0.00  0.00     0.066 H 
ENDROOT
BRANCH   9  15
ATOM     15  C   LIG d   1       4.093  -1.600  -9.073  0.00  0.00    -0.018 A 
ATOM     16  C   LIG d   1       2.774  -1.665  -9.533  0.00  0.00    -0.013 A 
ATOM     17  C   LIG d   1       2.364  -0.839 -10.565  0.00  0.00     0.121 A 
ATOM     18  H   LIG d   1       2.078  -2.359  -9.084  0.00  0.00     0.066 H 
ATOM     19  C   LIG d   1       3.261   0.051 -11.141  0.00  0.00    -0.020 A 
ATOM     20  C   LIG d   1       4.567   0.118 -10.688  0.00  0.00    -0.058 A 
ATOM     21  H   LIG d   1       2.937   0.694 -11.946  0.00  0.00     0.065 H 
ATOM     22  C   LIG d   1       4.988  -0.699  -9.662  0.00  0.00    -0.054 A 
ATOM     23  H   LIG d   1       5.259   0.811 -11.144  0.00  0.00     0.062 H 
ATOM     24  H   LIG d   1       6.008  -0.643  -9.310  0.00  0.00     0.062 H 
BRANCH  17  25
ATOM     25  O   LIG d   1       1.083  -0.900 -11.015  0.00  0.00    -0.495 OA
BRANCH  25  26
ATOM     26  C   LIG d   1       0.843  -1.684 -12.184  0.00  0.00     0.079 C 
ATOM     27  H   LIG d   1       1.115  -2.731 -11.987  0.00  0.00     0.066 H 
ATOM     28  H   LIG d   1       1.451  -1.298 -13.016  0.00  0.00     0.066 H 
ATOM     29  H   LIG d   1      -0.222  -1.626 -12.451  0.00  0.00     0.066 H 
ENDBRANCH  25  26
ENDBRANCH  17  25
ENDBRANCH   9  15
BRANCH   1  30
ATOM     30  C   LIG d   1       2.750   1.422  -4.641  0.00  0.00    -0.033 C 
ATOM     31  H   LIG d   1       2.182   1.922  -3.844  0.00  0.00     0.028 H 
ATOM     32  H   LIG d   1       2.061   1.103  -5.438  0.00  0.00     0.028 H 
ATOM     33  H   LIG d   1       3.492   2.120  -5.057  0.00  0.00     0.028 H 
ENDBRANCH   1  30
BRANCH   2  34
ATOM     34  O   LIG d   1       3.195   1.084  -1.883  0.00  0.00    -0.506 OA
ATOM     35  H   LIG d   1       3.722   1.297  -0.941  0.00  0.00     0.292 HD
ENDBRANCH   2  34
TORSDOF 5
ENDMDL
MODEL 5
REMARK VINA RESULT:      -5.5      1.370      1.600
REMARK  5 active torsions:
REMARK  status: ('A' for Active; 'I' for Inactive)
REMARK    1  A    between atoms: C_1  and  C_2 
REMARK    2  A    between atoms: C_3  and  O_21 
REMARK    3  A    between atoms: C_10  and  C_11 
REMARK    4  A    between atoms: C_15  and  O_17 
REMARK    5  A    between atoms: O_17  and  C_18 
ROOT
ATOM      1  C   LIG d   1       5.928  -2.383  -5.721  0.00  0.00     0.034 A 
ATOM      2  C   LIG d   1       6.365  -2.665  -4.438  0.00  0.00     0.123 A 
ATOM      3  C   LIG d   1       5.821  -2.002  -3.342  0.00  0.00    -0.019 A 
ATOM      4  C   LIG d   1       4.848  -1.060  -3.524  0.00  0.00    -0.044 A 
ATOM      5  C   LIG d   1       4.399  -0.764  -4.811  0.00  0.00     0.068 A 
ATOM      6  C   LIG d   1       4.940  -1.428  -5.924  0.00  0.00     0.146 A 
ATOM      7  O   LIG d   1       4.351  -0.978  -7.054  0.00  0.00    -0.451 OA
ATOM      8  C   LIG d   1       3.422  -0.028  -6.794  0.00  0.00     0.176 A 
ATOM      9  C   LIG d   1       2.661   0.619  -7.710  0.00  0.00    -0.008 C 
ATOM     10  C   LIG d   1       3.393   0.178  -5.337  0.00  0.00     0.232 A 
ATOM     11  O   LIG d   1       2.695   0.952  -4.706  0.00  0.00    -0.283 OA
ATOM     12  H   LIG d   1       6.170  -2.231  -2.345  0.00  0.00     0.065 H 
ATOM     13  H   LIG d   1       4.428  -0.544  -2.673  0.00  0.00     0.063 H 
ATOM     14  H   LIG d   1       1.996   1.437  -7.393  0.00  0.00     0.066 H 
ENDROOT
BRANCH   9  15
ATOM     15  C   LIG d   1       2.723   0.229  -9.125  0.00  0.00    -0.018 A 
ATOM     16  C   LIG d   1       1.794  -0.678  -9.646  0.00  0.00    -0.013 A 
ATOM     17  C   LIG d   1       1.860  -1.040 -10.980  0.00  0.00     0.121 A 
ATOM     18  H   LIG d   1       1.029  -1.096  -9.008  0.00  0.00     0.066 H 
ATOM     19  C   LIG d   1       2.846  -0.504 -11.798  0.00  0.00    -0.020 A 
ATOM     20  C   LIG d   1       3.765   0.395 -11.287  0.00  0.00    -0.058 A 
ATOM     21  H   LIG d   1       2.894  -0.788 -12.839  0.00  0.00     0.065 H 
ATOM     22  C   LIG d   1       3.712   0.764  -9.960  0.00  0.00    -0.054 A 
ATOM     23  H   LIG d   1       4.531   0.805 -11.929  0.00  0.00     0.062 H 
ATOM     24  H   LIG d   1       4.431   1.466  -9.565  0.00  0.00     0.062 H 
BRANCH  17  25
ATOM     25  O   LIG d   1       0.961  -1.922 -11.489  0.00  0.00    -0.495 OA
BRANCH  25  26
ATOM     26  C   LIG d   1       1.154  -2.338 -12.842  0.00  0.00     0.079 C 
ATOM     27  H   LIG d   1       0.466  -3.163 -13.075  0.00  0.00     0.066 H 
ATOM     28  H   LIG d   1       2.192  -2.678 -12.976  0.00  0.00     0.066 H 
ATOM     29  H   LIG d   1       0.956  -1.493 -13.517  0.00  0.00     0.066 H 
ENDBRANCH  25  26
ENDBRANCH  17  25
ENDBRANCH   9  15
BRANCH   1  30
ATOM     30  C   LIG d   1       6.526  -3.110  -6.898  0.00  0.00    -0.033 C 
ATOM     31  H   LIG d   1       5.931  -2.901  -7.799  0.00  0.00     0.028 H 
ATOM     32  H   LIG d   1       6.524  -4.192  -6.700  0.00  0.00     0.028 H 
ATOM     33  H   LIG d   1       7.560  -2.769  -7.053  0.00  0.00     0.028 H 
ENDBRANCH   1  30
BRANCH   2  34
ATOM     34  O   LIG d   1       7.332  -3.599  -4.247  0.00  0.00    -0.506 OA
ATOM     35  H   LIG d   1       7.975  -3.551  -3.356  0.00  0.00     0.292 HD
ENDBRANCH   2  34
TORSDOF 5
ENDMDL
MODEL 6
REMARK VINA RESULT:      -5.5      4.647      6.309
REMARK  5 active torsions:
REMARK  status: ('A' for Active; 'I' for Inactive)
REMARK    1  A    between atoms: C_1  and  C_2 
REMARK    2  A    between atoms: C_3  and  O_21 
REMARK    3  A    between atoms: C_10  and  C_11 
REMARK    4  A    between atoms: C_15  and  O_17 
REMARK    5  A    between atoms: O_17  and  C_18 
ROOT
ATOM      1  C   LIG d   1       5.831  -2.440  -4.586  0.00  0.00     0.034 A 
ATOM      2  C   LIG d   1       4.742  -3.128  -4.076  0.00  0.00     0.123 A 
ATOM      3  C   LIG d   1       3.932  -2.551  -3.103  0.00  0.00    -0.019 A 
ATOM      4  C   LIG d   1       4.206  -1.295  -2.638  0.00  0.00    -0.044 A 
ATOM      5  C   LIG d   1       5.299  -0.591  -3.141  0.00  0.00     0.068 A 
ATOM      6  C   LIG d   1       6.124  -1.163  -4.124  0.00  0.00     0.146 A 
ATOM      7  O   LIG d   1       7.109  -0.298  -4.452  0.00  0.00    -0.451 OA
ATOM      8  C   LIG d   1       7.022   0.855  -3.749  0.00  0.00     0.176 A 
ATOM      9  C   LIG d   1       7.858   1.918  -3.847  0.00  0.00    -0.008 C 
ATOM     10  C   LIG d   1       5.858   0.744  -2.855  0.00  0.00     0.232 A 
ATOM     11  O   LIG d   1       5.446   1.569  -2.059  0.00  0.00    -0.283 OA
ATOM     12  H   LIG d   1       3.085  -3.097  -2.713  0.00  0.00     0.065 H 
ATOM     13  H   LIG d   1       3.578  -0.849  -1.881  0.00  0.00     0.063 H 
ATOM     14  H   LIG d   1       7.744   2.772  -3.163  0.00  0.00     0.066 H 
ENDROOT
BRANCH   9  15
ATOM     15  C   LIG d   1       8.917   1.928  -4.865  0.00  0.00    -0.018 A 
ATOM     16  C   LIG d   1      10.219   1.539  -4.530  0.00  0.00    -0.013 A 
ATOM     17  C   LIG d   1      11.211   1.553  -5.496  0.00  0.00     0.121 A 
ATOM     18  H   LIG d   1      10.448   1.229  -3.521  0.00  0.00     0.066 H 
ATOM     19  C   LIG d   1      10.913   1.952  -6.792  0.00  0.00    -0.020 A 
ATOM     20  C   LIG d   1       9.627   2.338  -7.127  0.00  0.00    -0.058 A 
ATOM     21  H   LIG d   1      11.690   1.961  -7.543  0.00  0.00     0.065 H 
ATOM     22  C   LIG d   1       8.630   2.329  -6.176  0.00  0.00    -0.054 A 
ATOM     23  H   LIG d   1       9.405   2.650  -8.137  0.00  0.00     0.062 H 
ATOM     24  H   LIG d   1       7.628   2.630  -6.441  0.00  0.00     0.062 H 
BRANCH  17  25
ATOM     25  O   LIG d   1      12.476   1.175  -5.174  0.00  0.00    -0.495 OA
BRANCH  25  26
ATOM     26  C   LIG d   1      12.744   0.914  -3.796  0.00  0.00     0.079 C 
ATOM     27  H   LIG d   1      13.523   0.142  -3.713  0.00  0.00     0.066 H 
ATOM     28  H   LIG d   1      11.825   0.562  -3.303  0.00  0.00     0.066 H 
ATOM     29  H   LIG d   1      13.090   1.837  -3.308  0.00  0.00     0.066 H 
ENDBRANCH  25  26
ENDBRANCH  17  25
ENDBRANCH   9  15
BRANCH   1  30
ATOM     30  C   LIG d   1       6.699  -3.077  -5.640  0.00  0.00    -0.033 C 
ATOM     31  H   LIG d   1       6.142  -3.887  -6.133  0.00  0.00     0.028 H 
ATOM     32  H   LIG d   1       7.605  -3.487  -5.171  0.00  0.00     0.028 H 
ATOM     33  H   LIG d   1       6.984  -2.321  -6.386  0.00  0.00     0.028 H 
ENDBRANCH   1  30
BRANCH   2  34
ATOM     34  O   LIG d   1       4.462  -4.375  -4.532  0.00  0.00    -0.506 OA
ATOM     35  H   LIG d   1       5.137  -4.863  -5.250  0.00  0.00     0.292 HD
ENDBRANCH   2  34
TORSDOF 5
ENDMDL
MODEL 7
REMARK VINA RESULT:      -5.4      1.552      2.207
REMARK  5 active torsions:
REMARK  status: ('A' for Active; 'I' for Inactive)
REMARK    1  A    between atoms: C_1  and  C_2 
REMARK    2  A    between atoms: C_3  and  O_21 
REMARK    3  A    between atoms: C_10  and  C_11 
REMARK    4  A    between atoms: C_15  and  O_17 
REMARK    5  A    between atoms: O_17  and  C_18 
ROOT
ATOM      1  C   LIG d   1       5.778  -2.518  -5.880  0.00  0.00     0.034 A 
ATOM      2  C   LIG d   1       6.261  -2.731  -4.599  0.00  0.00     0.123 A 
ATOM      3  C   LIG d   1       5.798  -1.970  -3.531  0.00  0.00    -0.019 A 
ATOM      4  C   LIG d   1       4.858  -0.999  -3.737  0.00  0.00    -0.044 A 
ATOM      5  C   LIG d   1       4.362  -0.773  -5.021  0.00  0.00     0.068 A 
ATOM      6  C   LIG d   1       4.823  -1.536  -6.107  0.00  0.00     0.146 A 
ATOM      7  O   LIG d   1       4.203  -1.137  -7.239  0.00  0.00    -0.451 OA
ATOM      8  C   LIG d   1       3.327  -0.131  -7.007  0.00  0.00     0.176 A 
ATOM      9  C   LIG d   1       2.553   0.486  -7.933  0.00  0.00    -0.008 C 
ATOM     10  C   LIG d   1       3.375   0.176  -5.568  0.00  0.00     0.232 A 
ATOM     11  O   LIG d   1       2.740   1.022  -4.964  0.00  0.00    -0.283 OA
ATOM     12  H   LIG d   1       6.181  -2.146  -2.536  0.00  0.00     0.065 H 
ATOM     13  H   LIG d   1       4.499  -0.408  -2.907  0.00  0.00     0.063 H 
ATOM     14  H   LIG d   1       1.939   1.353  -7.647  0.00  0.00     0.066 H 
ENDROOT
BRANCH   9  15
ATOM     15  C   LIG d   1       2.533  -0.002  -9.319  0.00  0.00    -0.018 A 
ATOM     16  C   LIG d   1       3.652   0.169 -10.141  0.00  0.00    -0.013 A 
ATOM     17  C   LIG d   1       3.625  -0.294 -11.445  0.00  0.00     0.121 A 
ATOM     18  H   LIG d   1       4.534   0.661  -9.758  0.00  0.00     0.066 H 
ATOM     19  C   LIG d   1       2.489  -0.926 -11.934  0.00  0.00    -0.020 A 
ATOM     20  C   LIG d   1       1.381  -1.097 -11.124  0.00  0.00    -0.058 A 
ATOM     21  H   LIG d   1       2.472  -1.286 -12.953  0.00  0.00     0.065 H 
ATOM     22  C   LIG d   1       1.394  -0.641  -9.824  0.00  0.00    -0.054 A 
ATOM     23  H   LIG d   1       0.500  -1.587 -11.514  0.00  0.00     0.062 H 
ATOM     24  H   LIG d   1       0.527  -0.777  -9.194  0.00  0.00     0.062 H 
BRANCH  17  25
ATOM     25  O   LIG d   1       4.709  -0.129 -12.246  0.00  0.00    -0.495 OA
BRANCH  25  26
ATOM     26  C   LIG d   1       5.923  -0.759 -11.833  0.00  0.00     0.079 C 
ATOM     27  H   LIG d   1       6.621   0.001 -11.454  0.00  0.00     0.066 H 
ATOM     28  H   LIG d   1       6.376  -1.279 -12.690  0.00  0.00     0.066 H 
ATOM     29  H   LIG d   1       5.705  -1.486 -11.037  0.00  0.00     0.066 H 
ENDBRANCH  25  26
ENDBRANCH  17  25
ENDBRANCH   9  15
BRANCH   1  30
ATOM     30  C   LIG d   1       6.290  -3.351  -7.026  0.00  0.00    -0.033 C 
ATOM     31  H   LIG d   1       7.365  -3.167  -7.163  0.00  0.00     0.028 H 
ATOM     32  H   LIG d   1       5.751  -3.078  -7.946  0.00  0.00     0.028 H 
ATOM     33  H   LIG d   1       6.124  -4.416  -6.808  0.00  0.00     0.028 H 
ENDBRANCH   1  30
BRANCH   2  34
ATOM     34  O   LIG d   1       7.195  -3.693  -4.384  0.00  0.00    -0.506 OA
ATOM     35  H   LIG d   1       7.599  -3.851  -3.374  0.00  0.00     0.292 HD
ENDBRANCH   2  34
TORSDOF 5
ENDMDL
MODEL 8
REMARK VINA RESULT:      -5.4      3.021      7.253
REMARK  5 active torsions:
REMARK  status: ('A' for Active; 'I' for Inactive)
REMARK    1  A    between atoms: C_1  and  C_2 
REMARK    2  A    between atoms: C_3  and  O_21 
REMARK    3  A    between atoms: C_10  and  C_11 
REMARK    4  A    between atoms: C_15  and  O_17 
REMARK    5  A    between atoms: O_17  and  C_18 
ROOT
ATOM      1  C   LIG d   1       3.298  -1.900  -9.235  0.00  0.00     0.034 A 
ATOM      2  C   LIG d   1       2.624  -2.214 -10.403  0.00  0.00     0.123 A 
ATOM      3  C   LIG d   1       2.290  -3.533 -10.695  0.00  0.00    -0.019 A 
ATOM      4  C   LIG d   1       2.626  -4.534  -9.828  0.00  0.00    -0.044 A 
ATOM      5  C   LIG d   1       3.305  -4.233  -8.647  0.00  0.00     0.068 A 
ATOM      6  C   LIG d   1       3.647  -2.905  -8.342  0.00  0.00     0.146 A 
ATOM      7  O   LIG d   1       4.294  -2.862  -7.156  0.00  0.00    -0.451 OA
ATOM      8  C   LIG d   1       4.426  -4.093  -6.610  0.00  0.00     0.176 A 
ATOM      9  C   LIG d   1       5.026  -4.385  -5.430  0.00  0.00    -0.008 C 
ATOM     10  C   LIG d   1       3.806  -5.058  -7.532  0.00  0.00     0.232 A 
ATOM     11  O   LIG d   1       3.722  -6.267  -7.403  0.00  0.00    -0.283 OA
ATOM     12  H   LIG d   1       1.764  -3.766 -11.609  0.00  0.00     0.065 H 
ATOM     13  H   LIG d   1       2.367  -5.558 -10.056  0.00  0.00     0.063 H 
ATOM     14  H   LIG d   1       5.153  -5.434  -5.122  0.00  0.00     0.066 H 
ENDROOT
BRANCH   9  15
ATOM     15  C   LIG d   1       5.507  -3.302  -4.561  0.00  0.00    -0.018 A 
ATOM     16  C   LIG d   1       4.633  -2.680  -3.663  0.00  0.00    -0.013 A 
ATOM     17  C   LIG d   1       5.094  -1.660  -2.849  0.00  0.00     0.121 A 
ATOM     18  H   LIG d   1       3.601  -2.995  -3.606  0.00  0.00     0.066 H 
ATOM     19  C   LIG d   1       6.420  -1.256  -2.925  0.00  0.00    -0.020 A 
ATOM     20  C   LIG d   1       7.288  -1.869  -3.812  0.00  0.00    -0.058 A 
ATOM     21  H   LIG d   1       6.777  -0.460  -2.288  0.00  0.00     0.065 H 
ATOM     22  C   LIG d   1       6.842  -2.885  -4.629  0.00  0.00    -0.054 A 
ATOM     23  H   LIG d   1       8.317  -1.546  -3.868  0.00  0.00     0.062 H 
ATOM     24  H   LIG d   1       7.522  -3.361  -5.319  0.00  0.00     0.062 H 
BRANCH  17  25
ATOM     25  O   LIG d   1       4.248  -1.054  -1.976  0.00  0.00    -0.495 OA
BRANCH  25  26
ATOM     26  C   LIG d   1       4.349   0.366  -1.854  0.00  0.00     0.079 C 
ATOM     27  H   LIG d   1       5.332   0.697  -2.219  0.00  0.00     0.066 H 
ATOM     28  H   LIG d   1       4.234   0.653  -0.799  0.00  0.00     0.066 H 
ATOM     29  H   LIG d   1       3.558   0.842  -2.451  0.00  0.00     0.066 H 
ENDBRANCH  25  26
ENDBRANCH  17  25
ENDBRANCH   9  15
BRANCH   1  30
ATOM     30  C   LIG d   1       3.653  -0.467  -8.932  0.00  0.00    -0.033 C 
ATOM     31  H   LIG d   1       4.742  -0.334  -9.010  0.00  0.00     0.028 H 
ATOM     32  H   LIG d   1       3.325  -0.215  -7.912  0.00  0.00     0.028 H 
ATOM     33  H   LIG d   1       3.150   0.196  -9.652  0.00  0.00     0.028 H 
ENDBRANCH   1  30
BRANCH   2  34
ATOM     34  O   LIG d   1       2.286  -1.227 -11.271  0.00  0.00    -0.506 OA
ATOM     35  H   LIG d   1       1.455  -1.374 -11.975  0.00  0.00     0.292 HD
ENDBRANCH   2  34
TORSDOF 5
ENDMDL
MODEL 9
REMARK VINA RESULT:      -5.3      8.591     11.418
REMARK  5 active torsions:
REMARK  status: ('A' for Active; 'I' for Inactive)
REMARK    1  A    between atoms: C_1  and  C_2 
REMARK    2  A    between atoms: C_3  and  O_21 
REMARK    3  A    between atoms: C_10  and  C_11 
REMARK    4  A    between atoms: C_15  and  O_17 
REMARK    5  A    between atoms: O_17  and  C_18 
ROOT
ATOM      1  C   LIG d   1       9.495   7.896  -7.101  0.00  0.00     0.034 A 
ATOM      2  C   LIG d   1       9.228   7.788  -8.456  0.00  0.00     0.123 A 
ATOM      3  C   LIG d   1       9.244   6.546  -9.083  0.00  0.00    -0.019 A 
ATOM      4  C   LIG d   1       9.526   5.417  -8.365  0.00  0.00    -0.044 A 
ATOM      5  C   LIG d   1       9.797   5.512  -7.000  0.00  0.00     0.068 A 
ATOM      6  C   LIG d   1       9.783   6.760  -6.356  0.00  0.00     0.146 A 
ATOM      7  O   LIG d   1      10.072   6.599  -5.046  0.00  0.00    -0.451 OA
ATOM      8  C   LIG d   1      10.290   5.300  -4.733  0.00  0.00     0.176 A 
ATOM      9  C   LIG d   1      10.601   4.813  -3.507  0.00  0.00    -0.008 C 
ATOM     10  C   LIG d   1      10.134   4.514  -5.968  0.00  0.00     0.232 A 
ATOM     11  O   LIG d   1      10.255   3.310  -6.106  0.00  0.00    -0.283 OA
ATOM     12  H   LIG d   1       9.034   6.473 -10.141  0.00  0.00     0.065 H 
ATOM     13  H   LIG d   1       9.539   4.455  -8.854  0.00  0.00     0.063 H 
ATOM     14  H   LIG d   1      10.842   3.747  -3.384  0.00  0.00     0.066 H 
ENDROOT
BRANCH   9  15
ATOM     15  C   LIG d   1      10.616   5.709  -2.342  0.00  0.00    -0.018 A 
ATOM     16  C   LIG d   1       9.534   6.559  -2.095  0.00  0.00    -0.013 A 
ATOM     17  C   LIG d   1       9.557   7.400  -0.996  0.00  0.00     0.121 A 
ATOM     18  H   LIG d   1       8.683   6.560  -2.760  0.00  0.00     0.066 H 
ATOM     19  C   LIG d   1      10.652   7.399  -0.142  0.00  0.00    -0.020 A 
ATOM     20  C   LIG d   1      11.725   6.558  -0.383  0.00  0.00    -0.058 A 
ATOM     21  H   LIG d   1      10.666   8.056   0.715  0.00  0.00     0.065 H 
ATOM     22  C   LIG d   1      11.715   5.717  -1.474  0.00  0.00    -0.054 A 
ATOM     23  H   LIG d   1      12.574   6.566   0.284  0.00  0.00     0.062 H 
ATOM     24  H   LIG d   1      12.554   5.062  -1.659  0.00  0.00     0.062 H 
BRANCH  17  25
ATOM     25  O   LIG d   1       8.507   8.228  -0.752  0.00  0.00    -0.495 OA
BRANCH  25  26
ATOM     26  C   LIG d   1       8.773   9.631  -0.756  0.00  0.00     0.079 C 
ATOM     27  H   LIG d   1       7.995  10.154  -0.180  0.00  0.00     0.066 H 
ATOM     28  H   LIG d   1       8.774  10.002  -1.792  0.00  0.00     0.066 H 
ATOM     29  H   LIG d   1       9.755   9.819  -0.299  0.00  0.00     0.066 H 
ENDBRANCH  25  26
ENDBRANCH  17  25
ENDBRANCH   9  15
BRANCH   1  30
ATOM     30  C   LIG d   1       9.473   9.248  -6.434  0.00  0.00    -0.033 C 
ATOM     31  H   LIG d   1       9.800   9.147  -5.389  0.00  0.00     0.028 H 
ATOM     32  H   LIG d   1       8.451   9.654  -6.462  0.00  0.00     0.028 H 
ATOM     33  H   LIG d   1      10.153   9.930  -6.967  0.00  0.00     0.028 H 
ENDBRANCH   1  30
BRANCH   2  34
ATOM     34  O   LIG d   1       8.948   8.902  -9.177  0.00  0.00    -0.506 OA
ATOM     35  H   LIG d   1       8.612   8.812 -10.221  0.00  0.00     0.292 HD
ENDBRANCH   2  34
TORSDOF 5
ENDMDL
