MODEL 1
REMARK VINA RESULT:      -6.9      0.000      0.000
REMARK  4 active torsions:
REMARK  status: ('A' for Active; 'I' for Inactive)
REMARK    1  A    between atoms: C_1  and  C_2 
REMARK    2  A    between atoms: C_2  and  C_3 
REMARK    3  A    between atoms: C_3  and  C_4 
REMARK    4  A    between atoms: N_16  and  C_19 
ROOT
ATOM      1  C   LIG d   1       4.095  -1.746  -3.845  0.00  0.00    -0.030 A 
ATOM      2  C   LIG d   1       4.974  -2.774  -3.980  0.00  0.00     0.027 A 
ATOM      3  C   LIG d   1       5.523  -3.058  -5.246  0.00  0.00     0.338 A 
ATOM      4  O   LIG d   1       6.309  -3.984  -5.346  0.00  0.00    -0.245 OA
ATOM      5  O   LIG d   1       5.221  -2.354  -6.342  0.00  0.00    -0.422 OA
ATOM      6  C   LIG d   1       4.356  -1.323  -6.269  0.00  0.00     0.147 A 
ATOM      7  C   LIG d   1       3.761  -0.974  -5.043  0.00  0.00     0.021 A 
ATOM      8  C   LIG d   1       2.863   0.098  -4.979  0.00  0.00    -0.047 A 
ATOM      9  C   LIG d   1       2.566   0.801  -6.109  0.00  0.00    -0.019 A 
ATOM     10  C   LIG d   1       3.152   0.462  -7.331  0.00  0.00     0.131 A 
ATOM     11  C   LIG d   1       4.043  -0.594  -7.410  0.00  0.00     0.054 A 
ATOM     12  C   LIG d   1       4.688  -0.965  -8.721  0.00  0.00     0.047 C 
ATOM     13  N   LIG d   1       3.932  -0.364  -9.830  0.00  0.00    -0.293 NA
ATOM     14  C   LIG d   1       3.697   1.064  -9.568  0.00  0.00     0.157 C 
ATOM     15  O   LIG d   1       2.831   1.184  -8.437  0.00  0.00    -0.473 OA
ATOM     16  H   LIG d   1       5.249  -3.370  -3.123  0.00  0.00     0.069 H 
ATOM     17  H   LIG d   1       2.407   0.367  -4.038  0.00  0.00     0.063 H 
ATOM     18  H   LIG d   1       1.873   1.628  -6.060  0.00  0.00     0.065 H 
ATOM     19  H   LIG d   1       4.691  -2.049  -8.829  0.00  0.00     0.052 H 
ATOM     20  H   LIG d   1       5.713  -0.594  -8.738  0.00  0.00     0.052 H 
ATOM     21  H   LIG d   1       4.645   1.559  -9.356  0.00  0.00     0.091 H 
ATOM     22  H   LIG d   1       3.227   1.524 -10.437  0.00  0.00     0.091 H 
ENDROOT
BRANCH  13  23
ATOM     23  C   LIG d   1       4.597  -0.548 -11.047  0.00  0.00     0.036 A 
ATOM     24  C   LIG d   1       3.894  -0.468 -12.240  0.00  0.00     0.005 A 
ATOM     25  C   LIG d   1       4.552  -0.651 -13.447  0.00  0.00     0.164 A 
ATOM     26  H   LIG d   1       2.833  -0.264 -12.230  0.00  0.00     0.067 H 
ATOM     27  C   LIG d   1       5.916  -0.912 -13.459  0.00  0.00     0.162 A 
ATOM     28  O   LIG d   1       3.848  -0.571 -14.610  0.00  0.00    -0.485 OA
ATOM     29  C   LIG d   1       6.617  -0.989 -12.264  0.00  0.00    -0.015 A 
ATOM     30  O   LIG d   1       6.582  -1.088 -14.635  0.00  0.00    -0.485 OA
ATOM     31  C   LIG d   1       5.961  -0.812 -11.062  0.00  0.00    -0.037 A 
ATOM     32  H   LIG d   1       7.677  -1.194 -12.274  0.00  0.00     0.066 H 
ATOM     33  H   LIG d   1       6.508  -0.875 -10.134  0.00  0.00     0.064 H 
ATOM     34  C   LIG d   1       5.785  -1.369 -15.790  0.00  0.00     0.124 C 
ATOM     35  C   LIG d   1       4.606  -0.386 -15.810  0.00  0.00     0.124 C 
ATOM     36  H   LIG d   1       5.410  -2.392 -15.738  0.00  0.00     0.073 H 
ATOM     37  H   LIG d   1       6.384  -1.242 -16.691  0.00  0.00     0.073 H 
ATOM     38  H   LIG d   1       3.976  -0.586 -16.677  0.00  0.00     0.073 H 
ATOM     39  H   LIG d   1       4.979   0.636 -15.855  0.00  0.00     0.073 H 
ENDBRANCH  13  23
BRANCH   1  40
ATOM     40  C   LIG d   1       3.486  -1.412  -2.507  0.00  0.00    -0.027 C 
ATOM     41  H   LIG d   1       2.650  -0.728  -2.649  0.00  0.00     0.031 H 
ATOM     42  H   LIG d   1       3.132  -2.327  -2.031  0.00  0.00     0.031 H 
BRANCH  40  43
ATOM     43  C   LIG d   1       4.541  -0.751  -1.617  0.00  0.00    -0.052 C 
ATOM     44  H   LIG d   1       4.375  -1.041  -0.580  0.00  0.00     0.027 H 
ATOM     45  H   LIG d   1       5.534  -1.074  -1.930  0.00  0.00     0.027 H 
BRANCH  43  46
ATOM     46  C   LIG d   1       4.435   0.770  -1.745  0.00  0.00    -0.065 C 
ATOM     47  H   LIG d   1       4.628   1.062  -2.777  0.00  0.00     0.023 H 
ATOM     48  H   LIG d   1       3.434   1.090  -1.458  0.00  0.00     0.023 H 
ATOM     49  H   LIG d   1       5.169   1.241  -1.091  0.00  0.00     0.023 H 
ENDBRANCH  43  46
ENDBRANCH  40  43
ENDBRANCH   1  40
TORSDOF 4
ENDMDL
MODEL 2
REMARK VINA RESULT:      -6.9      6.659      9.924
REMARK  4 active torsions:
REMARK  status: ('A' for Active; 'I' for Inactive)
REMARK    1  A    between atoms: C_1  and  C_2 
REMARK    2  A    between atoms: C_2  and  C_3 
REMARK    3  A    between atoms: C_3  and  C_4 
REMARK    4  A    between atoms: N_16  and  C_19 
ROOT
ATOM      1  C   LIG d   1       6.186  -1.521  -3.763  0.00  0.00    -0.030 A 
ATOM      2  C   LIG d   1       5.269  -0.971  -2.924  0.00  0.00     0.027 A 
ATOM      3  C   LIG d   1       5.418   0.368  -2.512  0.00  0.00     0.338 A 
ATOM      4  O   LIG d   1       4.585   0.842  -1.759  0.00  0.00    -0.245 OA
ATOM      5  O   LIG d   1       6.432   1.142  -2.912  0.00  0.00    -0.422 OA
ATOM      6  C   LIG d   1       7.371   0.651  -3.745  0.00  0.00     0.147 A 
ATOM      7  C   LIG d   1       7.299  -0.676  -4.203  0.00  0.00     0.021 A 
ATOM      8  C   LIG d   1       8.280  -1.176  -5.066  0.00  0.00    -0.047 A 
ATOM      9  C   LIG d   1       9.308  -0.371  -5.461  0.00  0.00    -0.019 A 
ATOM     10  C   LIG d   1       9.389   0.949  -5.011  0.00  0.00     0.131 A 
ATOM     11  C   LIG d   1       8.426   1.458  -4.159  0.00  0.00     0.054 A 
ATOM     12  C   LIG d   1       8.497   2.883  -3.673  0.00  0.00     0.047 C 
ATOM     13  N   LIG d   1       9.854   3.407  -3.882  0.00  0.00    -0.293 NA
ATOM     14  C   LIG d   1      10.297   3.135  -5.259  0.00  0.00     0.157 C 
ATOM     15  O   LIG d   1      10.428   1.721  -5.424  0.00  0.00    -0.473 OA
ATOM     16  H   LIG d   1       4.432  -1.556  -2.574  0.00  0.00     0.069 H 
ATOM     17  H   LIG d   1       8.224  -2.195  -5.419  0.00  0.00     0.063 H 
ATOM     18  H   LIG d   1      10.066  -0.756  -6.127  0.00  0.00     0.065 H 
ATOM     19  H   LIG d   1       8.254   2.916  -2.611  0.00  0.00     0.052 H 
ATOM     20  H   LIG d   1       7.783   3.492  -4.229  0.00  0.00     0.052 H 
ATOM     21  H   LIG d   1       9.558   3.518  -5.964  0.00  0.00     0.091 H 
ATOM     22  H   LIG d   1      11.259   3.615  -5.436  0.00  0.00     0.091 H 
ENDROOT
BRANCH  13  23
ATOM     23  C   LIG d   1       9.912   4.776  -3.598  0.00  0.00     0.036 A 
ATOM     24  C   LIG d   1       9.860   5.214  -2.283  0.00  0.00     0.005 A 
ATOM     25  C   LIG d   1       9.918   6.571  -2.000  0.00  0.00     0.164 A 
ATOM     26  H   LIG d   1       9.775   4.499  -1.478  0.00  0.00     0.067 H 
ATOM     27  C   LIG d   1      10.028   7.489  -3.036  0.00  0.00     0.162 A 
ATOM     28  O   LIG d   1       9.863   6.985  -0.704  0.00  0.00    -0.485 OA
ATOM     29  C   LIG d   1      10.082   7.048  -4.350  0.00  0.00    -0.015 A 
ATOM     30  O   LIG d   1      10.092   8.826  -2.779  0.00  0.00    -0.485 OA
ATOM     31  C   LIG d   1      10.020   5.697  -4.632  0.00  0.00    -0.037 A 
ATOM     32  H   LIG d   1      10.166   7.763  -5.155  0.00  0.00     0.066 H 
ATOM     33  H   LIG d   1      10.059   5.357  -5.656  0.00  0.00     0.064 H 
ATOM     34  C   LIG d   1       9.666   9.252  -1.480  0.00  0.00     0.124 C 
ATOM     35  C   LIG d   1      10.301   8.322  -0.438  0.00  0.00     0.124 C 
ATOM     36  H   LIG d   1       8.579   9.194  -1.412  0.00  0.00     0.073 H 
ATOM     37  H   LIG d   1       9.991  10.277  -1.304  0.00  0.00     0.073 H 
ATOM     38  H   LIG d   1       9.984   8.620   0.562  0.00  0.00     0.073 H 
ATOM     39  H   LIG d   1      11.386   8.375  -0.509  0.00  0.00     0.073 H 
ENDBRANCH  13  23
BRANCH   1  40
ATOM     40  C   LIG d   1       6.061  -2.949  -4.226  0.00  0.00    -0.027 C 
ATOM     41  H   LIG d   1       6.870  -3.180  -4.917  0.00  0.00     0.031 H 
ATOM     42  H   LIG d   1       6.116  -3.616  -3.364  0.00  0.00     0.031 H 
BRANCH  40  43
ATOM     43  C   LIG d   1       4.716  -3.141  -4.932  0.00  0.00    -0.052 C 
ATOM     44  H   LIG d   1       4.483  -4.204  -4.984  0.00  0.00     0.027 H 
ATOM     45  H   LIG d   1       3.936  -2.624  -4.374  0.00  0.00     0.027 H 
BRANCH  43  46
ATOM     46  C   LIG d   1       4.798  -2.566  -6.347  0.00  0.00    -0.065 C 
ATOM     47  H   LIG d   1       4.170  -3.156  -7.015  0.00  0.00     0.023 H 
ATOM     48  H   LIG d   1       4.452  -1.533  -6.341  0.00  0.00     0.023 H 
ATOM     49  H   LIG d   1       5.831  -2.602  -6.694  0.00  0.00     0.023 H 
ENDBRANCH  43  46
ENDBRANCH  40  43
ENDBRANCH   1  40
TORSDOF 4
ENDMDL
MODEL 3
REMARK VINA RESULT:      -6.5      6.786      9.404
REMARK  4 active torsions:
REMARK  status: ('A' for Active; 'I' for Inactive)
REMARK    1  A    between atoms: C_1  and  C_2 
REMARK    2  A    between atoms: C_2  and  C_3 
REMARK    3  A    between atoms: C_3  and  C_4 
REMARK    4  A    between atoms: N_16  and  C_19 
ROOT
ATOM      1  C   LIG d   1       6.323  -1.370  -3.703  0.00  0.00    -0.030 A 
ATOM      2  C   LIG d   1       5.380  -0.789  -2.915  0.00  0.00     0.027 A 
ATOM      3  C   LIG d   1       5.497   0.574  -2.579  0.00  0.00     0.338 A 
ATOM      4  O   LIG d   1       4.642   1.076  -1.872  0.00  0.00    -0.245 OA
ATOM      5  O   LIG d   1       6.507   1.341  -3.004  0.00  0.00    -0.422 OA
ATOM      6  C   LIG d   1       7.471   0.820  -3.788  0.00  0.00     0.147 A 
ATOM      7  C   LIG d   1       7.431  -0.533  -4.168  0.00  0.00     0.021 A 
ATOM      8  C   LIG d   1       8.438  -1.064  -4.982  0.00  0.00    -0.047 A 
ATOM      9  C   LIG d   1       9.461  -0.265  -5.402  0.00  0.00    -0.019 A 
ATOM     10  C   LIG d   1       9.510   1.079  -5.030  0.00  0.00     0.131 A 
ATOM     11  C   LIG d   1       8.520   1.620  -4.228  0.00  0.00     0.054 A 
ATOM     12  C   LIG d   1       8.557   3.071  -3.825  0.00  0.00     0.047 C 
ATOM     13  N   LIG d   1       9.910   3.608  -4.037  0.00  0.00    -0.293 NA
ATOM     14  C   LIG d   1      10.385   3.263  -5.387  0.00  0.00     0.157 C 
ATOM     15  O   LIG d   1      10.544   1.845  -5.466  0.00  0.00    -0.473 OA
ATOM     16  H   LIG d   1       4.546  -1.368  -2.548  0.00  0.00     0.069 H 
ATOM     17  H   LIG d   1       8.406  -2.103  -5.275  0.00  0.00     0.063 H 
ATOM     18  H   LIG d   1      10.238  -0.675  -6.029  0.00  0.00     0.065 H 
ATOM     19  H   LIG d   1       8.292   3.163  -2.772  0.00  0.00     0.052 H 
ATOM     20  H   LIG d   1       7.846   3.634  -4.429  0.00  0.00     0.052 H 
ATOM     21  H   LIG d   1       9.655   3.591  -6.127  0.00  0.00     0.091 H 
ATOM     22  H   LIG d   1      11.343   3.749  -5.573  0.00  0.00     0.091 H 
ENDROOT
BRANCH  13  23
ATOM     23  C   LIG d   1       9.938   4.991  -3.833  0.00  0.00     0.036 A 
ATOM     24  C   LIG d   1       9.863   5.855  -4.917  0.00  0.00     0.005 A 
ATOM     25  C   LIG d   1       9.891   7.226  -4.715  0.00  0.00     0.164 A 
ATOM     26  H   LIG d   1       9.782   5.458  -5.918  0.00  0.00     0.067 H 
ATOM     27  C   LIG d   1       9.993   7.734  -3.426  0.00  0.00     0.162 A 
ATOM     28  O   LIG d   1       9.819   8.060  -5.789  0.00  0.00    -0.485 OA
ATOM     29  C   LIG d   1      10.066   6.869  -2.344  0.00  0.00    -0.015 A 
ATOM     30  O   LIG d   1      10.016   9.079  -3.206  0.00  0.00    -0.485 OA
ATOM     31  C   LIG d   1      10.042   5.503  -2.546  0.00  0.00    -0.037 A 
ATOM     32  H   LIG d   1      10.147   7.264  -1.343  0.00  0.00     0.066 H 
ATOM     33  H   LIG d   1      10.102   4.831  -1.702  0.00  0.00     0.064 H 
ATOM     34  C   LIG d   1      10.312   9.910  -4.334  0.00  0.00     0.124 C 
ATOM     35  C   LIG d   1       9.471   9.423  -5.522  0.00  0.00     0.124 C 
ATOM     36  H   LIG d   1      11.372   9.835  -4.578  0.00  0.00     0.073 H 
ATOM     37  H   LIG d   1      10.060  10.945  -4.105  0.00  0.00     0.073 H 
ATOM     38  H   LIG d   1       9.685  10.035  -6.399  0.00  0.00     0.073 H 
ATOM     39  H   LIG d   1       8.412   9.492  -5.277  0.00  0.00     0.073 H 
ENDBRANCH  13  23
BRANCH   1  40
ATOM     40  C   LIG d   1       6.232  -2.826  -4.083  0.00  0.00    -0.027 C 
ATOM     41  H   LIG d   1       6.902  -3.026  -4.918  0.00  0.00     0.031 H 
ATOM     42  H   LIG d   1       6.518  -3.442  -3.230  0.00  0.00     0.031 H 
BRANCH  40  43
ATOM     43  C   LIG d   1       4.794  -3.157  -4.491  0.00  0.00    -0.052 C 
ATOM     44  H   LIG d   1       4.180  -3.266  -3.597  0.00  0.00     0.027 H 
ATOM     45  H   LIG d   1       4.398  -2.351  -5.108  0.00  0.00     0.027 H 
BRANCH  43  46
ATOM     46  C   LIG d   1       4.778  -4.464  -5.284  0.00  0.00    -0.065 C 
ATOM     47  H   LIG d   1       5.091  -5.284  -4.638  0.00  0.00     0.023 H 
ATOM     48  H   LIG d   1       3.771  -4.655  -5.652  0.00  0.00     0.023 H 
ATOM     49  H   LIG d   1       5.464  -4.385  -6.128  0.00  0.00     0.023 H 
ENDBRANCH  43  46
ENDBRANCH  40  43
ENDBRANCH   1  40
TORSDOF 4
ENDMDL
MODEL 4
REMARK VINA RESULT:      -6.4      4.166      8.045
REMARK  4 active torsions:
REMARK  status: ('A' for Active; 'I' for Inactive)
REMARK    1  A    between atoms: C_1  and  C_2 
REMARK    2  A    between atoms: C_2  and  C_3 
REMARK    3  A    between atoms: C_3  and  C_4 
REMARK    4  A    between atoms: N_16  and  C_19 
ROOT
ATOM      1  C   LIG d   1       2.772   0.283  -8.855  0.00  0.00    -0.030 A 
ATOM      2  C   LIG d   1       2.107  -0.271  -9.903  0.00  0.00     0.027 A 
ATOM      3  C   LIG d   1       2.095  -1.672 -10.056  0.00  0.00     0.338 A 
ATOM      4  O   LIG d   1       1.493  -2.150 -11.002  0.00  0.00    -0.245 OA
ATOM      5  O   LIG d   1       2.713  -2.500  -9.208  0.00  0.00    -0.422 OA
ATOM      6  C   LIG d   1       3.389  -2.007  -8.151  0.00  0.00     0.147 A 
ATOM      7  C   LIG d   1       3.452  -0.620  -7.925  0.00  0.00     0.021 A 
ATOM      8  C   LIG d   1       4.157  -0.120  -6.825  0.00  0.00    -0.047 A 
ATOM      9  C   LIG d   1       4.784  -0.981  -5.973  0.00  0.00    -0.019 A 
ATOM     10  C   LIG d   1       4.726  -2.360  -6.188  0.00  0.00     0.131 A 
ATOM     11  C   LIG d   1       4.032  -2.870  -7.271  0.00  0.00     0.054 A 
ATOM     12  C   LIG d   1       3.955  -4.356  -7.510  0.00  0.00     0.047 C 
ATOM     13  N   LIG d   1       5.007  -5.034  -6.739  0.00  0.00    -0.293 NA
ATOM     14  C   LIG d   1       4.993  -4.568  -5.343  0.00  0.00     0.157 C 
ATOM     15  O   LIG d   1       5.364  -3.188  -5.320  0.00  0.00    -0.473 OA
ATOM     16  H   LIG d   1       1.592   0.357 -10.614  0.00  0.00     0.069 H 
ATOM     17  H   LIG d   1       4.205   0.945  -6.651  0.00  0.00     0.063 H 
ATOM     18  H   LIG d   1       5.328  -0.595  -5.124  0.00  0.00     0.065 H 
ATOM     19  H   LIG d   1       4.095  -4.560  -8.571  0.00  0.00     0.052 H 
ATOM     20  H   LIG d   1       2.979  -4.725  -7.193  0.00  0.00     0.052 H 
ATOM     21  H   LIG d   1       3.992  -4.685  -4.928  0.00  0.00     0.091 H 
ATOM     22  H   LIG d   1       5.706  -5.148  -4.756  0.00  0.00     0.091 H 
ENDROOT
BRANCH  13  23
ATOM     23  C   LIG d   1       4.861  -6.424  -6.805  0.00  0.00     0.036 A 
ATOM     24  C   LIG d   1       4.951  -7.187  -5.650  0.00  0.00     0.005 A 
ATOM     25  C   LIG d   1       4.806  -8.565  -5.715  0.00  0.00     0.164 A 
ATOM     26  H   LIG d   1       5.135  -6.709  -4.699  0.00  0.00     0.067 H 
ATOM     27  C   LIG d   1       4.568  -9.179  -6.939  0.00  0.00     0.162 A 
ATOM     28  O   LIG d   1       4.900  -9.300  -4.573  0.00  0.00    -0.485 OA
ATOM     29  C   LIG d   1       4.476  -8.413  -8.091  0.00  0.00    -0.015 A 
ATOM     30  O   LIG d   1       4.416 -10.531  -7.022  0.00  0.00    -0.485 OA
ATOM     31  C   LIG d   1       4.625  -7.041  -8.027  0.00  0.00    -0.037 A 
ATOM     32  H   LIG d   1       4.293  -8.891  -9.042  0.00  0.00     0.066 H 
ATOM     33  H   LIG d   1       4.555  -6.448  -8.926  0.00  0.00     0.064 H 
ATOM     34  C   LIG d   1       4.880 -11.300  -5.908  0.00  0.00     0.124 C 
ATOM     35  C   LIG d   1       4.376 -10.632  -4.621  0.00  0.00     0.124 C 
ATOM     36  H   LIG d   1       5.970 -11.326  -5.907  0.00  0.00     0.073 H 
ATOM     37  H   LIG d   1       4.487 -12.315  -5.972  0.00  0.00     0.073 H 
ATOM     38  H   LIG d   1       4.724 -11.195  -3.755  0.00  0.00     0.073 H 
ATOM     39  H   LIG d   1       3.288 -10.600  -4.624  0.00  0.00     0.073 H 
ENDBRANCH  13  23
BRANCH   1  40
ATOM     40  C   LIG d   1       2.809   1.777  -8.659  0.00  0.00    -0.027 C 
ATOM     41  H   LIG d   1       1.801   2.181  -8.756  0.00  0.00     0.031 H 
ATOM     42  H   LIG d   1       3.197   2.003  -7.666  0.00  0.00     0.031 H 
BRANCH  40  43
ATOM     43  C   LIG d   1       3.716   2.409  -9.717  0.00  0.00    -0.052 C 
ATOM     44  H   LIG d   1       3.613   1.864 -10.655  0.00  0.00     0.027 H 
ATOM     45  H   LIG d   1       3.428   3.449  -9.867  0.00  0.00     0.027 H 
BRANCH  43  46
ATOM     46  C   LIG d   1       5.170   2.344  -9.246  0.00  0.00    -0.065 C 
ATOM     47  H   LIG d   1       5.545   3.354  -9.087  0.00  0.00     0.023 H 
ATOM     48  H   LIG d   1       5.226   1.784  -8.313  0.00  0.00     0.023 H 
ATOM     49  H   LIG d   1       5.775   1.847 -10.005  0.00  0.00     0.023 H 
ENDBRANCH  43  46
ENDBRANCH  40  43
ENDBRANCH   1  40
TORSDOF 4
ENDMDL
MODEL 5
REMARK VINA RESULT:      -6.3      5.937      9.716
REMARK  4 active torsions:
REMARK  status: ('A' for Active; 'I' for Inactive)
REMARK    1  A    between atoms: C_1  and  C_2 
REMARK    2  A    between atoms: C_2  and  C_3 
REMARK    3  A    between atoms: C_3  and  C_4 
REMARK    4  A    between atoms: N_16  and  C_19 
ROOT
ATOM      1  C   LIG d   1       4.078 -11.377  -6.166  0.00  0.00    -0.030 A 
ATOM      2  C   LIG d   1       3.701 -11.418  -4.861  0.00  0.00     0.027 A 
ATOM      3  C   LIG d   1       3.816 -10.260  -4.067  0.00  0.00     0.338 A 
ATOM      4  O   LIG d   1       3.473 -10.318  -2.899  0.00  0.00    -0.245 OA
ATOM      5  O   LIG d   1       4.284  -9.100  -4.539  0.00  0.00    -0.422 OA
ATOM      6  C   LIG d   1       4.672  -8.999  -5.825  0.00  0.00     0.147 A 
ATOM      7  C   LIG d   1       4.592 -10.108  -6.686  0.00  0.00     0.021 A 
ATOM      8  C   LIG d   1       4.999  -9.992  -8.021  0.00  0.00    -0.047 A 
ATOM      9  C   LIG d   1       5.475  -8.800  -8.482  0.00  0.00    -0.019 A 
ATOM     10  C   LIG d   1       5.559  -7.694  -7.635  0.00  0.00     0.131 A 
ATOM     11  C   LIG d   1       5.158  -7.792  -6.314  0.00  0.00     0.054 A 
ATOM     12  C   LIG d   1       5.236  -6.602  -5.392  0.00  0.00     0.047 C 
ATOM     13  N   LIG d   1       6.132  -5.589  -5.968  0.00  0.00    -0.293 NA
ATOM     14  C   LIG d   1       5.777  -5.338  -7.373  0.00  0.00     0.157 C 
ATOM     15  O   LIG d   1       6.040  -6.522  -8.129  0.00  0.00    -0.473 OA
ATOM     16  H   LIG d   1       3.317 -12.332  -4.434  0.00  0.00     0.069 H 
ATOM     17  H   LIG d   1       4.936 -10.843  -8.682  0.00  0.00     0.063 H 
ATOM     18  H   LIG d   1       5.790  -8.711  -9.511  0.00  0.00     0.065 H 
ATOM     19  H   LIG d   1       5.622  -6.919  -4.423  0.00  0.00     0.052 H 
ATOM     20  H   LIG d   1       4.241  -6.176  -5.265  0.00  0.00     0.052 H 
ATOM     21  H   LIG d   1       4.718  -5.087  -7.444  0.00  0.00     0.091 H 
ATOM     22  H   LIG d   1       6.377  -4.515  -7.762  0.00  0.00     0.091 H 
ENDROOT
BRANCH  13  23
ATOM     23  C   LIG d   1       6.097  -4.406  -5.222  0.00  0.00     0.036 A 
ATOM     24  C   LIG d   1       4.879  -3.876  -4.820  0.00  0.00     0.005 A 
ATOM     25  C   LIG d   1       4.843  -2.703  -4.080  0.00  0.00     0.164 A 
ATOM     26  H   LIG d   1       3.959  -4.376  -5.083  0.00  0.00     0.067 H 
ATOM     27  C   LIG d   1       6.028  -2.062  -3.741  0.00  0.00     0.162 A 
ATOM     28  O   LIG d   1       3.641  -2.194  -3.695  0.00  0.00    -0.485 OA
ATOM     29  C   LIG d   1       7.244  -2.596  -4.142  0.00  0.00    -0.015 A 
ATOM     30  O   LIG d   1       6.014  -0.912  -3.010  0.00  0.00    -0.485 OA
ATOM     31  C   LIG d   1       7.279  -3.761  -4.883  0.00  0.00    -0.037 A 
ATOM     32  H   LIG d   1       8.165  -2.096  -3.880  0.00  0.00     0.066 H 
ATOM     33  H   LIG d   1       8.227  -4.173  -5.196  0.00  0.00     0.064 H 
ATOM     34  C   LIG d   1       4.769  -0.209  -2.940  0.00  0.00     0.124 C 
ATOM     35  C   LIG d   1       3.660  -1.227  -2.640  0.00  0.00     0.124 C 
ATOM     36  H   LIG d   1       4.569   0.281  -3.893  0.00  0.00     0.073 H 
ATOM     37  H   LIG d   1       4.810   0.535  -2.145  0.00  0.00     0.073 H 
ATOM     38  H   LIG d   1       2.697  -0.717  -2.590  0.00  0.00     0.073 H 
ATOM     39  H   LIG d   1       3.862  -1.722  -1.691  0.00  0.00     0.073 H 
ENDBRANCH  13  23
BRANCH   1  40
ATOM     40  C   LIG d   1       3.970 -12.595  -7.047  0.00  0.00    -0.027 C 
ATOM     41  H   LIG d   1       4.107 -12.304  -8.088  0.00  0.00     0.031 H 
ATOM     42  H   LIG d   1       4.739 -13.315  -6.766  0.00  0.00     0.031 H 
BRANCH  40  43
ATOM     43  C   LIG d   1       2.589 -13.230  -6.872  0.00  0.00    -0.052 C 
ATOM     44  H   LIG d   1       2.701 -14.236  -6.468  0.00  0.00     0.027 H 
ATOM     45  H   LIG d   1       1.997 -12.627  -6.184  0.00  0.00     0.027 H 
BRANCH  43  46
ATOM     46  C   LIG d   1       1.884 -13.300  -8.228  0.00  0.00    -0.065 C 
ATOM     47  H   LIG d   1       1.055 -12.592  -8.243  0.00  0.00     0.023 H 
ATOM     48  H   LIG d   1       2.590 -13.049  -9.018  0.00  0.00     0.023 H 
ATOM     49  H   LIG d   1       1.503 -14.309  -8.387  0.00  0.00     0.023 H 
ENDBRANCH  43  46
ENDBRANCH  40  43
ENDBRANCH   1  40
TORSDOF 4
ENDMDL
MODEL 6
REMARK VINA RESULT:      -6.2      9.436     13.518
REMARK  4 active torsions:
REMARK  status: ('A' for Active; 'I' for Inactive)
REMARK    1  A    between atoms: C_1  and  C_2 
REMARK    2  A    between atoms: C_2  and  C_3 
REMARK    3  A    between atoms: C_3  and  C_4 
REMARK    4  A    between atoms: N_16  and  C_19 
ROOT
ATOM      1  C   LIG d   1       9.348   6.596  -9.102  0.00  0.00    -0.030 A 
ATOM      2  C   LIG d   1       9.377   7.952  -9.026  0.00  0.00     0.027 A 
ATOM      3  C   LIG d   1       9.604   8.575  -7.783  0.00  0.00     0.338 A 
ATOM      4  O   LIG d   1       9.627   9.793  -7.736  0.00  0.00    -0.245 OA
ATOM      5  O   LIG d   1       9.799   7.888  -6.652  0.00  0.00    -0.422 OA
ATOM      6  C   LIG d   1       9.781   6.541  -6.666  0.00  0.00     0.147 A 
ATOM      7  C   LIG d   1       9.559   5.841  -7.865  0.00  0.00     0.021 A 
ATOM      8  C   LIG d   1       9.541   4.441  -7.867  0.00  0.00    -0.047 A 
ATOM      9  C   LIG d   1       9.739   3.759  -6.703  0.00  0.00    -0.019 A 
ATOM     10  C   LIG d   1       9.960   4.446  -5.507  0.00  0.00     0.131 A 
ATOM     11  C   LIG d   1       9.982   5.829  -5.489  0.00  0.00     0.054 A 
ATOM     12  C   LIG d   1      10.228   6.582  -4.206  0.00  0.00     0.047 C 
ATOM     13  N   LIG d   1      10.005   5.689  -3.060  0.00  0.00    -0.293 NA
ATOM     14  C   LIG d   1      10.730   4.423  -3.256  0.00  0.00     0.157 C 
ATOM     15  O   LIG d   1      10.151   3.733  -4.366  0.00  0.00    -0.473 OA
ATOM     16  H   LIG d   1       9.226   8.550  -9.912  0.00  0.00     0.069 H 
ATOM     17  H   LIG d   1       9.372   3.903  -8.788  0.00  0.00     0.063 H 
ATOM     18  H   LIG d   1       9.725   2.680  -6.705  0.00  0.00     0.065 H 
ATOM     19  H   LIG d   1       9.543   7.428  -4.146  0.00  0.00     0.052 H 
ATOM     20  H   LIG d   1      11.256   6.944  -4.189  0.00  0.00     0.052 H 
ATOM     21  H   LIG d   1      11.780   4.630  -3.461  0.00  0.00     0.091 H 
ATOM     22  H   LIG d   1      10.643   3.809  -2.359  0.00  0.00     0.091 H 
ENDROOT
BRANCH  13  23
ATOM     23  C   LIG d   1      10.386   6.305  -1.863  0.00  0.00     0.036 A 
ATOM     24  C   LIG d   1      10.430   7.689  -1.779  0.00  0.00     0.005 A 
ATOM     25  C   LIG d   1      10.807   8.301  -0.593  0.00  0.00     0.164 A 
ATOM     26  H   LIG d   1      10.172   8.291  -2.638  0.00  0.00     0.067 H 
ATOM     27  C   LIG d   1      11.138   7.525   0.511  0.00  0.00     0.162 A 
ATOM     28  O   LIG d   1      10.849   9.660  -0.528  0.00  0.00    -0.485 OA
ATOM     29  C   LIG d   1      11.089   6.142   0.425  0.00  0.00    -0.015 A 
ATOM     30  O   LIG d   1      11.505   8.108   1.687  0.00  0.00    -0.485 OA
ATOM     31  C   LIG d   1      10.719   5.533  -0.758  0.00  0.00    -0.037 A 
ATOM     32  H   LIG d   1      11.348   5.539   1.283  0.00  0.00     0.066 H 
ATOM     33  H   LIG d   1      10.685   4.455  -0.823  0.00  0.00     0.064 H 
ATOM     34  C   LIG d   1      11.897   9.484   1.629  0.00  0.00     0.124 C 
ATOM     35  C   LIG d   1      10.866  10.241   0.781  0.00  0.00     0.124 C 
ATOM     36  H   LIG d   1      12.883   9.566   1.170  0.00  0.00     0.073 H 
ATOM     37  H   LIG d   1      11.923   9.901   2.635  0.00  0.00     0.073 H 
ATOM     38  H   LIG d   1      11.148  11.292   0.713  0.00  0.00     0.073 H 
ATOM     39  H   LIG d   1       9.880  10.154   1.235  0.00  0.00     0.073 H 
ENDBRANCH  13  23
BRANCH   1  40
ATOM     40  C   LIG d   1       9.107   5.894 -10.413  0.00  0.00    -0.027 C 
ATOM     41  H   LIG d   1       9.644   4.946 -10.422  0.00  0.00     0.031 H 
ATOM     42  H   LIG d   1       8.040   5.710 -10.536  0.00  0.00     0.031 H 
BRANCH  40  43
ATOM     43  C   LIG d   1       9.607   6.774 -11.561  0.00  0.00    -0.052 C 
ATOM     44  H   LIG d   1       9.429   7.821 -11.320  0.00  0.00     0.027 H 
ATOM     45  H   LIG d   1      10.674   6.611 -11.705  0.00  0.00     0.027 H 
BRANCH  43  46
ATOM     46  C   LIG d   1       8.857   6.411 -12.845  0.00  0.00    -0.065 C 
ATOM     47  H   LIG d   1       9.360   6.864 -13.699  0.00  0.00     0.023 H 
ATOM     48  H   LIG d   1       8.842   5.329 -12.964  0.00  0.00     0.023 H 
ATOM     49  H   LIG d   1       7.835   6.785 -12.785  0.00  0.00     0.023 H 
ENDBRANCH  43  46
ENDBRANCH  40  43
ENDBRANCH   1  40
TORSDOF 4
ENDMDL
MODEL 7
REMARK VINA RESULT:      -6.1      8.111     10.651
REMARK  4 active torsions:
REMARK  status: ('A' for Active; 'I' for Inactive)
REMARK    1  A    between atoms: C_1  and  C_2 
REMARK    2  A    between atoms: C_2  and  C_3 
REMARK    3  A    between atoms: C_3  and  C_4 
REMARK    4  A    between atoms: N_16  and  C_19 
ROOT
ATOM      1  C   LIG d   1      10.986   8.371  -1.025  0.00  0.00    -0.030 A 
ATOM      2  C   LIG d   1      10.988   7.644   0.123  0.00  0.00     0.027 A 
ATOM      3  C   LIG d   1      10.649   6.277   0.083  0.00  0.00     0.338 A 
ATOM      4  O   LIG d   1      10.657   5.643   1.123  0.00  0.00    -0.245 OA
ATOM      5  O   LIG d   1      10.320   5.645  -1.049  0.00  0.00    -0.422 OA
ATOM      6  C   LIG d   1      10.301   6.314  -2.218  0.00  0.00     0.147 A 
ATOM      7  C   LIG d   1      10.625   7.682  -2.266  0.00  0.00     0.021 A 
ATOM      8  C   LIG d   1      10.601   8.367  -3.486  0.00  0.00    -0.047 A 
ATOM      9  C   LIG d   1      10.261   7.704  -4.628  0.00  0.00    -0.019 A 
ATOM     10  C   LIG d   1       9.937   6.346  -4.591  0.00  0.00     0.131 A 
ATOM     11  C   LIG d   1       9.958   5.655  -3.393  0.00  0.00     0.054 A 
ATOM     12  C   LIG d   1       9.619   4.187  -3.341  0.00  0.00     0.047 C 
ATOM     13  N   LIG d   1       8.909   3.801  -4.569  0.00  0.00    -0.293 NA
ATOM     14  C   LIG d   1       9.636   4.290  -5.751  0.00  0.00     0.157 C 
ATOM     15  O   LIG d   1       9.601   5.719  -5.749  0.00  0.00    -0.473 OA
ATOM     16  H   LIG d   1      11.247   8.111   1.062  0.00  0.00     0.069 H 
ATOM     17  H   LIG d   1      10.851   9.417  -3.523  0.00  0.00     0.063 H 
ATOM     18  H   LIG d   1      10.241   8.233  -5.569  0.00  0.00     0.065 H 
ATOM     19  H   LIG d   1       8.984   3.992  -2.477  0.00  0.00     0.052 H 
ATOM     20  H   LIG d   1      10.537   3.605  -3.256  0.00  0.00     0.052 H 
ATOM     21  H   LIG d   1      10.671   3.949  -5.710  0.00  0.00     0.091 H 
ATOM     22  H   LIG d   1       9.159   3.914  -6.656  0.00  0.00     0.091 H 
ENDROOT
BRANCH  13  23
ATOM     23  C   LIG d   1       8.727   2.415  -4.629  0.00  0.00     0.036 A 
ATOM     24  C   LIG d   1       7.749   1.809  -3.852  0.00  0.00     0.005 A 
ATOM     25  C   LIG d   1       7.569   0.436  -3.911  0.00  0.00     0.164 A 
ATOM     26  H   LIG d   1       7.129   2.408  -3.201  0.00  0.00     0.067 H 
ATOM     27  C   LIG d   1       8.367  -0.332  -4.750  0.00  0.00     0.162 A 
ATOM     28  O   LIG d   1       6.607  -0.144  -3.141  0.00  0.00    -0.485 OA
ATOM     29  C   LIG d   1       9.341   0.277  -5.526  0.00  0.00    -0.015 A 
ATOM     30  O   LIG d   1       8.201  -1.683  -4.826  0.00  0.00    -0.485 OA
ATOM     31  C   LIG d   1       9.525   1.644  -5.464  0.00  0.00    -0.037 A 
ATOM     32  H   LIG d   1       9.963  -0.321  -6.177  0.00  0.00     0.066 H 
ATOM     33  H   LIG d   1      10.286   2.115  -6.068  0.00  0.00     0.064 H 
ATOM     34  C   LIG d   1       7.467  -2.301  -3.764  0.00  0.00     0.124 C 
ATOM     35  C   LIG d   1       6.204  -1.468  -3.505  0.00  0.00     0.124 C 
ATOM     36  H   LIG d   1       8.079  -2.331  -2.862  0.00  0.00     0.073 H 
ATOM     37  H   LIG d   1       7.186  -3.314  -4.052  0.00  0.00     0.073 H 
ATOM     38  H   LIG d   1       5.630  -1.915  -2.692  0.00  0.00     0.073 H 
ATOM     39  H   LIG d   1       5.595  -1.432  -4.408  0.00  0.00     0.073 H 
ENDBRANCH  13  23
BRANCH   1  40
ATOM     40  C   LIG d   1      11.343   9.835  -1.021  0.00  0.00    -0.027 C 
ATOM     41  H   LIG d   1      12.333   9.969  -1.456  0.00  0.00     0.031 H 
ATOM     42  H   LIG d   1      10.610  10.389  -1.608  0.00  0.00     0.031 H 
BRANCH  40  43
ATOM     43  C   LIG d   1      11.342  10.356   0.418  0.00  0.00    -0.052 C 
ATOM     44  H   LIG d   1      11.188   9.524   1.104  0.00  0.00     0.027 H 
ATOM     45  H   LIG d   1      12.298  10.832   0.632  0.00  0.00     0.027 H 
BRANCH  43  46
ATOM     46  C   LIG d   1      10.214  11.375   0.590  0.00  0.00    -0.065 C 
ATOM     47  H   LIG d   1      10.588  12.373   0.363  0.00  0.00     0.023 H 
ATOM     48  H   LIG d   1       9.396  11.130  -0.086  0.00  0.00     0.023 H 
ATOM     49  H   LIG d   1       9.855  11.348   1.619  0.00  0.00     0.023 H 
ENDBRANCH  43  46
ENDBRANCH  40  43
ENDBRANCH   1  40
TORSDOF 4
ENDMDL
MODEL 8
REMARK VINA RESULT:      -6.1      3.051      8.813
REMARK  4 active torsions:
REMARK  status: ('A' for Active; 'I' for Inactive)
REMARK    1  A    between atoms: C_1  and  C_2 
REMARK    2  A    between atoms: C_2  and  C_3 
REMARK    3  A    between atoms: C_3  and  C_4 
REMARK    4  A    between atoms: N_16  and  C_19 
ROOT
ATOM      1  C   LIG d   1       1.397  -3.076 -13.204  0.00  0.00    -0.030 A 
ATOM      2  C   LIG d   1       0.539  -3.855 -12.493  0.00  0.00     0.027 A 
ATOM      3  C   LIG d   1       0.489  -3.734 -11.090  0.00  0.00     0.338 A 
ATOM      4  O   LIG d   1      -0.287  -4.441 -10.471  0.00  0.00    -0.245 OA
ATOM      5  O   LIG d   1       1.254  -2.875 -10.408  0.00  0.00    -0.422 OA
ATOM      6  C   LIG d   1       2.123  -2.077 -11.059  0.00  0.00     0.147 A 
ATOM      7  C   LIG d   1       2.238  -2.135 -12.460  0.00  0.00     0.021 A 
ATOM      8  C   LIG d   1       3.144  -1.303 -13.126  0.00  0.00    -0.047 A 
ATOM      9  C   LIG d   1       3.917  -0.435 -12.411  0.00  0.00    -0.019 A 
ATOM     10  C   LIG d   1       3.811  -0.370 -11.021  0.00  0.00     0.131 A 
ATOM     11  C   LIG d   1       2.918  -1.185 -10.348  0.00  0.00     0.054 A 
ATOM     12  C   LIG d   1       2.788  -1.119  -8.848  0.00  0.00     0.047 C 
ATOM     13  N   LIG d   1       3.964  -0.444  -8.281  0.00  0.00    -0.293 NA
ATOM     14  C   LIG d   1       4.222   0.815  -8.998  0.00  0.00     0.157 C 
ATOM     15  O   LIG d   1       4.599   0.505 -10.342  0.00  0.00    -0.473 OA
ATOM     16  H   LIG d   1      -0.099  -4.563 -12.999  0.00  0.00     0.069 H 
ATOM     17  H   LIG d   1       3.231  -1.347 -14.201  0.00  0.00     0.063 H 
ATOM     18  H   LIG d   1       4.617   0.207 -12.925  0.00  0.00     0.065 H 
ATOM     19  H   LIG d   1       2.719  -2.129  -8.445  0.00  0.00     0.052 H 
ATOM     20  H   LIG d   1       1.889  -0.560  -8.586  0.00  0.00     0.052 H 
ATOM     21  H   LIG d   1       3.319   1.425  -9.003  0.00  0.00     0.091 H 
ATOM     22  H   LIG d   1       5.031   1.357  -8.508  0.00  0.00     0.091 H 
ENDROOT
BRANCH  13  23
ATOM     23  C   LIG d   1       3.799  -0.216  -6.911  0.00  0.00     0.036 A 
ATOM     24  C   LIG d   1       4.830  -0.510  -6.029  0.00  0.00     0.005 A 
ATOM     25  C   LIG d   1       4.667  -0.284  -4.670  0.00  0.00     0.164 A 
ATOM     26  H   LIG d   1       5.759  -0.915  -6.401  0.00  0.00     0.067 H 
ATOM     27  C   LIG d   1       3.471   0.238  -4.194  0.00  0.00     0.162 A 
ATOM     28  O   LIG d   1       5.686  -0.580  -3.818  0.00  0.00    -0.485 OA
ATOM     29  C   LIG d   1       2.444   0.534  -5.078  0.00  0.00    -0.015 A 
ATOM     30  O   LIG d   1       3.294   0.473  -2.863  0.00  0.00    -0.485 OA
ATOM     31  C   LIG d   1       2.604   0.305  -6.431  0.00  0.00    -0.037 A 
ATOM     32  H   LIG d   1       1.513   0.939  -4.707  0.00  0.00     0.066 H 
ATOM     33  H   LIG d   1       1.802   0.533  -7.116  0.00  0.00     0.064 H 
ATOM     34  C   LIG d   1       4.203  -0.176  -1.969  0.00  0.00     0.124 C 
ATOM     35  C   LIG d   1       5.626   0.008  -2.514  0.00  0.00     0.124 C 
ATOM     36  H   LIG d   1       3.966  -1.239  -1.911  0.00  0.00     0.073 H 
ATOM     37  H   LIG d   1       4.129   0.272  -0.979  0.00  0.00     0.073 H 
ATOM     38  H   LIG d   1       6.339  -0.486  -1.854  0.00  0.00     0.073 H 
ATOM     39  H   LIG d   1       5.861   1.070  -2.579  0.00  0.00     0.073 H 
ENDBRANCH  13  23
BRANCH   1  40
ATOM     40  C   LIG d   1       1.480  -3.178 -14.705  0.00  0.00    -0.027 C 
ATOM     41  H   LIG d   1       2.422  -2.750 -15.047  0.00  0.00     0.031 H 
ATOM     42  H   LIG d   1       1.426  -4.225 -15.001  0.00  0.00     0.031 H 
BRANCH  40  43
ATOM     43  C   LIG d   1       0.314  -2.410 -15.333  0.00  0.00    -0.052 C 
ATOM     44  H   LIG d   1      -0.515  -3.095 -15.513  0.00  0.00     0.027 H 
ATOM     45  H   LIG d   1      -0.008  -1.621 -14.655  0.00  0.00     0.027 H 
BRANCH  43  46
ATOM     46  C   LIG d   1       0.764  -1.794 -16.658  0.00  0.00    -0.065 C 
ATOM     47  H   LIG d   1       1.849  -1.864 -16.741  0.00  0.00     0.023 H 
ATOM     48  H   LIG d   1       0.302  -2.331 -17.485  0.00  0.00     0.023 H 
ATOM     49  H   LIG d   1       0.465  -0.746 -16.692  0.00  0.00     0.023 H 
ENDBRANCH  43  46
ENDBRANCH  40  43
ENDBRANCH   1  40
TORSDOF 4
ENDMDL
MODEL 9
REMARK VINA RESULT:      -6.0     10.449     12.118
REMARK  4 active torsions:
REMARK  status: ('A' for Active; 'I' for Inactive)
REMARK    1  A    between atoms: C_1  and  C_2 
REMARK    2  A    between atoms: C_2  and  C_3 
REMARK    3  A    between atoms: C_3  and  C_4 
REMARK    4  A    between atoms: N_16  and  C_19 
ROOT
ATOM      1  C   LIG d   1      11.183   7.174   1.093  0.00  0.00    -0.030 A 
ATOM      2  C   LIG d   1      11.350   5.904   0.637  0.00  0.00     0.027 A 
ATOM      3  C   LIG d   1      11.241   5.641  -0.743  0.00  0.00     0.338 A 
ATOM      4  O   LIG d   1      11.394   4.496  -1.132  0.00  0.00    -0.245 OA
ATOM      5  O   LIG d   1      10.979   6.593  -1.645  0.00  0.00    -0.422 OA
ATOM      6  C   LIG d   1      10.804   7.870  -1.251  0.00  0.00     0.147 A 
ATOM      7  C   LIG d   1      10.894   8.218   0.109  0.00  0.00     0.021 A 
ATOM      8  C   LIG d   1      10.709   9.547   0.506  0.00  0.00    -0.047 A 
ATOM      9  C   LIG d   1      10.440  10.503  -0.429  0.00  0.00    -0.019 A 
ATOM     10  C   LIG d   1      10.348  10.167  -1.781  0.00  0.00     0.131 A 
ATOM     11  C   LIG d   1      10.530   8.857  -2.190  0.00  0.00     0.054 A 
ATOM     12  C   LIG d   1      10.441   8.483  -3.647  0.00  0.00     0.047 C 
ATOM     13  N   LIG d   1       9.758   9.551  -4.390  0.00  0.00    -0.293 NA
ATOM     14  C   LIG d   1      10.348  10.857  -4.058  0.00  0.00     0.157 C 
ATOM     15  O   LIG d   1      10.076  11.145  -2.685  0.00  0.00    -0.473 OA
ATOM     16  H   LIG d   1      11.565   5.102   1.327  0.00  0.00     0.069 H 
ATOM     17  H   LIG d   1      10.780   9.815   1.550  0.00  0.00     0.063 H 
ATOM     18  H   LIG d   1      10.297  11.528  -0.122  0.00  0.00     0.065 H 
ATOM     19  H   LIG d   1       9.881   7.554  -3.750  0.00  0.00     0.052 H 
ATOM     20  H   LIG d   1      11.446   8.348  -4.049  0.00  0.00     0.052 H 
ATOM     21  H   LIG d   1      11.426  10.824  -4.219  0.00  0.00     0.091 H 
ATOM     22  H   LIG d   1       9.906  11.630  -4.687  0.00  0.00     0.091 H 
ENDROOT
BRANCH  13  23
ATOM     23  C   LIG d   1       9.807   9.314  -5.768  0.00  0.00     0.036 A 
ATOM     24  C   LIG d   1       9.509   8.054  -6.266  0.00  0.00     0.005 A 
ATOM     25  C   LIG d   1       9.557   7.818  -7.632  0.00  0.00     0.164 A 
ATOM     26  H   LIG d   1       9.240   7.256  -5.590  0.00  0.00     0.067 H 
ATOM     27  C   LIG d   1       9.902   8.846  -8.500  0.00  0.00     0.162 A 
ATOM     28  O   LIG d   1       9.264   6.575  -8.105  0.00  0.00    -0.485 OA
ATOM     29  C   LIG d   1      10.196  10.105  -7.999  0.00  0.00    -0.015 A 
ATOM     30  O   LIG d   1       9.949   8.635  -9.846  0.00  0.00    -0.485 OA
ATOM     31  C   LIG d   1      10.153  10.339  -6.639  0.00  0.00    -0.037 A 
ATOM     32  H   LIG d   1      10.466  10.904  -8.675  0.00  0.00     0.066 H 
ATOM     33  H   LIG d   1      10.386  11.320  -6.252  0.00  0.00     0.064 H 
ATOM     34  C   LIG d   1      10.007   7.273 -10.282  0.00  0.00     0.124 C 
ATOM     35  C   LIG d   1       8.957   6.473  -9.499  0.00  0.00     0.124 C 
ATOM     36  H   LIG d   1      11.000   6.867 -10.088  0.00  0.00     0.073 H 
ATOM     37  H   LIG d   1       9.790   7.219 -11.349  0.00  0.00     0.073 H 
ATOM     38  H   LIG d   1       8.987   5.428  -9.807  0.00  0.00     0.073 H 
ATOM     39  H   LIG d   1       7.965   6.883  -9.688  0.00  0.00     0.073 H 
ENDBRANCH  13  23
BRANCH   1  40
ATOM     40  C   LIG d   1      11.292   7.494   2.562  0.00  0.00    -0.027 C 
ATOM     41  H   LIG d   1      12.313   7.798   2.793  0.00  0.00     0.031 H 
ATOM     42  H   LIG d   1      10.606   8.305   2.808  0.00  0.00     0.031 H 
BRANCH  40  43
ATOM     43  C   LIG d   1      10.930   6.254   3.382  0.00  0.00    -0.052 C 
ATOM     44  H   LIG d   1       9.875   6.020   3.240  0.00  0.00     0.027 H 
ATOM     45  H   LIG d   1      11.537   5.411   3.053  0.00  0.00     0.027 H 
BRANCH  43  46
ATOM     46  C   LIG d   1      11.197   6.527   4.863  0.00  0.00    -0.065 C 
ATOM     47  H   LIG d   1      11.138   5.593   5.421  0.00  0.00     0.023 H 
ATOM     48  H   LIG d   1      12.191   6.958   4.981  0.00  0.00     0.023 H 
ATOM     49  H   LIG d   1      10.451   7.225   5.244  0.00  0.00     0.023 H 
ENDBRANCH  43  46
ENDBRANCH  40  43
ENDBRANCH   1  40
TORSDOF 4
ENDMDL
MODEL 10
REMARK VINA RESULT:      -6.0      7.721     10.551
REMARK  4 active torsions:
REMARK  status: ('A' for Active; 'I' for Inactive)
REMARK    1  A    between atoms: C_1  and  C_2 
REMARK    2  A    between atoms: C_2  and  C_3 
REMARK    3  A    between atoms: C_3  and  C_4 
REMARK    4  A    between atoms: N_16  and  C_19 
ROOT
ATOM      1  C   LIG d   1      13.284   5.595  -1.948  0.00  0.00    -0.030 A 
ATOM      2  C   LIG d   1      12.396   6.094  -1.049  0.00  0.00     0.027 A 
ATOM      3  C   LIG d   1      11.087   5.573  -1.001  0.00  0.00     0.338 A 
ATOM      4  O   LIG d   1      10.305   6.034  -0.188  0.00  0.00    -0.245 OA
ATOM      5  O   LIG d   1      10.667   4.593  -1.807  0.00  0.00    -0.422 OA
ATOM      6  C   LIG d   1      11.504   4.059  -2.718  0.00  0.00     0.147 A 
ATOM      7  C   LIG d   1      12.827   4.522  -2.834  0.00  0.00     0.021 A 
ATOM      8  C   LIG d   1      13.687   3.961  -3.784  0.00  0.00    -0.047 A 
ATOM      9  C   LIG d   1      13.238   2.964  -4.599  0.00  0.00    -0.019 A 
ATOM     10  C   LIG d   1      11.926   2.497  -4.493  0.00  0.00     0.131 A 
ATOM     11  C   LIG d   1      11.064   3.040  -3.557  0.00  0.00     0.054 A 
ATOM     12  C   LIG d   1       9.649   2.540  -3.426  0.00  0.00     0.047 C 
ATOM     13  N   LIG d   1       9.278   1.789  -4.634  0.00  0.00    -0.293 NA
ATOM     14  C   LIG d   1      10.321   0.803  -4.958  0.00  0.00     0.157 C 
ATOM     15  O   LIG d   1      11.513   1.503  -5.322  0.00  0.00    -0.473 OA
ATOM     16  H   LIG d   1      12.689   6.886  -0.376  0.00  0.00     0.069 H 
ATOM     17  H   LIG d   1      14.703   4.316  -3.872  0.00  0.00     0.063 H 
ATOM     18  H   LIG d   1      13.901   2.532  -5.333  0.00  0.00     0.065 H 
ATOM     19  H   LIG d   1       8.974   3.387  -3.303  0.00  0.00     0.052 H 
ATOM     20  H   LIG d   1       9.574   1.886  -2.556  0.00  0.00     0.052 H 
ATOM     21  H   LIG d   1      10.517   0.176  -4.088  0.00  0.00     0.091 H 
ATOM     22  H   LIG d   1       9.993   0.183  -5.793  0.00  0.00     0.091 H 
ENDROOT
BRANCH  13  23
ATOM     23  C   LIG d   1       8.033   1.169  -4.477  0.00  0.00     0.036 A 
ATOM     24  C   LIG d   1       7.213   1.519  -3.414  0.00  0.00     0.005 A 
ATOM     25  C   LIG d   1       5.979   0.906  -3.257  0.00  0.00     0.164 A 
ATOM     26  H   LIG d   1       7.536   2.270  -2.707  0.00  0.00     0.067 H 
ATOM     27  C   LIG d   1       5.566  -0.059  -4.168  0.00  0.00     0.162 A 
ATOM     28  O   LIG d   1       5.187   1.259  -2.208  0.00  0.00    -0.485 OA
ATOM     29  C   LIG d   1       6.387  -0.405  -5.231  0.00  0.00    -0.015 A 
ATOM     30  O   LIG d   1       4.354  -0.669  -4.035  0.00  0.00    -0.485 OA
ATOM     31  C   LIG d   1       7.617   0.203  -5.384  0.00  0.00    -0.037 A 
ATOM     32  H   LIG d   1       6.065  -1.156  -5.937  0.00  0.00     0.066 H 
ATOM     33  H   LIG d   1       8.255  -0.071  -6.211  0.00  0.00     0.064 H 
ATOM     34  C   LIG d   1       3.718  -0.564  -2.756  0.00  0.00     0.124 C 
ATOM     35  C   LIG d   1       3.805   0.897  -2.296  0.00  0.00     0.124 C 
ATOM     36  H   LIG d   1       4.228  -1.207  -2.038  0.00  0.00     0.073 H 
ATOM     37  H   LIG d   1       2.673  -0.862  -2.840  0.00  0.00     0.073 H 
ATOM     38  H   LIG d   1       3.334   1.002  -1.318  0.00  0.00     0.073 H 
ATOM     39  H   LIG d   1       3.301   1.541  -3.016  0.00  0.00     0.073 H 
ENDBRANCH  13  23
BRANCH   1  40
ATOM     40  C   LIG d   1      14.692   6.127  -2.029  0.00  0.00    -0.027 C 
ATOM     41  H   LIG d   1      15.204   5.672  -2.877  0.00  0.00     0.031 H 
ATOM     42  H   LIG d   1      14.664   7.209  -2.159  0.00  0.00     0.031 H 
BRANCH  40  43
ATOM     43  C   LIG d   1      15.441   5.788  -0.738  0.00  0.00    -0.052 C 
ATOM     44  H   LIG d   1      16.241   6.512  -0.583  0.00  0.00     0.027 H 
ATOM     45  H   LIG d   1      14.749   5.825   0.103  0.00  0.00     0.027 H 
BRANCH  43  46
ATOM     46  C   LIG d   1      16.037   4.384  -0.849  0.00  0.00    -0.065 C 
ATOM     47  H   LIG d   1      16.718   4.212  -0.015  0.00  0.00     0.023 H 
ATOM     48  H   LIG d   1      15.236   3.645  -0.822  0.00  0.00     0.023 H 
ATOM     49  H   LIG d   1      16.583   4.294  -1.788  0.00  0.00     0.023 H 
ENDBRANCH  43  46
ENDBRANCH  40  43
ENDBRANCH   1  40
TORSDOF 4
ENDMDL
