MODEL 1
REMARK VINA RESULT:      -6.5      0.000      0.000
REMARK  10 active torsions:
REMARK  status: ('A' for Active; 'I' for Inactive)
REMARK    1  A    between atoms: C_1  and  C_2 
REMARK    2  A    between atoms: C_2  and  O_4 
REMARK    3  A    between atoms: O_4  and  C_5 
REMARK    4  A    between atoms: C_8  and  C_39 
REMARK    5  A    between atoms: C_9  and  C_34 
REMARK    6  A    between atoms: C_16  and  C_33 
REMARK    7  A    between atoms: C_19  and  C_32 
REMARK    8  A    between atoms: C_24  and  C_30 
REMARK    9  A    between atoms: C_24  and  C_31 
REMARK   10  A    between atoms: C_26  and  O_29 
ROOT
ATOM      1  C   LIG d   1       6.579  -3.484  -5.536  0.00  0.00     0.108 C 
ATOM      2  H   LIG d   1       6.271  -3.268  -6.563  0.00  0.00     0.074 H 
ATOM      3  C   LIG d   1       7.944  -4.183  -5.590  0.00  0.00    -0.007 C 
ATOM      4  C   LIG d   1       9.089  -3.251  -5.261  0.00  0.00     0.011 C 
ATOM      5  C   LIG d   1      10.398  -3.649  -6.003  0.00  0.00    -0.002 C 
ATOM      6  H   LIG d   1      10.196  -3.865  -7.047  0.00  0.00     0.036 H 
ATOM      7  C   LIG d   1      11.235  -2.344  -5.839  0.00  0.00    -0.016 C 
ATOM      8  C   LIG d   1      10.178  -1.230  -6.109  0.00  0.00     0.090 A 
ATOM      9  H   LIG d   1      10.431  -0.202  -5.882  0.00  0.00     0.063 H 
ATOM     10  C   LIG d   1       8.819  -1.846  -5.831  0.00  0.00     0.115 A 
ATOM     11  O   LIG d   1       9.275  -1.560  -7.172  0.00  0.00    -0.363 OA
ATOM     12  C   LIG d   1       7.506  -1.174  -5.470  0.00  0.00     0.073 C 
ATOM     13  C   LIG d   1       6.634  -2.196  -4.735  0.00  0.00     0.024 C 
ATOM     14  H   LIG d   1       7.134  -2.437  -3.772  0.00  0.00     0.036 H 
ATOM     15  C   LIG d   1       5.290  -1.643  -4.305  0.00  0.00     0.019 C 
ATOM     16  C   LIG d   1       4.728  -2.560  -3.227  0.00  0.00    -0.070 C 
ATOM     17  C   LIG d   1       3.687  -2.139  -2.503  0.00  0.00    -0.021 C 
ATOM     18  C   LIG d   1       3.179  -0.783  -2.749  0.00  0.00     0.166 C 
ATOM     19  O   LIG d   1       2.002  -0.515  -2.745  0.00  0.00    -0.292 OA
ATOM     20  C   LIG d   1       4.223   0.304  -2.944  0.00  0.00     0.053 C 
ATOM     21  C   LIG d   1       5.399  -0.256  -3.715  0.00  0.00    -0.002 C 
ATOM     22  C   LIG d   1       6.508   0.481  -3.824  0.00  0.00     0.161 C 
ATOM     23  C   LIG d   1       7.708  -0.015  -4.525  0.00  0.00     0.206 C 
ATOM     24  O   LIG d   1       8.794   0.491  -4.344  0.00  0.00    -0.288 OA
ATOM     25  H   LIG d   1       7.937  -5.016  -4.877  0.00  0.00     0.031 H 
ATOM     26  H   LIG d   1       8.087  -4.600  -6.592  0.00  0.00     0.031 H 
ATOM     27  H   LIG d   1      11.655  -2.255  -4.844  0.00  0.00     0.030 H 
ATOM     28  H   LIG d   1      12.022  -2.303  -6.594  0.00  0.00     0.030 H 
ATOM     29  H   LIG d   1       5.178  -3.518  -3.037  0.00  0.00     0.058 H 
ATOM     30  H   LIG d   1       3.232  -2.780  -1.756  0.00  0.00     0.065 H 
ENDROOT
BRANCH   5  31
ATOM     31  C   LIG d   1      11.064  -4.810  -5.312  0.00  0.00    -0.006 A 
ATOM     32  C   LIG d   1      10.740  -6.110  -5.437  0.00  0.00     0.095 A 
ATOM     33  O   LIG d   1      11.568  -6.830  -4.663  0.00  0.00    -0.471 OA
ATOM     34  H   LIG d   1       9.951  -6.508  -6.058  0.00  0.00     0.103 H 
ATOM     35  C   LIG d   1      12.419  -6.006  -4.030  0.00  0.00     0.092 A 
ATOM     36  C   LIG d   1      12.144  -4.743  -4.402  0.00  0.00    -0.021 A 
ATOM     37  H   LIG d   1      13.194  -6.306  -3.340  0.00  0.00     0.103 H 
ATOM     38  H   LIG d   1      12.652  -3.849  -4.071  0.00  0.00     0.065 H 
ENDBRANCH   5  31
BRANCH   4  39
ATOM     39  C   LIG d   1       9.398  -3.233  -3.759  0.00  0.00    -0.056 C 
ATOM     40  H   LIG d   1       8.693  -3.881  -3.236  0.00  0.00     0.024 H 
ATOM     41  H   LIG d   1      10.414  -3.593  -3.592  0.00  0.00     0.024 H 
ATOM     42  H   LIG d   1       9.305  -2.216  -3.381  0.00  0.00     0.024 H 
ENDBRANCH   4  39
BRANCH   1  43
ATOM     43  O   LIG d   1       5.633  -4.393  -4.973  0.00  0.00    -0.461 OA
BRANCH  43  44
ATOM     44  C   LIG d   1       4.816  -5.030  -5.826  0.00  0.00     0.304 C 
ATOM     45  O   LIG d   1       3.961  -5.771  -5.403  0.00  0.00    -0.251 OA
BRANCH  44  46
ATOM     46  C   LIG d   1       4.965  -4.820  -7.311  0.00  0.00     0.033 C 
ATOM     47  H   LIG d   1       4.047  -4.387  -7.710  0.00  0.00     0.034 H 
ATOM     48  H   LIG d   1       5.798  -4.142  -7.501  0.00  0.00     0.034 H 
ATOM     49  H   LIG d   1       5.157  -5.776  -7.796  0.00  0.00     0.034 H 
ENDBRANCH  44  46
ENDBRANCH  43  44
ENDBRANCH   1  43
BRANCH  12  50
ATOM     50  C   LIG d   1       6.877  -0.657  -6.776  0.00  0.00    -0.049 C 
ATOM     51  H   LIG d   1       6.765  -1.482  -7.478  0.00  0.00     0.024 H 
ATOM     52  H   LIG d   1       5.898  -0.227  -6.562  0.00  0.00     0.024 H 
ATOM     53  H   LIG d   1       7.522   0.107  -7.211  0.00  0.00     0.024 H 
ENDBRANCH  12  50
BRANCH  15  54
ATOM     54  C   LIG d   1       4.283  -1.639  -5.454  0.00  0.00    -0.052 C 
ATOM     55  H   LIG d   1       4.800  -1.846  -6.391  0.00  0.00     0.024 H 
ATOM     56  H   LIG d   1       3.527  -2.405  -5.278  0.00  0.00     0.024 H 
ATOM     57  H   LIG d   1       3.803  -0.662  -5.512  0.00  0.00     0.024 H 
ENDBRANCH  15  54
BRANCH  22  58
ATOM     58  O   LIG d   1       6.576   1.747  -3.322  0.00  0.00    -0.503 OA
ATOM     59  H   LIG d   1       5.715   2.135  -3.117  0.00  0.00     0.292 HD
ENDBRANCH  22  58
BRANCH  20  60
ATOM     60  C   LIG d   1       4.666   0.767  -1.551  0.00  0.00    -0.049 C 
ATOM     61  H   LIG d   1       4.595  -0.066  -0.852  0.00  0.00     0.024 H 
ATOM     62  H   LIG d   1       5.697   1.117  -1.596  0.00  0.00     0.024 H 
ATOM     63  H   LIG d   1       4.021   1.579  -1.216  0.00  0.00     0.024 H 
ENDBRANCH  20  60
BRANCH  20  64
ATOM     64  C   LIG d   1       3.592   1.472  -3.700  0.00  0.00    -0.049 C 
ATOM     65  H   LIG d   1       3.072   2.122  -2.996  0.00  0.00     0.024 H 
ATOM     66  H   LIG d   1       4.372   2.039  -4.210  0.00  0.00     0.024 H 
ATOM     67  H   LIG d   1       2.883   1.089  -4.434  0.00  0.00     0.024 H 
ENDBRANCH  20  64
TORSDOF 10
ENDMDL
MODEL 2
REMARK VINA RESULT:      -6.1      3.031      5.490
REMARK  10 active torsions:
REMARK  status: ('A' for Active; 'I' for Inactive)
REMARK    1  A    between atoms: C_1  and  C_2 
REMARK    2  A    between atoms: C_2  and  O_4 
REMARK    3  A    between atoms: O_4  and  C_5 
REMARK    4  A    between atoms: C_8  and  C_39 
REMARK    5  A    between atoms: C_9  and  C_34 
REMARK    6  A    between atoms: C_16  and  C_33 
REMARK    7  A    between atoms: C_19  and  C_32 
REMARK    8  A    between atoms: C_24  and  C_30 
REMARK    9  A    between atoms: C_24  and  C_31 
REMARK   10  A    between atoms: C_26  and  O_29 
ROOT
ATOM      1  C   LIG d   1       4.016  -1.760  -8.036  0.00  0.00     0.108 C 
ATOM      2  H   LIG d   1       4.740  -1.192  -8.627  0.00  0.00     0.074 H 
ATOM      3  C   LIG d   1       3.807  -3.117  -8.721  0.00  0.00    -0.007 C 
ATOM      4  C   LIG d   1       4.566  -4.235  -8.040  0.00  0.00     0.011 C 
ATOM      5  C   LIG d   1       4.994  -5.346  -9.043  0.00  0.00    -0.002 C 
ATOM      6  H   LIG d   1       5.421  -4.908  -9.940  0.00  0.00     0.036 H 
ATOM      7  C   LIG d   1       6.071  -6.097  -8.203  0.00  0.00    -0.016 C 
ATOM      8  C   LIG d   1       6.859  -4.927  -7.541  0.00  0.00     0.090 A 
ATOM      9  H   LIG d   1       7.561  -5.151  -6.747  0.00  0.00     0.063 H 
ATOM     10  C   LIG d   1       5.928  -3.729  -7.531  0.00  0.00     0.115 A 
ATOM     11  O   LIG d   1       7.060  -3.816  -8.424  0.00  0.00    -0.363 OA
ATOM     12  C   LIG d   1       5.939  -2.500  -6.639  0.00  0.00     0.073 C 
ATOM     13  C   LIG d   1       4.525  -1.915  -6.614  0.00  0.00     0.024 C 
ATOM     14  H   LIG d   1       3.862  -2.654  -6.114  0.00  0.00     0.036 H 
ATOM     15  C   LIG d   1       4.397  -0.682  -5.742  0.00  0.00     0.019 C 
ATOM     16  C   LIG d   1       2.920  -0.474  -5.435  0.00  0.00    -0.070 C 
ATOM     17  C   LIG d   1       2.578   0.384  -4.471  0.00  0.00    -0.021 C 
ATOM     18  C   LIG d   1       3.655   1.035  -3.714  0.00  0.00     0.166 C 
ATOM     19  O   LIG d   1       3.605   2.192  -3.369  0.00  0.00    -0.292 OA
ATOM     20  C   LIG d   1       4.828   0.156  -3.314  0.00  0.00     0.053 C 
ATOM     21  C   LIG d   1       5.121  -0.831  -4.423  0.00  0.00    -0.002 C 
ATOM     22  C   LIG d   1       5.989  -1.820  -4.194  0.00  0.00     0.161 C 
ATOM     23  C   LIG d   1       6.294  -2.842  -5.212  0.00  0.00     0.206 C 
ATOM     24  O   LIG d   1       6.803  -3.899  -4.908  0.00  0.00    -0.288 OA
ATOM     25  H   LIG d   1       2.736  -3.348  -8.716  0.00  0.00     0.031 H 
ATOM     26  H   LIG d   1       4.130  -3.037  -9.764  0.00  0.00     0.031 H 
ATOM     27  H   LIG d   1       5.624  -6.743  -7.456  0.00  0.00     0.030 H 
ATOM     28  H   LIG d   1       6.730  -6.668  -8.861  0.00  0.00     0.030 H 
ATOM     29  H   LIG d   1       2.169  -1.027  -5.971  0.00  0.00     0.058 H 
ATOM     30  H   LIG d   1       1.536   0.591  -4.253  0.00  0.00     0.065 H 
ENDROOT
BRANCH   5  31
ATOM     31  C   LIG d   1       3.829  -6.246  -9.362  0.00  0.00    -0.006 A 
ATOM     32  C   LIG d   1       3.637  -7.499  -8.911  0.00  0.00     0.095 A 
ATOM     33  O   LIG d   1       2.483  -7.961  -9.419  0.00  0.00    -0.471 OA
ATOM     34  H   LIG d   1       4.297  -8.040  -8.249  0.00  0.00     0.103 H 
ATOM     35  C   LIG d   1       1.931  -7.021 -10.203  0.00  0.00     0.092 A 
ATOM     36  C   LIG d   1       2.731  -5.939 -10.198  0.00  0.00    -0.021 A 
ATOM     37  H   LIG d   1       1.002  -7.117 -10.746  0.00  0.00     0.103 H 
ATOM     38  H   LIG d   1       2.565  -5.014 -10.729  0.00  0.00     0.065 H 
ENDBRANCH   5  31
BRANCH   4  39
ATOM     39  C   LIG d   1       3.731  -4.904  -6.940  0.00  0.00    -0.056 C 
ATOM     40  H   LIG d   1       2.749  -5.165  -7.338  0.00  0.00     0.024 H 
ATOM     41  H   LIG d   1       4.237  -5.807  -6.599  0.00  0.00     0.024 H 
ATOM     42  H   LIG d   1       3.612  -4.215  -6.105  0.00  0.00     0.024 H 
ENDBRANCH   4  39
BRANCH   1  43
ATOM     43  O   LIG d   1       2.776  -1.052  -8.057  0.00  0.00    -0.461 OA
BRANCH  43  44
ATOM     44  C   LIG d   1       2.413  -0.492  -9.221  0.00  0.00     0.304 C 
ATOM     45  O   LIG d   1       1.345  -0.763  -9.715  0.00  0.00    -0.251 OA
BRANCH  44  46
ATOM     46  C   LIG d   1       3.339   0.476  -9.913  0.00  0.00     0.033 C 
ATOM     47  H   LIG d   1       2.914   0.760 -10.876  0.00  0.00     0.034 H 
ATOM     48  H   LIG d   1       3.462   1.365  -9.294  0.00  0.00     0.034 H 
ATOM     49  H   LIG d   1       4.309   0.004 -10.067  0.00  0.00     0.034 H 
ENDBRANCH  44  46
ENDBRANCH  43  44
ENDBRANCH   1  43
BRANCH  12  50
ATOM     50  C   LIG d   1       6.994  -1.530  -7.201  0.00  0.00    -0.049 C 
ATOM     51  H   LIG d   1       6.500  -0.748  -7.776  0.00  0.00     0.024 H 
ATOM     52  H   LIG d   1       7.550  -1.081  -6.379  0.00  0.00     0.024 H 
ATOM     53  H   LIG d   1       7.681  -2.078  -7.847  0.00  0.00     0.024 H 
ENDBRANCH  12  50
BRANCH  15  54
ATOM     54  C   LIG d   1       4.883   0.575  -6.461  0.00  0.00    -0.052 C 
ATOM     55  H   LIG d   1       4.865   1.418  -5.771  0.00  0.00     0.024 H 
ATOM     56  H   LIG d   1       5.901   0.419  -6.818  0.00  0.00     0.024 H 
ATOM     57  H   LIG d   1       4.229   0.785  -7.308  0.00  0.00     0.024 H 
ENDBRANCH  15  54
BRANCH  22  58
ATOM     58  O   LIG d   1       6.665  -1.916  -3.014  0.00  0.00    -0.503 OA
ATOM     59  H   LIG d   1       6.756  -2.820  -2.684  0.00  0.00     0.292 HD
ENDBRANCH  22  58
BRANCH  20  60
ATOM     60  C   LIG d   1       4.429  -0.582  -2.031  0.00  0.00    -0.049 C 
ATOM     61  H   LIG d   1       4.604  -1.650  -2.157  0.00  0.00     0.024 H 
ATOM     62  H   LIG d   1       5.027  -0.211  -1.199  0.00  0.00     0.024 H 
ATOM     63  H   LIG d   1       3.373  -0.408  -1.825  0.00  0.00     0.024 H 
ENDBRANCH  20  60
BRANCH  20  64
ATOM     64  C   LIG d   1       6.045   1.039  -3.045  0.00  0.00    -0.049 C 
ATOM     65  H   LIG d   1       6.513   1.313  -3.991  0.00  0.00     0.024 H 
ATOM     66  H   LIG d   1       5.731   1.942  -2.520  0.00  0.00     0.024 H 
ATOM     67  H   LIG d   1       6.762   0.493  -2.431  0.00  0.00     0.024 H 
ENDBRANCH  20  64
TORSDOF 10
ENDMDL
MODEL 3
REMARK VINA RESULT:      -5.8      3.282      7.469
REMARK  10 active torsions:
REMARK  status: ('A' for Active; 'I' for Inactive)
REMARK    1  A    between atoms: C_1  and  C_2 
REMARK    2  A    between atoms: C_2  and  O_4 
REMARK    3  A    between atoms: O_4  and  C_5 
REMARK    4  A    between atoms: C_8  and  C_39 
REMARK    5  A    between atoms: C_9  and  C_34 
REMARK    6  A    between atoms: C_16  and  C_33 
REMARK    7  A    between atoms: C_19  and  C_32 
REMARK    8  A    between atoms: C_24  and  C_30 
REMARK    9  A    between atoms: C_24  and  C_31 
REMARK   10  A    between atoms: C_26  and  O_29 
ROOT
ATOM      1  C   LIG d   1       4.235  -0.918  -7.890  0.00  0.00     0.108 C 
ATOM      2  H   LIG d   1       3.456  -1.583  -8.272  0.00  0.00     0.074 H 
ATOM      3  C   LIG d   1       3.896  -0.581  -6.432  0.00  0.00    -0.007 C 
ATOM      4  C   LIG d   1       4.718  -1.378  -5.443  0.00  0.00     0.011 C 
ATOM      5  C   LIG d   1       3.945  -1.642  -4.119  0.00  0.00    -0.002 C 
ATOM      6  H   LIG d   1       2.932  -1.970  -4.326  0.00  0.00     0.036 H 
ATOM      7  C   LIG d   1       4.804  -2.787  -3.503  0.00  0.00    -0.016 C 
ATOM      8  C   LIG d   1       5.098  -3.691  -4.739  0.00  0.00     0.090 A 
ATOM      9  H   LIG d   1       5.838  -4.476  -4.650  0.00  0.00     0.063 H 
ATOM     10  C   LIG d   1       4.947  -2.809  -5.965  0.00  0.00     0.115 A 
ATOM     11  O   LIG d   1       3.973  -3.820  -5.619  0.00  0.00    -0.363 OA
ATOM     12  C   LIG d   1       5.537  -2.972  -7.355  0.00  0.00     0.073 C 
ATOM     13  C   LIG d   1       5.590  -1.592  -8.015  0.00  0.00     0.024 C 
ATOM     14  H   LIG d   1       6.313  -0.970  -7.443  0.00  0.00     0.036 H 
ATOM     15  C   LIG d   1       6.176  -1.614  -9.413  0.00  0.00     0.019 C 
ATOM     16  C   LIG d   1       6.592  -0.194  -9.771  0.00  0.00    -0.070 C 
ATOM     17  C   LIG d   1       7.375  -0.002 -10.836  0.00  0.00    -0.021 C 
ATOM     18  C   LIG d   1       7.843  -1.185 -11.569  0.00  0.00     0.166 C 
ATOM     19  O   LIG d   1       7.926  -1.217 -12.774  0.00  0.00    -0.292 OA
ATOM     20  C   LIG d   1       8.293  -2.368 -10.729  0.00  0.00     0.053 C 
ATOM     21  C   LIG d   1       7.405  -2.489  -9.509  0.00  0.00    -0.002 C 
ATOM     22  C   LIG d   1       7.749  -3.344  -8.543  0.00  0.00     0.161 C 
ATOM     23  C   LIG d   1       6.955  -3.487  -7.308  0.00  0.00     0.206 C 
ATOM     24  O   LIG d   1       7.427  -3.993  -6.313  0.00  0.00    -0.288 OA
ATOM     25  H   LIG d   1       4.073   0.490  -6.272  0.00  0.00     0.031 H 
ATOM     26  H   LIG d   1       2.832  -0.775  -6.265  0.00  0.00     0.031 H 
ATOM     27  H   LIG d   1       5.721  -2.414  -3.062  0.00  0.00     0.030 H 
ATOM     28  H   LIG d   1       4.220  -3.341  -2.765  0.00  0.00     0.030 H 
ATOM     29  H   LIG d   1       6.280   0.636  -9.161  0.00  0.00     0.058 H 
ATOM     30  H   LIG d   1       7.657   0.998 -11.148  0.00  0.00     0.065 H 
ENDROOT
BRANCH   5  31
ATOM     31  C   LIG d   1       3.966  -0.416  -3.242  0.00  0.00    -0.006 A 
ATOM     32  C   LIG d   1       3.234   0.700  -3.408  0.00  0.00     0.095 A 
ATOM     33  O   LIG d   1       3.538   1.557  -2.420  0.00  0.00    -0.471 OA
ATOM     34  H   LIG d   1       2.520   0.875  -4.199  0.00  0.00     0.103 H 
ATOM     35  C   LIG d   1       4.468   1.008  -1.622  0.00  0.00     0.092 A 
ATOM     36  C   LIG d   1       4.765  -0.216  -2.093  0.00  0.00    -0.021 A 
ATOM     37  H   LIG d   1       4.904   1.471  -0.749  0.00  0.00     0.103 H 
ATOM     38  H   LIG d   1       5.475  -0.913  -1.673  0.00  0.00     0.065 H 
ENDBRANCH   5  31
BRANCH   4  39
ATOM     39  C   LIG d   1       6.025  -0.663  -5.080  0.00  0.00    -0.056 C 
ATOM     40  H   LIG d   1       5.797   0.294  -4.608  0.00  0.00     0.024 H 
ATOM     41  H   LIG d   1       6.598  -1.281  -4.388  0.00  0.00     0.024 H 
ATOM     42  H   LIG d   1       6.609  -0.491  -5.984  0.00  0.00     0.024 H 
ENDBRANCH   4  39
BRANCH   1  43
ATOM     43  O   LIG d   1       4.197   0.291  -8.649  0.00  0.00    -0.461 OA
BRANCH  43  44
ATOM     44  C   LIG d   1       2.987   0.752  -9.001  0.00  0.00     0.304 C 
ATOM     45  O   LIG d   1       2.697   1.906  -8.793  0.00  0.00    -0.251 OA
BRANCH  44  46
ATOM     46  C   LIG d   1       1.990  -0.169  -9.655  0.00  0.00     0.033 C 
ATOM     47  H   LIG d   1       1.093   0.393  -9.917  0.00  0.00     0.034 H 
ATOM     48  H   LIG d   1       2.427  -0.596 -10.558  0.00  0.00     0.034 H 
ATOM     49  H   LIG d   1       1.728  -0.971  -8.965  0.00  0.00     0.034 H 
ENDBRANCH  44  46
ENDBRANCH  43  44
ENDBRANCH   1  43
BRANCH  12  50
ATOM     50  C   LIG d   1       4.659  -3.982  -8.115  0.00  0.00    -0.049 C 
ATOM     51  H   LIG d   1       5.103  -4.192  -9.087  0.00  0.00     0.024 H 
ATOM     52  H   LIG d   1       4.588  -4.906  -7.541  0.00  0.00     0.024 H 
ATOM     53  H   LIG d   1       3.662  -3.563  -8.253  0.00  0.00     0.024 H 
ENDBRANCH  12  50
BRANCH  15  54
ATOM     54  C   LIG d   1       5.146  -2.050 -10.453  0.00  0.00    -0.052 C 
ATOM     55  H   LIG d   1       4.515  -2.833 -10.034  0.00  0.00     0.024 H 
ATOM     56  H   LIG d   1       4.529  -1.197 -10.735  0.00  0.00     0.024 H 
ATOM     57  H   LIG d   1       5.661  -2.433 -11.335  0.00  0.00     0.024 H 
ENDBRANCH  15  54
BRANCH  22  58
ATOM     58  O   LIG d   1       8.838  -4.156  -8.664  0.00  0.00    -0.503 OA
ATOM     59  H   LIG d   1       9.172  -4.234  -9.567  0.00  0.00     0.292 HD
ENDBRANCH  22  58
BRANCH  20  60
ATOM     60  C   LIG d   1       9.744  -2.104 -10.310  0.00  0.00    -0.049 C 
ATOM     61  H   LIG d   1      10.339  -3.003 -10.475  0.00  0.00     0.024 H 
ATOM     62  H   LIG d   1      10.150  -1.286 -10.904  0.00  0.00     0.024 H 
ATOM     63  H   LIG d   1       9.775  -1.836  -9.254  0.00  0.00     0.024 H 
ENDBRANCH  20  60
BRANCH  20  64
ATOM     64  C   LIG d   1       8.222  -3.638 -11.574  0.00  0.00    -0.049 C 
ATOM     65  H   LIG d   1       9.099  -3.696 -12.219  0.00  0.00     0.024 H 
ATOM     66  H   LIG d   1       8.194  -4.509 -10.919  0.00  0.00     0.024 H 
ATOM     67  H   LIG d   1       7.321  -3.616 -12.188  0.00  0.00     0.024 H 
ENDBRANCH  20  64
TORSDOF 10
ENDMDL
MODEL 4
REMARK VINA RESULT:      -5.8      3.351      6.465
REMARK  10 active torsions:
REMARK  status: ('A' for Active; 'I' for Inactive)
REMARK    1  A    between atoms: C_1  and  C_2 
REMARK    2  A    between atoms: C_2  and  O_4 
REMARK    3  A    between atoms: O_4  and  C_5 
REMARK    4  A    between atoms: C_8  and  C_39 
REMARK    5  A    between atoms: C_9  and  C_34 
REMARK    6  A    between atoms: C_16  and  C_33 
REMARK    7  A    between atoms: C_19  and  C_32 
REMARK    8  A    between atoms: C_24  and  C_30 
REMARK    9  A    between atoms: C_24  and  C_31 
REMARK   10  A    between atoms: C_26  and  O_29 
ROOT
ATOM      1  C   LIG d   1       5.062  -3.348  -7.032  0.00  0.00     0.108 C 
ATOM      2  H   LIG d   1       5.958  -3.941  -7.236  0.00  0.00     0.074 H 
ATOM      3  C   LIG d   1       5.236  -2.687  -5.659  0.00  0.00    -0.007 C 
ATOM      4  C   LIG d   1       5.632  -1.230  -5.760  0.00  0.00     0.011 C 
ATOM      5  C   LIG d   1       6.509  -0.778  -4.556  0.00  0.00    -0.002 C 
ATOM      6  H   LIG d   1       7.286  -1.509  -4.353  0.00  0.00     0.036 H 
ATOM      7  C   LIG d   1       7.103   0.551  -5.111  0.00  0.00    -0.016 C 
ATOM      8  C   LIG d   1       7.461   0.174  -6.581  0.00  0.00     0.090 A 
ATOM      9  H   LIG d   1       7.726   0.962  -7.275  0.00  0.00     0.063 H 
ATOM     10  C   LIG d   1       6.590  -1.015  -6.946  0.00  0.00     0.115 A 
ATOM     11  O   LIG d   1       8.009  -1.145  -6.703  0.00  0.00    -0.363 OA
ATOM     12  C   LIG d   1       6.151  -1.511  -8.312  0.00  0.00     0.073 C 
ATOM     13  C   LIG d   1       4.865  -2.323  -8.134  0.00  0.00     0.024 C 
ATOM     14  H   LIG d   1       4.071  -1.626  -7.788  0.00  0.00     0.036 H 
ATOM     15  C   LIG d   1       4.310  -2.868  -9.435  0.00  0.00     0.019 C 
ATOM     16  C   LIG d   1       2.852  -3.240  -9.205  0.00  0.00    -0.070 C 
ATOM     17  C   LIG d   1       2.077  -3.489 -10.264  0.00  0.00    -0.021 C 
ATOM     18  C   LIG d   1       2.663  -3.327 -11.601  0.00  0.00     0.166 C 
ATOM     19  O   LIG d   1       2.424  -4.078 -12.516  0.00  0.00    -0.292 OA
ATOM     20  C   LIG d   1       3.550  -2.111 -11.808  0.00  0.00     0.053 C 
ATOM     21  C   LIG d   1       4.352  -1.849 -10.551  0.00  0.00    -0.002 C 
ATOM     22  C   LIG d   1       5.049  -0.714 -10.455  0.00  0.00     0.161 C 
ATOM     23  C   LIG d   1       5.821  -0.372  -9.246  0.00  0.00     0.206 C 
ATOM     24  O   LIG d   1       6.167   0.768  -9.024  0.00  0.00    -0.288 OA
ATOM     25  H   LIG d   1       4.290  -2.769  -5.111  0.00  0.00     0.031 H 
ATOM     26  H   LIG d   1       5.999  -3.236  -5.098  0.00  0.00     0.031 H 
ATOM     27  H   LIG d   1       6.385   1.362  -5.077  0.00  0.00     0.030 H 
ATOM     28  H   LIG d   1       8.009   0.817  -4.562  0.00  0.00     0.030 H 
ATOM     29  H   LIG d   1       2.450  -3.278  -8.208  0.00  0.00     0.058 H 
ATOM     30  H   LIG d   1       1.045  -3.799 -10.140  0.00  0.00     0.065 H 
ENDROOT
BRANCH   5  31
ATOM     31  C   LIG d   1       5.651  -0.525  -3.344  0.00  0.00    -0.006 A 
ATOM     32  C   LIG d   1       4.995  -1.449  -2.619  0.00  0.00     0.095 A 
ATOM     33  O   LIG d   1       4.348  -0.824  -1.622  0.00  0.00    -0.471 OA
ATOM     34  H   LIG d   1       4.993  -2.513  -2.805  0.00  0.00     0.103 H 
ATOM     35  C   LIG d   1       4.572   0.497  -1.701  0.00  0.00     0.092 A 
ATOM     36  C   LIG d   1       5.375   0.731  -2.754  0.00  0.00    -0.021 A 
ATOM     37  H   LIG d   1       4.174   1.247  -1.032  0.00  0.00     0.103 H 
ATOM     38  H   LIG d   1       5.741   1.691  -3.085  0.00  0.00     0.065 H 
ENDBRANCH   5  31
BRANCH   4  39
ATOM     39  C   LIG d   1       4.408  -0.307  -5.810  0.00  0.00    -0.056 C 
ATOM     40  H   LIG d   1       4.025  -0.267  -6.831  0.00  0.00     0.024 H 
ATOM     41  H   LIG d   1       3.634  -0.694  -5.147  0.00  0.00     0.024 H 
ATOM     42  H   LIG d   1       4.694   0.694  -5.491  0.00  0.00     0.024 H 
ENDBRANCH   4  39
BRANCH   1  43
ATOM     43  O   LIG d   1       3.948  -4.239  -6.962  0.00  0.00    -0.461 OA
BRANCH  43  44
ATOM     44  C   LIG d   1       4.160  -5.437  -6.397  0.00  0.00     0.304 C 
ATOM     45  O   LIG d   1       3.837  -5.629  -5.249  0.00  0.00    -0.251 OA
BRANCH  44  46
ATOM     46  C   LIG d   1       4.801  -6.544  -7.195  0.00  0.00     0.033 C 
ATOM     47  H   LIG d   1       5.144  -6.150  -8.152  0.00  0.00     0.034 H 
ATOM     48  H   LIG d   1       5.651  -6.945  -6.643  0.00  0.00     0.034 H 
ATOM     49  H   LIG d   1       4.073  -7.336  -7.367  0.00  0.00     0.034 H 
ENDBRANCH  44  46
ENDBRANCH  43  44
ENDBRANCH   1  43
BRANCH  12  50
ATOM     50  C   LIG d   1       7.314  -2.327  -8.904  0.00  0.00    -0.049 C 
ATOM     51  H   LIG d   1       8.173  -1.675  -9.060  0.00  0.00     0.024 H 
ATOM     52  H   LIG d   1       7.584  -3.127  -8.215  0.00  0.00     0.024 H 
ATOM     53  H   LIG d   1       7.006  -2.757  -9.858  0.00  0.00     0.024 H 
ENDBRANCH  12  50
BRANCH  15  54
ATOM     54  C   LIG d   1       5.031  -4.142  -9.870  0.00  0.00    -0.052 C 
ATOM     55  H   LIG d   1       4.557  -4.540 -10.767  0.00  0.00     0.024 H 
ATOM     56  H   LIG d   1       6.076  -3.915 -10.081  0.00  0.00     0.024 H 
ATOM     57  H   LIG d   1       4.975  -4.882  -9.071  0.00  0.00     0.024 H 
ENDBRANCH  15  54
BRANCH  22  58
ATOM     58  O   LIG d   1       5.110   0.175 -11.488  0.00  0.00    -0.503 OA
ATOM     59  H   LIG d   1       4.252   0.543 -11.742  0.00  0.00     0.292 HD
ENDBRANCH  22  58
BRANCH  20  60
ATOM     60  C   LIG d   1       2.630  -0.923 -12.113  0.00  0.00    -0.049 C 
ATOM     61  H   LIG d   1       1.618  -1.284 -12.296  0.00  0.00     0.024 H 
ATOM     62  H   LIG d   1       2.625  -0.240 -11.264  0.00  0.00     0.024 H 
ATOM     63  H   LIG d   1       2.995  -0.399 -12.997  0.00  0.00     0.024 H 
ENDBRANCH  20  60
BRANCH  20  64
ATOM     64  C   LIG d   1       4.478  -2.364 -12.995  0.00  0.00    -0.049 C 
ATOM     65  H   LIG d   1       4.540  -3.436 -13.185  0.00  0.00     0.024 H 
ATOM     66  H   LIG d   1       4.084  -1.860 -13.878  0.00  0.00     0.024 H 
ATOM     67  H   LIG d   1       5.472  -1.977 -12.768  0.00  0.00     0.024 H 
ENDBRANCH  20  64
TORSDOF 10
ENDMDL
MODEL 5
REMARK VINA RESULT:      -5.7      3.129      6.197
REMARK  10 active torsions:
REMARK  status: ('A' for Active; 'I' for Inactive)
REMARK    1  A    between atoms: C_1  and  C_2 
REMARK    2  A    between atoms: C_2  and  O_4 
REMARK    3  A    between atoms: O_4  and  C_5 
REMARK    4  A    between atoms: C_8  and  C_39 
REMARK    5  A    between atoms: C_9  and  C_34 
REMARK    6  A    between atoms: C_16  and  C_33 
REMARK    7  A    between atoms: C_19  and  C_32 
REMARK    8  A    between atoms: C_24  and  C_30 
REMARK    9  A    between atoms: C_24  and  C_31 
REMARK   10  A    between atoms: C_26  and  O_29 
ROOT
ATOM      1  C   LIG d   1       5.198  -1.103  -8.294  0.00  0.00     0.108 C 
ATOM      2  H   LIG d   1       6.272  -0.915  -8.213  0.00  0.00     0.074 H 
ATOM      3  C   LIG d   1       4.974  -2.065  -9.468  0.00  0.00    -0.007 C 
ATOM      4  C   LIG d   1       4.734  -3.489  -9.017  0.00  0.00     0.011 C 
ATOM      5  C   LIG d   1       5.248  -4.526 -10.057  0.00  0.00    -0.002 C 
ATOM      6  H   LIG d   1       6.240  -4.259 -10.406  0.00  0.00     0.036 H 
ATOM      7  C   LIG d   1       5.275  -5.821  -9.190  0.00  0.00    -0.016 C 
ATOM      8  C   LIG d   1       5.868  -5.311  -7.842  0.00  0.00     0.090 A 
ATOM      9  H   LIG d   1       5.833  -5.959  -6.975  0.00  0.00     0.063 H 
ATOM     10  C   LIG d   1       5.603  -3.817  -7.789  0.00  0.00     0.115 A 
ATOM     11  O   LIG d   1       6.924  -4.357  -8.019  0.00  0.00    -0.363 OA
ATOM     12  C   LIG d   1       5.517  -2.890  -6.590  0.00  0.00     0.073 C 
ATOM     13  C   LIG d   1       4.677  -1.673  -6.987  0.00  0.00     0.024 C 
ATOM     14  H   LIG d   1       3.640  -2.027  -7.181  0.00  0.00     0.036 H 
ATOM     15  C   LIG d   1       4.502  -0.668  -5.866  0.00  0.00     0.019 C 
ATOM     16  C   LIG d   1       3.318   0.224  -6.215  0.00  0.00    -0.070 C 
ATOM     17  C   LIG d   1       2.801   1.007  -5.265  0.00  0.00    -0.021 C 
ATOM     18  C   LIG d   1       3.367   0.917  -3.913  0.00  0.00     0.166 C 
ATOM     19  O   LIG d   1       3.533   1.882  -3.207  0.00  0.00    -0.292 OA
ATOM     20  C   LIG d   1       3.679  -0.480  -3.402  0.00  0.00     0.053 C 
ATOM     21  C   LIG d   1       4.201  -1.331  -4.541  0.00  0.00    -0.002 C 
ATOM     22  C   LIG d   1       4.351  -2.644  -4.349  0.00  0.00     0.161 C 
ATOM     23  C   LIG d   1       4.815  -3.541  -5.423  0.00  0.00     0.206 C 
ATOM     24  O   LIG d   1       4.637  -4.738  -5.362  0.00  0.00    -0.288 OA
ATOM     25  H   LIG d   1       4.110  -1.715 -10.045  0.00  0.00     0.031 H 
ATOM     26  H   LIG d   1       5.851  -2.031 -10.123  0.00  0.00     0.031 H 
ATOM     27  H   LIG d   1       4.283  -6.236  -9.051  0.00  0.00     0.030 H 
ATOM     28  H   LIG d   1       5.942  -6.560  -9.637  0.00  0.00     0.030 H 
ATOM     29  H   LIG d   1       2.893   0.204  -7.203  0.00  0.00     0.058 H 
ATOM     30  H   LIG d   1       1.986   1.688  -5.486  0.00  0.00     0.065 H 
ENDROOT
BRANCH   5  31
ATOM     31  C   LIG d   1       4.272  -4.657 -11.198  0.00  0.00    -0.006 A 
ATOM     32  C   LIG d   1       3.410  -5.670 -11.402  0.00  0.00     0.095 A 
ATOM     33  O   LIG d   1       2.714  -5.415 -12.522  0.00  0.00    -0.471 OA
ATOM     34  H   LIG d   1       3.293  -6.538 -10.770  0.00  0.00     0.103 H 
ATOM     35  C   LIG d   1       3.126  -4.250 -13.050  0.00  0.00     0.092 A 
ATOM     36  C   LIG d   1       4.092  -3.744 -12.262  0.00  0.00    -0.021 A 
ATOM     37  H   LIG d   1       2.746  -3.797 -13.953  0.00  0.00     0.103 H 
ATOM     38  H   LIG d   1       4.626  -2.818 -12.412  0.00  0.00     0.065 H 
ENDBRANCH   5  31
BRANCH   4  39
ATOM     39  C   LIG d   1       3.245  -3.770  -8.783  0.00  0.00    -0.056 C 
ATOM     40  H   LIG d   1       2.688  -3.568  -9.699  0.00  0.00     0.024 H 
ATOM     41  H   LIG d   1       3.112  -4.814  -8.500  0.00  0.00     0.024 H 
ATOM     42  H   LIG d   1       2.875  -3.127  -7.985  0.00  0.00     0.024 H 
ENDBRANCH   4  39
BRANCH   1  43
ATOM     43  O   LIG d   1       4.555   0.134  -8.601  0.00  0.00    -0.461 OA
BRANCH  43  44
ATOM     44  C   LIG d   1       5.226   0.993  -9.384  0.00  0.00     0.304 C 
ATOM     45  O   LIG d   1       4.722   1.399 -10.404  0.00  0.00    -0.251 OA
BRANCH  44  46
ATOM     46  C   LIG d   1       6.607   1.451  -8.990  0.00  0.00     0.033 C 
ATOM     47  H   LIG d   1       7.349   0.776  -9.417  0.00  0.00     0.034 H 
ATOM     48  H   LIG d   1       6.776   2.460  -9.366  0.00  0.00     0.034 H 
ATOM     49  H   LIG d   1       6.695   1.448  -7.904  0.00  0.00     0.034 H 
ENDBRANCH  44  46
ENDBRANCH  43  44
ENDBRANCH   1  43
BRANCH  12  50
ATOM     50  C   LIG d   1       6.956  -2.533  -6.177  0.00  0.00    -0.049 C 
ATOM     51  H   LIG d   1       6.955  -2.130  -5.164  0.00  0.00     0.024 H 
ATOM     52  H   LIG d   1       7.577  -3.428  -6.211  0.00  0.00     0.024 H 
ATOM     53  H   LIG d   1       7.355  -1.787  -6.864  0.00  0.00     0.024 H 
ENDBRANCH  12  50
BRANCH  15  54
ATOM     54  C   LIG d   1       5.719   0.243  -5.725  0.00  0.00    -0.052 C 
ATOM     55  H   LIG d   1       5.895   0.454  -4.670  0.00  0.00     0.024 H 
ATOM     56  H   LIG d   1       6.594  -0.251  -6.148  0.00  0.00     0.024 H 
ATOM     57  H   LIG d   1       5.536   1.177  -6.257  0.00  0.00     0.024 H 
ENDBRANCH  15  54
BRANCH  22  58
ATOM     58  O   LIG d   1       4.115  -3.219  -3.135  0.00  0.00    -0.503 OA
ATOM     59  H   LIG d   1       3.179  -3.262  -2.895  0.00  0.00     0.292 HD
ENDBRANCH  22  58
BRANCH  20  60
ATOM     60  C   LIG d   1       2.375  -1.066  -2.850  0.00  0.00    -0.049 C 
ATOM     61  H   LIG d   1       2.512  -1.336  -1.803  0.00  0.00     0.024 H 
ATOM     62  H   LIG d   1       1.580  -0.325  -2.934  0.00  0.00     0.024 H 
ATOM     63  H   LIG d   1       2.104  -1.954  -3.422  0.00  0.00     0.024 H 
ENDBRANCH  20  60
BRANCH  20  64
ATOM     64  C   LIG d   1       4.716  -0.384  -2.285  0.00  0.00    -0.049 C 
ATOM     65  H   LIG d   1       4.209  -0.337  -1.321  0.00  0.00     0.024 H 
ATOM     66  H   LIG d   1       5.363  -1.261  -2.312  0.00  0.00     0.024 H 
ATOM     67  H   LIG d   1       5.318   0.515  -2.423  0.00  0.00     0.024 H 
ENDBRANCH  20  64
TORSDOF 10
ENDMDL
MODEL 6
REMARK VINA RESULT:      -5.6      3.349      6.071
REMARK  10 active torsions:
REMARK  status: ('A' for Active; 'I' for Inactive)
REMARK    1  A    between atoms: C_1  and  C_2 
REMARK    2  A    between atoms: C_2  and  O_4 
REMARK    3  A    between atoms: O_4  and  C_5 
REMARK    4  A    between atoms: C_8  and  C_39 
REMARK    5  A    between atoms: C_9  and  C_34 
REMARK    6  A    between atoms: C_16  and  C_33 
REMARK    7  A    between atoms: C_19  and  C_32 
REMARK    8  A    between atoms: C_24  and  C_30 
REMARK    9  A    between atoms: C_24  and  C_31 
REMARK   10  A    between atoms: C_26  and  O_29 
ROOT
ATOM      1  C   LIG d   1       5.829  -0.371  -5.926  0.00  0.00     0.108 C 
ATOM      2  H   LIG d   1       5.804  -1.423  -5.630  0.00  0.00     0.074 H 
ATOM      3  C   LIG d   1       7.021   0.290  -5.221  0.00  0.00    -0.007 C 
ATOM      4  C   LIG d   1       8.213   0.468  -6.136  0.00  0.00     0.011 C 
ATOM      5  C   LIG d   1       9.560   0.395  -5.362  0.00  0.00    -0.002 C 
ATOM      6  H   LIG d   1       9.562  -0.445  -4.674  0.00  0.00     0.036 H 
ATOM      7  C   LIG d   1      10.561   0.176  -6.536  0.00  0.00    -0.016 C 
ATOM      8  C   LIG d   1       9.812  -0.859  -7.429  0.00  0.00     0.090 A 
ATOM      9  H   LIG d   1      10.189  -1.064  -8.423  0.00  0.00     0.063 H 
ATOM     10  C   LIG d   1       8.336  -0.730  -7.096  0.00  0.00     0.115 A 
ATOM     11  O   LIG d   1       9.126  -1.862  -6.669  0.00  0.00    -0.363 OA
ATOM     12  C   LIG d   1       7.120  -1.104  -7.925  0.00  0.00     0.073 C 
ATOM     13  C   LIG d   1       5.934  -0.266  -7.437  0.00  0.00     0.024 C 
ATOM     14  H   LIG d   1       6.154   0.798  -7.672  0.00  0.00     0.036 H 
ATOM     15  C   LIG d   1       4.651  -0.537  -8.196  0.00  0.00     0.019 C 
ATOM     16  C   LIG d   1       3.705   0.630  -7.952  0.00  0.00    -0.070 C 
ATOM     17  C   LIG d   1       2.622   0.753  -8.724  0.00  0.00    -0.021 C 
ATOM     18  C   LIG d   1       2.437  -0.215  -9.812  0.00  0.00     0.166 C 
ATOM     19  O   LIG d   1       1.358  -0.669 -10.107  0.00  0.00    -0.292 OA
ATOM     20  C   LIG d   1       3.677  -0.579 -10.611  0.00  0.00     0.053 C 
ATOM     21  C   LIG d   1       4.875  -0.640  -9.688  0.00  0.00    -0.002 C 
ATOM     22  C   LIG d   1       6.095  -0.753 -10.220  0.00  0.00     0.161 C 
ATOM     23  C   LIG d   1       7.311  -0.778  -9.386  0.00  0.00     0.206 C 
ATOM     24  O   LIG d   1       8.402  -0.547  -9.860  0.00  0.00    -0.288 OA
ATOM     25  H   LIG d   1       6.703   1.269  -4.844  0.00  0.00     0.031 H 
ATOM     26  H   LIG d   1       7.307  -0.326  -4.362  0.00  0.00     0.031 H 
ATOM     27  H   LIG d   1      10.756   1.094  -7.078  0.00  0.00     0.030 H 
ATOM     28  H   LIG d   1      11.492  -0.256  -6.163  0.00  0.00     0.030 H 
ATOM     29  H   LIG d   1       3.920   1.355  -7.186  0.00  0.00     0.058 H 
ATOM     30  H   LIG d   1       1.903   1.546  -8.552  0.00  0.00     0.065 H 
ENDROOT
BRANCH   5  31
ATOM     31  C   LIG d   1       9.832   1.696  -4.652  0.00  0.00    -0.006 A 
ATOM     32  C   LIG d   1      10.809   2.576  -4.939  0.00  0.00     0.095 A 
ATOM     33  O   LIG d   1      10.715   3.607  -4.083  0.00  0.00    -0.471 OA
ATOM     34  H   LIG d   1      11.541   2.474  -5.726  0.00  0.00     0.103 H 
ATOM     35  C   LIG d   1       9.692   3.396  -3.239  0.00  0.00     0.092 A 
ATOM     36  C   LIG d   1       9.115   2.223  -3.554  0.00  0.00    -0.021 A 
ATOM     37  H   LIG d   1       9.385   4.057  -2.442  0.00  0.00     0.103 H 
ATOM     38  H   LIG d   1       8.265   1.771  -3.063  0.00  0.00     0.065 H 
ENDBRANCH   5  31
BRANCH   4  39
ATOM     39  C   LIG d   1       8.174   1.815  -6.869  0.00  0.00    -0.056 C 
ATOM     40  H   LIG d   1       7.196   1.948  -7.332  0.00  0.00     0.024 H 
ATOM     41  H   LIG d   1       8.351   2.621  -6.156  0.00  0.00     0.024 H 
ATOM     42  H   LIG d   1       8.945   1.833  -7.638  0.00  0.00     0.024 H 
ENDBRANCH   4  39
BRANCH   1  43
ATOM     43  O   LIG d   1       4.632   0.250  -5.457  0.00  0.00    -0.461 OA
BRANCH  43  44
ATOM     44  C   LIG d   1       4.104  -0.226  -4.318  0.00  0.00     0.304 C 
ATOM     45  O   LIG d   1       4.045  -1.419  -4.132  0.00  0.00    -0.251 OA
BRANCH  44  46
ATOM     46  C   LIG d   1       3.585   0.726  -3.272  0.00  0.00     0.033 C 
ATOM     47  H   LIG d   1       2.913   1.447  -3.738  0.00  0.00     0.034 H 
ATOM     48  H   LIG d   1       3.045   0.167  -2.507  0.00  0.00     0.034 H 
ATOM     49  H   LIG d   1       4.422   1.253  -2.813  0.00  0.00     0.034 H 
ENDBRANCH  44  46
ENDBRANCH  43  44
ENDBRANCH   1  43
BRANCH  12  50
ATOM     50  C   LIG d   1       6.904  -2.620  -7.771  0.00  0.00    -0.049 C 
ATOM     51  H   LIG d   1       7.351  -2.959  -6.836  0.00  0.00     0.024 H 
ATOM     52  H   LIG d   1       5.836  -2.837  -7.762  0.00  0.00     0.024 H 
ATOM     53  H   LIG d   1       7.373  -3.139  -8.607  0.00  0.00     0.024 H 
ENDBRANCH  12  50
BRANCH  15  54
ATOM     54  C   LIG d   1       3.946  -1.794  -7.691  0.00  0.00    -0.052 C 
ATOM     55  H   LIG d   1       3.499  -1.593  -6.717  0.00  0.00     0.024 H 
ATOM     56  H   LIG d   1       3.167  -2.083  -8.397  0.00  0.00     0.024 H 
ATOM     57  H   LIG d   1       4.670  -2.604  -7.598  0.00  0.00     0.024 H 
ENDBRANCH  15  54
BRANCH  22  58
ATOM     58  O   LIG d   1       6.277  -0.887 -11.565  0.00  0.00    -0.503 OA
ATOM     59  H   LIG d   1       5.814  -0.222 -12.093  0.00  0.00     0.292 HD
ENDBRANCH  22  58
BRANCH  20  60
ATOM     60  C   LIG d   1       3.873   0.511 -11.671  0.00  0.00    -0.049 C 
ATOM     61  H   LIG d   1       4.536   0.143 -12.454  0.00  0.00     0.024 H 
ATOM     62  H   LIG d   1       2.908   0.772 -12.105  0.00  0.00     0.024 H 
ATOM     63  H   LIG d   1       4.313   1.394 -11.208  0.00  0.00     0.024 H 
ENDBRANCH  20  60
BRANCH  20  64
ATOM     64  C   LIG d   1       3.455  -1.928 -11.293  0.00  0.00    -0.049 C 
ATOM     65  H   LIG d   1       2.489  -2.333 -10.991  0.00  0.00     0.024 H 
ATOM     66  H   LIG d   1       3.472  -1.796 -12.375  0.00  0.00     0.024 H 
ATOM     67  H   LIG d   1       4.246  -2.619 -10.999  0.00  0.00     0.024 H 
ENDBRANCH  20  64
TORSDOF 10
ENDMDL
MODEL 7
REMARK VINA RESULT:      -5.5      2.466      7.263
REMARK  10 active torsions:
REMARK  status: ('A' for Active; 'I' for Inactive)
REMARK    1  A    between atoms: C_1  and  C_2 
REMARK    2  A    between atoms: C_2  and  O_4 
REMARK    3  A    between atoms: O_4  and  C_5 
REMARK    4  A    between atoms: C_8  and  C_39 
REMARK    5  A    between atoms: C_9  and  C_34 
REMARK    6  A    between atoms: C_16  and  C_33 
REMARK    7  A    between atoms: C_19  and  C_32 
REMARK    8  A    between atoms: C_24  and  C_30 
REMARK    9  A    between atoms: C_24  and  C_31 
REMARK   10  A    between atoms: C_26  and  O_29 
ROOT
ATOM      1  C   LIG d   1       8.220  -4.018  -5.613  0.00  0.00     0.108 C 
ATOM      2  H   LIG d   1       8.548  -4.010  -6.656  0.00  0.00     0.074 H 
ATOM      3  C   LIG d   1       7.712  -2.612  -5.267  0.00  0.00    -0.007 C 
ATOM      4  C   LIG d   1       6.201  -2.521  -5.274  0.00  0.00     0.011 C 
ATOM      5  C   LIG d   1       5.702  -1.105  -5.681  0.00  0.00    -0.002 C 
ATOM      6  H   LIG d   1       6.241  -0.745  -6.552  0.00  0.00     0.036 H 
ATOM      7  C   LIG d   1       4.210  -1.407  -6.015  0.00  0.00    -0.016 C 
ATOM      8  C   LIG d   1       4.305  -2.748  -6.803  0.00  0.00     0.090 A 
ATOM      9  H   LIG d   1       3.397  -3.301  -7.008  0.00  0.00     0.063 H 
ATOM     10  C   LIG d   1       5.615  -3.397  -6.396  0.00  0.00     0.115 A 
ATOM     11  O   LIG d   1       5.426  -2.795  -7.696  0.00  0.00    -0.363 OA
ATOM     12  C   LIG d   1       6.030  -4.857  -6.447  0.00  0.00     0.073 C 
ATOM     13  C   LIG d   1       7.146  -5.072  -5.421  0.00  0.00     0.024 C 
ATOM     14  H   LIG d   1       6.711  -4.909  -4.410  0.00  0.00     0.036 H 
ATOM     15  C   LIG d   1       7.644  -6.502  -5.362  0.00  0.00     0.019 C 
ATOM     16  C   LIG d   1       8.385  -6.688  -4.045  0.00  0.00    -0.070 C 
ATOM     17  C   LIG d   1       8.682  -7.927  -3.644  0.00  0.00    -0.021 C 
ATOM     18  C   LIG d   1       8.219  -9.049  -4.470  0.00  0.00     0.166 C 
ATOM     19  O   LIG d   1       8.887 -10.036  -4.667  0.00  0.00    -0.292 OA
ATOM     20  C   LIG d   1       6.807  -8.945  -5.022  0.00  0.00     0.053 C 
ATOM     21  C   LIG d   1       6.516  -7.508  -5.399  0.00  0.00    -0.002 C 
ATOM     22  C   LIG d   1       5.266  -7.167  -5.723  0.00  0.00     0.161 C 
ATOM     23  C   LIG d   1       4.899  -5.779  -6.061  0.00  0.00     0.206 C 
ATOM     24  O   LIG d   1       3.746  -5.408  -6.027  0.00  0.00    -0.288 OA
ATOM     25  H   LIG d   1       8.088  -2.339  -4.275  0.00  0.00     0.031 H 
ATOM     26  H   LIG d   1       8.124  -1.901  -5.991  0.00  0.00     0.031 H 
ATOM     27  H   LIG d   1       3.609  -1.518  -5.120  0.00  0.00     0.030 H 
ATOM     28  H   LIG d   1       3.802  -0.623  -6.657  0.00  0.00     0.030 H 
ATOM     29  H   LIG d   1       8.642  -5.837  -3.440  0.00  0.00     0.058 H 
ATOM     30  H   LIG d   1       9.246  -8.098  -2.733  0.00  0.00     0.065 H 
ENDROOT
BRANCH   5  31
ATOM     31  C   LIG d   1       5.817  -0.151  -4.521  0.00  0.00    -0.006 A 
ATOM     32  C   LIG d   1       6.919   0.519  -4.139  0.00  0.00     0.095 A 
ATOM     33  O   LIG d   1       6.612   1.266  -3.067  0.00  0.00    -0.471 OA
ATOM     34  H   LIG d   1       7.887   0.467  -4.617  0.00  0.00     0.103 H 
ATOM     35  C   LIG d   1       5.322   1.078  -2.745  0.00  0.00     0.092 A 
ATOM     36  C   LIG d   1       4.788   0.207  -3.620  0.00  0.00    -0.021 A 
ATOM     37  H   LIG d   1       4.801   1.548  -1.924  0.00  0.00     0.103 H 
ATOM     38  H   LIG d   1       3.768  -0.149  -3.632  0.00  0.00     0.065 H 
ENDBRANCH   5  31
BRANCH   4  39
ATOM     39  C   LIG d   1       5.605  -2.842  -3.897  0.00  0.00    -0.056 C 
ATOM     40  H   LIG d   1       5.877  -2.056  -3.191  0.00  0.00     0.024 H 
ATOM     41  H   LIG d   1       4.519  -2.899  -3.976  0.00  0.00     0.024 H 
ATOM     42  H   LIG d   1       5.995  -3.796  -3.545  0.00  0.00     0.024 H 
ENDBRANCH   4  39
BRANCH   1  43
ATOM     43  O   LIG d   1       9.357  -4.296  -4.794  0.00  0.00    -0.461 OA
BRANCH  43  44
ATOM     44  C   LIG d   1      10.522  -3.737  -5.157  0.00  0.00     0.304 C 
ATOM     45  O   LIG d   1      11.170  -3.114  -4.350  0.00  0.00    -0.251 OA
BRANCH  44  46
ATOM     46  C   LIG d   1      11.022  -3.888  -6.571  0.00  0.00     0.033 C 
ATOM     47  H   LIG d   1      10.722  -4.862  -6.960  0.00  0.00     0.034 H 
ATOM     48  H   LIG d   1      10.595  -3.102  -7.193  0.00  0.00     0.034 H 
ATOM     49  H   LIG d   1      12.109  -3.811  -6.582  0.00  0.00     0.034 H 
ENDBRANCH  44  46
ENDBRANCH  43  44
ENDBRANCH   1  43
BRANCH  12  50
ATOM     50  C   LIG d   1       6.460  -5.165  -7.893  0.00  0.00    -0.049 C 
ATOM     51  H   LIG d   1       5.892  -6.016  -8.268  0.00  0.00     0.024 H 
ATOM     52  H   LIG d   1       6.270  -4.296  -8.522  0.00  0.00     0.024 H 
ATOM     53  H   LIG d   1       7.524  -5.402  -7.912  0.00  0.00     0.024 H 
ENDBRANCH  12  50
BRANCH  15  54
ATOM     54  C   LIG d   1       8.642  -6.802  -6.480  0.00  0.00    -0.052 C 
ATOM     55  H   LIG d   1       8.241  -6.448  -7.429  0.00  0.00     0.024 H 
ATOM     56  H   LIG d   1       9.585  -6.297  -6.271  0.00  0.00     0.024 H 
ATOM     57  H   LIG d   1       8.811  -7.878  -6.536  0.00  0.00     0.024 H 
ENDBRANCH  15  54
BRANCH  22  58
ATOM     58  O   LIG d   1       4.269  -8.094  -5.791  0.00  0.00    -0.503 OA
ATOM     59  H   LIG d   1       3.777  -8.081  -6.624  0.00  0.00     0.292 HD
ENDBRANCH  22  58
BRANCH  20  60
ATOM     60  C   LIG d   1       5.850  -9.415  -3.921  0.00  0.00    -0.049 C 
ATOM     61  H   LIG d   1       6.205 -10.360  -3.510  0.00  0.00     0.024 H 
ATOM     62  H   LIG d   1       5.811  -8.666  -3.131  0.00  0.00     0.024 H 
ATOM     63  H   LIG d   1       4.853  -9.552  -4.340  0.00  0.00     0.024 H 
ENDBRANCH  20  60
BRANCH  20  64
ATOM     64  C   LIG d   1       6.679  -9.856  -6.242  0.00  0.00    -0.049 C 
ATOM     65  H   LIG d   1       6.620 -10.895  -5.915  0.00  0.00     0.024 H 
ATOM     66  H   LIG d   1       5.777  -9.597  -6.796  0.00  0.00     0.024 H 
ATOM     67  H   LIG d   1       7.550  -9.727  -6.885  0.00  0.00     0.024 H 
ENDBRANCH  20  64
TORSDOF 10
ENDMDL
MODEL 8
REMARK VINA RESULT:      -5.5      4.020      7.340
REMARK  10 active torsions:
REMARK  status: ('A' for Active; 'I' for Inactive)
REMARK    1  A    between atoms: C_1  and  C_2 
REMARK    2  A    between atoms: C_2  and  O_4 
REMARK    3  A    between atoms: O_4  and  C_5 
REMARK    4  A    between atoms: C_8  and  C_39 
REMARK    5  A    between atoms: C_9  and  C_34 
REMARK    6  A    between atoms: C_16  and  C_33 
REMARK    7  A    between atoms: C_19  and  C_32 
REMARK    8  A    between atoms: C_24  and  C_30 
REMARK    9  A    between atoms: C_24  and  C_31 
REMARK   10  A    between atoms: C_26  and  O_29 
ROOT
ATOM      1  C   LIG d   1       4.440  -0.495  -8.852  0.00  0.00     0.108 C 
ATOM      2  H   LIG d   1       5.500  -0.317  -9.055  0.00  0.00     0.074 H 
ATOM      3  C   LIG d   1       3.804  -1.065 -10.126  0.00  0.00    -0.007 C 
ATOM      4  C   LIG d   1       3.608  -2.564 -10.060  0.00  0.00     0.011 C 
ATOM      5  C   LIG d   1       3.708  -3.229 -11.463  0.00  0.00    -0.002 C 
ATOM      6  H   LIG d   1       4.566  -2.848 -12.007  0.00  0.00     0.036 H 
ATOM      7  C   LIG d   1       3.900  -4.723 -11.064  0.00  0.00    -0.016 C 
ATOM      8  C   LIG d   1       4.907  -4.629  -9.878  0.00  0.00     0.090 A 
ATOM      9  H   LIG d   1       5.087  -5.508  -9.272  0.00  0.00     0.063 H 
ATOM     10  C   LIG d   1       4.780  -3.226  -9.313  0.00  0.00     0.115 A 
ATOM     11  O   LIG d   1       5.927  -3.643 -10.086  0.00  0.00    -0.363 OA
ATOM     12  C   LIG d   1       5.126  -2.704  -7.929  0.00  0.00     0.073 C 
ATOM     13  C   LIG d   1       4.296  -1.443  -7.674  0.00  0.00     0.024 C 
ATOM     14  H   LIG d   1       3.226  -1.745  -7.633  0.00  0.00     0.036 H 
ATOM     15  C   LIG d   1       4.540  -0.825  -6.312  0.00  0.00     0.019 C 
ATOM     16  C   LIG d   1       3.374   0.104  -6.002  0.00  0.00    -0.070 C 
ATOM     17  C   LIG d   1       3.226   0.554  -4.753  0.00  0.00    -0.021 C 
ATOM     18  C   LIG d   1       4.164   0.075  -3.731  0.00  0.00     0.166 C 
ATOM     19  O   LIG d   1       4.605   0.788  -2.861  0.00  0.00    -0.292 OA
ATOM     20  C   LIG d   1       4.512  -1.404  -3.773  0.00  0.00     0.053 C 
ATOM     21  C   LIG d   1       4.604  -1.861  -5.213  0.00  0.00    -0.002 C 
ATOM     22  C   LIG d   1       4.709  -3.168  -5.469  0.00  0.00     0.161 C 
ATOM     23  C   LIG d   1       4.761  -3.691  -6.847  0.00  0.00     0.206 C 
ATOM     24  O   LIG d   1       4.524  -4.855  -7.086  0.00  0.00    -0.288 OA
ATOM     25  H   LIG d   1       2.834  -0.577 -10.279  0.00  0.00     0.031 H 
ATOM     26  H   LIG d   1       4.444  -0.816 -10.980  0.00  0.00     0.031 H 
ATOM     27  H   LIG d   1       2.969  -5.183 -10.754  0.00  0.00     0.030 H 
ATOM     28  H   LIG d   1       4.346  -5.280 -11.891  0.00  0.00     0.030 H 
ATOM     29  H   LIG d   1       2.672   0.372  -6.771  0.00  0.00     0.058 H 
ATOM     30  H   LIG d   1       2.434   1.252  -4.503  0.00  0.00     0.065 H 
ENDROOT
BRANCH   5  31
ATOM     31  C   LIG d   1       2.427  -3.033 -12.233  0.00  0.00    -0.006 A 
ATOM     32  C   LIG d   1       2.040  -1.916 -12.873  0.00  0.00     0.095 A 
ATOM     33  O   LIG d   1       0.843  -2.143 -13.437  0.00  0.00    -0.471 OA
ATOM     34  H   LIG d   1       2.599  -0.993 -12.928  0.00  0.00     0.103 H 
ATOM     35  C   LIG d   1       0.448  -3.395 -13.159  0.00  0.00     0.092 A 
ATOM     36  C   LIG d   1       1.398  -3.986 -12.413  0.00  0.00    -0.021 A 
ATOM     37  H   LIG d   1      -0.478  -3.852 -13.479  0.00  0.00     0.103 H 
ATOM     38  H   LIG d   1       1.381  -4.995 -12.029  0.00  0.00     0.065 H 
ENDBRANCH   5  31
BRANCH   4  39
ATOM     39  C   LIG d   1       2.241  -2.934  -9.470  0.00  0.00    -0.056 C 
ATOM     40  H   LIG d   1       1.958  -3.932  -9.809  0.00  0.00     0.024 H 
ATOM     41  H   LIG d   1       2.300  -2.924  -8.381  0.00  0.00     0.024 H 
ATOM     42  H   LIG d   1       1.495  -2.213  -9.801  0.00  0.00     0.024 H 
ENDBRANCH   4  39
BRANCH   1  43
ATOM     43  O   LIG d   1       3.826   0.763  -8.569  0.00  0.00    -0.461 OA
BRANCH  43  44
ATOM     44  C   LIG d   1       4.293   1.832  -9.233  0.00  0.00     0.304 C 
ATOM     45  O   LIG d   1       3.541   2.503  -9.899  0.00  0.00    -0.251 OA
BRANCH  44  46
ATOM     46  C   LIG d   1       5.753   2.194  -9.148  0.00  0.00     0.033 C 
ATOM     47  H   LIG d   1       6.358   1.294  -9.264  0.00  0.00     0.034 H 
ATOM     48  H   LIG d   1       5.999   2.902  -9.940  0.00  0.00     0.034 H 
ATOM     49  H   LIG d   1       5.958   2.648  -8.179  0.00  0.00     0.034 H 
ENDBRANCH  44  46
ENDBRANCH  43  44
ENDBRANCH   1  43
BRANCH  12  50
ATOM     50  C   LIG d   1       6.644  -2.456  -7.895  0.00  0.00    -0.049 C 
ATOM     51  H   LIG d   1       7.083  -2.752  -8.848  0.00  0.00     0.024 H 
ATOM     52  H   LIG d   1       6.836  -1.397  -7.720  0.00  0.00     0.024 H 
ATOM     53  H   LIG d   1       7.089  -3.043  -7.092  0.00  0.00     0.024 H 
ENDBRANCH  12  50
BRANCH  15  54
ATOM     54  C   LIG d   1       5.806   0.028  -6.294  0.00  0.00    -0.052 C 
ATOM     55  H   LIG d   1       6.335  -0.086  -7.239  0.00  0.00     0.024 H 
ATOM     56  H   LIG d   1       5.537   1.075  -6.151  0.00  0.00     0.024 H 
ATOM     57  H   LIG d   1       6.450  -0.296  -5.476  0.00  0.00     0.024 H 
ENDBRANCH  15  54
BRANCH  22  58
ATOM     58  O   LIG d   1       4.808  -4.086  -4.465  0.00  0.00    -0.503 OA
ATOM     59  H   LIG d   1       3.955  -4.395  -4.129  0.00  0.00     0.292 HD
ENDBRANCH  22  58
BRANCH  20  60
ATOM     60  C   LIG d   1       3.395  -2.157  -3.041  0.00  0.00    -0.049 C 
ATOM     61  H   LIG d   1       3.571  -2.112  -1.966  0.00  0.00     0.024 H 
ATOM     62  H   LIG d   1       2.435  -1.696  -3.273  0.00  0.00     0.024 H 
ATOM     63  H   LIG d   1       3.386  -3.197  -3.366  0.00  0.00     0.024 H 
ENDBRANCH  20  60
BRANCH  20  64
ATOM     64  C   LIG d   1       5.842  -1.625  -3.053  0.00  0.00    -0.049 C 
ATOM     65  H   LIG d   1       5.668  -2.178  -2.130  0.00  0.00     0.024 H 
ATOM     66  H   LIG d   1       6.513  -2.193  -3.697  0.00  0.00     0.024 H 
ATOM     67  H   LIG d   1       6.293  -0.660  -2.819  0.00  0.00     0.024 H 
ENDBRANCH  20  64
TORSDOF 10
ENDMDL
MODEL 9
REMARK VINA RESULT:      -5.4      9.993     13.526
REMARK  10 active torsions:
REMARK  status: ('A' for Active; 'I' for Inactive)
REMARK    1  A    between atoms: C_1  and  C_2 
REMARK    2  A    between atoms: C_2  and  O_4 
REMARK    3  A    between atoms: O_4  and  C_5 
REMARK    4  A    between atoms: C_8  and  C_39 
REMARK    5  A    between atoms: C_9  and  C_34 
REMARK    6  A    between atoms: C_16  and  C_33 
REMARK    7  A    between atoms: C_19  and  C_32 
REMARK    8  A    between atoms: C_24  and  C_30 
REMARK    9  A    between atoms: C_24  and  C_31 
REMARK   10  A    between atoms: C_26  and  O_29 
ROOT
ATOM      1  C   LIG d   1       9.899   9.732  -3.087  0.00  0.00     0.108 C 
ATOM      2  H   LIG d   1       8.880   9.338  -3.135  0.00  0.00     0.074 H 
ATOM      3  C   LIG d   1      10.213  10.056  -1.621  0.00  0.00    -0.007 C 
ATOM      4  C   LIG d   1      11.071   8.998  -0.962  0.00  0.00     0.011 C 
ATOM      5  C   LIG d   1      10.780   8.875   0.562  0.00  0.00    -0.002 C 
ATOM      6  H   LIG d   1       9.711   8.857   0.748  0.00  0.00     0.036 H 
ATOM      7  C   LIG d   1      11.440   7.498   0.875  0.00  0.00    -0.016 C 
ATOM      8  C   LIG d   1      11.005   6.631  -0.345  0.00  0.00     0.090 A 
ATOM      9  H   LIG d   1      11.473   5.666  -0.496  0.00  0.00     0.063 H 
ATOM     10  C   LIG d   1      10.683   7.597  -1.470  0.00  0.00     0.115 A 
ATOM     11  O   LIG d   1       9.653   6.878  -0.755  0.00  0.00    -0.363 OA
ATOM     12  C   LIG d   1      10.667   7.367  -2.971  0.00  0.00     0.073 C 
ATOM     13  C   LIG d   1      10.870   8.717  -3.664  0.00  0.00     0.024 C 
ATOM     14  H   LIG d   1      11.893   9.073  -3.416  0.00  0.00     0.036 H 
ATOM     15  C   LIG d   1      10.886   8.623  -5.176  0.00  0.00     0.019 C 
ATOM     16  C   LIG d   1      11.532   9.890  -5.719  0.00  0.00    -0.070 C 
ATOM     17  C   LIG d   1      11.904   9.925  -7.001  0.00  0.00    -0.021 C 
ATOM     18  C   LIG d   1      11.724   8.708  -7.804  0.00  0.00     0.166 C 
ATOM     19  O   LIG d   1      11.359   8.732  -8.955  0.00  0.00    -0.292 OA
ATOM     20  C   LIG d   1      12.089   7.395  -7.133  0.00  0.00     0.053 C 
ATOM     21  C   LIG d   1      11.698   7.448  -5.672  0.00  0.00    -0.002 C 
ATOM     22  C   LIG d   1      12.107   6.470  -4.859  0.00  0.00     0.161 C 
ATOM     23  C   LIG d   1      11.800   6.474  -3.416  0.00  0.00     0.206 C 
ATOM     24  O   LIG d   1      12.431   5.793  -2.638  0.00  0.00    -0.288 OA
ATOM     25  H   LIG d   1      10.730  11.021  -1.580  0.00  0.00     0.031 H 
ATOM     26  H   LIG d   1       9.269  10.156  -1.073  0.00  0.00     0.031 H 
ATOM     27  H   LIG d   1      12.519   7.572   0.940  0.00  0.00     0.030 H 
ATOM     28  H   LIG d   1      11.026   7.083   1.796  0.00  0.00     0.030 H 
ATOM     29  H   LIG d   1      11.707  10.733  -5.073  0.00  0.00     0.058 H 
ATOM     30  H   LIG d   1      12.327  10.824  -7.435  0.00  0.00     0.065 H 
ENDROOT
BRANCH   5  31
ATOM     31  C   LIG d   1      11.459   9.987   1.320  0.00  0.00    -0.006 A 
ATOM     32  C   LIG d   1      11.177  11.300   1.240  0.00  0.00     0.095 A 
ATOM     33  O   LIG d   1      11.999  11.961   2.071  0.00  0.00    -0.471 OA
ATOM     34  H   LIG d   1      10.416  11.746   0.616  0.00  0.00     0.103 H 
ATOM     35  C   LIG d   1      12.816  11.088   2.681  0.00  0.00     0.092 A 
ATOM     36  C   LIG d   1      12.518   9.851   2.246  0.00  0.00    -0.021 A 
ATOM     37  H   LIG d   1      13.584  11.337   3.399  0.00  0.00     0.103 H 
ATOM     38  H   LIG d   1      12.995   8.930   2.548  0.00  0.00     0.065 H 
ENDBRANCH   5  31
BRANCH   4  39
ATOM     39  C   LIG d   1      12.567   9.295  -1.123  0.00  0.00    -0.056 C 
ATOM     40  H   LIG d   1      12.870   9.089  -2.150  0.00  0.00     0.024 H 
ATOM     41  H   LIG d   1      12.756  10.344  -0.893  0.00  0.00     0.024 H 
ATOM     42  H   LIG d   1      13.138   8.664  -0.443  0.00  0.00     0.024 H 
ENDBRANCH   4  39
BRANCH   1  43
ATOM     43  O   LIG d   1       9.937  10.950  -3.832  0.00  0.00    -0.461 OA
BRANCH  43  44
ATOM     44  C   LIG d   1       9.029  11.887  -3.515  0.00  0.00     0.304 C 
ATOM     45  O   LIG d   1       7.860  11.593  -3.443  0.00  0.00    -0.251 OA
BRANCH  44  46
ATOM     46  C   LIG d   1       9.469  13.304  -3.251  0.00  0.00     0.033 C 
ATOM     47  H   LIG d   1       9.380  13.889  -4.166  0.00  0.00     0.034 H 
ATOM     48  H   LIG d   1       8.837  13.742  -2.477  0.00  0.00     0.034 H 
ATOM     49  H   LIG d   1      10.506  13.306  -2.916  0.00  0.00     0.034 H 
ENDBRANCH  44  46
ENDBRANCH  43  44
ENDBRANCH   1  43
BRANCH  12  50
ATOM     50  C   LIG d   1       9.328   6.693  -3.321  0.00  0.00    -0.049 C 
ATOM     51  H   LIG d   1       9.511   5.677  -3.670  0.00  0.00     0.024 H 
ATOM     52  H   LIG d   1       8.693   6.664  -2.436  0.00  0.00     0.024 H 
ATOM     53  H   LIG d   1       8.830   7.263  -4.106  0.00  0.00     0.024 H 
ENDBRANCH  12  50
BRANCH  15  54
ATOM     54  C   LIG d   1       9.475   8.559  -5.757  0.00  0.00    -0.052 C 
ATOM     55  H   LIG d   1       8.843   7.952  -5.110  0.00  0.00     0.024 H 
ATOM     56  H   LIG d   1       9.064   9.567  -5.826  0.00  0.00     0.024 H 
ATOM     57  H   LIG d   1       9.512   8.113  -6.752  0.00  0.00     0.024 H 
ENDBRANCH  15  54
BRANCH  22  58
ATOM     58  O   LIG d   1      12.803   5.395  -5.329  0.00  0.00    -0.503 OA
ATOM     59  H   LIG d   1      13.742   5.404  -5.101  0.00  0.00     0.292 HD
ENDBRANCH  22  58
BRANCH  20  60
ATOM     60  C   LIG d   1      13.604   7.215  -7.276  0.00  0.00    -0.049 C 
ATOM     61  H   LIG d   1      13.989   6.667  -6.416  0.00  0.00     0.024 H 
ATOM     62  H   LIG d   1      13.819   6.658  -8.188  0.00  0.00     0.024 H 
ATOM     63  H   LIG d   1      14.083   8.193  -7.328  0.00  0.00     0.024 H 
ENDBRANCH  20  60
BRANCH  20  64
ATOM     64  C   LIG d   1      11.364   6.252  -7.842  0.00  0.00    -0.049 C 
ATOM     65  H   LIG d   1      10.452   6.007  -7.297  0.00  0.00     0.024 H 
ATOM     66  H   LIG d   1      11.110   6.558  -8.857  0.00  0.00     0.024 H 
ATOM     67  H   LIG d   1      12.013   5.377  -7.878  0.00  0.00     0.024 H 
ENDBRANCH  20  64
TORSDOF 10
ENDMDL
MODEL 10
REMARK VINA RESULT:      -5.4      9.037     11.839
REMARK  10 active torsions:
REMARK  status: ('A' for Active; 'I' for Inactive)
REMARK    1  A    between atoms: C_1  and  C_2 
REMARK    2  A    between atoms: C_2  and  O_4 
REMARK    3  A    between atoms: O_4  and  C_5 
REMARK    4  A    between atoms: C_8  and  C_39 
REMARK    5  A    between atoms: C_9  and  C_34 
REMARK    6  A    between atoms: C_16  and  C_33 
REMARK    7  A    between atoms: C_19  and  C_32 
REMARK    8  A    between atoms: C_24  and  C_30 
REMARK    9  A    between atoms: C_24  and  C_31 
REMARK   10  A    between atoms: C_26  and  O_29 
ROOT
ATOM      1  C   LIG d   1      11.467   7.864  -5.487  0.00  0.00     0.108 C 
ATOM      2  H   LIG d   1      12.528   7.897  -5.221  0.00  0.00     0.074 H 
ATOM      3  C   LIG d   1      11.050   6.391  -5.584  0.00  0.00    -0.007 C 
ATOM      4  C   LIG d   1      10.297   5.917  -4.360  0.00  0.00     0.011 C 
ATOM      5  C   LIG d   1      10.530   4.405  -4.079  0.00  0.00    -0.002 C 
ATOM      6  H   LIG d   1      11.584   4.158  -4.161  0.00  0.00     0.036 H 
ATOM      7  C   LIG d   1      10.029   4.300  -2.607  0.00  0.00    -0.016 C 
ATOM      8  C   LIG d   1      10.622   5.587  -1.957  0.00  0.00     0.090 A 
ATOM      9  H   LIG d   1      10.282   5.881  -0.972  0.00  0.00     0.063 H 
ATOM     10  C   LIG d   1      10.875   6.566  -3.089  0.00  0.00     0.115 A 
ATOM     11  O   LIG d   1      11.951   5.881  -2.408  0.00  0.00    -0.363 OA
ATOM     12  C   LIG d   1      10.988   8.080  -3.053  0.00  0.00     0.073 C 
ATOM     13  C   LIG d   1      10.655   8.617  -4.448  0.00  0.00     0.024 C 
ATOM     14  H   LIG d   1       9.585   8.391  -4.650  0.00  0.00     0.036 H 
ATOM     15  C   LIG d   1      10.720  10.127  -4.545  0.00  0.00     0.019 C 
ATOM     16  C   LIG d   1       9.950  10.552  -5.788  0.00  0.00    -0.070 C 
ATOM     17  C   LIG d   1       9.637  11.841  -5.942  0.00  0.00    -0.021 C 
ATOM     18  C   LIG d   1      10.000  12.772  -4.866  0.00  0.00     0.166 C 
ATOM     19  O   LIG d   1      10.412  13.887  -5.077  0.00  0.00    -0.292 OA
ATOM     20  C   LIG d   1       9.767  12.287  -3.445  0.00  0.00     0.053 C 
ATOM     21  C   LIG d   1      10.080  10.809  -3.356  0.00  0.00    -0.002 C 
ATOM     22  C   LIG d   1       9.756  10.146  -2.243  0.00  0.00     0.161 C 
ATOM     23  C   LIG d   1       9.994   8.698  -2.101  0.00  0.00     0.206 C 
ATOM     24  O   LIG d   1       9.415   8.046  -1.258  0.00  0.00    -0.288 OA
ATOM     25  H   LIG d   1      10.417   6.266  -6.471  0.00  0.00     0.031 H 
ATOM     26  H   LIG d   1      11.947   5.780  -5.722  0.00  0.00     0.031 H 
ATOM     27  H   LIG d   1       8.947   4.292  -2.547  0.00  0.00     0.030 H 
ATOM     28  H   LIG d   1      10.447   3.412  -2.129  0.00  0.00     0.030 H 
ATOM     29  H   LIG d   1       9.645   9.821  -6.516  0.00  0.00     0.058 H 
ATOM     30  H   LIG d   1       9.128  12.189  -6.834  0.00  0.00     0.065 H 
ENDROOT
BRANCH   5  31
ATOM     31  C   LIG d   1       9.687   3.561  -5.001  0.00  0.00    -0.006 A 
ATOM     32  C   LIG d   1       8.606   2.837  -4.659  0.00  0.00     0.095 A 
ATOM     33  O   LIG d   1       8.135   2.232  -5.761  0.00  0.00    -0.471 OA
ATOM     34  H   LIG d   1       8.185   2.759  -3.667  0.00  0.00     0.103 H 
ATOM     35  C   LIG d   1       8.909   2.550  -6.812  0.00  0.00     0.092 A 
ATOM     36  C   LIG d   1       9.885   3.373  -6.388  0.00  0.00    -0.021 A 
ATOM     37  H   LIG d   1       8.771   2.205  -7.826  0.00  0.00     0.103 H 
ATOM     38  H   LIG d   1      10.667   3.809  -6.991  0.00  0.00     0.065 H 
ENDBRANCH   5  31
BRANCH   4  39
ATOM     39  C   LIG d   1       8.785   6.133  -4.501  0.00  0.00    -0.056 C 
ATOM     40  H   LIG d   1       8.587   6.765  -5.368  0.00  0.00     0.024 H 
ATOM     41  H   LIG d   1       8.291   5.169  -4.635  0.00  0.00     0.024 H 
ATOM     42  H   LIG d   1       8.401   6.617  -3.604  0.00  0.00     0.024 H 
ENDBRANCH   4  39
BRANCH   1  43
ATOM     43  O   LIG d   1      11.316   8.458  -6.777  0.00  0.00    -0.461 OA
BRANCH  43  44
ATOM     44  C   LIG d   1      12.294   8.235  -7.669  0.00  0.00     0.304 C 
ATOM     45  O   LIG d   1      12.017   7.897  -8.795  0.00  0.00    -0.251 OA
BRANCH  44  46
ATOM     46  C   LIG d   1      13.736   8.408  -7.266  0.00  0.00     0.033 C 
ATOM     47  H   LIG d   1      14.114   9.350  -7.665  0.00  0.00     0.034 H 
ATOM     48  H   LIG d   1      13.810   8.419  -6.179  0.00  0.00     0.034 H 
ATOM     49  H   LIG d   1      14.325   7.582  -7.663  0.00  0.00     0.034 H 
ENDBRANCH  44  46
ENDBRANCH  43  44
ENDBRANCH   1  43
BRANCH  12  50
ATOM     50  C   LIG d   1      12.414   8.427  -2.588  0.00  0.00    -0.049 C 
ATOM     51  H   LIG d   1      12.980   7.508  -2.433  0.00  0.00     0.024 H 
ATOM     52  H   LIG d   1      12.907   9.033  -3.347  0.00  0.00     0.024 H 
ATOM     53  H   LIG d   1      12.364   8.985  -1.653  0.00  0.00     0.024 H 
ENDBRANCH  12  50
BRANCH  15  54
ATOM     54  C   LIG d   1      12.153  10.625  -4.718  0.00  0.00    -0.052 C 
ATOM     55  H   LIG d   1      12.844   9.790  -4.602  0.00  0.00     0.024 H 
ATOM     56  H   LIG d   1      12.270  11.059  -5.711  0.00  0.00     0.024 H 
ATOM     57  H   LIG d   1      12.368  11.382  -3.963  0.00  0.00     0.024 H 
ENDBRANCH  15  54
BRANCH  22  58
ATOM     58  O   LIG d   1       9.219  10.784  -1.164  0.00  0.00    -0.503 OA
ATOM     59  H   LIG d   1       8.392  10.395  -0.849  0.00  0.00     0.292 HD
ENDBRANCH  22  58
BRANCH  20  60
ATOM     60  C   LIG d   1       8.293  12.543  -3.112  0.00  0.00    -0.049 C 
ATOM     61  H   LIG d   1       7.838  11.623  -2.744  0.00  0.00     0.024 H 
ATOM     62  H   LIG d   1       8.223  13.315  -2.346  0.00  0.00     0.024 H 
ATOM     63  H   LIG d   1       7.769  12.874  -4.009  0.00  0.00     0.024 H 
ENDBRANCH  20  60
BRANCH  20  64
ATOM     64  C   LIG d   1      10.657  13.083  -2.492  0.00  0.00    -0.049 C 
ATOM     65  H   LIG d   1      10.880  14.056  -2.930  0.00  0.00     0.024 H 
ATOM     66  H   LIG d   1      10.141  13.221  -1.542  0.00  0.00     0.024 H 
ATOM     67  H   LIG d   1      11.588  12.539  -2.324  0.00  0.00     0.024 H 
ENDBRANCH  20  64
TORSDOF 10
ENDMDL
