MODEL 1
REMARK VINA RESULT:      -6.4      0.000      0.000
REMARK  7 active torsions:
REMARK  status: ('A' for Active; 'I' for Inactive)
REMARK    1  A    between atoms: C_1  and  O_2 
REMARK    2  A    between atoms: O_2  and  C_3 
REMARK    3  A    between atoms: C_6  and  C_11 
REMARK    4  A    between atoms: C_8  and  O_9 
REMARK    5  A    between atoms: O_9  and  C_10 
REMARK    6  A    between atoms: N_23  and  C_26 
REMARK    7  A    between atoms: C_26  and  C_27 
ROOT
ATOM      1  C   LIG d   1      10.134   3.727  -3.542  0.00  0.00     0.064 A 
ATOM      2  C   LIG d   1       9.493   2.611  -3.117  0.00  0.00     0.104 A 
ATOM      3  O   LIG d   1       8.825   1.789  -3.922  0.00  0.00    -0.462 OA
ATOM      4  C   LIG d   1       8.733   2.008  -5.246  0.00  0.00     0.146 A 
ATOM      5  C   LIG d   1       9.344   3.124  -5.841  0.00  0.00     0.065 A 
ATOM      6  C   LIG d   1      10.092   4.057  -4.979  0.00  0.00     0.200 A 
ATOM      7  O   LIG d   1      10.648   5.045  -5.428  0.00  0.00    -0.286 OA
ATOM      8  C   LIG d   1       9.240   3.339  -7.216  0.00  0.00    -0.044 A 
ATOM      9  C   LIG d   1       8.540   2.459  -7.988  0.00  0.00    -0.019 A 
ATOM     10  C   LIG d   1       7.927   1.345  -7.411  0.00  0.00     0.130 A 
ATOM     11  C   LIG d   1       8.023   1.119  -6.050  0.00  0.00     0.051 A 
ATOM     12  C   LIG d   1       7.368  -0.081  -5.415  0.00  0.00     0.034 C 
ATOM     13  N   LIG d   1       6.359  -0.633  -6.331  0.00  0.00    -0.261 N 
ATOM     14  C   LIG d   1       6.934  -0.801  -7.676  0.00  0.00     0.144 C 
ATOM     15  O   LIG d   1       7.233   0.490  -8.213  0.00  0.00    -0.476 OA
ATOM     16  H   LIG d   1       9.527   2.375  -2.063  0.00  0.00     0.104 H 
ATOM     17  H   LIG d   1       9.712   4.199  -7.667  0.00  0.00     0.063 H 
ATOM     18  H   LIG d   1       8.460   2.624  -9.052  0.00  0.00     0.065 H 
ATOM     19  H   LIG d   1       8.129  -0.846  -5.207  0.00  0.00     0.048 H 
ATOM     20  H   LIG d   1       6.882   0.220  -4.476  0.00  0.00     0.048 H 
ATOM     21  H   LIG d   1       7.854  -1.400  -7.609  0.00  0.00     0.087 H 
ATOM     22  H   LIG d   1       6.208  -1.316  -8.323  0.00  0.00     0.087 H 
ENDROOT
BRANCH   1  23
ATOM     23  C   LIG d   1      10.861   4.597  -2.586  0.00  0.00    -0.008 A 
ATOM     24  C   LIG d   1      12.248   4.510  -2.477  0.00  0.00    -0.050 A 
ATOM     25  C   LIG d   1      12.923   5.320  -1.587  0.00  0.00    -0.016 A 
ATOM     26  H   LIG d   1      12.794   3.808  -3.090  0.00  0.00     0.062 H 
ATOM     27  C   LIG d   1      12.225   6.221  -0.799  0.00  0.00     0.162 A 
ATOM     28  H   LIG d   1      13.997   5.251  -1.505  0.00  0.00     0.066 H 
ATOM     29  C   LIG d   1      10.839   6.312  -0.902  0.00  0.00     0.162 A 
ATOM     30  C   LIG d   1      10.158   5.507  -1.798  0.00  0.00    -0.008 A 
ATOM     31  H   LIG d   1       9.085   5.579  -1.883  0.00  0.00     0.066 H 
BRANCH  27  32
ATOM     32  O   LIG d   1      12.894   7.018   0.078  0.00  0.00    -0.491 OA
BRANCH  32  33
ATOM     33  C   LIG d   1      13.572   8.152  -0.467  0.00  0.00     0.079 C 
ATOM     34  H   LIG d   1      12.967   8.586  -1.276  0.00  0.00     0.066 H 
ATOM     35  H   LIG d   1      14.549   7.840  -0.865  0.00  0.00     0.066 H 
ATOM     36  H   LIG d   1      13.721   8.903   0.322  0.00  0.00     0.066 H 
ENDBRANCH  32  33
ENDBRANCH  27  32
BRANCH  29  37
ATOM     37  O   LIG d   1      10.156   7.197  -0.128  0.00  0.00    -0.491 OA
BRANCH  37  38
ATOM     38  C   LIG d   1       9.557   8.312  -0.791  0.00  0.00     0.079 C 
ATOM     39  H   LIG d   1       8.668   8.637  -0.233  0.00  0.00     0.066 H 
ATOM     40  H   LIG d   1       9.262   8.018  -1.810  0.00  0.00     0.066 H 
ATOM     41  H   LIG d   1      10.279   9.140  -0.844  0.00  0.00     0.066 H 
ENDBRANCH  37  38
ENDBRANCH  29  37
ENDBRANCH   1  23
BRANCH  13  42
ATOM     42  C   LIG d   1       5.827  -1.904  -5.823  0.00  0.00     0.034 C 
ATOM     43  H   LIG d   1       5.313  -2.438  -6.635  0.00  0.00     0.048 H 
ATOM     44  H   LIG d   1       6.654  -2.523  -5.443  0.00  0.00     0.048 H 
BRANCH  42  45
ATOM     45  C   LIG d   1       4.852  -1.631  -4.706  0.00  0.00     0.004 A 
ATOM     46  S   LIG d   1       3.655  -0.315  -4.555  0.00  0.00    -0.100 SA
ATOM     47  C   LIG d   1       2.975  -0.773  -2.970  0.00  0.00    -0.024 A 
ATOM     48  C   LIG d   1       3.694  -1.881  -2.666  0.00  0.00    -0.054 A 
ATOM     49  H   LIG d   1       2.194  -0.293  -2.400  0.00  0.00     0.069 H 
ATOM     50  C   LIG d   1       4.653  -2.324  -3.558  0.00  0.00    -0.050 A 
ATOM     51  H   LIG d   1       3.519  -2.413  -1.742  0.00  0.00     0.062 H 
ATOM     52  H   LIG d   1       5.236  -3.207  -3.343  0.00  0.00     0.063 H 
ENDBRANCH  42  45
ENDBRANCH  13  42
TORSDOF 7
ENDMDL
MODEL 2
REMARK VINA RESULT:      -6.2      2.192      3.011
REMARK  7 active torsions:
REMARK  status: ('A' for Active; 'I' for Inactive)
REMARK    1  A    between atoms: C_1  and  O_2 
REMARK    2  A    between atoms: O_2  and  C_3 
REMARK    3  A    between atoms: C_6  and  C_11 
REMARK    4  A    between atoms: C_8  and  O_9 
REMARK    5  A    between atoms: O_9  and  C_10 
REMARK    6  A    between atoms: N_23  and  C_26 
REMARK    7  A    between atoms: C_26  and  C_27 
ROOT
ATOM      1  C   LIG d   1      10.557   6.534  -2.660  0.00  0.00     0.064 A 
ATOM      2  C   LIG d   1       9.995   5.482  -2.015  0.00  0.00     0.104 A 
ATOM      3  O   LIG d   1       9.531   4.399  -2.633  0.00  0.00    -0.462 OA
ATOM      4  C   LIG d   1       9.584   4.263  -3.970  0.00  0.00     0.146 A 
ATOM      5  C   LIG d   1      10.138   5.268  -4.780  0.00  0.00     0.065 A 
ATOM      6  C   LIG d   1      10.662   6.483  -4.130  0.00  0.00     0.200 A 
ATOM      7  O   LIG d   1      11.157   7.395  -4.771  0.00  0.00    -0.286 OA
ATOM      8  C   LIG d   1      10.186   5.114  -6.166  0.00  0.00    -0.044 A 
ATOM      9  C   LIG d   1       9.692   3.978  -6.739  0.00  0.00    -0.019 A 
ATOM     10  C   LIG d   1       9.138   2.971  -5.947  0.00  0.00     0.130 A 
ATOM     11  C   LIG d   1       9.085   3.110  -4.572  0.00  0.00     0.051 A 
ATOM     12  C   LIG d   1       8.492   2.028  -3.706  0.00  0.00     0.034 C 
ATOM     13  N   LIG d   1       7.676   1.128  -4.533  0.00  0.00    -0.261 N 
ATOM     14  C   LIG d   1       8.432   0.709  -5.725  0.00  0.00     0.144 C 
ATOM     15  O   LIG d   1       8.651   1.853  -6.554  0.00  0.00    -0.476 OA
ATOM     16  H   LIG d   1       9.921   5.525  -0.939  0.00  0.00     0.104 H 
ATOM     17  H   LIG d   1      10.613   5.890  -6.783  0.00  0.00     0.063 H 
ATOM     18  H   LIG d   1       9.730   3.858  -7.811  0.00  0.00     0.065 H 
ATOM     19  H   LIG d   1       9.301   1.455  -3.231  0.00  0.00     0.048 H 
ATOM     20  H   LIG d   1       7.861   2.484  -2.930  0.00  0.00     0.048 H 
ATOM     21  H   LIG d   1       9.397   0.282  -5.415  0.00  0.00     0.087 H 
ATOM     22  H   LIG d   1       7.856  -0.049  -6.277  0.00  0.00     0.087 H 
ENDROOT
BRANCH   1  23
ATOM     23  C   LIG d   1      11.055   7.709  -1.905  0.00  0.00    -0.008 A 
ATOM     24  C   LIG d   1      12.313   7.672  -1.305  0.00  0.00    -0.050 A 
ATOM     25  C   LIG d   1      12.775   8.767  -0.603  0.00  0.00    -0.016 A 
ATOM     26  H   LIG d   1      12.926   6.787  -1.390  0.00  0.00     0.062 H 
ATOM     27  C   LIG d   1      11.992   9.904  -0.491  0.00  0.00     0.162 A 
ATOM     28  H   LIG d   1      13.750   8.737  -0.139  0.00  0.00     0.066 H 
ATOM     29  C   LIG d   1      10.734   9.947  -1.088  0.00  0.00     0.162 A 
ATOM     30  C   LIG d   1      10.268   8.855  -1.798  0.00  0.00    -0.008 A 
ATOM     31  H   LIG d   1       9.296   8.888  -2.266  0.00  0.00     0.066 H 
BRANCH  27  32
ATOM     32  O   LIG d   1      12.451  10.981   0.201  0.00  0.00    -0.491 OA
BRANCH  32  33
ATOM     33  C   LIG d   1      12.329  10.936   1.625  0.00  0.00     0.079 C 
ATOM     34  H   LIG d   1      11.355  11.350   1.922  0.00  0.00     0.066 H 
ATOM     35  H   LIG d   1      13.135  11.529   2.081  0.00  0.00     0.066 H 
ATOM     36  H   LIG d   1      12.402   9.893   1.965  0.00  0.00     0.066 H 
ENDBRANCH  32  33
ENDBRANCH  27  32
BRANCH  29  37
ATOM     37  O   LIG d   1       9.967  11.064  -0.978  0.00  0.00    -0.491 OA
BRANCH  37  38
ATOM     38  C   LIG d   1       9.884  11.910  -2.127  0.00  0.00     0.079 C 
ATOM     39  H   LIG d   1      10.893  12.242  -2.411  0.00  0.00     0.066 H 
ATOM     40  H   LIG d   1       9.263  12.788  -1.892  0.00  0.00     0.066 H 
ATOM     41  H   LIG d   1       9.433  11.354  -2.961  0.00  0.00     0.066 H 
ENDBRANCH  37  38
ENDBRANCH  29  37
ENDBRANCH   1  23
BRANCH  13  42
ATOM     42  C   LIG d   1       7.228  -0.037  -3.757  0.00  0.00     0.034 C 
ATOM     43  H   LIG d   1       7.325  -0.945  -4.370  0.00  0.00     0.048 H 
ATOM     44  H   LIG d   1       7.847  -0.136  -2.854  0.00  0.00     0.048 H 
BRANCH  42  45
ATOM     45  C   LIG d   1       5.786   0.149  -3.359  0.00  0.00     0.004 A 
ATOM     46  S   LIG d   1       4.332  -0.676  -3.984  0.00  0.00    -0.100 SA
ATOM     47  C   LIG d   1       3.118   0.148  -2.968  0.00  0.00    -0.024 A 
ATOM     48  C   LIG d   1       3.890   0.983  -2.231  0.00  0.00    -0.054 A 
ATOM     49  H   LIG d   1       2.047   0.016  -2.946  0.00  0.00     0.069 H 
ATOM     50  C   LIG d   1       5.259   0.980  -2.427  0.00  0.00    -0.050 A 
ATOM     51  H   LIG d   1       3.444   1.640  -1.499  0.00  0.00     0.062 H 
ATOM     52  H   LIG d   1       5.897   1.632  -1.850  0.00  0.00     0.063 H 
ENDBRANCH  42  45
ENDBRANCH  13  42
TORSDOF 7
ENDMDL
MODEL 3
REMARK VINA RESULT:      -6.0      5.933      8.668
REMARK  7 active torsions:
REMARK  status: ('A' for Active; 'I' for Inactive)
REMARK    1  A    between atoms: C_1  and  O_2 
REMARK    2  A    between atoms: O_2  and  C_3 
REMARK    3  A    between atoms: C_6  and  C_11 
REMARK    4  A    between atoms: C_8  and  O_9 
REMARK    5  A    between atoms: O_9  and  C_10 
REMARK    6  A    between atoms: N_23  and  C_26 
REMARK    7  A    between atoms: C_26  and  C_27 
ROOT
ATOM      1  C   LIG d   1       4.639  -0.994  -7.043  0.00  0.00     0.064 A 
ATOM      2  C   LIG d   1       4.622  -2.339  -7.211  0.00  0.00     0.104 A 
ATOM      3  O   LIG d   1       3.857  -2.963  -8.103  0.00  0.00    -0.462 OA
ATOM      4  C   LIG d   1       3.025  -2.294  -8.922  0.00  0.00     0.146 A 
ATOM      5  C   LIG d   1       2.928  -0.894  -8.870  0.00  0.00     0.065 A 
ATOM      6  C   LIG d   1       3.761  -0.168  -7.894  0.00  0.00     0.200 A 
ATOM      7  O   LIG d   1       3.728   1.047  -7.795  0.00  0.00    -0.286 OA
ATOM      8  C   LIG d   1       2.061  -0.213  -9.725  0.00  0.00    -0.044 A 
ATOM      9  C   LIG d   1       1.302  -0.912 -10.618  0.00  0.00    -0.019 A 
ATOM     10  C   LIG d   1       1.388  -2.304 -10.681  0.00  0.00     0.130 A 
ATOM     11  C   LIG d   1       2.244  -2.992  -9.840  0.00  0.00     0.051 A 
ATOM     12  C   LIG d   1       2.348  -4.494  -9.901  0.00  0.00     0.034 C 
ATOM     13  N   LIG d   1       1.182  -5.040 -10.609  0.00  0.00    -0.261 N 
ATOM     14  C   LIG d   1       0.976  -4.320 -11.876  0.00  0.00     0.144 C 
ATOM     15  O   LIG d   1       0.613  -2.969 -11.583  0.00  0.00    -0.476 OA
ATOM     16  H   LIG d   1       5.267  -2.938  -6.586  0.00  0.00     0.104 H 
ATOM     17  H   LIG d   1       1.991   0.864  -9.680  0.00  0.00     0.063 H 
ATOM     18  H   LIG d   1       0.632  -0.385 -11.281  0.00  0.00     0.065 H 
ATOM     19  H   LIG d   1       3.266  -4.777 -10.436  0.00  0.00     0.048 H 
ATOM     20  H   LIG d   1       2.378  -4.901  -8.880  0.00  0.00     0.048 H 
ATOM     21  H   LIG d   1       1.906  -4.337 -12.464  0.00  0.00     0.087 H 
ATOM     22  H   LIG d   1       0.172  -4.807 -12.449  0.00  0.00     0.087 H 
ENDROOT
BRANCH   1  23
ATOM     23  C   LIG d   1       5.520  -0.366  -6.029  0.00  0.00    -0.008 A 
ATOM     24  C   LIG d   1       6.799   0.059  -6.382  0.00  0.00    -0.050 A 
ATOM     25  C   LIG d   1       7.618   0.644  -5.436  0.00  0.00    -0.016 A 
ATOM     26  H   LIG d   1       7.150  -0.068  -7.395  0.00  0.00     0.062 H 
ATOM     27  C   LIG d   1       7.171   0.809  -4.135  0.00  0.00     0.162 A 
ATOM     28  H   LIG d   1       8.608   0.973  -5.712  0.00  0.00     0.066 H 
ATOM     29  C   LIG d   1       5.893   0.385  -3.776  0.00  0.00     0.162 A 
ATOM     30  C   LIG d   1       5.067  -0.196  -4.722  0.00  0.00    -0.008 A 
ATOM     31  H   LIG d   1       4.075  -0.520  -4.447  0.00  0.00     0.066 H 
BRANCH  27  32
ATOM     32  O   LIG d   1       7.980   1.385  -3.206  0.00  0.00    -0.491 OA
BRANCH  32  33
ATOM     33  C   LIG d   1       8.961   2.308  -3.685  0.00  0.00     0.079 C 
ATOM     34  H   LIG d   1       9.886   1.765  -3.928  0.00  0.00     0.066 H 
ATOM     35  H   LIG d   1       9.169   3.059  -2.909  0.00  0.00     0.066 H 
ATOM     36  H   LIG d   1       8.583   2.808  -4.588  0.00  0.00     0.066 H 
ENDBRANCH  32  33
ENDBRANCH  27  32
BRANCH  29  37
ATOM     37  O   LIG d   1       5.457   0.548  -2.499  0.00  0.00    -0.491 OA
BRANCH  37  38
ATOM     38  C   LIG d   1       4.564  -0.444  -1.987  0.00  0.00     0.079 C 
ATOM     39  H   LIG d   1       5.048  -1.431  -2.032  0.00  0.00     0.066 H 
ATOM     40  H   LIG d   1       3.646  -0.458  -2.593  0.00  0.00     0.066 H 
ATOM     41  H   LIG d   1       4.311  -0.207  -0.944  0.00  0.00     0.066 H 
ENDBRANCH  37  38
ENDBRANCH  29  37
ENDBRANCH   1  23
BRANCH  13  42
ATOM     42  C   LIG d   1       1.336  -6.482 -10.842  0.00  0.00     0.034 C 
ATOM     43  H   LIG d   1       1.625  -6.656 -11.889  0.00  0.00     0.048 H 
ATOM     44  H   LIG d   1       2.115  -6.881 -10.176  0.00  0.00     0.048 H 
BRANCH  42  45
ATOM     45  C   LIG d   1       0.030  -7.180 -10.560  0.00  0.00     0.004 A 
ATOM     46  S   LIG d   1      -1.399  -6.577  -9.675  0.00  0.00    -0.100 SA
ATOM     47  C   LIG d   1      -2.426  -8.027  -9.834  0.00  0.00    -0.024 A 
ATOM     48  C   LIG d   1      -1.625  -8.861 -10.542  0.00  0.00    -0.054 A 
ATOM     49  H   LIG d   1      -3.426  -8.197  -9.465  0.00  0.00     0.069 H 
ATOM     50  C   LIG d   1      -0.368  -8.425 -10.918  0.00  0.00    -0.050 A 
ATOM     51  H   LIG d   1      -1.964  -9.851 -10.810  0.00  0.00     0.062 H 
ATOM     52  H   LIG d   1       0.288  -9.068 -11.486  0.00  0.00     0.063 H 
ENDBRANCH  42  45
ENDBRANCH  13  42
TORSDOF 7
ENDMDL
MODEL 4
REMARK VINA RESULT:      -5.9      5.177      8.159
REMARK  7 active torsions:
REMARK  status: ('A' for Active; 'I' for Inactive)
REMARK    1  A    between atoms: C_1  and  O_2 
REMARK    2  A    between atoms: O_2  and  C_3 
REMARK    3  A    between atoms: C_6  and  C_11 
REMARK    4  A    between atoms: C_8  and  O_9 
REMARK    5  A    between atoms: O_9  and  C_10 
REMARK    6  A    between atoms: N_23  and  C_26 
REMARK    7  A    between atoms: C_26  and  C_27 
ROOT
ATOM      1  C   LIG d   1       6.225  -2.443  -5.582  0.00  0.00     0.064 A 
ATOM      2  C   LIG d   1       6.690  -3.651  -5.181  0.00  0.00     0.104 A 
ATOM      3  O   LIG d   1       6.251  -4.811  -5.663  0.00  0.00    -0.462 OA
ATOM      4  C   LIG d   1       5.291  -4.874  -6.604  0.00  0.00     0.146 A 
ATOM      5  C   LIG d   1       4.706  -3.706  -7.122  0.00  0.00     0.065 A 
ATOM      6  C   LIG d   1       5.169  -2.403  -6.611  0.00  0.00     0.200 A 
ATOM      7  O   LIG d   1       4.706  -1.350  -7.017  0.00  0.00    -0.286 OA
ATOM      8  C   LIG d   1       3.711  -3.785  -8.097  0.00  0.00    -0.044 A 
ATOM      9  C   LIG d   1       3.303  -5.006  -8.551  0.00  0.00    -0.019 A 
ATOM     10  C   LIG d   1       3.875  -6.175  -8.045  0.00  0.00     0.130 A 
ATOM     11  C   LIG d   1       4.863  -6.111  -7.079  0.00  0.00     0.051 A 
ATOM     12  C   LIG d   1       5.490  -7.365  -6.527  0.00  0.00     0.034 C 
ATOM     13  N   LIG d   1       4.635  -8.520  -6.838  0.00  0.00    -0.261 N 
ATOM     14  C   LIG d   1       4.271  -8.511  -8.264  0.00  0.00     0.144 C 
ATOM     15  O   LIG d   1       3.440  -7.376  -8.519  0.00  0.00    -0.476 OA
ATOM     16  H   LIG d   1       7.464  -3.675  -4.427  0.00  0.00     0.104 H 
ATOM     17  H   LIG d   1       3.266  -2.885  -8.492  0.00  0.00     0.063 H 
ATOM     18  H   LIG d   1       2.534  -5.068  -9.306  0.00  0.00     0.065 H 
ATOM     19  H   LIG d   1       6.480  -7.511  -6.982  0.00  0.00     0.048 H 
ATOM     20  H   LIG d   1       5.596  -7.274  -5.437  0.00  0.00     0.048 H 
ATOM     21  H   LIG d   1       5.183  -8.451  -8.876  0.00  0.00     0.087 H 
ATOM     22  H   LIG d   1       3.726  -9.435  -8.510  0.00  0.00     0.087 H 
ENDROOT
BRANCH   1  23
ATOM     23  C   LIG d   1       6.764  -1.190  -5.000  0.00  0.00    -0.008 A 
ATOM     24  C   LIG d   1       8.018  -0.723  -5.389  0.00  0.00    -0.050 A 
ATOM     25  C   LIG d   1       8.519   0.444  -4.847  0.00  0.00    -0.016 A 
ATOM     26  H   LIG d   1       8.598  -1.273  -6.115  0.00  0.00     0.062 H 
ATOM     27  C   LIG d   1       7.777   1.153  -3.916  0.00  0.00     0.162 A 
ATOM     28  H   LIG d   1       9.490   0.805  -5.150  0.00  0.00     0.066 H 
ATOM     29  C   LIG d   1       6.523   0.691  -3.523  0.00  0.00     0.162 A 
ATOM     30  C   LIG d   1       6.015  -0.475  -4.068  0.00  0.00    -0.008 A 
ATOM     31  H   LIG d   1       5.041  -0.832  -3.768  0.00  0.00     0.066 H 
BRANCH  27  32
ATOM     32  O   LIG d   1       8.274   2.302  -3.384  0.00  0.00    -0.491 OA
BRANCH  32  33
ATOM     33  C   LIG d   1       9.694   2.460  -3.394  0.00  0.00     0.079 C 
ATOM     34  H   LIG d   1       9.950   3.491  -3.110  0.00  0.00     0.066 H 
ATOM     35  H   LIG d   1      10.079   2.252  -4.403  0.00  0.00     0.066 H 
ATOM     36  H   LIG d   1      10.146   1.760  -2.677  0.00  0.00     0.066 H 
ENDBRANCH  32  33
ENDBRANCH  27  32
BRANCH  29  37
ATOM     37  O   LIG d   1       5.798   1.388  -2.608  0.00  0.00    -0.491 OA
BRANCH  37  38
ATOM     38  C   LIG d   1       4.728   0.693  -1.963  0.00  0.00     0.079 C 
ATOM     39  H   LIG d   1       4.507  -0.232  -2.515  0.00  0.00     0.066 H 
ATOM     40  H   LIG d   1       3.833   1.332  -1.947  0.00  0.00     0.066 H 
ATOM     41  H   LIG d   1       5.021   0.445  -0.933  0.00  0.00     0.066 H 
ENDBRANCH  37  38
ENDBRANCH  29  37
ENDBRANCH   1  23
BRANCH  13  42
ATOM     42  C   LIG d   1       5.299  -9.779  -6.473  0.00  0.00     0.034 C 
ATOM     43  H   LIG d   1       4.811 -10.616  -6.992  0.00  0.00     0.048 H 
ATOM     44  H   LIG d   1       6.359  -9.733  -6.765  0.00  0.00     0.048 H 
BRANCH  42  45
ATOM     45  C   LIG d   1       5.199  -9.986  -4.983  0.00  0.00     0.004 A 
ATOM     46  S   LIG d   1       6.486  -9.913  -3.747  0.00  0.00    -0.100 SA
ATOM     47  C   LIG d   1       5.482 -10.272  -2.316  0.00  0.00    -0.024 A 
ATOM     48  C   LIG d   1       4.252 -10.420  -2.866  0.00  0.00    -0.054 A 
ATOM     49  H   LIG d   1       5.777 -10.350  -1.281  0.00  0.00     0.069 H 
ATOM     50  C   LIG d   1       4.106 -10.268  -4.232  0.00  0.00    -0.050 A 
ATOM     51  H   LIG d   1       3.398 -10.650  -2.246  0.00  0.00     0.062 H 
ATOM     52  H   LIG d   1       3.136 -10.376  -4.695  0.00  0.00     0.063 H 
ENDBRANCH  42  45
ENDBRANCH  13  42
TORSDOF 7
ENDMDL
MODEL 5
REMARK VINA RESULT:      -5.8     10.014     14.109
REMARK  7 active torsions:
REMARK  status: ('A' for Active; 'I' for Inactive)
REMARK    1  A    between atoms: C_1  and  O_2 
REMARK    2  A    between atoms: O_2  and  C_3 
REMARK    3  A    between atoms: C_6  and  C_11 
REMARK    4  A    between atoms: C_8  and  O_9 
REMARK    5  A    between atoms: O_9  and  C_10 
REMARK    6  A    between atoms: N_23  and  C_26 
REMARK    7  A    between atoms: C_26  and  C_27 
ROOT
ATOM      1  C   LIG d   1       5.742  -8.295  -5.136  0.00  0.00     0.064 A 
ATOM      2  C   LIG d   1       7.031  -7.990  -4.848  0.00  0.00     0.104 A 
ATOM      3  O   LIG d   1       7.718  -8.543  -3.852  0.00  0.00    -0.462 OA
ATOM      4  C   LIG d   1       7.174  -9.465  -3.037  0.00  0.00     0.146 A 
ATOM      5  C   LIG d   1       5.844  -9.887  -3.205  0.00  0.00     0.065 A 
ATOM      6  C   LIG d   1       5.053  -9.296  -4.299  0.00  0.00     0.200 A 
ATOM      7  O   LIG d   1       3.894  -9.616  -4.503  0.00  0.00    -0.286 OA
ATOM      8  C   LIG d   1       5.292 -10.844  -2.352  0.00  0.00    -0.044 A 
ATOM      9  C   LIG d   1       6.049 -11.374  -1.348  0.00  0.00    -0.019 A 
ATOM     10  C   LIG d   1       7.372 -10.963  -1.168  0.00  0.00     0.130 A 
ATOM     11  C   LIG d   1       7.932 -10.016  -2.007  0.00  0.00     0.051 A 
ATOM     12  C   LIG d   1       9.359  -9.568  -1.825  0.00  0.00     0.034 C 
ATOM     13  N   LIG d   1       9.825  -9.941  -0.482  0.00  0.00    -0.261 N 
ATOM     14  C   LIG d   1       9.516 -11.355  -0.213  0.00  0.00     0.144 C 
ATOM     15  O   LIG d   1       8.096 -11.511  -0.152  0.00  0.00    -0.476 OA
ATOM     16  H   LIG d   1       7.530  -7.257  -5.464  0.00  0.00     0.104 H 
ATOM     17  H   LIG d   1       4.270 -11.165  -2.487  0.00  0.00     0.063 H 
ATOM     18  H   LIG d   1       5.623 -12.114  -0.688  0.00  0.00     0.065 H 
ATOM     19  H   LIG d   1       9.994 -10.052  -2.580  0.00  0.00     0.048 H 
ATOM     20  H   LIG d   1       9.418  -8.476  -1.942  0.00  0.00     0.048 H 
ATOM     21  H   LIG d   1       9.926 -11.980  -1.020  0.00  0.00     0.087 H 
ATOM     22  H   LIG d   1       9.966 -11.653   0.746  0.00  0.00     0.087 H 
ENDROOT
BRANCH   1  23
ATOM     23  C   LIG d   1       5.040  -7.638  -6.265  0.00  0.00    -0.008 A 
ATOM     24  C   LIG d   1       4.704  -8.373  -7.401  0.00  0.00    -0.050 A 
ATOM     25  C   LIG d   1       4.051  -7.760  -8.451  0.00  0.00    -0.016 A 
ATOM     26  H   LIG d   1       4.956  -9.421  -7.460  0.00  0.00     0.062 H 
ATOM     27  C   LIG d   1       3.726  -6.415  -8.379  0.00  0.00     0.162 A 
ATOM     28  H   LIG d   1       3.791  -8.331  -9.330  0.00  0.00     0.066 H 
ATOM     29  C   LIG d   1       4.058  -5.676  -7.246  0.00  0.00     0.162 A 
ATOM     30  C   LIG d   1       4.709  -6.287  -6.189  0.00  0.00    -0.008 A 
ATOM     31  H   LIG d   1       4.963  -5.716  -5.308  0.00  0.00     0.066 H 
BRANCH  27  32
ATOM     32  O   LIG d   1       3.081  -5.815  -9.416  0.00  0.00    -0.491 OA
BRANCH  32  33
ATOM     33  C   LIG d   1       3.788  -5.728 -10.655  0.00  0.00     0.079 C 
ATOM     34  H   LIG d   1       3.135  -6.067 -11.473  0.00  0.00     0.066 H 
ATOM     35  H   LIG d   1       4.683  -6.366 -10.612  0.00  0.00     0.066 H 
ATOM     36  H   LIG d   1       4.087  -4.685 -10.833  0.00  0.00     0.066 H 
ENDBRANCH  32  33
ENDBRANCH  27  32
BRANCH  29  37
ATOM     37  O   LIG d   1       3.739  -4.356  -7.178  0.00  0.00    -0.491 OA
BRANCH  37  38
ATOM     38  C   LIG d   1       4.662  -3.500  -6.501  0.00  0.00     0.079 C 
ATOM     39  H   LIG d   1       4.860  -3.898  -5.495  0.00  0.00     0.066 H 
ATOM     40  H   LIG d   1       4.231  -2.490  -6.417  0.00  0.00     0.066 H 
ATOM     41  H   LIG d   1       5.602  -3.451  -7.068  0.00  0.00     0.066 H 
ENDBRANCH  37  38
ENDBRANCH  29  37
ENDBRANCH   1  23
BRANCH  13  42
ATOM     42  C   LIG d   1      11.263  -9.679  -0.333  0.00  0.00     0.034 C 
ATOM     43  H   LIG d   1      11.832 -10.563  -0.654  0.00  0.00     0.048 H 
ATOM     44  H   LIG d   1      11.545  -8.815  -0.953  0.00  0.00     0.048 H 
BRANCH  42  45
ATOM     45  C   LIG d   1      11.572  -9.380   1.112  0.00  0.00     0.004 A 
ATOM     46  S   LIG d   1      12.805 -10.115   2.174  0.00  0.00    -0.100 SA
ATOM     47  C   LIG d   1      12.457  -9.177   3.652  0.00  0.00    -0.024 A 
ATOM     48  C   LIG d   1      11.441  -8.378   3.244  0.00  0.00    -0.054 A 
ATOM     49  H   LIG d   1      12.932  -9.231   4.619  0.00  0.00     0.069 H 
ATOM     50  C   LIG d   1      10.991  -8.478   1.940  0.00  0.00    -0.050 A 
ATOM     51  H   LIG d   1      10.992  -7.671   3.925  0.00  0.00     0.062 H 
ATOM     52  H   LIG d   1      10.186  -7.850   1.588  0.00  0.00     0.063 H 
ENDBRANCH  42  45
ENDBRANCH  13  42
TORSDOF 7
ENDMDL
MODEL 6
REMARK VINA RESULT:      -5.8      4.380     10.992
REMARK  7 active torsions:
REMARK  status: ('A' for Active; 'I' for Inactive)
REMARK    1  A    between atoms: C_1  and  O_2 
REMARK    2  A    between atoms: O_2  and  C_3 
REMARK    3  A    between atoms: C_6  and  C_11 
REMARK    4  A    between atoms: C_8  and  O_9 
REMARK    5  A    between atoms: O_9  and  C_10 
REMARK    6  A    between atoms: N_23  and  C_26 
REMARK    7  A    between atoms: C_26  and  C_27 
ROOT
ATOM      1  C   LIG d   1       6.044  -3.892  -5.590  0.00  0.00     0.064 A 
ATOM      2  C   LIG d   1       7.145  -3.342  -6.158  0.00  0.00     0.104 A 
ATOM      3  O   LIG d   1       7.619  -2.140  -5.839  0.00  0.00    -0.462 OA
ATOM      4  C   LIG d   1       7.031  -1.365  -4.910  0.00  0.00     0.146 A 
ATOM      5  C   LIG d   1       5.879  -1.795  -4.231  0.00  0.00     0.065 A 
ATOM      6  C   LIG d   1       5.325  -3.121  -4.559  0.00  0.00     0.200 A 
ATOM      7  O   LIG d   1       4.328  -3.557  -4.007  0.00  0.00    -0.286 OA
ATOM      8  C   LIG d   1       5.279  -0.981  -3.269  0.00  0.00    -0.044 A 
ATOM      9  C   LIG d   1       5.815   0.242  -2.987  0.00  0.00    -0.019 A 
ATOM     10  C   LIG d   1       6.959   0.683  -3.655  0.00  0.00     0.130 A 
ATOM     11  C   LIG d   1       7.565  -0.114  -4.609  0.00  0.00     0.051 A 
ATOM     12  C   LIG d   1       8.802   0.349  -5.334  0.00  0.00     0.034 C 
ATOM     13  N   LIG d   1       8.947   1.804  -5.181  0.00  0.00    -0.261 N 
ATOM     14  C   LIG d   1       8.805   2.181  -3.765  0.00  0.00     0.144 C 
ATOM     15  O   LIG d   1       7.464   1.911  -3.350  0.00  0.00    -0.476 OA
ATOM     16  H   LIG d   1       7.667  -3.911  -6.913  0.00  0.00     0.104 H 
ATOM     17  H   LIG d   1       4.394  -1.317  -2.751  0.00  0.00     0.063 H 
ATOM     18  H   LIG d   1       5.352   0.872  -2.243  0.00  0.00     0.065 H 
ATOM     19  H   LIG d   1       9.684  -0.152  -4.911  0.00  0.00     0.048 H 
ATOM     20  H   LIG d   1       8.717   0.101  -6.402  0.00  0.00     0.048 H 
ATOM     21  H   LIG d   1       9.509   1.594  -3.157  0.00  0.00     0.087 H 
ATOM     22  H   LIG d   1       9.024   3.253  -3.647  0.00  0.00     0.087 H 
ENDROOT
BRANCH   1  23
ATOM     23  C   LIG d   1       5.573  -5.239  -5.995  0.00  0.00    -0.008 A 
ATOM     24  C   LIG d   1       6.056  -6.373  -5.345  0.00  0.00    -0.050 A 
ATOM     25  C   LIG d   1       5.617  -7.626  -5.723  0.00  0.00    -0.016 A 
ATOM     26  H   LIG d   1       6.775  -6.272  -4.545  0.00  0.00     0.062 H 
ATOM     27  C   LIG d   1       4.695  -7.760  -6.749  0.00  0.00     0.162 A 
ATOM     28  H   LIG d   1       5.992  -8.503  -5.218  0.00  0.00     0.066 H 
ATOM     29  C   LIG d   1       4.209  -6.630  -7.403  0.00  0.00     0.162 A 
ATOM     30  C   LIG d   1       4.641  -5.372  -7.023  0.00  0.00    -0.008 A 
ATOM     31  H   LIG d   1       4.262  -4.495  -7.526  0.00  0.00     0.066 H 
BRANCH  27  32
ATOM     32  O   LIG d   1       4.264  -8.996  -7.119  0.00  0.00    -0.491 OA
BRANCH  32  33
ATOM     33  C   LIG d   1       4.643 -10.091  -6.282  0.00  0.00     0.079 C 
ATOM     34  H   LIG d   1       3.997 -10.111  -5.391  0.00  0.00     0.066 H 
ATOM     35  H   LIG d   1       5.691  -9.970  -5.971  0.00  0.00     0.066 H 
ATOM     36  H   LIG d   1       4.530 -11.032  -6.837  0.00  0.00     0.066 H 
ENDBRANCH  32  33
ENDBRANCH  27  32
BRANCH  29  37
ATOM     37  O   LIG d   1       3.304  -6.764  -8.409  0.00  0.00    -0.491 OA
BRANCH  37  38
ATOM     38  C   LIG d   1       3.025  -5.599  -9.189  0.00  0.00     0.079 C 
ATOM     39  H   LIG d   1       3.808  -4.846  -9.016  0.00  0.00     0.066 H 
ATOM     40  H   LIG d   1       2.048  -5.186  -8.894  0.00  0.00     0.066 H 
ATOM     41  H   LIG d   1       3.003  -5.867 -10.255  0.00  0.00     0.066 H 
ENDBRANCH  37  38
ENDBRANCH  29  37
ENDBRANCH   1  23
BRANCH  13  42
ATOM     42  C   LIG d   1      10.232   2.264  -5.723  0.00  0.00     0.034 C 
ATOM     43  H   LIG d   1      10.933   2.452  -4.896  0.00  0.00     0.048 H 
ATOM     44  H   LIG d   1      10.648   1.493  -6.388  0.00  0.00     0.048 H 
BRANCH  42  45
ATOM     45  C   LIG d   1      10.022   3.538  -6.501  0.00  0.00     0.004 A 
ATOM     46  S   LIG d   1       9.530   3.747  -8.205  0.00  0.00    -0.100 SA
ATOM     47  C   LIG d   1       9.538   5.531  -8.253  0.00  0.00    -0.024 A 
ATOM     48  C   LIG d   1       9.908   5.844  -6.987  0.00  0.00    -0.054 A 
ATOM     49  H   LIG d   1       9.307   6.190  -9.076  0.00  0.00     0.069 H 
ATOM     50  C   LIG d   1      10.151   4.822  -6.087  0.00  0.00    -0.050 A 
ATOM     51  H   LIG d   1      10.008   6.875  -6.684  0.00  0.00     0.062 H 
ATOM     52  H   LIG d   1      10.443   5.044  -5.072  0.00  0.00     0.063 H 
ENDBRANCH  42  45
ENDBRANCH  13  42
TORSDOF 7
ENDMDL
MODEL 7
REMARK VINA RESULT:      -5.8      2.245      3.029
REMARK  7 active torsions:
REMARK  status: ('A' for Active; 'I' for Inactive)
REMARK    1  A    between atoms: C_1  and  O_2 
REMARK    2  A    between atoms: O_2  and  C_3 
REMARK    3  A    between atoms: C_6  and  C_11 
REMARK    4  A    between atoms: C_8  and  O_9 
REMARK    5  A    between atoms: O_9  and  C_10 
REMARK    6  A    between atoms: N_23  and  C_26 
REMARK    7  A    between atoms: C_26  and  C_27 
ROOT
ATOM      1  C   LIG d   1       9.315   3.136  -4.226  0.00  0.00     0.064 A 
ATOM      2  C   LIG d   1       8.171   2.539  -3.810  0.00  0.00     0.104 A 
ATOM      3  O   LIG d   1       7.873   1.265  -4.047  0.00  0.00    -0.462 OA
ATOM      4  C   LIG d   1       8.701   0.454  -4.732  0.00  0.00     0.146 A 
ATOM      5  C   LIG d   1       9.927   0.925  -5.230  0.00  0.00     0.065 A 
ATOM      6  C   LIG d   1      10.290   2.333  -4.986  0.00  0.00     0.200 A 
ATOM      7  O   LIG d   1      11.339   2.807  -5.388  0.00  0.00    -0.286 OA
ATOM      8  C   LIG d   1      10.777   0.074  -5.938  0.00  0.00    -0.044 A 
ATOM      9  C   LIG d   1      10.413  -1.225  -6.148  0.00  0.00    -0.019 A 
ATOM     10  C   LIG d   1       9.197  -1.706  -5.660  0.00  0.00     0.130 A 
ATOM     11  C   LIG d   1       8.346  -0.874  -4.955  0.00  0.00     0.051 A 
ATOM     12  C   LIG d   1       7.032  -1.382  -4.420  0.00  0.00     0.034 C 
ATOM     13  N   LIG d   1       6.675  -2.635  -5.101  0.00  0.00    -0.261 N 
ATOM     14  C   LIG d   1       7.820  -3.561  -5.091  0.00  0.00     0.144 C 
ATOM     15  O   LIG d   1       8.866  -3.007  -5.893  0.00  0.00    -0.476 OA
ATOM     16  H   LIG d   1       7.460   3.133  -3.254  0.00  0.00     0.104 H 
ATOM     17  H   LIG d   1      11.718   0.441  -6.318  0.00  0.00     0.063 H 
ATOM     18  H   LIG d   1      11.070  -1.884  -6.696  0.00  0.00     0.065 H 
ATOM     19  H   LIG d   1       7.123  -1.567  -3.340  0.00  0.00     0.048 H 
ATOM     20  H   LIG d   1       6.248  -0.633  -4.599  0.00  0.00     0.048 H 
ATOM     21  H   LIG d   1       8.173  -3.697  -4.058  0.00  0.00     0.087 H 
ATOM     22  H   LIG d   1       7.508  -4.533  -5.503  0.00  0.00     0.087 H 
ENDROOT
BRANCH   1  23
ATOM     23  C   LIG d   1       9.580   4.563  -3.922  0.00  0.00    -0.008 A 
ATOM     24  C   LIG d   1      10.139   4.925  -2.698  0.00  0.00    -0.050 A 
ATOM     25  C   LIG d   1      10.385   6.254  -2.417  0.00  0.00    -0.016 A 
ATOM     26  H   LIG d   1      10.378   4.166  -1.968  0.00  0.00     0.062 H 
ATOM     27  C   LIG d   1      10.079   7.231  -3.351  0.00  0.00     0.162 A 
ATOM     28  H   LIG d   1      10.818   6.533  -1.468  0.00  0.00     0.066 H 
ATOM     29  C   LIG d   1       9.521   6.875  -4.577  0.00  0.00     0.162 A 
ATOM     30  C   LIG d   1       9.277   5.544  -4.865  0.00  0.00    -0.008 A 
ATOM     31  H   LIG d   1       8.849   5.267  -5.816  0.00  0.00     0.066 H 
BRANCH  27  32
ATOM     32  O   LIG d   1      10.324   8.540  -3.071  0.00  0.00    -0.491 OA
BRANCH  32  33
ATOM     33  C   LIG d   1       9.919   9.014  -1.785  0.00  0.00     0.079 C 
ATOM     34  H   LIG d   1      10.625   8.652  -1.023  0.00  0.00     0.066 H 
ATOM     35  H   LIG d   1       8.910   8.640  -1.557  0.00  0.00     0.066 H 
ATOM     36  H   LIG d   1       9.914  10.113  -1.785  0.00  0.00     0.066 H 
ENDBRANCH  32  33
ENDBRANCH  27  32
BRANCH  29  37
ATOM     37  O   LIG d   1       9.222   7.836  -5.492  0.00  0.00    -0.491 OA
BRANCH  37  38
ATOM     38  C   LIG d   1       9.542   7.555  -6.856  0.00  0.00     0.079 C 
ATOM     39  H   LIG d   1      10.470   6.965  -6.900  0.00  0.00     0.066 H 
ATOM     40  H   LIG d   1       9.683   8.500  -7.402  0.00  0.00     0.066 H 
ATOM     41  H   LIG d   1       8.723   6.984  -7.315  0.00  0.00     0.066 H 
ENDBRANCH  37  38
ENDBRANCH  29  37
ENDBRANCH   1  23
BRANCH  13  42
ATOM     42  C   LIG d   1       5.494  -3.251  -4.483  0.00  0.00     0.034 C 
ATOM     43  H   LIG d   1       5.002  -3.913  -5.210  0.00  0.00     0.048 H 
ATOM     44  H   LIG d   1       5.802  -3.836  -3.604  0.00  0.00     0.048 H 
BRANCH  42  45
ATOM     45  C   LIG d   1       4.531  -2.173  -4.054  0.00  0.00     0.004 A 
ATOM     46  S   LIG d   1       3.892  -0.797  -4.995  0.00  0.00    -0.100 SA
ATOM     47  C   LIG d   1       2.860  -0.081  -3.727  0.00  0.00    -0.024 A 
ATOM     48  C   LIG d   1       3.067  -0.926  -2.688  0.00  0.00    -0.054 A 
ATOM     49  H   LIG d   1       2.234   0.797  -3.775  0.00  0.00     0.069 H 
ATOM     50  C   LIG d   1       3.920  -2.002  -2.857  0.00  0.00    -0.050 A 
ATOM     51  H   LIG d   1       2.572  -0.764  -1.742  0.00  0.00     0.062 H 
ATOM     52  H   LIG d   1       4.098  -2.692  -2.047  0.00  0.00     0.063 H 
ENDBRANCH  42  45
ENDBRANCH  13  42
TORSDOF 7
ENDMDL
MODEL 8
REMARK VINA RESULT:      -5.7      2.280      2.587
REMARK  7 active torsions:
REMARK  status: ('A' for Active; 'I' for Inactive)
REMARK    1  A    between atoms: C_1  and  O_2 
REMARK    2  A    between atoms: O_2  and  C_3 
REMARK    3  A    between atoms: C_6  and  C_11 
REMARK    4  A    between atoms: C_8  and  O_9 
REMARK    5  A    between atoms: O_9  and  C_10 
REMARK    6  A    between atoms: N_23  and  C_26 
REMARK    7  A    between atoms: C_26  and  C_27 
ROOT
ATOM      1  C   LIG d   1       9.846   4.272  -3.821  0.00  0.00     0.064 A 
ATOM      2  C   LIG d   1       9.158   3.104  -3.806  0.00  0.00     0.104 A 
ATOM      3  O   LIG d   1       8.723   2.488  -4.902  0.00  0.00    -0.462 OA
ATOM      4  C   LIG d   1       8.935   2.987  -6.133  0.00  0.00     0.146 A 
ATOM      5  C   LIG d   1       9.633   4.193  -6.315  0.00  0.00     0.065 A 
ATOM      6  C   LIG d   1      10.130   4.903  -5.123  0.00  0.00     0.200 A 
ATOM      7  O   LIG d   1      10.744   5.954  -5.208  0.00  0.00    -0.286 OA
ATOM      8  C   LIG d   1       9.846   4.700  -7.597  0.00  0.00    -0.044 A 
ATOM      9  C   LIG d   1       9.373   4.020  -8.682  0.00  0.00    -0.019 A 
ATOM     10  C   LIG d   1       8.677   2.821  -8.516  0.00  0.00     0.130 A 
ATOM     11  C   LIG d   1       8.460   2.307  -7.251  0.00  0.00     0.051 A 
ATOM     12  C   LIG d   1       7.713   1.011  -7.059  0.00  0.00     0.034 C 
ATOM     13  N   LIG d   1       6.964   0.690  -8.282  0.00  0.00    -0.261 N 
ATOM     14  C   LIG d   1       7.841   0.802  -9.458  0.00  0.00     0.144 C 
ATOM     15  O   LIG d   1       8.216   2.172  -9.622  0.00  0.00    -0.476 OA
ATOM     16  H   LIG d   1       8.953   2.646  -2.849  0.00  0.00     0.104 H 
ATOM     17  H   LIG d   1      10.383   5.627  -7.731  0.00  0.00     0.063 H 
ATOM     18  H   LIG d   1       9.538   4.412  -9.675  0.00  0.00     0.065 H 
ATOM     19  H   LIG d   1       8.428   0.204  -6.846  0.00  0.00     0.048 H 
ATOM     20  H   LIG d   1       7.013   1.113  -6.218  0.00  0.00     0.048 H 
ATOM     21  H   LIG d   1       8.739   0.185  -9.307  0.00  0.00     0.087 H 
ATOM     22  H   LIG d   1       7.303   0.453 -10.352  0.00  0.00     0.087 H 
ENDROOT
BRANCH   1  23
ATOM     23  C   LIG d   1      10.302   4.901  -2.558  0.00  0.00    -0.008 A 
ATOM     24  C   LIG d   1      11.336   4.323  -1.824  0.00  0.00    -0.050 A 
ATOM     25  C   LIG d   1      11.760   4.910  -0.648  0.00  0.00    -0.016 A 
ATOM     26  H   LIG d   1      11.807   3.417  -2.175  0.00  0.00     0.062 H 
ATOM     27  C   LIG d   1      11.159   6.073  -0.195  0.00  0.00     0.162 A 
ATOM     28  H   LIG d   1      12.562   4.461  -0.081  0.00  0.00     0.066 H 
ATOM     29  C   LIG d   1      10.125   6.655  -0.924  0.00  0.00     0.162 A 
ATOM     30  C   LIG d   1       9.700   6.074  -2.106  0.00  0.00    -0.008 A 
ATOM     31  H   LIG d   1       8.902   6.526  -2.675  0.00  0.00     0.066 H 
BRANCH  27  32
ATOM     32  O   LIG d   1      11.580   6.649   0.964  0.00  0.00    -0.491 OA
BRANCH  32  33
ATOM     33  C   LIG d   1      11.059   6.110   2.181  0.00  0.00     0.079 C 
ATOM     34  H   LIG d   1      10.323   6.809   2.605  0.00  0.00     0.066 H 
ATOM     35  H   LIG d   1      11.880   5.962   2.898  0.00  0.00     0.066 H 
ATOM     36  H   LIG d   1      10.572   5.146   1.975  0.00  0.00     0.066 H 
ENDBRANCH  32  33
ENDBRANCH  27  32
BRANCH  29  37
ATOM     37  O   LIG d   1       9.537   7.797  -0.477  0.00  0.00    -0.491 OA
BRANCH  37  38
ATOM     38  C   LIG d   1       9.467   8.892  -1.393  0.00  0.00     0.079 C 
ATOM     39  H   LIG d   1      10.270   8.797  -2.139  0.00  0.00     0.066 H 
ATOM     40  H   LIG d   1       9.588   9.838  -0.844  0.00  0.00     0.066 H 
ATOM     41  H   LIG d   1       8.492   8.885  -1.901  0.00  0.00     0.066 H 
ENDBRANCH  37  38
ENDBRANCH  29  37
ENDBRANCH   1  23
BRANCH  13  42
ATOM     42  C   LIG d   1       6.368  -0.651  -8.196  0.00  0.00     0.034 C 
ATOM     43  H   LIG d   1       6.756  -1.278  -9.011  0.00  0.00     0.048 H 
ATOM     44  H   LIG d   1       6.626  -1.106  -7.228  0.00  0.00     0.048 H 
BRANCH  42  45
ATOM     45  C   LIG d   1       4.869  -0.543  -8.315  0.00  0.00     0.004 A 
ATOM     46  S   LIG d   1       3.802  -1.102  -9.633  0.00  0.00    -0.100 SA
ATOM     47  C   LIG d   1       2.246  -0.571  -8.941  0.00  0.00    -0.024 A 
ATOM     48  C   LIG d   1       2.636  -0.013  -7.769  0.00  0.00    -0.054 A 
ATOM     49  H   LIG d   1       1.251  -0.669  -9.348  0.00  0.00     0.069 H 
ATOM     50  C   LIG d   1       3.980  -0.003  -7.445  0.00  0.00    -0.050 A 
ATOM     51  H   LIG d   1       1.908   0.415  -7.096  0.00  0.00     0.062 H 
ATOM     52  H   LIG d   1       4.318   0.431  -6.516  0.00  0.00     0.063 H 
ENDBRANCH  42  45
ENDBRANCH  13  42
TORSDOF 7
ENDMDL
MODEL 9
REMARK VINA RESULT:      -5.5      7.998     10.918
REMARK  7 active torsions:
REMARK  status: ('A' for Active; 'I' for Inactive)
REMARK    1  A    between atoms: C_1  and  O_2 
REMARK    2  A    between atoms: O_2  and  C_3 
REMARK    3  A    between atoms: C_6  and  C_11 
REMARK    4  A    between atoms: C_8  and  O_9 
REMARK    5  A    between atoms: O_9  and  C_10 
REMARK    6  A    between atoms: N_23  and  C_26 
REMARK    7  A    between atoms: C_26  and  C_27 
ROOT
ATOM      1  C   LIG d   1       5.724  -4.493  -5.679  0.00  0.00     0.064 A 
ATOM      2  C   LIG d   1       7.008  -4.684  -5.288  0.00  0.00     0.104 A 
ATOM      3  O   LIG d   1       7.527  -5.877  -5.010  0.00  0.00    -0.462 OA
ATOM      4  C   LIG d   1       6.802  -7.007  -5.097  0.00  0.00     0.146 A 
ATOM      5  C   LIG d   1       5.454  -6.975  -5.489  0.00  0.00     0.065 A 
ATOM      6  C   LIG d   1       4.845  -5.670  -5.804  0.00  0.00     0.200 A 
ATOM      7  O   LIG d   1       3.681  -5.569  -6.151  0.00  0.00    -0.286 OA
ATOM      8  C   LIG d   1       4.714  -8.155  -5.574  0.00  0.00    -0.044 A 
ATOM      9  C   LIG d   1       5.304  -9.349  -5.275  0.00  0.00    -0.019 A 
ATOM     10  C   LIG d   1       6.644  -9.396  -4.884  0.00  0.00     0.130 A 
ATOM     11  C   LIG d   1       7.389  -8.234  -4.796  0.00  0.00     0.051 A 
ATOM     12  C   LIG d   1       8.837  -8.272  -4.378  0.00  0.00     0.034 C 
ATOM     13  N   LIG d   1       9.127  -9.557  -3.725  0.00  0.00    -0.261 N 
ATOM     14  C   LIG d   1       8.626 -10.668  -4.550  0.00  0.00     0.144 C 
ATOM     15  O   LIG d   1       7.199 -10.604  -4.589  0.00  0.00    -0.476 OA
ATOM     16  H   LIG d   1       7.647  -3.818  -5.198  0.00  0.00     0.104 H 
ATOM     17  H   LIG d   1       3.678  -8.124  -5.876  0.00  0.00     0.063 H 
ATOM     18  H   LIG d   1       4.732 -10.262  -5.342  0.00  0.00     0.065 H 
ATOM     19  H   LIG d   1       9.477  -8.160  -5.264  0.00  0.00     0.048 H 
ATOM     20  H   LIG d   1       9.037  -7.451  -3.674  0.00  0.00     0.048 H 
ATOM     21  H   LIG d   1       9.032 -10.581  -5.569  0.00  0.00     0.087 H 
ATOM     22  H   LIG d   1       8.945 -11.625  -4.109  0.00  0.00     0.087 H 
ENDROOT
BRANCH   1  23
ATOM     23  C   LIG d   1       5.215  -3.132  -5.974  0.00  0.00    -0.008 A 
ATOM     24  C   LIG d   1       5.325  -2.608  -7.261  0.00  0.00    -0.050 A 
ATOM     25  C   LIG d   1       4.850  -1.341  -7.534  0.00  0.00    -0.016 A 
ATOM     26  H   LIG d   1       5.781  -3.194  -8.045  0.00  0.00     0.062 H 
ATOM     27  C   LIG d   1       4.263  -0.587  -6.531  0.00  0.00     0.162 A 
ATOM     28  H   LIG d   1       4.935  -0.938  -8.532  0.00  0.00     0.066 H 
ATOM     29  C   LIG d   1       4.150  -1.105  -5.243  0.00  0.00     0.162 A 
ATOM     30  C   LIG d   1       4.619  -2.376  -4.965  0.00  0.00    -0.008 A 
ATOM     31  H   LIG d   1       4.529  -2.781  -3.968  0.00  0.00     0.066 H 
BRANCH  27  32
ATOM     32  O   LIG d   1       3.795   0.661  -6.804  0.00  0.00    -0.491 OA
BRANCH  32  33
ATOM     33  C   LIG d   1       2.968   0.804  -7.960  0.00  0.00     0.079 C 
ATOM     34  H   LIG d   1       1.945   1.061  -7.649  0.00  0.00     0.066 H 
ATOM     35  H   LIG d   1       2.954  -0.142  -8.521  0.00  0.00     0.066 H 
ATOM     36  H   LIG d   1       3.367   1.604  -8.600  0.00  0.00     0.066 H 
ENDBRANCH  32  33
ENDBRANCH  27  32
BRANCH  29  37
ATOM     37  O   LIG d   1       3.574  -0.362  -4.260  0.00  0.00    -0.491 OA
BRANCH  37  38
ATOM     38  C   LIG d   1       3.088  -1.067  -3.115  0.00  0.00     0.079 C 
ATOM     39  H   LIG d   1       2.196  -1.646  -3.393  0.00  0.00     0.066 H 
ATOM     40  H   LIG d   1       2.826  -0.347  -2.325  0.00  0.00     0.066 H 
ATOM     41  H   LIG d   1       3.868  -1.749  -2.746  0.00  0.00     0.066 H 
ENDBRANCH  37  38
ENDBRANCH  29  37
ENDBRANCH   1  23
BRANCH  13  42
ATOM     42  C   LIG d   1      10.566  -9.701  -3.464  0.00  0.00     0.034 C 
ATOM     43  H   LIG d   1      10.858 -10.752  -3.595  0.00  0.00     0.048 H 
ATOM     44  H   LIG d   1      11.131  -9.072  -4.168  0.00  0.00     0.048 H 
BRANCH  42  45
ATOM     45  C   LIG d   1      10.866  -9.267  -2.052  0.00  0.00     0.004 A 
ATOM     46  S   LIG d   1      11.877  -7.910  -1.483  0.00  0.00    -0.100 SA
ATOM     47  C   LIG d   1      11.661  -8.152   0.272  0.00  0.00    -0.024 A 
ATOM     48  C   LIG d   1      10.844  -9.233   0.307  0.00  0.00    -0.054 A 
ATOM     49  H   LIG d   1      12.073  -7.585   1.092  0.00  0.00     0.069 H 
ATOM     50  C   LIG d   1      10.432  -9.802  -0.885  0.00  0.00    -0.050 A 
ATOM     51  H   LIG d   1      10.517  -9.643   1.251  0.00  0.00     0.062 H 
ATOM     52  H   LIG d   1       9.778 -10.661  -0.885  0.00  0.00     0.063 H 
ENDBRANCH  42  45
ENDBRANCH  13  42
TORSDOF 7
ENDMDL
