MODEL 1
REMARK VINA RESULT:      -6.5      0.000      0.000
REMARK  4 active torsions:
REMARK  status: ('A' for Active; 'I' for Inactive)
REMARK    1  A    between atoms: C_7  and  C_11 
REMARK    2  A    between atoms: C_12  and  C_13 
REMARK       I    between atoms: C_13  and  N_15 
REMARK    3  A    between atoms: N_15  and  C_16 
REMARK    4  A    between atoms: C_16  and  C_17 
ROOT
ATOM      1  C   LIG d   1       4.275   0.124  -1.833  0.00  0.00    -0.061 A 
ATOM      2  C   LIG d   1       4.140  -1.210  -2.192  0.00  0.00    -0.060 A 
ATOM      3  C   LIG d   1       5.032  -1.798  -3.060  0.00  0.00    -0.038 A 
ATOM      4  C   LIG d   1       6.083  -1.052  -3.586  0.00  0.00     0.047 A 
ATOM      5  C   LIG d   1       6.219   0.297  -3.223  0.00  0.00     0.007 A 
ATOM      6  C   LIG d   1       5.309   0.879  -2.344  0.00  0.00    -0.052 A 
ATOM      7  C   LIG d   1       7.410   0.792  -3.939  0.00  0.00     0.000 A 
ATOM      8  C   LIG d   1       7.892  -0.264  -4.662  0.00  0.00     0.010 A 
ATOM      9  N   LIG d   1       7.111  -1.354  -4.456  0.00  0.00    -0.360 N 
ATOM     10  H   LIG d   1       7.256  -2.222  -4.863  0.00  0.00     0.165 HD
ATOM     11  H   LIG d   1       3.567   0.572  -1.153  0.00  0.00     0.062 H 
ATOM     12  H   LIG d   1       3.326  -1.792  -1.786  0.00  0.00     0.062 H 
ATOM     13  H   LIG d   1       4.918  -2.836  -3.333  0.00  0.00     0.064 H 
ATOM     14  H   LIG d   1       5.412   1.917  -2.063  0.00  0.00     0.062 H 
ATOM     15  H   LIG d   1       8.762  -0.234  -5.300  0.00  0.00     0.081 H 
ENDROOT
BRANCH   7  16
ATOM     16  C   LIG d   1       7.962   2.146  -3.891  0.00  0.00    -0.048 C 
ATOM     17  C   LIG d   1       9.195   2.357  -3.370  0.00  0.00     0.001 C 
ATOM     18  H   LIG d   1       9.769   1.525  -2.989  0.00  0.00     0.067 H 
ATOM     19  H   LIG d   1       7.387   2.978  -4.273  0.00  0.00     0.063 H 
BRANCH  17  20
ATOM     20  C   LIG d   1       9.728   3.667  -3.325  0.00  0.00     0.237 C 
ATOM     21  O   LIG d   1       9.578   4.419  -4.270  0.00  0.00    -0.271 OA
ATOM     22  N   LIG d   1      10.403   4.082  -2.233  0.00  0.00    -0.307 N 
ATOM     23  H   LIG d   1      10.522   3.482  -1.480  0.00  0.00     0.149 HD
BRANCH  22  24
ATOM     24  C   LIG d   1      10.955   5.438  -2.185  0.00  0.00     0.051 C 
ATOM     25  H   LIG d   1      11.974   5.401  -1.803  0.00  0.00     0.052 H 
ATOM     26  H   LIG d   1      10.956   5.865  -3.188  0.00  0.00     0.052 H 
BRANCH  24  27
ATOM     27  C   LIG d   1      10.109   6.292  -1.276  0.00  0.00     0.059 C 
ATOM     28  O   LIG d   1      10.307   6.286  -0.085  0.00  0.00    -0.548 OA
ATOM     29  O   LIG d   1       9.136   7.060  -1.791  0.00  0.00    -0.548 OA
ENDBRANCH  24  27
ENDBRANCH  22  24
ENDBRANCH  17  20
ENDBRANCH   7  16
TORSDOF 4
ENDMDL
MODEL 2
REMARK VINA RESULT:      -6.4      6.553      9.490
REMARK  4 active torsions:
REMARK  status: ('A' for Active; 'I' for Inactive)
REMARK    1  A    between atoms: C_7  and  C_11 
REMARK    2  A    between atoms: C_12  and  C_13 
REMARK       I    between atoms: C_13  and  N_15 
REMARK    3  A    between atoms: N_15  and  C_16 
REMARK    4  A    between atoms: C_16  and  C_17 
ROOT
ATOM      1  C   LIG d   1       3.174   0.164  -2.353  0.00  0.00    -0.061 A 
ATOM      2  C   LIG d   1       4.112   1.162  -2.132  0.00  0.00    -0.060 A 
ATOM      3  C   LIG d   1       5.433   0.972  -2.473  0.00  0.00    -0.038 A 
ATOM      4  C   LIG d   1       5.836  -0.230  -3.046  0.00  0.00     0.047 A 
ATOM      5  C   LIG d   1       4.886  -1.239  -3.269  0.00  0.00     0.007 A 
ATOM      6  C   LIG d   1       3.554  -1.034  -2.919  0.00  0.00    -0.052 A 
ATOM      7  C   LIG d   1       5.624  -2.363  -3.876  0.00  0.00     0.000 A 
ATOM      8  C   LIG d   1       6.927  -1.962  -3.973  0.00  0.00     0.010 A 
ATOM      9  N   LIG d   1       7.056  -0.704  -3.484  0.00  0.00    -0.360 N 
ATOM     10  H   LIG d   1       7.889  -0.208  -3.447  0.00  0.00     0.165 HD
ATOM     11  H   LIG d   1       2.143   0.325  -2.080  0.00  0.00     0.062 H 
ATOM     12  H   LIG d   1       3.803   2.097  -1.688  0.00  0.00     0.062 H 
ATOM     13  H   LIG d   1       6.155   1.755  -2.297  0.00  0.00     0.064 H 
ATOM     14  H   LIG d   1       2.822  -1.810  -3.090  0.00  0.00     0.062 H 
ATOM     15  H   LIG d   1       7.732  -2.559  -4.378  0.00  0.00     0.081 H 
ENDROOT
BRANCH   7  16
ATOM     16  C   LIG d   1       5.071  -3.655  -4.289  0.00  0.00    -0.048 C 
ATOM     17  C   LIG d   1       5.042  -3.991  -5.600  0.00  0.00     0.001 C 
ATOM     18  H   LIG d   1       5.426  -3.307  -6.342  0.00  0.00     0.067 H 
ATOM     19  H   LIG d   1       4.687  -4.339  -3.546  0.00  0.00     0.063 H 
BRANCH  17  20
ATOM     20  C   LIG d   1       4.508  -5.240  -5.997  0.00  0.00     0.237 C 
ATOM     21  O   LIG d   1       3.365  -5.310  -6.409  0.00  0.00    -0.271 OA
ATOM     22  N   LIG d   1       5.266  -6.352  -5.920  0.00  0.00    -0.307 N 
ATOM     23  H   LIG d   1       6.178  -6.295  -5.592  0.00  0.00     0.149 HD
BRANCH  22  24
ATOM     24  C   LIG d   1       4.714  -7.645  -6.332  0.00  0.00     0.051 C 
ATOM     25  H   LIG d   1       3.642  -7.546  -6.496  0.00  0.00     0.052 H 
ATOM     26  H   LIG d   1       5.196  -7.968  -7.255  0.00  0.00     0.052 H 
BRANCH  24  27
ATOM     27  C   LIG d   1       4.964  -8.665  -5.250  0.00  0.00     0.059 C 
ATOM     28  O   LIG d   1       4.082  -8.955  -4.478  0.00  0.00    -0.548 OA
ATOM     29  O   LIG d   1       6.167  -9.250  -5.145  0.00  0.00    -0.548 OA
ENDBRANCH  24  27
ENDBRANCH  22  24
ENDBRANCH  17  20
ENDBRANCH   7  16
TORSDOF 4
ENDMDL
MODEL 3
REMARK VINA RESULT:      -6.3      7.021      8.755
REMARK  4 active torsions:
REMARK  status: ('A' for Active; 'I' for Inactive)
REMARK    1  A    between atoms: C_7  and  C_11 
REMARK    2  A    between atoms: C_12  and  C_13 
REMARK       I    between atoms: C_13  and  N_15 
REMARK    3  A    between atoms: N_15  and  C_16 
REMARK    4  A    between atoms: C_16  and  C_17 
ROOT
ATOM      1  C   LIG d   1       1.278  -1.960 -11.019  0.00  0.00    -0.061 A 
ATOM      2  C   LIG d   1       1.857  -1.789 -12.268  0.00  0.00    -0.060 A 
ATOM      3  C   LIG d   1       2.821  -0.826 -12.469  0.00  0.00    -0.038 A 
ATOM      4  C   LIG d   1       3.222  -0.014 -11.412  0.00  0.00     0.047 A 
ATOM      5  C   LIG d   1       2.635  -0.188 -10.149  0.00  0.00     0.007 A 
ATOM      6  C   LIG d   1       1.661  -1.165  -9.960  0.00  0.00    -0.052 A 
ATOM      7  C   LIG d   1       3.268   0.811  -9.267  0.00  0.00     0.000 A 
ATOM      8  C   LIG d   1       4.165   1.495 -10.039  0.00  0.00     0.010 A 
ATOM      9  N   LIG d   1       4.140   1.011 -11.306  0.00  0.00    -0.360 N 
ATOM     10  H   LIG d   1       4.691   1.339 -12.034  0.00  0.00     0.165 HD
ATOM     11  H   LIG d   1       0.522  -2.717 -10.876  0.00  0.00     0.062 H 
ATOM     12  H   LIG d   1       1.549  -2.417 -13.090  0.00  0.00     0.062 H 
ATOM     13  H   LIG d   1       3.265  -0.700 -13.445  0.00  0.00     0.064 H 
ATOM     14  H   LIG d   1       1.209  -1.300  -8.988  0.00  0.00     0.062 H 
ATOM     15  H   LIG d   1       4.797   2.299  -9.692  0.00  0.00     0.081 H 
ENDROOT
BRANCH   7  16
ATOM     16  C   LIG d   1       2.987   1.030  -7.847  0.00  0.00    -0.048 C 
ATOM     17  C   LIG d   1       3.215   0.040  -6.951  0.00  0.00     0.001 C 
ATOM     18  H   LIG d   1       3.602  -0.911  -7.284  0.00  0.00     0.067 H 
ATOM     19  H   LIG d   1       2.600   1.983  -7.514  0.00  0.00     0.063 H 
BRANCH  17  20
ATOM     20  C   LIG d   1       2.944   0.254  -5.579  0.00  0.00     0.237 C 
ATOM     21  O   LIG d   1       2.671   1.370  -5.178  0.00  0.00    -0.271 OA
ATOM     22  N   LIG d   1       2.987  -0.781  -4.715  0.00  0.00    -0.307 N 
ATOM     23  H   LIG d   1       3.205  -1.671  -5.035  0.00  0.00     0.149 HD
BRANCH  22  24
ATOM     24  C   LIG d   1       2.706  -0.561  -3.294  0.00  0.00     0.051 C 
ATOM     25  H   LIG d   1       2.824   0.497  -3.061  0.00  0.00     0.052 H 
ATOM     26  H   LIG d   1       1.685  -0.871  -3.074  0.00  0.00     0.052 H 
BRANCH  24  27
ATOM     27  C   LIG d   1       3.668  -1.368  -2.461  0.00  0.00     0.059 C 
ATOM     28  O   LIG d   1       4.323  -0.828  -1.601  0.00  0.00    -0.548 OA
ATOM     29  O   LIG d   1       3.798  -2.686  -2.674  0.00  0.00    -0.548 OA
ENDBRANCH  24  27
ENDBRANCH  22  24
ENDBRANCH  17  20
ENDBRANCH   7  16
TORSDOF 4
ENDMDL
MODEL 4
REMARK VINA RESULT:      -6.1      6.578      9.413
REMARK  4 active torsions:
REMARK  status: ('A' for Active; 'I' for Inactive)
REMARK    1  A    between atoms: C_7  and  C_11 
REMARK    2  A    between atoms: C_12  and  C_13 
REMARK       I    between atoms: C_13  and  N_15 
REMARK    3  A    between atoms: N_15  and  C_16 
REMARK    4  A    between atoms: C_16  and  C_17 
ROOT
ATOM      1  C   LIG d   1       3.035   0.020  -2.656  0.00  0.00    -0.061 A 
ATOM      2  C   LIG d   1       3.902   0.998  -2.191  0.00  0.00    -0.060 A 
ATOM      3  C   LIG d   1       5.264   0.853  -2.333  0.00  0.00    -0.038 A 
ATOM      4  C   LIG d   1       5.782  -0.282  -2.949  0.00  0.00     0.047 A 
ATOM      5  C   LIG d   1       4.903  -1.271  -3.418  0.00  0.00     0.007 A 
ATOM      6  C   LIG d   1       3.528  -1.113  -3.268  0.00  0.00    -0.052 A 
ATOM      7  C   LIG d   1       5.755  -2.323  -4.006  0.00  0.00     0.000 A 
ATOM      8  C   LIG d   1       7.047  -1.904  -3.853  0.00  0.00     0.010 A 
ATOM      9  N   LIG d   1       7.067  -0.701  -3.229  0.00  0.00    -0.360 N 
ATOM     10  H   LIG d   1       7.871  -0.204  -3.011  0.00  0.00     0.165 HD
ATOM     11  H   LIG d   1       1.970   0.145  -2.537  0.00  0.00     0.062 H 
ATOM     12  H   LIG d   1       3.504   1.881  -1.714  0.00  0.00     0.062 H 
ATOM     13  H   LIG d   1       5.930   1.620  -1.967  0.00  0.00     0.064 H 
ATOM     14  H   LIG d   1       2.851  -1.873  -3.629  0.00  0.00     0.062 H 
ATOM     15  H   LIG d   1       7.920  -2.451  -4.180  0.00  0.00     0.081 H 
ENDROOT
BRANCH   7  16
ATOM     16  C   LIG d   1       5.305  -3.571  -4.626  0.00  0.00    -0.048 C 
ATOM     17  C   LIG d   1       4.704  -3.546  -5.840  0.00  0.00     0.001 C 
ATOM     18  H   LIG d   1       4.556  -2.606  -6.350  0.00  0.00     0.067 H 
ATOM     19  H   LIG d   1       5.454  -4.511  -4.115  0.00  0.00     0.063 H 
BRANCH  17  20
ATOM     20  C   LIG d   1       4.271  -4.753  -6.438  0.00  0.00     0.237 C 
ATOM     21  O   LIG d   1       3.360  -5.388  -5.938  0.00  0.00    -0.271 OA
ATOM     22  N   LIG d   1       4.866  -5.199  -7.563  0.00  0.00    -0.307 N 
ATOM     23  H   LIG d   1       5.591  -4.692  -7.961  0.00  0.00     0.149 HD
BRANCH  22  24
ATOM     24  C   LIG d   1       4.417  -6.448  -8.183  0.00  0.00     0.051 C 
ATOM     25  H   LIG d   1       5.281  -7.004  -8.545  0.00  0.00     0.052 H 
ATOM     26  H   LIG d   1       3.880  -7.046  -7.447  0.00  0.00     0.052 H 
BRANCH  24  27
ATOM     27  C   LIG d   1       3.502  -6.134  -9.339  0.00  0.00     0.059 C 
ATOM     28  O   LIG d   1       2.306  -6.116  -9.175  0.00  0.00    -0.548 OA
ATOM     29  O   LIG d   1       4.017  -5.876 -10.551  0.00  0.00    -0.548 OA
ENDBRANCH  24  27
ENDBRANCH  22  24
ENDBRANCH  17  20
ENDBRANCH   7  16
TORSDOF 4
ENDMDL
MODEL 5
REMARK VINA RESULT:      -5.8      5.050      6.093
REMARK  4 active torsions:
REMARK  status: ('A' for Active; 'I' for Inactive)
REMARK    1  A    between atoms: C_7  and  C_11 
REMARK    2  A    between atoms: C_12  and  C_13 
REMARK       I    between atoms: C_13  and  N_15 
REMARK    3  A    between atoms: N_15  and  C_16 
REMARK    4  A    between atoms: C_16  and  C_17 
ROOT
ATOM      1  C   LIG d   1       4.772   1.062  -2.233  0.00  0.00    -0.061 A 
ATOM      2  C   LIG d   1       3.414   0.814  -2.373  0.00  0.00    -0.060 A 
ATOM      3  C   LIG d   1       2.970  -0.349  -2.962  0.00  0.00    -0.038 A 
ATOM      4  C   LIG d   1       3.888  -1.289  -3.422  0.00  0.00     0.047 A 
ATOM      5  C   LIG d   1       5.261  -1.036  -3.280  0.00  0.00     0.007 A 
ATOM      6  C   LIG d   1       5.696   0.144  -2.683  0.00  0.00    -0.052 A 
ATOM      7  C   LIG d   1       5.950  -2.205  -3.858  0.00  0.00     0.000 A 
ATOM      8  C   LIG d   1       4.971  -3.054  -4.294  0.00  0.00     0.010 A 
ATOM      9  N   LIG d   1       3.753  -2.516  -4.039  0.00  0.00    -0.360 N 
ATOM     10  H   LIG d   1       2.906  -2.935  -4.259  0.00  0.00     0.165 HD
ATOM     11  H   LIG d   1       5.105   1.979  -1.771  0.00  0.00     0.062 H 
ATOM     12  H   LIG d   1       2.698   1.540  -2.017  0.00  0.00     0.062 H 
ATOM     13  H   LIG d   1       1.911  -0.533  -3.067  0.00  0.00     0.064 H 
ATOM     14  H   LIG d   1       6.753   0.340  -2.572  0.00  0.00     0.062 H 
ATOM     15  H   LIG d   1       5.143  -4.008  -4.771  0.00  0.00     0.081 H 
ENDROOT
BRANCH   7  16
ATOM     16  C   LIG d   1       7.396  -2.414  -3.951  0.00  0.00    -0.048 C 
ATOM     17  C   LIG d   1       7.885  -3.637  -4.265  0.00  0.00     0.001 C 
ATOM     18  H   LIG d   1       7.209  -4.460  -4.444  0.00  0.00     0.067 H 
ATOM     19  H   LIG d   1       8.073  -1.590  -3.771  0.00  0.00     0.063 H 
BRANCH  17  20
ATOM     20  C   LIG d   1       9.283  -3.837  -4.355  0.00  0.00     0.237 C 
ATOM     21  O   LIG d   1       9.729  -4.698  -5.091  0.00  0.00    -0.271 OA
ATOM     22  N   LIG d   1      10.122  -3.073  -3.627  0.00  0.00    -0.307 N 
ATOM     23  H   LIG d   1       9.765  -2.386  -3.040  0.00  0.00     0.149 HD
BRANCH  22  24
ATOM     24  C   LIG d   1      11.569  -3.279  -3.720  0.00  0.00     0.051 C 
ATOM     25  H   LIG d   1      11.991  -3.350  -2.718  0.00  0.00     0.052 H 
ATOM     26  H   LIG d   1      11.770  -4.200  -4.267  0.00  0.00     0.052 H 
BRANCH  24  27
ATOM     27  C   LIG d   1      12.196  -2.116  -4.447  0.00  0.00     0.059 C 
ATOM     28  O   LIG d   1      12.024  -1.983  -5.635  0.00  0.00    -0.548 OA
ATOM     29  O   LIG d   1      12.945  -1.230  -3.773  0.00  0.00    -0.548 OA
ENDBRANCH  24  27
ENDBRANCH  22  24
ENDBRANCH  17  20
ENDBRANCH   7  16
TORSDOF 4
ENDMDL
MODEL 6
REMARK VINA RESULT:      -5.8      5.833      6.918
REMARK  4 active torsions:
REMARK  status: ('A' for Active; 'I' for Inactive)
REMARK    1  A    between atoms: C_7  and  C_11 
REMARK    2  A    between atoms: C_12  and  C_13 
REMARK       I    between atoms: C_13  and  N_15 
REMARK    3  A    between atoms: N_15  and  C_16 
REMARK    4  A    between atoms: C_16  and  C_17 
ROOT
ATOM      1  C   LIG d   1       4.560   0.898  -1.819  0.00  0.00    -0.061 A 
ATOM      2  C   LIG d   1       3.444   1.347  -2.512  0.00  0.00    -0.060 A 
ATOM      3  C   LIG d   1       3.074   0.761  -3.701  0.00  0.00    -0.038 A 
ATOM      4  C   LIG d   1       3.821  -0.293  -4.219  0.00  0.00     0.047 A 
ATOM      5  C   LIG d   1       4.950  -0.746  -3.518  0.00  0.00     0.007 A 
ATOM      6  C   LIG d   1       5.314  -0.144  -2.316  0.00  0.00    -0.052 A 
ATOM      7  C   LIG d   1       5.508  -1.851  -4.320  0.00  0.00     0.000 A 
ATOM      8  C   LIG d   1       4.700  -1.981  -5.414  0.00  0.00     0.010 A 
ATOM      9  N   LIG d   1       3.704  -1.063  -5.359  0.00  0.00    -0.360 N 
ATOM     10  H   LIG d   1       3.006  -0.962  -6.025  0.00  0.00     0.165 HD
ATOM     11  H   LIG d   1       4.840   1.367  -0.889  0.00  0.00     0.062 H 
ATOM     12  H   LIG d   1       2.861   2.164  -2.113  0.00  0.00     0.062 H 
ATOM     13  H   LIG d   1       2.204   1.118  -4.233  0.00  0.00     0.064 H 
ATOM     14  H   LIG d   1       6.181  -0.492  -1.775  0.00  0.00     0.062 H 
ATOM     15  H   LIG d   1       4.836  -2.705  -6.204  0.00  0.00     0.081 H 
ENDROOT
BRANCH   7  16
ATOM     16  C   LIG d   1       6.697  -2.647  -4.008  0.00  0.00    -0.048 C 
ATOM     17  C   LIG d   1       7.831  -2.482  -4.729  0.00  0.00     0.001 C 
ATOM     18  H   LIG d   1       7.859  -1.763  -5.534  0.00  0.00     0.067 H 
ATOM     19  H   LIG d   1       6.668  -3.366  -3.202  0.00  0.00     0.063 H 
BRANCH  17  20
ATOM     20  C   LIG d   1       8.979  -3.251  -4.426  0.00  0.00     0.237 C 
ATOM     21  O   LIG d   1       9.606  -3.788  -5.321  0.00  0.00    -0.271 OA
ATOM     22  N   LIG d   1       9.379  -3.389  -3.146  0.00  0.00    -0.307 N 
ATOM     23  H   LIG d   1       8.879  -2.961  -2.433  0.00  0.00     0.149 HD
BRANCH  22  24
ATOM     24  C   LIG d   1      10.568  -4.186  -2.832  0.00  0.00     0.051 C 
ATOM     25  H   LIG d   1      11.165  -4.317  -3.733  0.00  0.00     0.052 H 
ATOM     26  H   LIG d   1      11.160  -3.672  -2.074  0.00  0.00     0.052 H 
BRANCH  24  27
ATOM     27  C   LIG d   1      10.145  -5.535  -2.309  0.00  0.00     0.059 C 
ATOM     28  O   LIG d   1       9.625  -5.626  -1.223  0.00  0.00    -0.548 OA
ATOM     29  O   LIG d   1      10.348  -6.635  -3.050  0.00  0.00    -0.548 OA
ENDBRANCH  24  27
ENDBRANCH  22  24
ENDBRANCH  17  20
ENDBRANCH   7  16
TORSDOF 4
ENDMDL
MODEL 7
REMARK VINA RESULT:      -5.5      6.563      9.160
REMARK  4 active torsions:
REMARK  status: ('A' for Active; 'I' for Inactive)
REMARK    1  A    between atoms: C_7  and  C_11 
REMARK    2  A    between atoms: C_12  and  C_13 
REMARK       I    between atoms: C_13  and  N_15 
REMARK    3  A    between atoms: N_15  and  C_16 
REMARK    4  A    between atoms: C_16  and  C_17 
ROOT
ATOM      1  C   LIG d   1       3.583   1.377  -2.429  0.00  0.00    -0.061 A 
ATOM      2  C   LIG d   1       4.444   0.611  -1.656  0.00  0.00    -0.060 A 
ATOM      3  C   LIG d   1       5.111  -0.463  -2.202  0.00  0.00    -0.038 A 
ATOM      4  C   LIG d   1       4.926  -0.787  -3.543  0.00  0.00     0.047 A 
ATOM      5  C   LIG d   1       4.054  -0.011  -4.324  0.00  0.00     0.007 A 
ATOM      6  C   LIG d   1       3.385   1.071  -3.758  0.00  0.00    -0.052 A 
ATOM      7  C   LIG d   1       4.080  -0.607  -5.673  0.00  0.00     0.000 A 
ATOM      8  C   LIG d   1       4.941  -1.668  -5.610  0.00  0.00     0.010 A 
ATOM      9  N   LIG d   1       5.441  -1.777  -4.354  0.00  0.00    -0.360 N 
ATOM     10  H   LIG d   1       6.072  -2.455  -4.068  0.00  0.00     0.165 HD
ATOM     11  H   LIG d   1       3.065   2.214  -1.987  0.00  0.00     0.062 H 
ATOM     12  H   LIG d   1       4.591   0.859  -0.615  0.00  0.00     0.062 H 
ATOM     13  H   LIG d   1       5.779  -1.052  -1.592  0.00  0.00     0.064 H 
ATOM     14  H   LIG d   1       2.714   1.669  -4.358  0.00  0.00     0.062 H 
ATOM     15  H   LIG d   1       5.183  -2.320  -6.436  0.00  0.00     0.081 H 
ENDROOT
BRANCH   7  16
ATOM     16  C   LIG d   1       3.329  -0.156  -6.846  0.00  0.00    -0.048 C 
ATOM     17  C   LIG d   1       3.198  -0.970  -7.920  0.00  0.00     0.001 C 
ATOM     18  H   LIG d   1       3.649  -1.952  -7.913  0.00  0.00     0.067 H 
ATOM     19  H   LIG d   1       2.879   0.826  -6.853  0.00  0.00     0.063 H 
BRANCH  17  20
ATOM     20  C   LIG d   1       2.472  -0.533  -9.053  0.00  0.00     0.237 C 
ATOM     21  O   LIG d   1       2.281   0.656  -9.233  0.00  0.00    -0.271 OA
ATOM     22  N   LIG d   1       1.991  -1.434  -9.934  0.00  0.00    -0.307 N 
ATOM     23  H   LIG d   1       2.144  -2.381  -9.790  0.00  0.00     0.149 HD
BRANCH  22  24
ATOM     24  C   LIG d   1       1.239  -0.982 -11.107  0.00  0.00     0.051 C 
ATOM     25  H   LIG d   1       0.256  -1.450 -11.110  0.00  0.00     0.052 H 
ATOM     26  H   LIG d   1       1.127   0.102 -11.071  0.00  0.00     0.052 H 
BRANCH  24  27
ATOM     27  C   LIG d   1       1.983  -1.369 -12.360  0.00  0.00     0.059 C 
ATOM     28  O   LIG d   1       3.095  -0.940 -12.559  0.00  0.00    -0.548 OA
ATOM     29  O   LIG d   1       1.410  -2.189 -13.254  0.00  0.00    -0.548 OA
ENDBRANCH  24  27
ENDBRANCH  22  24
ENDBRANCH  17  20
ENDBRANCH   7  16
TORSDOF 4
ENDMDL
MODEL 8
REMARK VINA RESULT:      -5.4     10.223     12.836
REMARK  4 active torsions:
REMARK  status: ('A' for Active; 'I' for Inactive)
REMARK    1  A    between atoms: C_7  and  C_11 
REMARK    2  A    between atoms: C_12  and  C_13 
REMARK       I    between atoms: C_13  and  N_15 
REMARK    3  A    between atoms: N_15  and  C_16 
REMARK    4  A    between atoms: C_16  and  C_17 
ROOT
ATOM      1  C   LIG d   1       2.783   1.741  -8.514  0.00  0.00    -0.061 A 
ATOM      2  C   LIG d   1       3.990   2.287  -8.924  0.00  0.00    -0.060 A 
ATOM      3  C   LIG d   1       4.606   1.845 -10.073  0.00  0.00    -0.038 A 
ATOM      4  C   LIG d   1       4.017   0.841 -10.835  0.00  0.00     0.047 A 
ATOM      5  C   LIG d   1       2.795   0.288 -10.419  0.00  0.00     0.007 A 
ATOM      6  C   LIG d   1       2.183   0.745  -9.254  0.00  0.00    -0.052 A 
ATOM      7  C   LIG d   1       2.448  -0.732 -11.426  0.00  0.00     0.000 A 
ATOM      8  C   LIG d   1       3.455  -0.721 -12.350  0.00  0.00     0.010 A 
ATOM      9  N   LIG d   1       4.383   0.205 -12.004  0.00  0.00    -0.360 N 
ATOM     10  H   LIG d   1       5.190   0.395 -12.508  0.00  0.00     0.165 HD
ATOM     11  H   LIG d   1       2.312   2.096  -7.610  0.00  0.00     0.062 H 
ATOM     12  H   LIG d   1       4.451   3.067  -8.336  0.00  0.00     0.062 H 
ATOM     13  H   LIG d   1       5.546   2.277 -10.384  0.00  0.00     0.064 H 
ATOM     14  H   LIG d   1       1.243   0.321  -8.933  0.00  0.00     0.062 H 
ATOM     15  H   LIG d   1       3.504  -1.356 -13.222  0.00  0.00     0.081 H 
ENDROOT
BRANCH   7  16
ATOM     16  C   LIG d   1       1.262  -1.590 -11.432  0.00  0.00    -0.048 C 
ATOM     17  C   LIG d   1       1.400  -2.937 -11.422  0.00  0.00     0.001 C 
ATOM     18  H   LIG d   1       2.386  -3.379 -11.412  0.00  0.00     0.067 H 
ATOM     19  H   LIG d   1       0.276  -1.148 -11.442  0.00  0.00     0.063 H 
BRANCH  17  20
ATOM     20  C   LIG d   1       0.253  -3.766 -11.427  0.00  0.00     0.237 C 
ATOM     21  O   LIG d   1      -0.220  -4.145 -12.483  0.00  0.00    -0.271 OA
ATOM     22  N   LIG d   1      -0.315  -4.136 -10.262  0.00  0.00    -0.307 N 
ATOM     23  H   LIG d   1       0.062  -3.833  -9.421  0.00  0.00     0.149 HD
BRANCH  22  24
ATOM     24  C   LIG d   1      -1.503  -4.994 -10.267  0.00  0.00     0.051 C 
ATOM     25  H   LIG d   1      -2.323  -4.481  -9.766  0.00  0.00     0.052 H 
ATOM     26  H   LIG d   1      -1.786  -5.216 -11.296  0.00  0.00     0.052 H 
BRANCH  24  27
ATOM     27  C   LIG d   1      -1.197  -6.279  -9.541  0.00  0.00     0.059 C 
ATOM     28  O   LIG d   1      -2.065  -6.842  -8.918  0.00  0.00    -0.548 OA
ATOM     29  O   LIG d   1       0.040  -6.797  -9.586  0.00  0.00    -0.548 OA
ENDBRANCH  24  27
ENDBRANCH  22  24
ENDBRANCH  17  20
ENDBRANCH   7  16
TORSDOF 4
ENDMDL
MODEL 9
REMARK VINA RESULT:      -5.4      5.890      8.088
REMARK  4 active torsions:
REMARK  status: ('A' for Active; 'I' for Inactive)
REMARK    1  A    between atoms: C_7  and  C_11 
REMARK    2  A    between atoms: C_12  and  C_13 
REMARK       I    between atoms: C_13  and  N_15 
REMARK    3  A    between atoms: N_15  and  C_16 
REMARK    4  A    between atoms: C_16  and  C_17 
ROOT
ATOM      1  C   LIG d   1       4.182  -0.857  -1.867  0.00  0.00    -0.061 A 
ATOM      2  C   LIG d   1       4.329   0.521  -1.944  0.00  0.00    -0.060 A 
ATOM      3  C   LIG d   1       5.367   1.078  -2.657  0.00  0.00    -0.038 A 
ATOM      4  C   LIG d   1       6.280   0.257  -3.310  0.00  0.00     0.047 A 
ATOM      5  C   LIG d   1       6.131  -1.137  -3.232  0.00  0.00     0.007 A 
ATOM      6  C   LIG d   1       5.078  -1.687  -2.507  0.00  0.00    -0.052 A 
ATOM      7  C   LIG d   1       7.242  -1.707  -4.017  0.00  0.00     0.000 A 
ATOM      8  C   LIG d   1       7.959  -0.648  -4.499  0.00  0.00     0.010 A 
ATOM      9  N   LIG d   1       7.395   0.513  -4.083  0.00  0.00    -0.360 N 
ATOM     10  H   LIG d   1       7.727   1.398  -4.299  0.00  0.00     0.165 HD
ATOM     11  H   LIG d   1       3.365  -1.280  -1.304  0.00  0.00     0.062 H 
ATOM     12  H   LIG d   1       3.621   1.162  -1.438  0.00  0.00     0.062 H 
ATOM     13  H   LIG d   1       5.472   2.152  -2.710  0.00  0.00     0.064 H 
ATOM     14  H   LIG d   1       4.962  -2.759  -2.446  0.00  0.00     0.062 H 
ATOM     15  H   LIG d   1       8.842  -0.724  -5.116  0.00  0.00     0.081 H 
ENDROOT
BRANCH   7  16
ATOM     16  C   LIG d   1       7.524  -3.127  -4.234  0.00  0.00    -0.048 C 
ATOM     17  C   LIG d   1       8.699  -3.656  -3.816  0.00  0.00     0.001 C 
ATOM     18  H   LIG d   1       9.428  -3.030  -3.324  0.00  0.00     0.067 H 
ATOM     19  H   LIG d   1       6.793  -3.753  -4.727  0.00  0.00     0.063 H 
BRANCH  17  20
ATOM     20  C   LIG d   1       8.969  -5.029  -4.026  0.00  0.00     0.237 C 
ATOM     21  O   LIG d   1       8.824  -5.517  -5.132  0.00  0.00    -0.271 OA
ATOM     22  N   LIG d   1       9.390  -5.797  -3.000  0.00  0.00    -0.307 N 
ATOM     23  H   LIG d   1       9.506  -5.407  -2.119  0.00  0.00     0.149 HD
BRANCH  22  24
ATOM     24  C   LIG d   1       9.671  -7.218  -3.217  0.00  0.00     0.051 C 
ATOM     25  H   LIG d   1       8.767  -7.718  -3.564  0.00  0.00     0.052 H 
ATOM     26  H   LIG d   1      10.456  -7.323  -3.965  0.00  0.00     0.052 H 
BRANCH  24  27
ATOM     27  C   LIG d   1      10.124  -7.844  -1.922  0.00  0.00     0.059 C 
ATOM     28  O   LIG d   1      10.033  -9.038  -1.764  0.00  0.00    -0.548 OA
ATOM     29  O   LIG d   1      10.627  -7.074  -0.945  0.00  0.00    -0.548 OA
ENDBRANCH  24  27
ENDBRANCH  22  24
ENDBRANCH  17  20
ENDBRANCH   7  16
TORSDOF 4
ENDMDL
MODEL 10
REMARK VINA RESULT:      -5.2      5.932      7.198
REMARK  4 active torsions:
REMARK  status: ('A' for Active; 'I' for Inactive)
REMARK    1  A    between atoms: C_7  and  C_11 
REMARK    2  A    between atoms: C_12  and  C_13 
REMARK       I    between atoms: C_13  and  N_15 
REMARK    3  A    between atoms: N_15  and  C_16 
REMARK    4  A    between atoms: C_16  and  C_17 
ROOT
ATOM      1  C   LIG d   1       3.872  -0.246  -6.590  0.00  0.00    -0.061 A 
ATOM      2  C   LIG d   1       2.687   0.322  -6.142  0.00  0.00    -0.060 A 
ATOM      3  C   LIG d   1       2.418   0.412  -4.795  0.00  0.00    -0.038 A 
ATOM      4  C   LIG d   1       3.339  -0.067  -3.868  0.00  0.00     0.047 A 
ATOM      5  C   LIG d   1       4.537  -0.641  -4.323  0.00  0.00     0.007 A 
ATOM      6  C   LIG d   1       4.796  -0.727  -5.688  0.00  0.00    -0.052 A 
ATOM      7  C   LIG d   1       5.278  -1.042  -3.112  0.00  0.00     0.000 A 
ATOM      8  C   LIG d   1       4.497  -0.691  -2.047  0.00  0.00     0.010 A 
ATOM      9  N   LIG d   1       3.352  -0.116  -2.489  0.00  0.00    -0.360 N 
ATOM     10  H   LIG d   1       2.642   0.215  -1.917  0.00  0.00     0.165 HD
ATOM     11  H   LIG d   1       4.070  -0.312  -7.649  0.00  0.00     0.062 H 
ATOM     12  H   LIG d   1       1.970   0.696  -6.858  0.00  0.00     0.062 H 
ATOM     13  H   LIG d   1       1.493   0.855  -4.457  0.00  0.00     0.064 H 
ATOM     14  H   LIG d   1       5.718  -1.168  -6.039  0.00  0.00     0.062 H 
ATOM     15  H   LIG d   1       4.754  -0.849  -1.009  0.00  0.00     0.081 H 
ENDROOT
BRANCH   7  16
ATOM     16  C   LIG d   1       6.589  -1.692  -3.062  0.00  0.00    -0.048 C 
ATOM     17  C   LIG d   1       6.928  -2.606  -4.002  0.00  0.00     0.001 C 
ATOM     18  H   LIG d   1       6.231  -2.857  -4.788  0.00  0.00     0.067 H 
ATOM     19  H   LIG d   1       7.286  -1.441  -2.275  0.00  0.00     0.063 H 
BRANCH  17  20
ATOM     20  C   LIG d   1       8.196  -3.234  -3.952  0.00  0.00     0.237 C 
ATOM     21  O   LIG d   1       8.751  -3.566  -4.983  0.00  0.00    -0.271 OA
ATOM     22  N   LIG d   1       8.788  -3.462  -2.763  0.00  0.00    -0.307 N 
ATOM     23  H   LIG d   1       8.344  -3.196  -1.941  0.00  0.00     0.149 HD
BRANCH  22  24
ATOM     24  C   LIG d   1      10.100  -4.111  -2.711  0.00  0.00     0.051 C 
ATOM     25  H   LIG d   1      10.612  -3.971  -3.662  0.00  0.00     0.052 H 
ATOM     26  H   LIG d   1      10.693  -3.668  -1.910  0.00  0.00     0.052 H 
BRANCH  24  27
ATOM     27  C   LIG d   1       9.922  -5.585  -2.448  0.00  0.00     0.059 C 
ATOM     28  O   LIG d   1       9.781  -6.350  -3.373  0.00  0.00    -0.548 OA
ATOM     29  O   LIG d   1       9.919  -6.046  -1.188  0.00  0.00    -0.548 OA
ENDBRANCH  24  27
ENDBRANCH  22  24
ENDBRANCH  17  20
ENDBRANCH   7  16
TORSDOF 4
ENDMDL
