MODEL 1
REMARK VINA RESULT:      -7.5      0.000      0.000
REMARK  3 active torsions:
REMARK  status: ('A' for Active; 'I' for Inactive)
REMARK    1  A    between atoms: C_1  and  C_2 
REMARK    2  A    between atoms: C_2  and  N_3 
REMARK    3  A    between atoms: C_16  and  C_18 
ROOT
ATOM      1  N   LIG d   1       6.970  -3.834  -5.617  0.00  0.00     0.245 N 
ATOM      2  C   LIG d   1       7.739  -3.590  -4.390  0.00  0.00    -0.027 C 
ATOM      3  C   LIG d   1       7.493  -2.153  -3.908  0.00  0.00     0.015 C 
ATOM      4  C   LIG d   1       6.003  -1.914  -3.900  0.00  0.00    -0.008 A 
ATOM      5  C   LIG d   1       5.248  -0.865  -3.255  0.00  0.00     0.004 A 
ATOM      6  C   LIG d   1       5.619   0.227  -2.463  0.00  0.00    -0.052 A 
ATOM      7  C   LIG d   1       4.609   1.037  -2.006  0.00  0.00    -0.061 A 
ATOM      8  C   LIG d   1       3.279   0.794  -2.308  0.00  0.00    -0.060 A 
ATOM      9  C   LIG d   1       2.881  -0.277  -3.089  0.00  0.00    -0.038 A 
ATOM     10  C   LIG d   1       3.886  -1.117  -3.566  0.00  0.00     0.047 A 
ATOM     11  N   LIG d   1       3.848  -2.239  -4.345  0.00  0.00    -0.353 N 
ATOM     12  H   LIG d   1       2.882  -2.623  -4.707  0.00  0.00     0.166 HD
ATOM     13  C   LIG d   1       5.117  -2.709  -4.541  0.00  0.00     0.074 A 
ATOM     14  C   LIG d   1       5.527  -3.924  -5.339  0.00  0.00     0.052 C 
ATOM     15  H   LIG d   1       5.334  -4.848  -4.774  0.00  0.00     0.097 H 
ATOM     16  H   LIG d   1       7.419  -4.298  -3.610  0.00  0.00     0.082 H 
ATOM     17  H   LIG d   1       8.811  -3.730  -4.594  0.00  0.00     0.082 H 
ATOM     18  H   LIG d   1       7.903  -2.030  -2.895  0.00  0.00     0.037 H 
ATOM     19  H   LIG d   1       7.987  -1.448  -4.592  0.00  0.00     0.037 H 
ATOM     20  H   LIG d   1       6.569   0.432  -2.226  0.00  0.00     0.062 H 
ATOM     21  H   LIG d   1       4.823   1.830  -1.437  0.00  0.00     0.062 H 
ATOM     22  H   LIG d   1       2.595   1.427  -1.942  0.00  0.00     0.062 H 
ATOM     23  H   LIG d   1       1.912  -0.420  -3.286  0.00  0.00     0.064 H 
ATOM     24  H   LIG d   1       7.128  -2.973  -6.285  0.00  0.00     0.204 HD
ENDROOT
BRANCH  14  25
ATOM     25  C   LIG d   1       4.763  -3.959  -6.637  0.00  0.00     0.079 A 
ATOM     26  C   LIG d   1       4.964  -2.966  -7.611  0.00  0.00     0.262 A 
ATOM     27  N   LIG d   1       4.274  -3.018  -8.768  0.00  0.00    -0.275 N 
ATOM     28  O   LIG d   1       5.762  -2.065  -7.413  0.00  0.00    -0.267 OA
ATOM     29  C   LIG d   1       3.389  -4.006  -8.990  0.00  0.00     0.326 A 
ATOM     30  H   LIG d   1       4.439  -2.245  -9.532  0.00  0.00     0.173 HD
ATOM     31  N   LIG d   1       3.176  -4.965  -8.070  0.00  0.00    -0.321 N 
ATOM     32  O   LIG d   1       2.772  -4.033 -10.037  0.00  0.00    -0.247 OA
ATOM     33  C   LIG d   1       3.861  -4.953  -6.881  0.00  0.00    -0.020 A 
ATOM     34  H   LIG d   1       2.446  -5.762  -8.275  0.00  0.00     0.169 HD
ATOM     35  O   LIG d   1       3.645  -5.916  -5.962  0.00  0.00    -0.861 OA
ENDBRANCH  14  25
BRANCH   1  36
ATOM     36  C   LIG d   1       7.449  -5.038  -6.308  0.00  0.00    -0.034 C 
ATOM     37  H   LIG d   1       8.468  -4.863  -6.685  0.00  0.00     0.081 H 
ATOM     38  H   LIG d   1       6.781  -5.267  -7.152  0.00  0.00     0.081 H 
BRANCH  36  39
ATOM     39  C   LIG d   1       7.461  -6.217  -5.333  0.00  0.00    -0.024 C 
ATOM     40  H   LIG d   1       6.763  -6.016  -4.507  0.00  0.00     0.028 H 
ATOM     41  H   LIG d   1       8.476  -6.350  -4.931  0.00  0.00     0.028 H 
ATOM     42  H   LIG d   1       7.152  -7.131  -5.860  0.00  0.00     0.028 H 
ENDBRANCH  36  39
ENDBRANCH   1  36
TORSDOF 3
ENDMDL
MODEL 2
REMARK VINA RESULT:      -7.0      3.128      5.670
REMARK  3 active torsions:
REMARK  status: ('A' for Active; 'I' for Inactive)
REMARK    1  A    between atoms: C_1  and  C_2 
REMARK    2  A    between atoms: C_2  and  N_3 
REMARK    3  A    between atoms: C_16  and  C_18 
ROOT
ATOM      1  N   LIG d   1       3.706  -0.693  -3.999  0.00  0.00     0.245 N 
ATOM      2  C   LIG d   1       2.369  -0.152  -4.280  0.00  0.00    -0.027 C 
ATOM      3  C   LIG d   1       2.475   0.945  -5.349  0.00  0.00     0.015 C 
ATOM      4  C   LIG d   1       3.303   0.405  -6.489  0.00  0.00    -0.008 A 
ATOM      5  C   LIG d   1       3.439   0.904  -7.839  0.00  0.00     0.004 A 
ATOM      6  C   LIG d   1       2.883   1.998  -8.510  0.00  0.00    -0.052 A 
ATOM      7  C   LIG d   1       3.244   2.171  -9.823  0.00  0.00    -0.061 A 
ATOM      8  C   LIG d   1       4.117   1.309 -10.465  0.00  0.00    -0.060 A 
ATOM      9  C   LIG d   1       4.683   0.219  -9.828  0.00  0.00    -0.038 A 
ATOM     10  C   LIG d   1       4.334   0.018  -8.493  0.00  0.00     0.047 A 
ATOM     11  N   LIG d   1       4.699  -0.935  -7.586  0.00  0.00    -0.353 N 
ATOM     12  H   LIG d   1       5.396  -1.735  -7.879  0.00  0.00     0.166 HD
ATOM     13  C   LIG d   1       4.080  -0.697  -6.389  0.00  0.00     0.074 A 
ATOM     14  C   LIG d   1       4.204  -1.505  -5.120  0.00  0.00     0.052 C 
ATOM     15  H   LIG d   1       3.605  -2.426  -5.182  0.00  0.00     0.097 H 
ATOM     16  H   LIG d   1       1.717  -0.959  -4.646  0.00  0.00     0.082 H 
ATOM     17  H   LIG d   1       1.944   0.274  -3.359  0.00  0.00     0.082 H 
ATOM     18  H   LIG d   1       1.468   1.211  -5.703  0.00  0.00     0.037 H 
ATOM     19  H   LIG d   1       2.958   1.833  -4.916  0.00  0.00     0.037 H 
ATOM     20  H   LIG d   1       2.250   2.640  -8.077  0.00  0.00     0.062 H 
ATOM     21  H   LIG d   1       2.873   2.938 -10.347  0.00  0.00     0.062 H 
ATOM     22  H   LIG d   1       4.335   1.496 -11.424  0.00  0.00     0.062 H 
ATOM     23  H   LIG d   1       5.309  -0.382 -10.324  0.00  0.00     0.064 H 
ATOM     24  H   LIG d   1       4.389   0.161  -3.875  0.00  0.00     0.204 HD
ENDROOT
BRANCH  14  25
ATOM     25  C   LIG d   1       5.649  -1.860  -4.884  0.00  0.00     0.079 A 
ATOM     26  C   LIG d   1       6.597  -0.855  -4.625  0.00  0.00     0.262 A 
ATOM     27  N   LIG d   1       7.885  -1.194  -4.412  0.00  0.00    -0.275 N 
ATOM     28  O   LIG d   1       6.257   0.315  -4.587  0.00  0.00    -0.267 OA
ATOM     29  C   LIG d   1       8.268  -2.483  -4.458  0.00  0.00     0.326 A 
ATOM     30  H   LIG d   1       8.624  -0.408  -4.201  0.00  0.00     0.173 HD
ATOM     31  N   LIG d   1       7.378  -3.461  -4.711  0.00  0.00    -0.321 N 
ATOM     32  O   LIG d   1       9.435  -2.768  -4.269  0.00  0.00    -0.247 OA
ATOM     33  C   LIG d   1       6.057  -3.161  -4.927  0.00  0.00    -0.020 A 
ATOM     34  H   LIG d   1       7.717  -4.507  -4.743  0.00  0.00     0.169 HD
ATOM     35  O   LIG d   1       5.169  -4.145  -5.179  0.00  0.00    -0.861 OA
ENDBRANCH  14  25
BRANCH   1  36
ATOM     36  C   LIG d   1       3.710  -1.461  -2.747  0.00  0.00    -0.034 C 
ATOM     37  H   LIG d   1       4.224  -2.420  -2.908  0.00  0.00     0.081 H 
ATOM     38  H   LIG d   1       2.674  -1.650  -2.430  0.00  0.00     0.081 H 
BRANCH  36  39
ATOM     39  C   LIG d   1       4.439  -0.667  -1.662  0.00  0.00    -0.024 C 
ATOM     40  H   LIG d   1       3.757  -0.486  -0.819  0.00  0.00     0.028 H 
ATOM     41  H   LIG d   1       4.775   0.296  -2.075  0.00  0.00     0.028 H 
ATOM     42  H   LIG d   1       5.311  -1.240  -1.312  0.00  0.00     0.028 H 
ENDBRANCH  36  39
ENDBRANCH   1  36
TORSDOF 3
ENDMDL
MODEL 3
REMARK VINA RESULT:      -6.4      3.011      6.130
REMARK  3 active torsions:
REMARK  status: ('A' for Active; 'I' for Inactive)
REMARK    1  A    between atoms: C_1  and  C_2 
REMARK    2  A    between atoms: C_2  and  N_3 
REMARK    3  A    between atoms: C_16  and  C_18 
ROOT
ATOM      1  N   LIG d   1       4.793   0.240  -4.196  0.00  0.00     0.245 N 
ATOM      2  C   LIG d   1       3.324   0.269  -4.186  0.00  0.00    -0.027 C 
ATOM      3  C   LIG d   1       2.808   0.562  -5.602  0.00  0.00     0.015 C 
ATOM      4  C   LIG d   1       3.516  -0.366  -6.557  0.00  0.00    -0.008 A 
ATOM      5  C   LIG d   1       3.182  -0.706  -7.921  0.00  0.00     0.004 A 
ATOM      6  C   LIG d   1       2.146  -0.312  -8.774  0.00  0.00    -0.052 A 
ATOM      7  C   LIG d   1       2.139  -0.852 -10.036  0.00  0.00    -0.061 A 
ATOM      8  C   LIG d   1       3.108  -1.748 -10.458  0.00  0.00    -0.060 A 
ATOM      9  C   LIG d   1       4.144  -2.157  -9.637  0.00  0.00    -0.038 A 
ATOM     10  C   LIG d   1       4.176  -1.625  -8.349  0.00  0.00     0.047 A 
ATOM     11  N   LIG d   1       5.037  -1.808  -7.304  0.00  0.00    -0.353 N 
ATOM     12  H   LIG d   1       5.896  -2.488  -7.413  0.00  0.00     0.166 HD
ATOM     13  C   LIG d   1       4.637  -1.052  -6.237  0.00  0.00     0.074 A 
ATOM     14  C   LIG d   1       5.303  -0.957  -4.885  0.00  0.00     0.052 C 
ATOM     15  H   LIG d   1       5.072  -1.841  -4.272  0.00  0.00     0.097 H 
ATOM     16  H   LIG d   1       2.941  -0.707  -3.850  0.00  0.00     0.082 H 
ATOM     17  H   LIG d   1       2.977   1.055  -3.499  0.00  0.00     0.082 H 
ATOM     18  H   LIG d   1       1.722   0.389  -5.640  0.00  0.00     0.037 H 
ATOM     19  H   LIG d   1       3.021   1.609  -5.860  0.00  0.00     0.037 H 
ATOM     20  H   LIG d   1       1.431   0.333  -8.503  0.00  0.00     0.062 H 
ATOM     21  H   LIG d   1       1.420  -0.601 -10.684  0.00  0.00     0.062 H 
ATOM     22  H   LIG d   1       3.041  -2.101 -11.392  0.00  0.00     0.062 H 
ATOM     23  H   LIG d   1       4.825  -2.805  -9.976  0.00  0.00     0.064 H 
ATOM     24  H   LIG d   1       5.138   1.121  -4.759  0.00  0.00     0.204 HD
ENDROOT
BRANCH  14  25
ATOM     25  C   LIG d   1       6.795  -0.843  -5.061  0.00  0.00     0.079 A 
ATOM     26  C   LIG d   1       7.343   0.184  -5.849  0.00  0.00     0.262 A 
ATOM     27  N   LIG d   1       8.681   0.272  -5.991  0.00  0.00    -0.275 N 
ATOM     28  O   LIG d   1       6.614   0.993  -6.398  0.00  0.00    -0.267 OA
ATOM     29  C   LIG d   1       9.490  -0.621  -5.392  0.00  0.00     0.326 A 
ATOM     30  H   LIG d   1       9.109   1.080  -6.601  0.00  0.00     0.173 HD
ATOM     31  N   LIG d   1       8.987  -1.615  -4.637  0.00  0.00    -0.321 N 
ATOM     32  O   LIG d   1      10.694  -0.529  -5.536  0.00  0.00    -0.247 OA
ATOM     33  C   LIG d   1       7.632  -1.738  -4.462  0.00  0.00    -0.020 A 
ATOM     34  H   LIG d   1       9.670  -2.332  -4.158  0.00  0.00     0.169 HD
ATOM     35  O   LIG d   1       7.132  -2.735  -3.704  0.00  0.00    -0.861 OA
ENDBRANCH  14  25
BRANCH   1  36
ATOM     36  C   LIG d   1       5.331   0.334  -2.833  0.00  0.00    -0.034 C 
ATOM     37  H   LIG d   1       6.244   0.947  -2.841  0.00  0.00     0.081 H 
ATOM     38  H   LIG d   1       5.569  -0.674  -2.463  0.00  0.00     0.081 H 
BRANCH  36  39
ATOM     39  C   LIG d   1       4.291   0.981  -1.917  0.00  0.00    -0.024 C 
ATOM     40  H   LIG d   1       3.287   0.836  -2.342  0.00  0.00     0.028 H 
ATOM     41  H   LIG d   1       4.499   2.057  -1.827  0.00  0.00     0.028 H 
ATOM     42  H   LIG d   1       4.338   0.514  -0.922  0.00  0.00     0.028 H 
ENDBRANCH  36  39
ENDBRANCH   1  36
TORSDOF 3
ENDMDL
MODEL 4
REMARK VINA RESULT:      -6.4      2.675      3.597
REMARK  3 active torsions:
REMARK  status: ('A' for Active; 'I' for Inactive)
REMARK    1  A    between atoms: C_1  and  C_2 
REMARK    2  A    between atoms: C_2  and  N_3 
REMARK    3  A    between atoms: C_16  and  C_18 
ROOT
ATOM      1  N   LIG d   1       6.385  -0.954  -7.997  0.00  0.00     0.245 N 
ATOM      2  C   LIG d   1       7.512  -1.022  -7.058  0.00  0.00    -0.027 C 
ATOM      3  C   LIG d   1       7.257  -0.069  -5.881  0.00  0.00     0.015 C 
ATOM      4  C   LIG d   1       5.860  -0.324  -5.371  0.00  0.00    -0.008 A 
ATOM      5  C   LIG d   1       5.256   0.073  -4.120  0.00  0.00     0.004 A 
ATOM      6  C   LIG d   1       5.733   0.790  -3.018  0.00  0.00    -0.052 A 
ATOM      7  C   LIG d   1       4.860   0.983  -1.976  0.00  0.00    -0.061 A 
ATOM      8  C   LIG d   1       3.564   0.494  -2.002  0.00  0.00    -0.060 A 
ATOM      9  C   LIG d   1       3.065  -0.219  -3.078  0.00  0.00    -0.038 A 
ATOM     10  C   LIG d   1       3.929  -0.430  -4.151  0.00  0.00     0.047 A 
ATOM     11  N   LIG d   1       3.767  -1.076  -5.343  0.00  0.00    -0.353 N 
ATOM     12  H   LIG d   1       2.803  -1.549  -5.585  0.00  0.00     0.166 HD
ATOM     13  C   LIG d   1       4.925  -1.008  -6.068  0.00  0.00     0.074 A 
ATOM     14  C   LIG d   1       5.180  -1.588  -7.439  0.00  0.00     0.052 C 
ATOM     15  H   LIG d   1       5.349  -2.674  -7.379  0.00  0.00     0.097 H 
ATOM     16  H   LIG d   1       7.614  -2.051  -6.681  0.00  0.00     0.082 H 
ATOM     17  H   LIG d   1       8.438  -0.728  -7.574  0.00  0.00     0.082 H 
ATOM     18  H   LIG d   1       7.993  -0.261  -5.087  0.00  0.00     0.037 H 
ATOM     19  H   LIG d   1       7.352   0.971  -6.225  0.00  0.00     0.037 H 
ATOM     20  H   LIG d   1       6.662   1.157  -2.965  0.00  0.00     0.062 H 
ATOM     21  H   LIG d   1       5.152   1.489  -1.165  0.00  0.00     0.062 H 
ATOM     22  H   LIG d   1       2.983   0.672  -1.207  0.00  0.00     0.062 H 
ATOM     23  H   LIG d   1       2.124  -0.556  -3.062  0.00  0.00     0.064 H 
ATOM     24  H   LIG d   1       6.155   0.110  -8.164  0.00  0.00     0.204 HD
ENDROOT
BRANCH  14  25
ATOM     25  C   LIG d   1       4.001  -1.311  -8.334  0.00  0.00     0.079 A 
ATOM     26  C   LIG d   1       3.231  -2.369  -8.848  0.00  0.00     0.262 A 
ATOM     27  N   LIG d   1       2.177  -2.101  -9.644  0.00  0.00    -0.275 N 
ATOM     28  O   LIG d   1       3.513  -3.524  -8.571  0.00  0.00    -0.267 OA
ATOM     29  C   LIG d   1       1.865  -0.830  -9.957  0.00  0.00     0.326 A 
ATOM     30  H   LIG d   1       1.571  -2.929 -10.038  0.00  0.00     0.173 HD
ATOM     31  N   LIG d   1       2.591   0.199  -9.481  0.00  0.00    -0.321 N 
ATOM     32  O   LIG d   1       0.913  -0.608 -10.680  0.00  0.00    -0.247 OA
ATOM     33  C   LIG d   1       3.668  -0.030  -8.663  0.00  0.00    -0.020 A 
ATOM     34  H   LIG d   1       2.315   1.229  -9.752  0.00  0.00     0.169 HD
ATOM     35  O   LIG d   1       4.393   1.004  -8.188  0.00  0.00    -0.861 OA
ENDBRANCH  14  25
BRANCH   1  36
ATOM     36  C   LIG d   1       6.742  -1.548  -9.292  0.00  0.00    -0.034 C 
ATOM     37  H   LIG d   1       5.888  -2.125  -9.678  0.00  0.00     0.081 H 
ATOM     38  H   LIG d   1       7.607  -2.214  -9.163  0.00  0.00     0.081 H 
BRANCH  36  39
ATOM     39  C   LIG d   1       7.096  -0.438 -10.283  0.00  0.00    -0.024 C 
ATOM     40  H   LIG d   1       6.248  -0.267 -10.962  0.00  0.00     0.028 H 
ATOM     41  H   LIG d   1       7.979  -0.736 -10.868  0.00  0.00     0.028 H 
ATOM     42  H   LIG d   1       7.317   0.489  -9.733  0.00  0.00     0.028 H 
ENDBRANCH  36  39
ENDBRANCH   1  36
TORSDOF 3
ENDMDL
MODEL 5
REMARK VINA RESULT:      -6.3      2.230      3.184
REMARK  3 active torsions:
REMARK  status: ('A' for Active; 'I' for Inactive)
REMARK    1  A    between atoms: C_1  and  C_2 
REMARK    2  A    between atoms: C_2  and  N_3 
REMARK    3  A    between atoms: C_16  and  C_18 
ROOT
ATOM      1  N   LIG d   1       5.973  -2.939  -7.115  0.00  0.00     0.245 N 
ATOM      2  C   LIG d   1       6.233  -3.671  -5.868  0.00  0.00    -0.027 C 
ATOM      3  C   LIG d   1       6.443  -2.672  -4.722  0.00  0.00     0.015 C 
ATOM      4  C   LIG d   1       5.313  -1.673  -4.763  0.00  0.00    -0.008 A 
ATOM      5  C   LIG d   1       4.879  -0.739  -3.749  0.00  0.00     0.004 A 
ATOM      6  C   LIG d   1       5.333  -0.458  -2.457  0.00  0.00    -0.052 A 
ATOM      7  C   LIG d   1       4.662   0.516  -1.760  0.00  0.00    -0.061 A 
ATOM      8  C   LIG d   1       3.583   1.196  -2.300  0.00  0.00    -0.060 A 
ATOM      9  C   LIG d   1       3.111   0.940  -3.576  0.00  0.00    -0.038 A 
ATOM     10  C   LIG d   1       3.773  -0.046  -4.307  0.00  0.00     0.047 A 
ATOM     11  N   LIG d   1       3.575  -0.539  -5.565  0.00  0.00    -0.353 N 
ATOM     12  H   LIG d   1       2.761  -0.142  -6.189  0.00  0.00     0.166 HD
ATOM     13  C   LIG d   1       4.500  -1.511  -5.832  0.00  0.00     0.074 A 
ATOM     14  C   LIG d   1       4.641  -2.314  -7.103  0.00  0.00     0.052 C 
ATOM     15  H   LIG d   1       3.879  -3.106  -7.152  0.00  0.00     0.097 H 
ATOM     16  H   LIG d   1       5.375  -4.320  -5.637  0.00  0.00     0.082 H 
ATOM     17  H   LIG d   1       7.137  -4.288  -5.986  0.00  0.00     0.082 H 
ATOM     18  H   LIG d   1       6.441  -3.209  -3.762  0.00  0.00     0.037 H 
ATOM     19  H   LIG d   1       7.407  -2.160  -4.853  0.00  0.00     0.037 H 
ATOM     20  H   LIG d   1       6.109  -0.928  -2.036  0.00  0.00     0.062 H 
ATOM     21  H   LIG d   1       4.948   0.755  -0.832  0.00  0.00     0.062 H 
ATOM     22  H   LIG d   1       3.141   1.894  -1.735  0.00  0.00     0.062 H 
ATOM     23  H   LIG d   1       2.329   1.450  -3.932  0.00  0.00     0.064 H 
ATOM     24  H   LIG d   1       6.719  -2.134  -7.189  0.00  0.00     0.204 HD
ENDROOT
BRANCH  14  25
ATOM     25  C   LIG d   1       4.498  -1.404  -8.295  0.00  0.00     0.079 A 
ATOM     26  C   LIG d   1       3.484  -1.626  -9.243  0.00  0.00     0.262 A 
ATOM     27  N   LIG d   1       3.369  -0.798 -10.301  0.00  0.00    -0.275 N 
ATOM     28  O   LIG d   1       2.709  -2.557  -9.107  0.00  0.00    -0.267 OA
ATOM     29  C   LIG d   1       4.225   0.228 -10.460  0.00  0.00     0.326 A 
ATOM     30  H   LIG d   1       2.570  -0.967 -11.037  0.00  0.00     0.173 HD
ATOM     31  N   LIG d   1       5.207   0.456  -9.568  0.00  0.00    -0.321 N 
ATOM     32  O   LIG d   1       4.109   0.961 -11.424  0.00  0.00    -0.247 OA
ATOM     33  C   LIG d   1       5.355  -0.359  -8.474  0.00  0.00    -0.020 A 
ATOM     34  H   LIG d   1       5.894   1.301  -9.721  0.00  0.00     0.169 HD
ATOM     35  O   LIG d   1       6.341  -0.127  -7.582  0.00  0.00    -0.861 OA
ENDBRANCH  14  25
BRANCH   1  36
ATOM     36  C   LIG d   1       6.134  -3.815  -8.283  0.00  0.00    -0.034 C 
ATOM     37  H   LIG d   1       7.187  -4.122  -8.368  0.00  0.00     0.081 H 
ATOM     38  H   LIG d   1       5.835  -3.272  -9.192  0.00  0.00     0.081 H 
BRANCH  36  39
ATOM     39  C   LIG d   1       5.253  -5.055  -8.117  0.00  0.00    -0.024 C 
ATOM     40  H   LIG d   1       5.215  -5.608  -9.067  0.00  0.00     0.028 H 
ATOM     41  H   LIG d   1       4.236  -4.747  -7.831  0.00  0.00     0.028 H 
ATOM     42  H   LIG d   1       5.674  -5.701  -7.333  0.00  0.00     0.028 H 
ENDBRANCH  36  39
ENDBRANCH   1  36
TORSDOF 3
ENDMDL
MODEL 6
REMARK VINA RESULT:      -6.2      2.793      5.817
REMARK  3 active torsions:
REMARK  status: ('A' for Active; 'I' for Inactive)
REMARK    1  A    between atoms: C_1  and  C_2 
REMARK    2  A    between atoms: C_2  and  N_3 
REMARK    3  A    between atoms: C_16  and  C_18 
ROOT
ATOM      1  N   LIG d   1       6.221  -2.927  -5.398  0.00  0.00     0.245 N 
ATOM      2  C   LIG d   1       6.435  -3.756  -6.591  0.00  0.00    -0.027 C 
ATOM      3  C   LIG d   1       5.113  -3.901  -7.358  0.00  0.00     0.015 C 
ATOM      4  C   LIG d   1       4.515  -2.525  -7.519  0.00  0.00    -0.008 A 
ATOM      5  C   LIG d   1       3.466  -2.080  -8.407  0.00  0.00     0.004 A 
ATOM      6  C   LIG d   1       2.689  -2.737  -9.367  0.00  0.00    -0.052 A 
ATOM      7  C   LIG d   1       1.764  -1.980 -10.043  0.00  0.00    -0.061 A 
ATOM      8  C   LIG d   1       1.598  -0.628  -9.795  0.00  0.00    -0.060 A 
ATOM      9  C   LIG d   1       2.352   0.049  -8.852  0.00  0.00    -0.038 A 
ATOM     10  C   LIG d   1       3.300  -0.694  -8.151  0.00  0.00     0.047 A 
ATOM     11  N   LIG d   1       4.191  -0.351  -7.174  0.00  0.00    -0.353 N 
ATOM     12  H   LIG d   1       4.239   0.688  -6.814  0.00  0.00     0.166 HD
ATOM     13  C   LIG d   1       4.914  -1.451  -6.800  0.00  0.00     0.074 A 
ATOM     14  C   LIG d   1       6.002  -1.517  -5.755  0.00  0.00     0.052 C 
ATOM     15  H   LIG d   1       6.944  -1.101  -6.143  0.00  0.00     0.097 H 
ATOM     16  H   LIG d   1       7.185  -3.279  -7.240  0.00  0.00     0.082 H 
ATOM     17  H   LIG d   1       6.793  -4.751  -6.288  0.00  0.00     0.082 H 
ATOM     18  H   LIG d   1       5.307  -4.348  -8.344  0.00  0.00     0.037 H 
ATOM     19  H   LIG d   1       4.429  -4.548  -6.791  0.00  0.00     0.037 H 
ATOM     20  H   LIG d   1       2.782  -3.712  -9.570  0.00  0.00     0.062 H 
ATOM     21  H   LIG d   1       1.184  -2.403 -10.738  0.00  0.00     0.062 H 
ATOM     22  H   LIG d   1       0.904  -0.138 -10.325  0.00  0.00     0.062 H 
ATOM     23  H   LIG d   1       2.204   1.027  -8.701  0.00  0.00     0.064 H 
ATOM     24  H   LIG d   1       5.309  -3.291  -4.900  0.00  0.00     0.204 HD
ENDROOT
BRANCH  14  25
ATOM     25  C   LIG d   1       5.577  -0.745  -4.533  0.00  0.00     0.079 A 
ATOM     26  C   LIG d   1       4.540  -1.222  -3.712  0.00  0.00     0.262 A 
ATOM     27  N   LIG d   1       4.178  -0.519  -2.620  0.00  0.00    -0.275 N 
ATOM     28  O   LIG d   1       3.975  -2.268  -3.984  0.00  0.00    -0.267 OA
ATOM     29  C   LIG d   1       4.795   0.638  -2.319  0.00  0.00     0.326 A 
ATOM     30  H   LIG d   1       3.373  -0.898  -1.975  0.00  0.00     0.173 HD
ATOM     31  N   LIG d   1       5.786   1.117  -3.093  0.00  0.00    -0.321 N 
ATOM     32  O   LIG d   1       4.451   1.261  -1.333  0.00  0.00    -0.247 OA
ATOM     33  C   LIG d   1       6.190   0.430  -4.210  0.00  0.00    -0.020 A 
ATOM     34  H   LIG d   1       6.274   2.066  -2.825  0.00  0.00     0.169 HD
ATOM     35  O   LIG d   1       7.185   0.914  -4.983  0.00  0.00    -0.861 OA
ENDBRANCH  14  25
BRANCH   1  36
ATOM     36  C   LIG d   1       7.338  -3.065  -4.454  0.00  0.00    -0.034 C 
ATOM     37  H   LIG d   1       6.953  -3.029  -3.424  0.00  0.00     0.081 H 
ATOM     38  H   LIG d   1       8.051  -2.242  -4.608  0.00  0.00     0.081 H 
BRANCH  36  39
ATOM     39  C   LIG d   1       8.043  -4.402  -4.689  0.00  0.00    -0.024 C 
ATOM     40  H   LIG d   1       7.409  -5.221  -4.320  0.00  0.00     0.028 H 
ATOM     41  H   LIG d   1       9.003  -4.410  -4.150  0.00  0.00     0.028 H 
ATOM     42  H   LIG d   1       8.226  -4.536  -5.765  0.00  0.00     0.028 H 
ENDBRANCH  36  39
ENDBRANCH   1  36
TORSDOF 3
ENDMDL
MODEL 7
REMARK VINA RESULT:      -6.0     12.030     14.781
REMARK  3 active torsions:
REMARK  status: ('A' for Active; 'I' for Inactive)
REMARK    1  A    between atoms: C_1  and  C_2 
REMARK    2  A    between atoms: C_2  and  N_3 
REMARK    3  A    between atoms: C_16  and  C_18 
ROOT
ATOM      1  N   LIG d   1      10.575   7.389  -0.415  0.00  0.00     0.245 N 
ATOM      2  C   LIG d   1      10.666   6.127  -1.162  0.00  0.00    -0.027 C 
ATOM      3  C   LIG d   1       9.819   6.225  -2.439  0.00  0.00     0.015 C 
ATOM      4  C   LIG d   1      10.172   7.516  -3.134  0.00  0.00    -0.008 A 
ATOM      5  C   LIG d   1       9.899   7.930  -4.492  0.00  0.00     0.004 A 
ATOM      6  C   LIG d   1       9.249   7.309  -5.563  0.00  0.00    -0.052 A 
ATOM      7  C   LIG d   1       9.175   8.015  -6.739  0.00  0.00    -0.061 A 
ATOM      8  C   LIG d   1       9.715   9.283  -6.870  0.00  0.00    -0.060 A 
ATOM      9  C   LIG d   1      10.364   9.923  -5.828  0.00  0.00    -0.038 A 
ATOM     10  C   LIG d   1      10.455   9.230  -4.622  0.00  0.00     0.047 A 
ATOM     11  N   LIG d   1      11.014   9.556  -3.419  0.00  0.00    -0.353 N 
ATOM     12  H   LIG d   1      11.508  10.530  -3.289  0.00  0.00     0.166 HD
ATOM     13  C   LIG d   1      10.840   8.527  -2.534  0.00  0.00     0.074 A 
ATOM     14  C   LIG d   1      11.302   8.472  -1.097  0.00  0.00     0.052 C 
ATOM     15  H   LIG d   1      12.381   8.262  -1.041  0.00  0.00     0.097 H 
ATOM     16  H   LIG d   1      11.716   5.937  -1.433  0.00  0.00     0.082 H 
ATOM     17  H   LIG d   1      10.294   5.302  -0.537  0.00  0.00     0.082 H 
ATOM     18  H   LIG d   1      10.039   5.368  -3.093  0.00  0.00     0.037 H 
ATOM     19  H   LIG d   1       8.752   6.217  -2.172  0.00  0.00     0.037 H 
ATOM     20  H   LIG d   1       8.847   6.396  -5.503  0.00  0.00     0.062 H 
ATOM     21  H   LIG d   1       8.720   7.615  -7.534  0.00  0.00     0.062 H 
ATOM     22  H   LIG d   1       9.624   9.739  -7.757  0.00  0.00     0.062 H 
ATOM     23  H   LIG d   1      10.742  10.839  -5.960  0.00  0.00     0.064 H 
ATOM     24  H   LIG d   1       9.512   7.674  -0.375  0.00  0.00     0.204 HD
ENDROOT
BRANCH  14  25
ATOM     25  C   LIG d   1      11.008   9.784  -0.419  0.00  0.00     0.079 A 
ATOM     26  C   LIG d   1       9.680  10.202  -0.219  0.00  0.00     0.262 A 
ATOM     27  N   LIG d   1       9.437  11.378   0.394  0.00  0.00    -0.275 N 
ATOM     28  O   LIG d   1       8.754   9.503  -0.593  0.00  0.00    -0.267 OA
ATOM     29  C   LIG d   1      10.456  12.156   0.804  0.00  0.00     0.326 A 
ATOM     30  H   LIG d   1       8.399  11.699   0.558  0.00  0.00     0.173 HD
ATOM     31  N   LIG d   1      11.734  11.779   0.618  0.00  0.00    -0.321 N 
ATOM     32  O   LIG d   1      10.217  13.216   1.351  0.00  0.00    -0.247 OA
ATOM     33  C   LIG d   1      12.026  10.587   0.004  0.00  0.00    -0.020 A 
ATOM     34  H   LIG d   1      12.549  12.433   0.962  0.00  0.00     0.169 HD
ATOM     35  O   LIG d   1      13.309  10.213  -0.180  0.00  0.00    -0.861 OA
ENDBRANCH  14  25
BRANCH   1  36
ATOM     36  C   LIG d   1      11.052   7.220   0.963  0.00  0.00    -0.034 C 
ATOM     37  H   LIG d   1      10.382   7.757   1.651  0.00  0.00     0.081 H 
ATOM     38  H   LIG d   1      12.070   7.626   1.051  0.00  0.00     0.081 H 
BRANCH  36  39
ATOM     39  C   LIG d   1      11.064   5.733   1.321  0.00  0.00    -0.024 C 
ATOM     40  H   LIG d   1      10.030   5.375   1.438  0.00  0.00     0.028 H 
ATOM     41  H   LIG d   1      11.611   5.587   2.265  0.00  0.00     0.028 H 
ATOM     42  H   LIG d   1      11.560   5.167   0.519  0.00  0.00     0.028 H 
ENDBRANCH  36  39
ENDBRANCH   1  36
TORSDOF 3
ENDMDL
MODEL 8
REMARK VINA RESULT:      -5.9      3.306      5.034
REMARK  3 active torsions:
REMARK  status: ('A' for Active; 'I' for Inactive)
REMARK    1  A    between atoms: C_1  and  C_2 
REMARK    2  A    between atoms: C_2  and  N_3 
REMARK    3  A    between atoms: C_16  and  C_18 
ROOT
ATOM      1  N   LIG d   1       5.437  -2.029  -8.315  0.00  0.00     0.245 N 
ATOM      2  C   LIG d   1       4.464  -3.038  -7.874  0.00  0.00    -0.027 C 
ATOM      3  C   LIG d   1       4.641  -3.296  -6.370  0.00  0.00     0.015 C 
ATOM      4  C   LIG d   1       4.681  -1.960  -5.670  0.00  0.00    -0.008 A 
ATOM      5  C   LIG d   1       4.524  -1.657  -4.266  0.00  0.00     0.004 A 
ATOM      6  C   LIG d   1       4.294  -2.455  -3.140  0.00  0.00    -0.052 A 
ATOM      7  C   LIG d   1       4.194  -1.811  -1.932  0.00  0.00    -0.061 A 
ATOM      8  C   LIG d   1       4.313  -0.435  -1.819  0.00  0.00    -0.060 A 
ATOM      9  C   LIG d   1       4.539   0.379  -2.915  0.00  0.00    -0.038 A 
ATOM     10  C   LIG d   1       4.645  -0.247  -4.156  0.00  0.00     0.047 A 
ATOM     11  N   LIG d   1       4.862   0.242  -5.412  0.00  0.00    -0.353 N 
ATOM     12  H   LIG d   1       4.987   1.324  -5.566  0.00  0.00     0.166 HD
ATOM     13  C   LIG d   1       4.883  -0.788  -6.313  0.00  0.00     0.074 A 
ATOM     14  C   LIG d   1       5.095  -0.692  -7.805  0.00  0.00     0.052 C 
ATOM     15  H   LIG d   1       4.179  -0.347  -8.308  0.00  0.00     0.097 H 
ATOM     16  H   LIG d   1       3.444  -2.672  -8.066  0.00  0.00     0.082 H 
ATOM     17  H   LIG d   1       4.628  -3.973  -8.428  0.00  0.00     0.082 H 
ATOM     18  H   LIG d   1       3.796  -3.894  -5.999  0.00  0.00     0.037 H 
ATOM     19  H   LIG d   1       5.579  -3.843  -6.200  0.00  0.00     0.037 H 
ATOM     20  H   LIG d   1       4.205  -3.450  -3.185  0.00  0.00     0.062 H 
ATOM     21  H   LIG d   1       4.031  -2.336  -1.097  0.00  0.00     0.062 H 
ATOM     22  H   LIG d   1       4.229  -0.033  -0.907  0.00  0.00     0.062 H 
ATOM     23  H   LIG d   1       4.619   1.369  -2.796  0.00  0.00     0.064 H 
ATOM     24  H   LIG d   1       6.416  -2.306  -7.894  0.00  0.00     0.204 HD
ENDROOT
BRANCH  14  25
ATOM     25  C   LIG d   1       6.221   0.265  -8.097  0.00  0.00     0.079 A 
ATOM     26  C   LIG d   1       7.535  -0.039  -7.703  0.00  0.00     0.262 A 
ATOM     27  N   LIG d   1       8.530   0.828  -7.978  0.00  0.00    -0.275 N 
ATOM     28  O   LIG d   1       7.776  -1.083  -7.121  0.00  0.00    -0.267 OA
ATOM     29  C   LIG d   1       8.271   1.985  -8.615  0.00  0.00     0.326 A 
ATOM     30  H   LIG d   1       9.559   0.586  -7.677  0.00  0.00     0.173 HD
ATOM     31  N   LIG d   1       7.019   2.299  -8.996  0.00  0.00    -0.321 N 
ATOM     32  O   LIG d   1       9.180   2.757  -8.849  0.00  0.00    -0.247 OA
ATOM     33  C   LIG d   1       5.978   1.442  -8.742  0.00  0.00    -0.020 A 
ATOM     34  H   LIG d   1       6.832   3.251  -9.516  0.00  0.00     0.169 HD
ATOM     35  O   LIG d   1       4.724   1.762  -9.126  0.00  0.00    -0.861 OA
ENDBRANCH  14  25
BRANCH   1  36
ATOM     36  C   LIG d   1       5.559  -2.020  -9.778  0.00  0.00    -0.034 C 
ATOM     37  H   LIG d   1       5.988  -2.975 -10.116  0.00  0.00     0.081 H 
ATOM     38  H   LIG d   1       6.217  -1.194 -10.086  0.00  0.00     0.081 H 
BRANCH  36  39
ATOM     39  C   LIG d   1       4.176  -1.832 -10.405  0.00  0.00    -0.024 C 
ATOM     40  H   LIG d   1       3.456  -1.547  -9.625  0.00  0.00     0.028 H 
ATOM     41  H   LIG d   1       3.855  -2.774 -10.875  0.00  0.00     0.028 H 
ATOM     42  H   LIG d   1       4.224  -1.040 -11.167  0.00  0.00     0.028 H 
ENDBRANCH  36  39
ENDBRANCH   1  36
TORSDOF 3
ENDMDL
MODEL 9
REMARK VINA RESULT:      -5.9     10.452     13.322
REMARK  3 active torsions:
REMARK  status: ('A' for Active; 'I' for Inactive)
REMARK    1  A    between atoms: C_1  and  C_2 
REMARK    2  A    between atoms: C_2  and  N_3 
REMARK    3  A    between atoms: C_16  and  C_18 
ROOT
ATOM      1  N   LIG d   1      11.352   7.945  -0.358  0.00  0.00     0.245 N 
ATOM      2  C   LIG d   1      12.046   6.699  -0.004  0.00  0.00    -0.027 C 
ATOM      3  C   LIG d   1      11.200   5.497  -0.451  0.00  0.00     0.015 C 
ATOM      4  C   LIG d   1      10.789   5.725  -1.884  0.00  0.00    -0.008 A 
ATOM      5  C   LIG d   1      10.263   4.784  -2.846  0.00  0.00     0.004 A 
ATOM      6  C   LIG d   1       9.973   3.417  -2.781  0.00  0.00    -0.052 A 
ATOM      7  C   LIG d   1       9.475   2.832  -3.918  0.00  0.00    -0.061 A 
ATOM      8  C   LIG d   1       9.266   3.550  -5.084  0.00  0.00    -0.060 A 
ATOM      9  C   LIG d   1       9.544   4.902  -5.179  0.00  0.00    -0.038 A 
ATOM     10  C   LIG d   1      10.051   5.524  -4.039  0.00  0.00     0.047 A 
ATOM     11  N   LIG d   1      10.425   6.814  -3.790  0.00  0.00    -0.353 N 
ATOM     12  H   LIG d   1      10.345   7.572  -4.583  0.00  0.00     0.166 HD
ATOM     13  C   LIG d   1      10.864   6.927  -2.499  0.00  0.00     0.074 A 
ATOM     14  C   LIG d   1      11.367   8.174  -1.812  0.00  0.00     0.052 C 
ATOM     15  H   LIG d   1      12.398   8.403  -2.122  0.00  0.00     0.097 H 
ATOM     16  H   LIG d   1      13.023   6.668  -0.509  0.00  0.00     0.082 H 
ATOM     17  H   LIG d   1      12.194   6.659   1.085  0.00  0.00     0.082 H 
ATOM     18  H   LIG d   1      11.798   4.578  -0.368  0.00  0.00     0.037 H 
ATOM     19  H   LIG d   1      10.312   5.416   0.192  0.00  0.00     0.037 H 
ATOM     20  H   LIG d   1      10.111   2.869  -1.956  0.00  0.00     0.062 H 
ATOM     21  H   LIG d   1       9.251   1.857  -3.922  0.00  0.00     0.062 H 
ATOM     22  H   LIG d   1       8.901   3.058  -5.875  0.00  0.00     0.062 H 
ATOM     23  H   LIG d   1       9.381   5.388  -6.038  0.00  0.00     0.064 H 
ATOM     24  H   LIG d   1      10.301   7.839  -0.048  0.00  0.00     0.204 HD
ENDROOT
BRANCH  14  25
ATOM     25  C   LIG d   1      10.470   9.336  -2.151  0.00  0.00     0.079 A 
ATOM     26  C   LIG d   1      10.918  10.356  -3.009  0.00  0.00     0.262 A 
ATOM     27  N   LIG d   1      10.099  11.386  -3.304  0.00  0.00    -0.275 N 
ATOM     28  O   LIG d   1      12.038  10.307  -3.489  0.00  0.00    -0.267 OA
ATOM     29  C   LIG d   1       8.864  11.448  -2.773  0.00  0.00     0.326 A 
ATOM     30  H   LIG d   1      10.447  12.178  -3.982  0.00  0.00     0.173 HD
ATOM     31  N   LIG d   1       8.417  10.487  -1.944  0.00  0.00    -0.321 N 
ATOM     32  O   LIG d   1       8.142  12.387  -3.046  0.00  0.00    -0.247 OA
ATOM     33  C   LIG d   1       9.215   9.418  -1.623  0.00  0.00    -0.020 A 
ATOM     34  H   LIG d   1       7.403  10.561  -1.524  0.00  0.00     0.169 HD
ATOM     35  O   LIG d   1       8.763   8.456  -0.792  0.00  0.00    -0.861 OA
ENDBRANCH  14  25
BRANCH   1  36
ATOM     36  C   LIG d   1      11.924   9.089   0.362  0.00  0.00    -0.034 C 
ATOM     37  H   LIG d   1      11.435  10.016   0.026  0.00  0.00     0.081 H 
ATOM     38  H   LIG d   1      13.003   9.149   0.157  0.00  0.00     0.081 H 
BRANCH  36  39
ATOM     39  C   LIG d   1      11.700   8.911   1.865  0.00  0.00    -0.024 C 
ATOM     40  H   LIG d   1      11.042   8.046   2.038  0.00  0.00     0.028 H 
ATOM     41  H   LIG d   1      11.230   9.817   2.276  0.00  0.00     0.028 H 
ATOM     42  H   LIG d   1      12.666   8.741   2.362  0.00  0.00     0.028 H 
ENDBRANCH  36  39
ENDBRANCH   1  36
TORSDOF 3
ENDMDL
MODEL 10
REMARK VINA RESULT:      -5.8      2.606      4.441
REMARK  3 active torsions:
REMARK  status: ('A' for Active; 'I' for Inactive)
REMARK    1  A    between atoms: C_1  and  C_2 
REMARK    2  A    between atoms: C_2  and  N_3 
REMARK    3  A    between atoms: C_16  and  C_18 
ROOT
ATOM      1  N   LIG d   1       4.156  -0.193  -9.149  0.00  0.00     0.245 N 
ATOM      2  C   LIG d   1       3.817   1.082  -8.503  0.00  0.00    -0.027 C 
ATOM      3  C   LIG d   1       2.992   0.810  -7.236  0.00  0.00     0.015 C 
ATOM      4  C   LIG d   1       3.705  -0.252  -6.436  0.00  0.00    -0.008 A 
ATOM      5  C   LIG d   1       3.522  -0.635  -5.054  0.00  0.00     0.004 A 
ATOM      6  C   LIG d   1       2.667  -0.178  -4.045  0.00  0.00    -0.052 A 
ATOM      7  C   LIG d   1       2.771  -0.787  -2.819  0.00  0.00    -0.061 A 
ATOM      8  C   LIG d   1       3.677  -1.807  -2.579  0.00  0.00    -0.060 A 
ATOM      9  C   LIG d   1       4.535  -2.279  -3.557  0.00  0.00    -0.038 A 
ATOM     10  C   LIG d   1       4.452  -1.679  -4.813  0.00  0.00     0.047 A 
ATOM     11  N   LIG d   1       5.133  -1.895  -5.977  0.00  0.00    -0.353 N 
ATOM     12  H   LIG d   1       5.913  -2.670  -6.022  0.00  0.00     0.166 HD
ATOM     13  C   LIG d   1       4.681  -1.039  -6.943  0.00  0.00     0.074 A 
ATOM     14  C   LIG d   1       5.158  -0.940  -8.372  0.00  0.00     0.052 C 
ATOM     15  H   LIG d   1       6.118  -0.405  -8.428  0.00  0.00     0.097 H 
ATOM     16  H   LIG d   1       4.742   1.612  -8.231  0.00  0.00     0.082 H 
ATOM     17  H   LIG d   1       3.229   1.700  -9.197  0.00  0.00     0.082 H 
ATOM     18  H   LIG d   1       2.906   1.736  -6.648  0.00  0.00     0.037 H 
ATOM     19  H   LIG d   1       1.989   0.462  -7.520  0.00  0.00     0.037 H 
ATOM     20  H   LIG d   1       2.001   0.555  -4.184  0.00  0.00     0.062 H 
ATOM     21  H   LIG d   1       2.182  -0.497  -2.065  0.00  0.00     0.062 H 
ATOM     22  H   LIG d   1       3.698  -2.205  -1.661  0.00  0.00     0.062 H 
ATOM     23  H   LIG d   1       5.176  -3.017  -3.347  0.00  0.00     0.064 H 
ATOM     24  H   LIG d   1       3.239  -0.802  -9.184  0.00  0.00     0.204 HD
ENDROOT
BRANCH  14  25
ATOM     25  C   LIG d   1       5.319  -2.323  -8.950  0.00  0.00     0.079 A 
ATOM     26  C   LIG d   1       4.197  -3.145  -9.153  0.00  0.00     0.262 A 
ATOM     27  N   LIG d   1       4.360  -4.377  -9.675  0.00  0.00    -0.275 N 
ATOM     28  O   LIG d   1       3.082  -2.745  -8.864  0.00  0.00    -0.267 OA
ATOM     29  C   LIG d   1       5.589  -4.827  -9.991  0.00  0.00     0.326 A 
ATOM     30  H   LIG d   1       3.482  -5.016  -9.842  0.00  0.00     0.173 HD
ATOM     31  N   LIG d   1       6.678  -4.059  -9.799  0.00  0.00    -0.321 N 
ATOM     32  O   LIG d   1       5.717  -5.943 -10.456  0.00  0.00    -0.247 OA
ATOM     33  C   LIG d   1       6.555  -2.796  -9.276  0.00  0.00    -0.020 A 
ATOM     34  H   LIG d   1       7.671  -4.449 -10.066  0.00  0.00     0.169 HD
ATOM     35  O   LIG d   1       7.649  -2.030  -9.086  0.00  0.00    -0.861 OA
ENDBRANCH  14  25
BRANCH   1  36
ATOM     36  C   LIG d   1       4.611   0.021 -10.529  0.00  0.00    -0.034 C 
ATOM     37  H   LIG d   1       5.447  -0.659 -10.749  0.00  0.00     0.081 H 
ATOM     38  H   LIG d   1       4.944   1.063 -10.647  0.00  0.00     0.081 H 
BRANCH  36  39
ATOM     39  C   LIG d   1       3.459  -0.259 -11.496  0.00  0.00    -0.024 C 
ATOM     40  H   LIG d   1       3.470   0.485 -12.305  0.00  0.00     0.028 H 
ATOM     41  H   LIG d   1       2.503  -0.198 -10.955  0.00  0.00     0.028 H 
ATOM     42  H   LIG d   1       3.575  -1.266 -11.923  0.00  0.00     0.028 H 
ENDBRANCH  36  39
ENDBRANCH   1  36
TORSDOF 3
ENDMDL
