MODEL 1
REMARK VINA RESULT:      -4.7      0.000      0.000
REMARK  5 active torsions:
REMARK  status: ('A' for Active; 'I' for Inactive)
REMARK    1  A    between atoms: C_1  and  C_2 
REMARK    2  A    between atoms: C_2  and  C_3 
REMARK    3  A    between atoms: C_2  and  C_10 
REMARK    4  A    between atoms: C_2  and  N_22 
REMARK    5  A    between atoms: C_3  and  C_4 
ROOT
ATOM      1  C   LIG d   1       3.920  -0.406  -3.231  0.00  0.00     0.029 C 
ENDROOT
BRANCH   1   2
ATOM      2  C   LIG d   1       4.279  -1.420  -2.143  0.00  0.00    -0.013 C 
ATOM      3  H   LIG d   1       4.950  -0.956  -1.421  0.00  0.00     0.029 H 
ATOM      4  H   LIG d   1       3.371  -1.748  -1.638  0.00  0.00     0.029 H 
ATOM      5  H   LIG d   1       4.773  -2.280  -2.597  0.00  0.00     0.029 H 
ENDBRANCH   1   2
BRANCH   1   6
ATOM      6  C   LIG d   1       4.971  -0.456  -4.342  0.00  0.00     0.042 C 
ATOM      7  H   LIG d   1       5.634  -1.305  -4.177  0.00  0.00     0.039 H 
ATOM      8  H   LIG d   1       5.551   0.467  -4.335  0.00  0.00     0.039 H 
BRANCH   6   9
ATOM      9  C   LIG d   1       4.284  -0.607  -5.675  0.00  0.00     0.065 A 
ATOM     10  N   LIG d   1       3.542   0.326  -6.291  0.00  0.00    -0.241 NA
ATOM     11  C   LIG d   1       3.104  -0.151  -7.424  0.00  0.00     0.094 A 
ATOM     12  N   LIG d   1       3.558  -1.416  -7.565  0.00  0.00    -0.351 N 
ATOM     13  H   LIG d   1       2.479   0.376  -8.129  0.00  0.00     0.103 H 
ATOM     14  C   LIG d   1       4.306  -1.704  -6.456  0.00  0.00     0.025 A 
ATOM     15  H   LIG d   1       3.381  -2.027  -8.338  0.00  0.00     0.166 HD
ATOM     16  H   LIG d   1       4.817  -2.632  -6.248  0.00  0.00     0.083 H 
ENDBRANCH   6   9
ENDBRANCH   1   6
BRANCH   1  17
ATOM     17  C   LIG d   1       3.885   0.978  -2.634  0.00  0.00     0.093 C 
ATOM     18  O   LIG d   1       4.191   1.145  -1.477  0.00  0.00    -0.544 OA
ATOM     19  O   LIG d   1       3.515   2.024  -3.389  0.00  0.00    -0.544 OA
ENDBRANCH   1  17
BRANCH   1  20
ATOM     20  N   LIG d   1       2.587  -0.730  -3.767  0.00  0.00     0.227 N 
ATOM     21  H   LIG d   1       2.530  -1.724  -3.984  0.00  0.00     0.200 HD
ATOM     22  H   LIG d   1       1.868  -0.490  -3.086  0.00  0.00     0.200 HD
ATOM     23  H   LIG d   1       2.428  -0.191  -4.627  0.00  0.00     0.200 HD
ENDBRANCH   1  20
TORSDOF 5
ENDMDL
MODEL 2
REMARK VINA RESULT:      -4.5      2.120      2.938
REMARK  5 active torsions:
REMARK  status: ('A' for Active; 'I' for Inactive)
REMARK    1  A    between atoms: C_1  and  C_2 
REMARK    2  A    between atoms: C_2  and  C_3 
REMARK    3  A    between atoms: C_2  and  C_10 
REMARK    4  A    between atoms: C_2  and  N_22 
REMARK    5  A    between atoms: C_3  and  C_4 
ROOT
ATOM      1  C   LIG d   1       3.961  -0.182  -3.304  0.00  0.00     0.029 C 
ENDROOT
BRANCH   1   2
ATOM      2  C   LIG d   1       2.487  -0.573  -3.182  0.00  0.00    -0.013 C 
ATOM      3  H   LIG d   1       1.867   0.199  -3.636  0.00  0.00     0.029 H 
ATOM      4  H   LIG d   1       2.318  -1.521  -3.693  0.00  0.00     0.029 H 
ATOM      5  H   LIG d   1       2.224  -0.677  -2.128  0.00  0.00     0.029 H 
ENDBRANCH   1   2
BRANCH   1   6
ATOM      6  C   LIG d   1       4.827  -1.233  -2.605  0.00  0.00     0.042 C 
ATOM      7  H   LIG d   1       4.252  -1.708  -1.810  0.00  0.00     0.039 H 
ATOM      8  H   LIG d   1       5.708  -0.753  -2.181  0.00  0.00     0.039 H 
BRANCH   6   9
ATOM      9  C   LIG d   1       5.255  -2.275  -3.606  0.00  0.00     0.065 A 
ATOM     10  N   LIG d   1       4.447  -3.129  -4.251  0.00  0.00    -0.241 NA
ATOM     11  C   LIG d   1       5.160  -3.887  -5.038  0.00  0.00     0.094 A 
ATOM     12  N   LIG d   1       6.459  -3.535  -4.916  0.00  0.00    -0.351 N 
ATOM     13  H   LIG d   1       4.776  -4.669  -5.676  0.00  0.00     0.103 H 
ATOM     14  C   LIG d   1       6.518  -2.513  -4.008  0.00  0.00     0.025 A 
ATOM     15  H   LIG d   1       7.232  -3.945  -5.401  0.00  0.00     0.166 HD
ATOM     16  H   LIG d   1       7.407  -1.996  -3.678  0.00  0.00     0.083 H 
ENDBRANCH   6   9
ENDBRANCH   1   6
BRANCH   1  17
ATOM     17  C   LIG d   1       4.178   1.161  -2.654  0.00  0.00     0.093 C 
ATOM     18  O   LIG d   1       3.822   2.169  -3.216  0.00  0.00    -0.544 OA
ATOM     19  O   LIG d   1       4.767   1.235  -1.450  0.00  0.00    -0.544 OA
ENDBRANCH   1  17
BRANCH   1  20
ATOM     20  N   LIG d   1       4.316  -0.087  -4.730  0.00  0.00     0.227 N 
ATOM     21  H   LIG d   1       3.521  -0.360  -5.306  0.00  0.00     0.200 HD
ATOM     22  H   LIG d   1       4.588   0.867  -4.960  0.00  0.00     0.200 HD
ATOM     23  H   LIG d   1       5.102  -0.717  -4.925  0.00  0.00     0.200 HD
ENDBRANCH   1  20
TORSDOF 5
ENDMDL
MODEL 3
REMARK VINA RESULT:      -4.2      2.655      3.506
REMARK  5 active torsions:
REMARK  status: ('A' for Active; 'I' for Inactive)
REMARK    1  A    between atoms: C_1  and  C_2 
REMARK    2  A    between atoms: C_2  and  C_3 
REMARK    3  A    between atoms: C_2  and  C_10 
REMARK    4  A    between atoms: C_2  and  N_22 
REMARK    5  A    between atoms: C_3  and  C_4 
ROOT
ATOM      1  C   LIG d   1       3.639   0.039  -3.855  0.00  0.00     0.029 C 
ENDROOT
BRANCH   1   2
ATOM      2  C   LIG d   1       2.203  -0.016  -4.380  0.00  0.00    -0.013 C 
ATOM      3  H   LIG d   1       2.216  -0.141  -5.462  0.00  0.00     0.029 H 
ATOM      4  H   LIG d   1       1.679  -0.855  -3.923  0.00  0.00     0.029 H 
ATOM      5  H   LIG d   1       1.689   0.913  -4.128  0.00  0.00     0.029 H 
ENDBRANCH   1   2
BRANCH   1   6
ATOM      6  C   LIG d   1       4.607  -0.335  -4.979  0.00  0.00     0.042 C 
ATOM      7  H   LIG d   1       4.386   0.264  -5.863  0.00  0.00     0.039 H 
ATOM      8  H   LIG d   1       4.496  -1.392  -5.218  0.00  0.00     0.039 H 
BRANCH   6   9
ATOM      9  C   LIG d   1       6.022  -0.066  -4.532  0.00  0.00     0.065 A 
ATOM     10  N   LIG d   1       6.601   1.139  -4.430  0.00  0.00    -0.241 NA
ATOM     11  C   LIG d   1       7.830   0.992  -4.015  0.00  0.00     0.094 A 
ATOM     12  N   LIG d   1       8.072  -0.326  -3.840  0.00  0.00    -0.351 N 
ATOM     13  H   LIG d   1       8.536   1.791  -3.845  0.00  0.00     0.103 H 
ATOM     14  C   LIG d   1       6.925  -0.996  -4.168  0.00  0.00     0.025 A 
ATOM     15  H   LIG d   1       8.930  -0.734  -3.527  0.00  0.00     0.166 HD
ATOM     16  H   LIG d   1       6.774  -2.065  -4.140  0.00  0.00     0.083 H 
ENDBRANCH   6   9
ENDBRANCH   1   6
BRANCH   1  17
ATOM     17  C   LIG d   1       3.793  -0.936  -2.715  0.00  0.00     0.093 C 
ATOM     18  O   LIG d   1       3.417  -2.077  -2.841  0.00  0.00    -0.544 OA
ATOM     19  O   LIG d   1       4.347  -0.534  -1.561  0.00  0.00    -0.544 OA
ENDBRANCH   1  17
BRANCH   1  20
ATOM     20  N   LIG d   1       3.919   1.399  -3.364  0.00  0.00     0.227 N 
ATOM     21  H   LIG d   1       3.053   1.849  -3.069  0.00  0.00     0.200 HD
ATOM     22  H   LIG d   1       4.565   1.360  -2.577  0.00  0.00     0.200 HD
ATOM     23  H   LIG d   1       4.341   1.950  -4.119  0.00  0.00     0.200 HD
ENDBRANCH   1  20
TORSDOF 5
ENDMDL
MODEL 4
REMARK VINA RESULT:      -3.9      2.744      4.431
REMARK  5 active torsions:
REMARK  status: ('A' for Active; 'I' for Inactive)
REMARK    1  A    between atoms: C_1  and  C_2 
REMARK    2  A    between atoms: C_2  and  C_3 
REMARK    3  A    between atoms: C_2  and  C_10 
REMARK    4  A    between atoms: C_2  and  N_22 
REMARK    5  A    between atoms: C_3  and  C_4 
ROOT
ATOM      1  C   LIG d   1       4.113  -0.389  -6.012  0.00  0.00     0.029 C 
ENDROOT
BRANCH   1   2
ATOM      2  C   LIG d   1       4.313  -1.904  -6.069  0.00  0.00    -0.013 C 
ATOM      3  H   LIG d   1       4.416  -2.296  -5.057  0.00  0.00     0.029 H 
ATOM      4  H   LIG d   1       3.453  -2.367  -6.552  0.00  0.00     0.029 H 
ATOM      5  H   LIG d   1       5.215  -2.131  -6.639  0.00  0.00     0.029 H 
ENDBRANCH   1   2
BRANCH   1   6
ATOM      6  C   LIG d   1       3.034  -0.055  -4.980  0.00  0.00     0.042 C 
ATOM      7  H   LIG d   1       2.313  -0.872  -4.931  0.00  0.00     0.039 H 
ATOM      8  H   LIG d   1       2.524   0.863  -5.271  0.00  0.00     0.039 H 
BRANCH   6   9
ATOM      9  C   LIG d   1       3.673   0.132  -3.628  0.00  0.00     0.065 A 
ATOM     10  N   LIG d   1       4.246   1.257  -3.176  0.00  0.00    -0.241 NA
ATOM     11  C   LIG d   1       4.694   1.056  -1.966  0.00  0.00     0.094 A 
ATOM     12  N   LIG d   1       4.418  -0.217  -1.609  0.00  0.00    -0.351 N 
ATOM     13  H   LIG d   1       5.205   1.785  -1.356  0.00  0.00     0.103 H 
ATOM     14  C   LIG d   1       3.770  -0.802  -2.663  0.00  0.00     0.025 A 
ATOM     15  H   LIG d   1       4.644  -0.650  -0.736  0.00  0.00     0.166 HD
ATOM     16  H   LIG d   1       3.406  -1.818  -2.711  0.00  0.00     0.083 H 
ENDBRANCH   6   9
ENDBRANCH   1   6
BRANCH   1  17
ATOM     17  C   LIG d   1       3.684   0.112  -7.367  0.00  0.00     0.093 C 
ATOM     18  O   LIG d   1       4.319   0.979  -7.920  0.00  0.00    -0.544 OA
ATOM     19  O   LIG d   1       2.597  -0.406  -7.960  0.00  0.00    -0.544 OA
ENDBRANCH   1  17
BRANCH   1  20
ATOM     20  N   LIG d   1       5.389   0.250  -5.647  0.00  0.00     0.227 N 
ATOM     21  H   LIG d   1       6.169  -0.351  -5.912  0.00  0.00     0.200 HD
ATOM     22  H   LIG d   1       5.479   1.148  -6.121  0.00  0.00     0.200 HD
ATOM     23  H   LIG d   1       5.414   0.402  -4.632  0.00  0.00     0.200 HD
ENDBRANCH   1  20
TORSDOF 5
ENDMDL
MODEL 5
REMARK VINA RESULT:      -3.9      2.893      3.801
REMARK  5 active torsions:
REMARK  status: ('A' for Active; 'I' for Inactive)
REMARK    1  A    between atoms: C_1  and  C_2 
REMARK    2  A    between atoms: C_2  and  C_3 
REMARK    3  A    between atoms: C_2  and  C_10 
REMARK    4  A    between atoms: C_2  and  N_22 
REMARK    5  A    between atoms: C_3  and  C_4 
ROOT
ATOM      1  C   LIG d   1       4.456  -0.479  -4.311  0.00  0.00     0.029 C 
ENDROOT
BRANCH   1   2
ATOM      2  C   LIG d   1       4.419  -1.999  -4.481  0.00  0.00    -0.013 C 
ATOM      3  H   LIG d   1       4.649  -2.256  -5.514  0.00  0.00     0.029 H 
ATOM      4  H   LIG d   1       5.154  -2.458  -3.819  0.00  0.00     0.029 H 
ATOM      5  H   LIG d   1       3.424  -2.368  -4.228  0.00  0.00     0.029 H 
ENDBRANCH   1   2
BRANCH   1   6
ATOM      6  C   LIG d   1       5.268  -0.125  -3.063  0.00  0.00     0.042 C 
ATOM      7  H   LIG d   1       5.441  -1.026  -2.475  0.00  0.00     0.039 H 
ATOM      8  H   LIG d   1       4.716   0.600  -2.465  0.00  0.00     0.039 H 
BRANCH   6   9
ATOM      9  C   LIG d   1       6.591   0.467  -3.476  0.00  0.00     0.065 A 
ATOM     10  N   LIG d   1       6.869   1.774  -3.588  0.00  0.00    -0.241 NA
ATOM     11  C   LIG d   1       8.110   1.919  -3.968  0.00  0.00     0.094 A 
ATOM     12  N   LIG d   1       8.664   0.695  -4.111  0.00  0.00    -0.351 N 
ATOM     13  H   LIG d   1       8.608   2.861  -4.143  0.00  0.00     0.103 H 
ATOM     14  C   LIG d   1       7.700  -0.225  -3.799  0.00  0.00     0.025 A 
ATOM     15  H   LIG d   1       9.604   0.499  -4.392  0.00  0.00     0.166 HD
ATOM     16  H   LIG d   1       7.809  -1.299  -3.809  0.00  0.00     0.083 H 
ENDBRANCH   6   9
ENDBRANCH   1   6
BRANCH   1  17
ATOM     17  C   LIG d   1       3.050   0.043  -4.162  0.00  0.00     0.093 C 
ATOM     18  O   LIG d   1       2.233  -0.592  -3.540  0.00  0.00    -0.544 OA
ATOM     19  O   LIG d   1       2.708   1.215  -4.720  0.00  0.00    -0.544 OA
ENDBRANCH   1  17
BRANCH   1  20
ATOM     20  N   LIG d   1       5.066   0.122  -5.510  0.00  0.00     0.227 N 
ATOM     21  H   LIG d   1       6.030   0.390  -5.314  0.00  0.00     0.200 HD
ATOM     22  H   LIG d   1       5.050  -0.543  -6.281  0.00  0.00     0.200 HD
ATOM     23  H   LIG d   1       4.534   0.958  -5.776  0.00  0.00     0.200 HD
ENDBRANCH   1  20
TORSDOF 5
ENDMDL
MODEL 6
REMARK VINA RESULT:      -3.8      1.889      2.155
REMARK  5 active torsions:
REMARK  status: ('A' for Active; 'I' for Inactive)
REMARK    1  A    between atoms: C_1  and  C_2 
REMARK    2  A    between atoms: C_2  and  C_3 
REMARK    3  A    between atoms: C_2  and  C_10 
REMARK    4  A    between atoms: C_2  and  N_22 
REMARK    5  A    between atoms: C_3  and  C_4 
ROOT
ATOM      1  C   LIG d   1       4.041  -0.599  -3.735  0.00  0.00     0.029 C 
ENDROOT
BRANCH   1   2
ATOM      2  C   LIG d   1       2.585  -0.710  -3.280  0.00  0.00    -0.013 C 
ATOM      3  H   LIG d   1       2.296  -1.760  -3.237  0.00  0.00     0.029 H 
ATOM      4  H   LIG d   1       2.477  -0.263  -2.292  0.00  0.00     0.029 H 
ATOM      5  H   LIG d   1       1.941  -0.186  -3.987  0.00  0.00     0.029 H 
ENDBRANCH   1   2
BRANCH   1   6
ATOM      6  C   LIG d   1       4.225  -1.364  -5.048  0.00  0.00     0.042 C 
ATOM      7  H   LIG d   1       3.474  -2.151  -5.118  0.00  0.00     0.039 H 
ATOM      8  H   LIG d   1       5.220  -1.806  -5.074  0.00  0.00     0.039 H 
BRANCH   6   9
ATOM      9  C   LIG d   1       4.066  -0.415  -6.208  0.00  0.00     0.065 A 
ATOM     10  N   LIG d   1       2.986   0.336  -6.470  0.00  0.00    -0.241 NA
ATOM     11  C   LIG d   1       3.199   1.034  -7.552  0.00  0.00     0.094 A 
ATOM     12  N   LIG d   1       4.434   0.745  -8.017  0.00  0.00    -0.351 N 
ATOM     13  H   LIG d   1       2.502   1.724  -8.003  0.00  0.00     0.103 H 
ATOM     14  C   LIG d   1       4.983  -0.174  -7.164  0.00  0.00     0.025 A 
ATOM     15  H   LIG d   1       4.866   1.131  -8.832  0.00  0.00     0.166 HD
ATOM     16  H   LIG d   1       5.963  -0.619  -7.242  0.00  0.00     0.083 H 
ENDBRANCH   6   9
ENDBRANCH   1   6
BRANCH   1  17
ATOM     17  C   LIG d   1       4.943  -1.187  -2.681  0.00  0.00     0.093 C 
ATOM     18  O   LIG d   1       4.516  -1.397  -1.570  0.00  0.00    -0.544 OA
ATOM     19  O   LIG d   1       6.219  -1.477  -2.976  0.00  0.00    -0.544 OA
ENDBRANCH   1  17
BRANCH   1  20
ATOM     20  N   LIG d   1       4.379   0.823  -3.916  0.00  0.00     0.227 N 
ATOM     21  H   LIG d   1       4.422   1.290  -3.011  0.00  0.00     0.200 HD
ATOM     22  H   LIG d   1       5.280   0.911  -4.384  0.00  0.00     0.200 HD
ATOM     23  H   LIG d   1       3.657   1.272  -4.490  0.00  0.00     0.200 HD
ENDBRANCH   1  20
TORSDOF 5
ENDMDL
MODEL 7
REMARK VINA RESULT:      -3.7     10.199     11.311
REMARK  5 active torsions:
REMARK  status: ('A' for Active; 'I' for Inactive)
REMARK    1  A    between atoms: C_1  and  C_2 
REMARK    2  A    between atoms: C_2  and  C_3 
REMARK    3  A    between atoms: C_2  and  C_10 
REMARK    4  A    between atoms: C_2  and  N_22 
REMARK    5  A    between atoms: C_3  and  C_4 
ROOT
ATOM      1  C   LIG d   1      10.196   8.634  -2.104  0.00  0.00     0.029 C 
ENDROOT
BRANCH   1   2
ATOM      2  C   LIG d   1      10.325   8.860  -3.611  0.00  0.00    -0.013 C 
ATOM      3  H   LIG d   1       9.581   9.587  -3.935  0.00  0.00     0.029 H 
ATOM      4  H   LIG d   1      11.323   9.234  -3.839  0.00  0.00     0.029 H 
ATOM      5  H   LIG d   1      10.163   7.917  -4.135  0.00  0.00     0.029 H 
ENDBRANCH   1   2
BRANCH   1   6
ATOM      6  C   LIG d   1       9.444   7.327  -1.846  0.00  0.00     0.042 C 
ATOM      7  H   LIG d   1       9.274   6.813  -2.793  0.00  0.00     0.039 H 
ATOM      8  H   LIG d   1       8.487   7.546  -1.374  0.00  0.00     0.039 H 
BRANCH   6   9
ATOM      9  C   LIG d   1      10.263   6.447  -0.937  0.00  0.00     0.065 A 
ATOM     10  N   LIG d   1      10.478   6.648   0.371  0.00  0.00    -0.241 NA
ATOM     11  C   LIG d   1      11.232   5.690   0.836  0.00  0.00     0.094 A 
ATOM     12  N   LIG d   1      11.524   4.841  -0.174  0.00  0.00    -0.351 N 
ATOM     13  H   LIG d   1      11.571   5.594   1.857  0.00  0.00     0.103 H 
ATOM     14  C   LIG d   1      10.908   5.322  -1.298  0.00  0.00     0.025 A 
ATOM     15  H   LIG d   1      12.084   4.014  -0.111  0.00  0.00     0.166 HD
ATOM     16  H   LIG d   1      10.936   4.883  -2.284  0.00  0.00     0.083 H 
ENDBRANCH   6   9
ENDBRANCH   1   6
BRANCH   1  17
ATOM     17  C   LIG d   1       9.436   9.781  -1.488  0.00  0.00     0.093 C 
ATOM     18  O   LIG d   1       9.730  10.919  -1.767  0.00  0.00    -0.544 OA
ATOM     19  O   LIG d   1       8.434   9.537  -0.630  0.00  0.00    -0.544 OA
ENDBRANCH   1  17
BRANCH   1  20
ATOM     20  N   LIG d   1      11.543   8.578  -1.510  0.00  0.00     0.227 N 
ATOM     21  H   LIG d   1      11.869   7.613  -1.473  0.00  0.00     0.200 HD
ATOM     22  H   LIG d   1      12.193   9.133  -2.065  0.00  0.00     0.200 HD
ATOM     23  H   LIG d   1      11.508   8.956  -0.556  0.00  0.00     0.200 HD
ENDBRANCH   1  20
TORSDOF 5
ENDMDL
MODEL 8
REMARK VINA RESULT:      -3.7     10.493     11.524
REMARK  5 active torsions:
REMARK  status: ('A' for Active; 'I' for Inactive)
REMARK    1  A    between atoms: C_1  and  C_2 
REMARK    2  A    between atoms: C_2  and  C_3 
REMARK    3  A    between atoms: C_2  and  C_10 
REMARK    4  A    between atoms: C_2  and  N_22 
REMARK    5  A    between atoms: C_3  and  C_4 
ROOT
ATOM      1  C   LIG d   1       9.830   7.939  -1.369  0.00  0.00     0.029 C 
ENDROOT
BRANCH   1   2
ATOM      2  C   LIG d   1       9.685   6.798  -2.378  0.00  0.00    -0.013 C 
ATOM      3  H   LIG d   1       9.806   7.188  -3.388  0.00  0.00     0.029 H 
ATOM      4  H   LIG d   1      10.448   6.044  -2.186  0.00  0.00     0.029 H 
ATOM      5  H   LIG d   1       8.697   6.348  -2.278  0.00  0.00     0.029 H 
ENDBRANCH   1   2
BRANCH   1   6
ATOM      6  C   LIG d   1      10.726   9.030  -1.958  0.00  0.00     0.042 C 
ATOM      7  H   LIG d   1      11.481   8.574  -2.598  0.00  0.00     0.039 H 
ATOM      8  H   LIG d   1      11.214   9.574  -1.150  0.00  0.00     0.039 H 
BRANCH   6   9
ATOM      9  C   LIG d   1       9.888   9.983  -2.772  0.00  0.00     0.065 A 
ATOM     10  N   LIG d   1       9.179  11.015  -2.293  0.00  0.00    -0.241 NA
ATOM     11  C   LIG d   1       8.577  11.620  -3.281  0.00  0.00     0.094 A 
ATOM     12  N   LIG d   1       8.889  10.983  -4.431  0.00  0.00    -0.351 N 
ATOM     13  H   LIG d   1       7.934  12.482  -3.192  0.00  0.00     0.103 H 
ATOM     14  C   LIG d   1       9.720   9.946  -4.107  0.00  0.00     0.025 A 
ATOM     15  H   LIG d   1       8.571  11.226  -5.348  0.00  0.00     0.166 HD
ATOM     16  H   LIG d   1      10.158   9.234  -4.791  0.00  0.00     0.083 H 
ENDBRANCH   6   9
ENDBRANCH   1   6
BRANCH   1  17
ATOM     17  C   LIG d   1      10.448   7.411  -0.100  0.00  0.00     0.093 C 
ATOM     18  O   LIG d   1      10.315   6.248   0.199  0.00  0.00    -0.544 OA
ATOM     19  O   LIG d   1      11.147   8.234   0.698  0.00  0.00    -0.544 OA
ENDBRANCH   1  17
BRANCH   1  20
ATOM     20  N   LIG d   1       8.494   8.480  -1.062  0.00  0.00     0.227 N 
ATOM     21  H   LIG d   1       7.780   7.783  -1.267  0.00  0.00     0.200 HD
ATOM     22  H   LIG d   1       8.440   8.740  -0.079  0.00  0.00     0.200 HD
ATOM     23  H   LIG d   1       8.325   9.311  -1.640  0.00  0.00     0.200 HD
ENDBRANCH   1  20
TORSDOF 5
ENDMDL
MODEL 9
REMARK VINA RESULT:      -3.6      9.244     10.116
REMARK  5 active torsions:
REMARK  status: ('A' for Active; 'I' for Inactive)
REMARK    1  A    between atoms: C_1  and  C_2 
REMARK    2  A    between atoms: C_2  and  C_3 
REMARK    3  A    between atoms: C_2  and  C_10 
REMARK    4  A    between atoms: C_2  and  N_22 
REMARK    5  A    between atoms: C_3  and  C_4 
ROOT
ATOM      1  C   LIG d   1      11.371   6.032  -0.088  0.00  0.00     0.029 C 
ENDROOT
BRANCH   1   2
ATOM      2  C   LIG d   1      12.700   6.681  -0.484  0.00  0.00    -0.013 C 
ATOM      3  H   LIG d   1      13.447   5.905  -0.651  0.00  0.00     0.029 H 
ATOM      4  H   LIG d   1      12.564   7.259  -1.398  0.00  0.00     0.029 H 
ATOM      5  H   LIG d   1      13.034   7.341   0.317  0.00  0.00     0.029 H 
ENDBRANCH   1   2
BRANCH   1   6
ATOM      6  C   LIG d   1      10.237   6.654  -0.906  0.00  0.00     0.042 C 
ATOM      7  H   LIG d   1      10.361   7.736  -0.934  0.00  0.00     0.039 H 
ATOM      8  H   LIG d   1       9.281   6.408  -0.444  0.00  0.00     0.039 H 
BRANCH   6   9
ATOM      9  C   LIG d   1      10.273   6.107  -2.310  0.00  0.00     0.065 A 
ATOM     10  N   LIG d   1       9.810   4.912  -2.703  0.00  0.00    -0.241 NA
ATOM     11  C   LIG d   1      10.007   4.774  -3.985  0.00  0.00     0.094 A 
ATOM     12  N   LIG d   1      10.609   5.889  -4.453  0.00  0.00    -0.351 N 
ATOM     13  H   LIG d   1       9.739   3.909  -4.574  0.00  0.00     0.103 H 
ATOM     14  C   LIG d   1      10.777   6.735  -3.389  0.00  0.00     0.025 A 
ATOM     15  H   LIG d   1      10.881   6.065  -5.399  0.00  0.00     0.166 HD
ATOM     16  H   LIG d   1      11.227   7.716  -3.412  0.00  0.00     0.083 H 
ENDBRANCH   6   9
ENDBRANCH   1   6
BRANCH   1  17
ATOM     17  C   LIG d   1      11.118   6.263   1.380  0.00  0.00     0.093 C 
ATOM     18  O   LIG d   1      10.626   5.389   2.053  0.00  0.00    -0.544 OA
ATOM     19  O   LIG d   1      11.441   7.440   1.938  0.00  0.00    -0.544 OA
ENDBRANCH   1  17
BRANCH   1  20
ATOM     20  N   LIG d   1      11.452   4.583  -0.338  0.00  0.00     0.227 N 
ATOM     21  H   LIG d   1      10.654   4.279  -0.894  0.00  0.00     0.200 HD
ATOM     22  H   LIG d   1      12.314   4.361  -0.834  0.00  0.00     0.200 HD
ATOM     23  H   LIG d   1      11.443   4.084   0.559  0.00  0.00     0.200 HD
ENDBRANCH   1  20
TORSDOF 5
ENDMDL
MODEL 10
REMARK VINA RESULT:      -3.6      2.654      4.292
REMARK  5 active torsions:
REMARK  status: ('A' for Active; 'I' for Inactive)
REMARK    1  A    between atoms: C_1  and  C_2 
REMARK    2  A    between atoms: C_2  and  C_3 
REMARK    3  A    between atoms: C_2  and  C_10 
REMARK    4  A    between atoms: C_2  and  N_22 
REMARK    5  A    between atoms: C_3  and  C_4 
ROOT
ATOM      1  C   LIG d   1       4.350  -0.686  -6.603  0.00  0.00     0.029 C 
ENDROOT
BRANCH   1   2
ATOM      2  C   LIG d   1       4.334  -1.894  -7.543  0.00  0.00    -0.013 C 
ATOM      3  H   LIG d   1       3.303  -2.163  -7.771  0.00  0.00     0.029 H 
ATOM      4  H   LIG d   1       4.858  -1.645  -8.465  0.00  0.00     0.029 H 
ATOM      5  H   LIG d   1       4.830  -2.737  -7.060  0.00  0.00     0.029 H 
ENDBRANCH   1   2
BRANCH   1   6
ATOM      6  C   LIG d   1       4.438  -1.169  -5.154  0.00  0.00     0.042 C 
ATOM      7  H   LIG d   1       4.543  -2.254  -5.138  0.00  0.00     0.039 H 
ATOM      8  H   LIG d   1       3.532  -0.882  -4.620  0.00  0.00     0.039 H 
BRANCH   6   9
ATOM      9  C   LIG d   1       5.634  -0.539  -4.487  0.00  0.00     0.065 A 
ATOM     10  N   LIG d   1       5.739   0.741  -4.100  0.00  0.00    -0.241 NA
ATOM     11  C   LIG d   1       6.912   0.934  -3.562  0.00  0.00     0.094 A 
ATOM     12  N   LIG d   1       7.598  -0.230  -3.591  0.00  0.00    -0.351 N 
ATOM     13  H   LIG d   1       7.275   1.869  -3.164  0.00  0.00     0.103 H 
ATOM     14  C   LIG d   1       6.786  -1.163  -4.178  0.00  0.00     0.025 A 
ATOM     15  H   LIG d   1       8.524  -0.381  -3.247  0.00  0.00     0.166 HD
ATOM     16  H   LIG d   1       7.025  -2.201  -4.358  0.00  0.00     0.083 H 
ENDBRANCH   6   9
ENDBRANCH   1   6
BRANCH   1  17
ATOM     17  C   LIG d   1       3.086   0.112  -6.791  0.00  0.00     0.093 C 
ATOM     18  O   LIG d   1       2.340  -0.144  -7.706  0.00  0.00    -0.544 OA
ATOM     19  O   LIG d   1       2.789   1.108  -5.942  0.00  0.00    -0.544 OA
ENDBRANCH   1  17
BRANCH   1  20
ATOM     20  N   LIG d   1       5.507   0.163  -6.934  0.00  0.00     0.227 N 
ATOM     21  H   LIG d   1       6.296  -0.417  -7.219  0.00  0.00     0.200 HD
ATOM     22  H   LIG d   1       5.267   0.802  -7.691  0.00  0.00     0.200 HD
ATOM     23  H   LIG d   1       5.774   0.708  -6.107  0.00  0.00     0.200 HD
ENDBRANCH   1  20
TORSDOF 5
ENDMDL
