MODEL 1
REMARK VINA RESULT:      -6.0      0.000      0.000
REMARK  7 active torsions:
REMARK  status: ('A' for Active; 'I' for Inactive)
REMARK    1  A    between atoms: C_1  and  C_2 
REMARK    2  A    between atoms: C_5  and  N_9 
REMARK    3  A    between atoms: C_7  and  C_8 
REMARK       I    between atoms: N_9  and  C_10 
REMARK       I    between atoms: C_10  and  N_12 
REMARK       I    between atoms: N_12  and  CA_13 
REMARK    4  A    between atoms: CA_13  and  CB_15 
REMARK       I    between atoms: CA_13  and  C_19 
REMARK    5  A    between atoms: CB_15  and  CG_16 
REMARK    6  A    between atoms: CG_16  and  CD1_17 
REMARK    7  A    between atoms: CG_16  and  CD2_18 
ROOT
ATOM      1  N   UNK d   0       2.205   0.049  -6.051  0.00  0.00    -0.270 N 
ATOM      2  C   UNK d   0       2.950  -0.031  -7.172  0.00  0.00     0.304 C 
ATOM      3  O   UNK d   0       4.150   0.159  -7.120  0.00  0.00    -0.253 OA
ATOM      4  H   UNK d   0       1.239  -0.031  -6.103  0.00  0.00     0.156 HD
ATOM      5  N   LEU d   1       2.364  -0.323  -8.350  0.00  0.00    -0.291 N 
ATOM      6  CA  LEU d   1       3.172  -0.410  -9.569  0.00  0.00     0.064 C 
ATOM      7  HA  LEU d   1       4.151  -0.826  -9.326  0.00  0.00     0.056 H 
ATOM      8  C   LEU d   1       3.343   0.967 -10.158  0.00  0.00     0.062 C 
ATOM      9  O   LEU d   1       2.841   1.922  -9.616  0.00  0.00    -0.548 OA
ATOM     10  H   LEU d   1       1.406  -0.474  -8.392  0.00  0.00     0.151 HD
ATOM     11  OXT LEU d   1       4.054   1.131 -11.286  0.00  0.00    -0.548 OA
ENDROOT
BRANCH   1  12
ATOM     12  C   UNK d   0       2.825   0.246  -4.812  0.00  0.00     0.035 A 
ATOM     13  C   UNK d   0       3.010   1.532  -4.323  0.00  0.00    -0.040 A 
ATOM     14  C   UNK d   0       3.618   1.723  -3.097  0.00  0.00    -0.057 A 
ATOM     15  H   UNK d   0       2.676   2.383  -4.898  0.00  0.00     0.064 H 
ATOM     16  C   UNK d   0       4.052   0.635  -2.362  0.00  0.00    -0.047 A 
ATOM     17  H   UNK d   0       3.759   2.723  -2.714  0.00  0.00     0.062 H 
ATOM     18  C   UNK d   0       3.873  -0.647  -2.849  0.00  0.00    -0.046 A 
ATOM     19  C   UNK d   0       3.262  -0.844  -4.072  0.00  0.00    -0.037 A 
ATOM     20  H   UNK d   0       3.122  -1.846  -4.451  0.00  0.00     0.064 H 
BRANCH  16  21
ATOM     21  C   UNK d   0       4.719   0.846  -1.028  0.00  0.00    -0.040 C 
ATOM     22  H   UNK d   0       5.580   1.501  -1.152  0.00  0.00     0.028 H 
ATOM     23  H   UNK d   0       4.010   1.303  -0.336  0.00  0.00     0.028 H 
ATOM     24  H   UNK d   0       5.046  -0.115  -0.629  0.00  0.00     0.028 H 
ENDBRANCH  16  21
BRANCH  18  25
ATOM     25  C   UNK d   0       4.347  -1.831  -2.045  0.00  0.00    -0.039 C 
ATOM     26  H   UNK d   0       3.689  -2.680  -2.227  0.00  0.00     0.028 H 
ATOM     27  H   UNK d   0       5.363  -2.089  -2.342  0.00  0.00     0.028 H 
ATOM     28  H   UNK d   0       4.331  -1.580  -0.984  0.00  0.00     0.028 H 
ENDBRANCH  18  25
ENDBRANCH   1  12
BRANCH   6  29
ATOM     29  CB  LEU d   1       2.471  -1.316 -10.582  0.00  0.00    -0.027 C 
ATOM     30  HB1 LEU d   1       3.164  -1.567 -11.386  0.00  0.00     0.029 H 
ATOM     31  HB2 LEU d   1       1.607  -0.796 -10.998  0.00  0.00     0.029 H 
BRANCH  29  32
ATOM     32  CG  LEU d   1       2.009  -2.598  -9.887  0.00  0.00    -0.045 C 
ATOM     33  HG  LEU d   1       1.634  -2.357  -8.893  0.00  0.00     0.030 H 
BRANCH  32  34
ATOM     34  CD1 LEU d   1       3.187  -3.566  -9.768  0.00  0.00    -0.063 C 
ATOM     35 1HD1 LEU d   1       3.753  -3.566 -10.699  0.00  0.00     0.023 H 
ATOM     36 2HD1 LEU d   1       3.834  -3.252  -8.949  0.00  0.00     0.023 H 
ATOM     37 3HD1 LEU d   1       2.813  -4.571  -9.570  0.00  0.00     0.023 H 
ENDBRANCH  32  34
BRANCH  32  38
ATOM     38  CD2 LEU d   1       0.894  -3.249 -10.708  0.00  0.00    -0.063 C 
ATOM     39 1HD2 LEU d   1       0.896  -2.835 -11.717  0.00  0.00     0.023 H 
ATOM     40 2HD2 LEU d   1       1.060  -4.326 -10.757  0.00  0.00     0.023 H 
ATOM     41 3HD2 LEU d   1      -0.068  -3.051 -10.237  0.00  0.00     0.023 H 
ENDBRANCH  32  38
ENDBRANCH  29  32
ENDBRANCH   6  29
TORSDOF 9
ENDMDL
MODEL 2
REMARK VINA RESULT:      -5.9      5.341      7.998
REMARK  7 active torsions:
REMARK  status: ('A' for Active; 'I' for Inactive)
REMARK    1  A    between atoms: C_1  and  C_2 
REMARK    2  A    between atoms: C_5  and  N_9 
REMARK    3  A    between atoms: C_7  and  C_8 
REMARK       I    between atoms: N_9  and  C_10 
REMARK       I    between atoms: C_10  and  N_12 
REMARK       I    between atoms: N_12  and  CA_13 
REMARK    4  A    between atoms: CA_13  and  CB_15 
REMARK       I    between atoms: CA_13  and  C_19 
REMARK    5  A    between atoms: CB_15  and  CG_16 
REMARK    6  A    between atoms: CG_16  and  CD1_17 
REMARK    7  A    between atoms: CG_16  and  CD2_18 
ROOT
ATOM      1  N   UNK d   0       8.928  -2.824  -3.509  0.00  0.00    -0.270 N 
ATOM      2  C   UNK d   0       7.672  -2.365  -3.679  0.00  0.00     0.304 C 
ATOM      3  O   UNK d   0       6.774  -3.139  -3.951  0.00  0.00    -0.253 OA
ATOM      4  H   UNK d   0       9.657  -2.200  -3.364  0.00  0.00     0.156 HD
ATOM      5  N   LEU d   1       7.411  -1.050  -3.548  0.00  0.00    -0.291 N 
ATOM      6  CA  LEU d   1       6.047  -0.551  -3.733  0.00  0.00     0.064 C 
ATOM      7  HA  LEU d   1       5.336  -1.289  -3.360  0.00  0.00     0.056 H 
ATOM      8  C   LEU d   1       5.795  -0.307  -5.199  0.00  0.00     0.062 C 
ATOM      9  O   LEU d   1       6.667  -0.528  -6.006  0.00  0.00    -0.548 OA
ATOM     10  H   LEU d   1       8.128  -0.432  -3.331  0.00  0.00     0.151 HD
ATOM     11  OXT LEU d   1       4.603   0.154  -5.608  0.00  0.00    -0.548 OA
ENDROOT
BRANCH   1  12
ATOM     12  C   UNK d   0       9.180  -4.200  -3.540  0.00  0.00     0.035 A 
ATOM     13  C   UNK d   0       8.965  -4.921  -4.706  0.00  0.00    -0.040 A 
ATOM     14  C   UNK d   0       9.220  -6.278  -4.735  0.00  0.00    -0.057 A 
ATOM     15  H   UNK d   0       8.601  -4.421  -5.592  0.00  0.00     0.064 H 
ATOM     16  C   UNK d   0       9.681  -6.921  -3.600  0.00  0.00    -0.047 A 
ATOM     17  H   UNK d   0       9.057  -6.839  -5.643  0.00  0.00     0.062 H 
ATOM     18  C   UNK d   0       9.891  -6.206  -2.435  0.00  0.00    -0.046 A 
ATOM     19  C   UNK d   0       9.643  -4.848  -2.402  0.00  0.00    -0.037 A 
ATOM     20  H   UNK d   0       9.808  -4.290  -1.491  0.00  0.00     0.064 H 
BRANCH  16  21
ATOM     21  C   UNK d   0       9.953  -8.402  -3.632  0.00  0.00    -0.040 C 
ATOM     22  H   UNK d   0       9.183  -8.901  -4.219  0.00  0.00     0.028 H 
ATOM     23  H   UNK d   0      10.929  -8.582  -4.085  0.00  0.00     0.028 H 
ATOM     24  H   UNK d   0       9.948  -8.795  -2.615  0.00  0.00     0.028 H 
ENDBRANCH  16  21
BRANCH  18  25
ATOM     25  C   UNK d   0      10.393  -6.910  -1.200  0.00  0.00    -0.039 C 
ATOM     26  H   UNK d   0       9.810  -7.815  -1.036  0.00  0.00     0.028 H 
ATOM     27  H   UNK d   0      11.443  -7.173  -1.333  0.00  0.00     0.028 H 
ATOM     28  H   UNK d   0      10.291  -6.250  -0.338  0.00  0.00     0.028 H 
ENDBRANCH  18  25
ENDBRANCH   1  12
BRANCH   6  29
ATOM     29  CB  LEU d   1       5.873   0.759  -2.962  0.00  0.00    -0.027 C 
ATOM     30  HB1 LEU d   1       5.633   1.562  -3.657  0.00  0.00     0.029 H 
ATOM     31  HB2 LEU d   1       6.799   0.997  -2.437  0.00  0.00     0.029 H 
BRANCH  29  32
ATOM     32  CG  LEU d   1       4.738   0.606  -1.947  0.00  0.00    -0.045 C 
ATOM     33  HG  LEU d   1       5.071   0.961  -0.973  0.00  0.00     0.030 H 
BRANCH  32  34
ATOM     34  CD1 LEU d   1       4.341  -0.869  -1.845  0.00  0.00    -0.063 C 
ATOM     35 1HD1 LEU d   1       4.023  -1.228  -2.823  0.00  0.00     0.023 H 
ATOM     36 2HD1 LEU d   1       5.197  -1.452  -1.504  0.00  0.00     0.023 H 
ATOM     37 3HD1 LEU d   1       3.522  -0.976  -1.133  0.00  0.00     0.023 H 
ENDBRANCH  32  34
BRANCH  32  38
ATOM     38  CD2 LEU d   1       3.531   1.427  -2.404  0.00  0.00    -0.063 C 
ATOM     39 1HD2 LEU d   1       2.668   1.183  -1.783  0.00  0.00     0.023 H 
ATOM     40 2HD2 LEU d   1       3.757   2.489  -2.310  0.00  0.00     0.023 H 
ATOM     41 3HD2 LEU d   1       3.305   1.194  -3.444  0.00  0.00     0.023 H 
ENDBRANCH  32  38
ENDBRANCH  29  32
ENDBRANCH   6  29
TORSDOF 9
ENDMDL
MODEL 3
REMARK VINA RESULT:      -5.8      5.543      7.484
REMARK  7 active torsions:
REMARK  status: ('A' for Active; 'I' for Inactive)
REMARK    1  A    between atoms: C_1  and  C_2 
REMARK    2  A    between atoms: C_5  and  N_9 
REMARK    3  A    between atoms: C_7  and  C_8 
REMARK       I    between atoms: N_9  and  C_10 
REMARK       I    between atoms: C_10  and  N_12 
REMARK       I    between atoms: N_12  and  CA_13 
REMARK    4  A    between atoms: CA_13  and  CB_15 
REMARK       I    between atoms: CA_13  and  C_19 
REMARK    5  A    between atoms: CB_15  and  CG_16 
REMARK    6  A    between atoms: CG_16  and  CD1_17 
REMARK    7  A    between atoms: CG_16  and  CD2_18 
ROOT
ATOM      1  N   UNK d   0       8.219   1.165  -3.820  0.00  0.00    -0.270 N 
ATOM      2  C   UNK d   0       8.276   1.768  -5.024  0.00  0.00     0.304 C 
ATOM      3  O   UNK d   0       7.404   1.565  -5.847  0.00  0.00    -0.253 OA
ATOM      4  H   UNK d   0       8.951   1.269  -3.190  0.00  0.00     0.156 HD
ATOM      5  N   LEU d   1       9.298   2.596  -5.315  0.00  0.00    -0.291 N 
ATOM      6  CA  LEU d   1       9.360   3.252  -6.623  0.00  0.00     0.064 C 
ATOM      7  HA  LEU d   1       8.350   3.490  -6.958  0.00  0.00     0.056 H 
ATOM      8  C   LEU d   1      10.014   2.328  -7.619  0.00  0.00     0.062 C 
ATOM      9  O   LEU d   1      10.390   1.235  -7.270  0.00  0.00    -0.548 OA
ATOM     10  H   LEU d   1       9.994   2.758  -4.659  0.00  0.00     0.151 HD
ATOM     11  OXT LEU d   1      10.179   2.720  -8.892  0.00  0.00    -0.548 OA
ENDROOT
BRANCH   1  12
ATOM     12  C   UNK d   0       7.106   0.390  -3.477  0.00  0.00     0.035 A 
ATOM     13  C   UNK d   0       7.159  -0.993  -3.589  0.00  0.00    -0.040 A 
ATOM     14  C   UNK d   0       6.060  -1.755  -3.245  0.00  0.00    -0.057 A 
ATOM     15  H   UNK d   0       8.060  -1.473  -3.941  0.00  0.00     0.064 H 
ATOM     16  C   UNK d   0       4.903  -1.142  -2.799  0.00  0.00    -0.047 A 
ATOM     17  H   UNK d   0       6.102  -2.831  -3.327  0.00  0.00     0.062 H 
ATOM     18  C   UNK d   0       4.845   0.236  -2.692  0.00  0.00    -0.046 A 
ATOM     19  C   UNK d   0       5.943   1.003  -3.029  0.00  0.00    -0.037 A 
ATOM     20  H   UNK d   0       5.897   2.079  -2.945  0.00  0.00     0.064 H 
BRANCH  16  21
ATOM     21  C   UNK d   0       3.704  -1.976  -2.429  0.00  0.00    -0.040 C 
ATOM     22  H   UNK d   0       2.825  -1.337  -2.358  0.00  0.00     0.028 H 
ATOM     23  H   UNK d   0       3.541  -2.736  -3.194  0.00  0.00     0.028 H 
ATOM     24  H   UNK d   0       3.881  -2.461  -1.469  0.00  0.00     0.028 H 
ENDBRANCH  16  21
BRANCH  18  25
ATOM     25  C   UNK d   0       3.583   0.900  -2.205  0.00  0.00    -0.039 C 
ATOM     26  H   UNK d   0       2.723   0.288  -2.476  0.00  0.00     0.028 H 
ATOM     27  H   UNK d   0       3.624   1.010  -1.121  0.00  0.00     0.028 H 
ATOM     28  H   UNK d   0       3.489   1.883  -2.666  0.00  0.00     0.028 H 
ENDBRANCH  18  25
ENDBRANCH   1  12
BRANCH   6  29
ATOM     29  CB  LEU d   1      10.176   4.541  -6.511  0.00  0.00    -0.027 C 
ATOM     30  HB1 LEU d   1       9.739   5.306  -7.152  0.00  0.00     0.029 H 
ATOM     31  HB2 LEU d   1      11.203   4.348  -6.824  0.00  0.00     0.029 H 
BRANCH  29  32
ATOM     32  CG  LEU d   1      10.168   5.024  -5.059  0.00  0.00    -0.045 C 
ATOM     33  HG  LEU d   1       9.799   4.229  -4.413  0.00  0.00     0.030 H 
BRANCH  32  34
ATOM     34  CD1 LEU d   1       9.257   6.247  -4.935  0.00  0.00    -0.063 C 
ATOM     35 1HD1 LEU d   1       9.798   7.055  -4.443  0.00  0.00     0.023 H 
ATOM     36 2HD1 LEU d   1       8.947   6.571  -5.929  0.00  0.00     0.023 H 
ATOM     37 3HD1 LEU d   1       8.378   5.987  -4.347  0.00  0.00     0.023 H 
ENDBRANCH  32  34
BRANCH  32  38
ATOM     38  CD2 LEU d   1      11.590   5.404  -4.640  0.00  0.00    -0.063 C 
ATOM     39 1HD2 LEU d   1      12.118   4.513  -4.298  0.00  0.00     0.023 H 
ATOM     40 2HD2 LEU d   1      12.118   5.834  -5.491  0.00  0.00     0.023 H 
ATOM     41 3HD2 LEU d   1      11.548   6.133  -3.832  0.00  0.00     0.023 H 
ENDBRANCH  32  38
ENDBRANCH  29  32
ENDBRANCH   6  29
TORSDOF 9
ENDMDL
MODEL 4
REMARK VINA RESULT:      -5.8      2.418      7.476
REMARK  7 active torsions:
REMARK  status: ('A' for Active; 'I' for Inactive)
REMARK    1  A    between atoms: C_1  and  C_2 
REMARK    2  A    between atoms: C_5  and  N_9 
REMARK    3  A    between atoms: C_7  and  C_8 
REMARK       I    between atoms: N_9  and  C_10 
REMARK       I    between atoms: C_10  and  N_12 
REMARK       I    between atoms: N_12  and  CA_13 
REMARK    4  A    between atoms: CA_13  and  CB_15 
REMARK       I    between atoms: CA_13  and  C_19 
REMARK    5  A    between atoms: CB_15  and  CG_16 
REMARK    6  A    between atoms: CG_16  and  CD1_17 
REMARK    7  A    between atoms: CG_16  and  CD2_18 
ROOT
ATOM      1  N   UNK d   0       3.514  -1.608  -7.060  0.00  0.00    -0.270 N 
ATOM      2  C   UNK d   0       4.490  -1.324  -6.175  0.00  0.00     0.304 C 
ATOM      3  O   UNK d   0       5.542  -0.852  -6.562  0.00  0.00    -0.253 OA
ATOM      4  H   UNK d   0       2.703  -2.051  -6.763  0.00  0.00     0.156 HD
ATOM      5  N   LEU d   1       4.301  -1.564  -4.863  0.00  0.00    -0.291 N 
ATOM      6  CA  LEU d   1       5.362  -1.257  -3.901  0.00  0.00     0.064 C 
ATOM      7  HA  LEU d   1       5.895  -0.362  -4.222  0.00  0.00     0.056 H 
ATOM      8  C   LEU d   1       6.324  -2.415  -3.827  0.00  0.00     0.062 C 
ATOM      9  O   LEU d   1       6.141  -3.396  -4.507  0.00  0.00    -0.548 OA
ATOM     10  H   LEU d   1       3.462  -1.942  -4.555  0.00  0.00     0.151 HD
ATOM     11  OXT LEU d   1       7.383  -2.356  -3.004  0.00  0.00    -0.548 OA
ENDROOT
BRANCH   1  12
ATOM     12  C   UNK d   0       3.668  -1.261  -8.407  0.00  0.00     0.035 A 
ATOM     13  C   UNK d   0       3.881  -2.248  -9.360  0.00  0.00    -0.040 A 
ATOM     14  C   UNK d   0       4.027  -1.903 -10.689  0.00  0.00    -0.057 A 
ATOM     15  H   UNK d   0       3.928  -3.286  -9.063  0.00  0.00     0.064 H 
ATOM     16  C   UNK d   0       3.973  -0.575 -11.070  0.00  0.00    -0.047 A 
ATOM     17  H   UNK d   0       4.188  -2.670 -11.432  0.00  0.00     0.062 H 
ATOM     18  C   UNK d   0       3.766   0.411 -10.123  0.00  0.00    -0.046 A 
ATOM     19  C   UNK d   0       3.614   0.072  -8.793  0.00  0.00    -0.037 A 
ATOM     20  H   UNK d   0       3.452   0.843  -8.053  0.00  0.00     0.064 H 
BRANCH  16  21
ATOM     21  C   UNK d   0       4.138  -0.201 -12.521  0.00  0.00    -0.040 C 
ATOM     22  H   UNK d   0       4.003   0.874 -12.637  0.00  0.00     0.028 H 
ATOM     23  H   UNK d   0       5.138  -0.480 -12.856  0.00  0.00     0.028 H 
ATOM     24  H   UNK d   0       3.395  -0.728 -13.119  0.00  0.00     0.028 H 
ENDBRANCH  16  21
BRANCH  18  25
ATOM     25  C   UNK d   0       3.707   1.858 -10.542  0.00  0.00    -0.039 C 
ATOM     26  H   UNK d   0       4.562   2.087 -11.178  0.00  0.00     0.028 H 
ATOM     27  H   UNK d   0       2.785   2.039 -11.095  0.00  0.00     0.028 H 
ATOM     28  H   UNK d   0       3.732   2.494  -9.658  0.00  0.00     0.028 H 
ENDBRANCH  18  25
ENDBRANCH   1  12
BRANCH   6  29
ATOM     29  CB  LEU d   1       4.746  -1.016  -2.522  0.00  0.00    -0.027 C 
ATOM     30  HB1 LEU d   1       5.248  -1.642  -1.784  0.00  0.00     0.029 H 
ATOM     31  HB2 LEU d   1       3.685  -1.266  -2.549  0.00  0.00     0.029 H 
BRANCH  29  32
ATOM     32  CG  LEU d   1       4.913   0.456  -2.139  0.00  0.00    -0.045 C 
ATOM     33  HG  LEU d   1       5.232   0.528  -1.100  0.00  0.00     0.030 H 
BRANCH  32  34
ATOM     34  CD1 LEU d   1       3.578   1.183  -2.316  0.00  0.00    -0.063 C 
ATOM     35 1HD1 LEU d   1       3.569   2.080  -1.698  0.00  0.00     0.023 H 
ATOM     36 2HD1 LEU d   1       3.452   1.461  -3.362  0.00  0.00     0.023 H 
ATOM     37 3HD1 LEU d   1       2.764   0.524  -2.014  0.00  0.00     0.023 H 
ENDBRANCH  32  34
BRANCH  32  38
ATOM     38  CD2 LEU d   1       5.967   1.101  -3.041  0.00  0.00    -0.063 C 
ATOM     39 1HD2 LEU d   1       5.778   0.824  -4.078  0.00  0.00     0.023 H 
ATOM     40 2HD2 LEU d   1       5.918   2.186  -2.940  0.00  0.00     0.023 H 
ATOM     41 3HD2 LEU d   1       6.958   0.754  -2.749  0.00  0.00     0.023 H 
ENDBRANCH  32  38
ENDBRANCH  29  32
ENDBRANCH   6  29
TORSDOF 9
ENDMDL
MODEL 5
REMARK VINA RESULT:      -5.7      2.411      7.276
REMARK  7 active torsions:
REMARK  status: ('A' for Active; 'I' for Inactive)
REMARK    1  A    between atoms: C_1  and  C_2 
REMARK    2  A    between atoms: C_5  and  N_9 
REMARK    3  A    between atoms: C_7  and  C_8 
REMARK       I    between atoms: N_9  and  C_10 
REMARK       I    between atoms: C_10  and  N_12 
REMARK       I    between atoms: N_12  and  CA_13 
REMARK    4  A    between atoms: CA_13  and  CB_15 
REMARK       I    between atoms: CA_13  and  C_19 
REMARK    5  A    between atoms: CB_15  and  CG_16 
REMARK    6  A    between atoms: CG_16  and  CD1_17 
REMARK    7  A    between atoms: CG_16  and  CD2_18 
ROOT
ATOM      1  N   UNK d   0       3.261   0.743  -7.207  0.00  0.00    -0.270 N 
ATOM      2  C   UNK d   0       3.755  -0.060  -6.243  0.00  0.00     0.304 C 
ATOM      3  O   UNK d   0       3.919  -1.244  -6.463  0.00  0.00    -0.253 OA
ATOM      4  H   UNK d   0       3.062   1.672  -7.011  0.00  0.00     0.156 HD
ATOM      5  N   LEU d   1       4.065   0.451  -5.035  0.00  0.00    -0.291 N 
ATOM      6  CA  LEU d   1       4.600  -0.420  -3.987  0.00  0.00     0.064 C 
ATOM      7  HA  LEU d   1       5.236  -1.183  -4.438  0.00  0.00     0.056 H 
ATOM      8  C   LEU d   1       3.462  -1.082  -3.253  0.00  0.00     0.062 C 
ATOM      9  O   LEU d   1       2.322  -0.849  -3.574  0.00  0.00    -0.548 OA
ATOM     10  H   LEU d   1       3.934   1.397  -4.860  0.00  0.00     0.151 HD
ATOM     11  OXT LEU d   1       3.717  -1.930  -2.244  0.00  0.00    -0.548 OA
ENDROOT
BRANCH   1  12
ATOM     12  C   UNK d   0       3.038   0.236  -8.492  0.00  0.00     0.035 A 
ATOM     13  C   UNK d   0       1.826  -0.364  -8.803  0.00  0.00    -0.040 A 
ATOM     14  C   UNK d   0       1.607  -0.859 -10.074  0.00  0.00    -0.057 A 
ATOM     15  H   UNK d   0       1.052  -0.442  -8.053  0.00  0.00     0.064 H 
ATOM     16  C   UNK d   0       2.598  -0.765 -11.034  0.00  0.00    -0.047 A 
ATOM     17  H   UNK d   0       0.663  -1.322 -10.318  0.00  0.00     0.062 H 
ATOM     18  C   UNK d   0       3.809  -0.173 -10.726  0.00  0.00    -0.046 A 
ATOM     19  C   UNK d   0       4.032   0.328  -9.458  0.00  0.00    -0.037 A 
ATOM     20  H   UNK d   0       4.978   0.792  -9.219  0.00  0.00     0.064 H 
BRANCH  16  21
ATOM     21  C   UNK d   0       2.359  -1.310 -12.418  0.00  0.00    -0.040 C 
ATOM     22  H   UNK d   0       1.983  -2.330 -12.347  0.00  0.00     0.028 H 
ATOM     23  H   UNK d   0       1.626  -0.687 -12.932  0.00  0.00     0.028 H 
ATOM     24  H   UNK d   0       3.295  -1.305 -12.978  0.00  0.00     0.028 H 
ENDBRANCH  16  21
BRANCH  18  25
ATOM     25  C   UNK d   0       4.887  -0.072 -11.775  0.00  0.00    -0.039 C 
ATOM     26  H   UNK d   0       4.428   0.048 -12.756  0.00  0.00     0.028 H 
ATOM     27  H   UNK d   0       5.521   0.788 -11.563  0.00  0.00     0.028 H 
ATOM     28  H   UNK d   0       5.490  -0.980 -11.765  0.00  0.00     0.028 H 
ENDBRANCH  18  25
ENDBRANCH   1  12
BRANCH   6  29
ATOM     29  CB  LEU d   1       5.426   0.412  -3.003  0.00  0.00    -0.027 C 
ATOM     30  HB1 LEU d   1       5.163   0.136  -1.982  0.00  0.00     0.029 H 
ATOM     31  HB2 LEU d   1       5.217   1.471  -3.159  0.00  0.00     0.029 H 
BRANCH  29  32
ATOM     32  CG  LEU d   1       6.915   0.148  -3.236  0.00  0.00    -0.045 C 
ATOM     33  HG  LEU d   1       7.419   0.041  -2.276  0.00  0.00     0.030 H 
BRANCH  32  34
ATOM     34  CD1 LEU d   1       7.526   1.319  -4.007  0.00  0.00    -0.063 C 
ATOM     35 1HD1 LEU d   1       8.613   1.243  -3.982  0.00  0.00     0.023 H 
ATOM     36 2HD1 LEU d   1       7.184   1.291  -5.041  0.00  0.00     0.023 H 
ATOM     37 3HD1 LEU d   1       7.216   2.258  -3.547  0.00  0.00     0.023 H 
ENDBRANCH  32  34
BRANCH  32  38
ATOM     38  CD2 LEU d   1       7.084  -1.139  -4.046  0.00  0.00    -0.063 C 
ATOM     39 1HD2 LEU d   1       6.189  -1.753  -3.944  0.00  0.00     0.023 H 
ATOM     40 2HD2 LEU d   1       7.237  -0.891  -5.096  0.00  0.00     0.023 H 
ATOM     41 3HD2 LEU d   1       7.947  -1.691  -3.674  0.00  0.00     0.023 H 
ENDBRANCH  32  38
ENDBRANCH  29  32
ENDBRANCH   6  29
TORSDOF 9
ENDMDL
MODEL 6
REMARK VINA RESULT:      -5.7      2.318      7.204
REMARK  7 active torsions:
REMARK  status: ('A' for Active; 'I' for Inactive)
REMARK    1  A    between atoms: C_1  and  C_2 
REMARK    2  A    between atoms: C_5  and  N_9 
REMARK    3  A    between atoms: C_7  and  C_8 
REMARK       I    between atoms: N_9  and  C_10 
REMARK       I    between atoms: C_10  and  N_12 
REMARK       I    between atoms: N_12  and  CA_13 
REMARK    4  A    between atoms: CA_13  and  CB_15 
REMARK       I    between atoms: CA_13  and  C_19 
REMARK    5  A    between atoms: CB_15  and  CG_16 
REMARK    6  A    between atoms: CG_16  and  CD1_17 
REMARK    7  A    between atoms: CG_16  and  CD2_18 
ROOT
ATOM      1  N   UNK d   0       5.022  -1.818  -7.361  0.00  0.00    -0.270 N 
ATOM      2  C   UNK d   0       4.964  -0.940  -6.340  0.00  0.00     0.304 C 
ATOM      3  O   UNK d   0       4.287   0.065  -6.440  0.00  0.00    -0.253 OA
ATOM      4  H   UNK d   0       5.618  -2.583  -7.310  0.00  0.00     0.156 HD
ATOM      5  N   LEU d   1       5.656  -1.176  -5.208  0.00  0.00    -0.291 N 
ATOM      6  CA  LEU d   1       5.595  -0.222  -4.099  0.00  0.00     0.064 C 
ATOM      7  HA  LEU d   1       4.596   0.212  -4.048  0.00  0.00     0.056 H 
ATOM      8  C   LEU d   1       6.608   0.872  -4.319  0.00  0.00     0.062 C 
ATOM      9  O   LEU d   1       7.309   0.855  -5.302  0.00  0.00    -0.548 OA
ATOM     10  H   LEU d   1       6.197  -1.978  -5.128  0.00  0.00     0.151 HD
ATOM     11  OXT LEU d   1       6.730   1.864  -3.423  0.00  0.00    -0.548 OA
ENDROOT
BRANCH   1  12
ATOM     12  C   UNK d   0       4.222  -1.628  -8.493  0.00  0.00     0.035 A 
ATOM     13  C   UNK d   0       3.136  -2.461  -8.726  0.00  0.00    -0.040 A 
ATOM     14  C   UNK d   0       2.345  -2.267  -9.842  0.00  0.00    -0.057 A 
ATOM     15  H   UNK d   0       2.907  -3.258  -8.034  0.00  0.00     0.064 H 
ATOM     16  C   UNK d   0       2.640  -1.251 -10.732  0.00  0.00    -0.047 A 
ATOM     17  H   UNK d   0       1.498  -2.912 -10.021  0.00  0.00     0.062 H 
ATOM     18  C   UNK d   0       3.724  -0.422 -10.505  0.00  0.00    -0.046 A 
ATOM     19  C   UNK d   0       4.515  -0.608  -9.388  0.00  0.00    -0.037 A 
ATOM     20  H   UNK d   0       5.362   0.039  -9.212  0.00  0.00     0.064 H 
BRANCH  16  21
ATOM     21  C   UNK d   0       1.778  -1.045 -11.951  0.00  0.00    -0.040 C 
ATOM     22  H   UNK d   0       0.729  -1.062 -11.661  0.00  0.00     0.028 H 
ATOM     23  H   UNK d   0       2.016  -0.082 -12.404  0.00  0.00     0.028 H 
ATOM     24  H   UNK d   0       1.971  -1.842 -12.670  0.00  0.00     0.028 H 
ENDBRANCH  16  21
BRANCH  18  25
ATOM     25  C   UNK d   0       4.042   0.685 -11.477  0.00  0.00    -0.039 C 
ATOM     26  H   UNK d   0       5.087   0.614 -11.779  0.00  0.00     0.028 H 
ATOM     27  H   UNK d   0       3.403   0.591 -12.356  0.00  0.00     0.028 H 
ATOM     28  H   UNK d   0       3.866   1.649 -11.001  0.00  0.00     0.028 H 
ENDBRANCH  18  25
ENDBRANCH   1  12
BRANCH   6  29
ATOM     29  CB  LEU d   1       5.902  -0.945  -2.786  0.00  0.00    -0.027 C 
ATOM     30  HB1 LEU d   1       6.694  -0.417  -2.256  0.00  0.00     0.029 H 
ATOM     31  HB2 LEU d   1       6.225  -1.964  -3.000  0.00  0.00     0.029 H 
BRANCH  29  32
ATOM     32  CG  LEU d   1       4.643  -0.981  -1.917  0.00  0.00    -0.045 C 
ATOM     33  HG  LEU d   1       4.926  -1.098  -0.872  0.00  0.00     0.030 H 
BRANCH  32  34
ATOM     34  CD1 LEU d   1       3.764  -2.159  -2.343  0.00  0.00    -0.063 C 
ATOM     35 1HD1 LEU d   1       3.327  -2.624  -1.459  0.00  0.00     0.023 H 
ATOM     36 2HD1 LEU d   1       2.968  -1.801  -2.996  0.00  0.00     0.023 H 
ATOM     37 3HD1 LEU d   1       4.371  -2.891  -2.877  0.00  0.00     0.023 H 
ENDBRANCH  32  34
BRANCH  32  38
ATOM     38  CD2 LEU d   1       3.865   0.324  -2.091  0.00  0.00    -0.063 C 
ATOM     39 1HD2 LEU d   1       3.509   0.401  -3.119  0.00  0.00     0.023 H 
ATOM     40 2HD2 LEU d   1       3.014   0.334  -1.410  0.00  0.00     0.023 H 
ATOM     41 3HD2 LEU d   1       4.517   1.168  -1.870  0.00  0.00     0.023 H 
ENDBRANCH  32  38
ENDBRANCH  29  32
ENDBRANCH   6  29
TORSDOF 9
ENDMDL
MODEL 7
REMARK VINA RESULT:      -5.4      2.956      3.689
REMARK  7 active torsions:
REMARK  status: ('A' for Active; 'I' for Inactive)
REMARK    1  A    between atoms: C_1  and  C_2 
REMARK    2  A    between atoms: C_5  and  N_9 
REMARK    3  A    between atoms: C_7  and  C_8 
REMARK       I    between atoms: N_9  and  C_10 
REMARK       I    between atoms: C_10  and  N_12 
REMARK       I    between atoms: N_12  and  CA_13 
REMARK    4  A    between atoms: CA_13  and  CB_15 
REMARK       I    between atoms: CA_13  and  C_19 
REMARK    5  A    between atoms: CB_15  and  CG_16 
REMARK    6  A    between atoms: CG_16  and  CD1_17 
REMARK    7  A    between atoms: CG_16  and  CD2_18 
ROOT
ATOM      1  N   UNK d   0       4.139  -2.054  -5.778  0.00  0.00    -0.270 N 
ATOM      2  C   UNK d   0       4.165  -1.268  -6.874  0.00  0.00     0.304 C 
ATOM      3  O   UNK d   0       5.224  -0.840  -7.290  0.00  0.00    -0.253 OA
ATOM      4  H   UNK d   0       3.289  -2.336  -5.403  0.00  0.00     0.156 HD
ATOM      5  N   LEU d   1       3.017  -0.957  -7.507  0.00  0.00    -0.291 N 
ATOM      6  CA  LEU d   1       3.044  -0.103  -8.696  0.00  0.00     0.064 C 
ATOM      7  HA  LEU d   1       3.947  -0.310  -9.271  0.00  0.00     0.056 H 
ATOM      8  C   LEU d   1       3.036   1.344  -8.277  0.00  0.00     0.062 C 
ATOM      9  O   LEU d   1       3.009   1.632  -7.104  0.00  0.00    -0.548 OA
ATOM     10  H   LEU d   1       2.171  -1.299  -7.174  0.00  0.00     0.151 HD
ATOM     11  OXT LEU d   1       3.058   2.313  -9.206  0.00  0.00    -0.548 OA
ENDROOT
BRANCH   1  12
ATOM     12  C   UNK d   0       5.337  -2.464  -5.183  0.00  0.00     0.035 A 
ATOM     13  C   UNK d   0       5.926  -1.685  -4.195  0.00  0.00    -0.040 A 
ATOM     14  C   UNK d   0       7.106  -2.096  -3.606  0.00  0.00    -0.057 A 
ATOM     15  H   UNK d   0       5.460  -0.762  -3.885  0.00  0.00     0.064 H 
ATOM     16  C   UNK d   0       7.707  -3.275  -4.007  0.00  0.00    -0.047 A 
ATOM     17  H   UNK d   0       7.562  -1.493  -2.835  0.00  0.00     0.062 H 
ATOM     18  C   UNK d   0       7.125  -4.050  -4.994  0.00  0.00    -0.046 A 
ATOM     19  C   UNK d   0       5.943  -3.648  -5.583  0.00  0.00    -0.037 A 
ATOM     20  H   UNK d   0       5.489  -4.254  -6.354  0.00  0.00     0.064 H 
BRANCH  16  21
ATOM     21  C   UNK d   0       8.997  -3.717  -3.366  0.00  0.00    -0.040 C 
ATOM     22  H   UNK d   0       9.031  -4.805  -3.332  0.00  0.00     0.028 H 
ATOM     23  H   UNK d   0       9.838  -3.344  -3.950  0.00  0.00     0.028 H 
ATOM     24  H   UNK d   0       9.054  -3.319  -2.352  0.00  0.00     0.028 H 
ENDBRANCH  16  21
BRANCH  18  25
ATOM     25  C   UNK d   0       7.783  -5.335  -5.427  0.00  0.00    -0.039 C 
ATOM     26  H   UNK d   0       8.461  -5.134  -6.256  0.00  0.00     0.028 H 
ATOM     27  H   UNK d   0       8.345  -5.755  -4.592  0.00  0.00     0.028 H 
ATOM     28  H   UNK d   0       7.020  -6.045  -5.745  0.00  0.00     0.028 H 
ENDBRANCH  18  25
ENDBRANCH   1  12
BRANCH   6  29
ATOM     29  CB  LEU d   1       1.814  -0.391  -9.560  0.00  0.00    -0.027 C 
ATOM     30  HB1 LEU d   1       1.329   0.547  -9.827  0.00  0.00     0.029 H 
ATOM     31  HB2 LEU d   1       1.116  -1.015  -9.001  0.00  0.00     0.029 H 
BRANCH  29  32
ATOM     32  CG  LEU d   1       2.245  -1.124 -10.833  0.00  0.00    -0.045 C 
ATOM     33  HG  LEU d   1       2.622  -2.112 -10.573  0.00  0.00     0.030 H 
BRANCH  32  34
ATOM     34  CD1 LEU d   1       3.345  -0.324 -11.533  0.00  0.00    -0.063 C 
ATOM     35 1HD1 LEU d   1       4.024  -1.008 -12.041  0.00  0.00     0.023 H 
ATOM     36 2HD1 LEU d   1       2.896   0.351 -12.262  0.00  0.00     0.023 H 
ATOM     37 3HD1 LEU d   1       3.899   0.256 -10.794  0.00  0.00     0.023 H 
ENDBRANCH  32  34
BRANCH  32  38
ATOM     38  CD2 LEU d   1       1.044  -1.267 -11.770  0.00  0.00    -0.063 C 
ATOM     39 1HD2 LEU d   1       0.238  -0.614 -11.431  0.00  0.00     0.023 H 
ATOM     40 2HD2 LEU d   1       1.336  -0.987 -12.782  0.00  0.00     0.023 H 
ATOM     41 3HD2 LEU d   1       0.699  -2.300 -11.764  0.00  0.00     0.023 H 
ENDBRANCH  32  38
ENDBRANCH  29  32
ENDBRANCH   6  29
TORSDOF 9
ENDMDL
MODEL 8
REMARK VINA RESULT:      -5.3      5.606      7.552
REMARK  7 active torsions:
REMARK  status: ('A' for Active; 'I' for Inactive)
REMARK    1  A    between atoms: C_1  and  C_2 
REMARK    2  A    between atoms: C_5  and  N_9 
REMARK    3  A    between atoms: C_7  and  C_8 
REMARK       I    between atoms: N_9  and  C_10 
REMARK       I    between atoms: C_10  and  N_12 
REMARK       I    between atoms: N_12  and  CA_13 
REMARK    4  A    between atoms: CA_13  and  CB_15 
REMARK       I    between atoms: CA_13  and  C_19 
REMARK    5  A    between atoms: CB_15  and  CG_16 
REMARK    6  A    between atoms: CG_16  and  CD1_17 
REMARK    7  A    between atoms: CG_16  and  CD2_18 
ROOT
ATOM      1  N   UNK d   0       8.580   0.754  -3.798  0.00  0.00    -0.270 N 
ATOM      2  C   UNK d   0       7.274   1.079  -3.881  0.00  0.00     0.304 C 
ATOM      3  O   UNK d   0       6.947   2.217  -4.159  0.00  0.00    -0.253 OA
ATOM      4  H   UNK d   0       8.841  -0.133  -3.505  0.00  0.00     0.156 HD
ATOM      5  N   LEU d   1       6.331   0.144  -3.655  0.00  0.00    -0.291 N 
ATOM      6  CA  LEU d   1       4.912   0.496  -3.743  0.00  0.00     0.064 C 
ATOM      7  HA  LEU d   1       4.771   1.236  -4.532  0.00  0.00     0.056 H 
ATOM      8  C   LEU d   1       4.453   1.070  -2.428  0.00  0.00     0.062 C 
ATOM      9  O   LEU d   1       5.231   1.173  -1.510  0.00  0.00    -0.548 OA
ATOM     10  H   LEU d   1       6.592  -0.764  -3.432  0.00  0.00     0.151 HD
ATOM     11  OXT LEU d   1       3.179   1.466  -2.276  0.00  0.00    -0.548 OA
ENDROOT
BRANCH   1  12
ATOM     12  C   UNK d   0       9.558   1.696  -4.136  0.00  0.00     0.035 A 
ATOM     13  C   UNK d   0      10.047   1.757  -5.434  0.00  0.00    -0.040 A 
ATOM     14  C   UNK d   0      11.008   2.692  -5.765  0.00  0.00    -0.057 A 
ATOM     15  H   UNK d   0       9.673   1.077  -6.185  0.00  0.00     0.064 H 
ATOM     16  C   UNK d   0      11.491   3.560  -4.802  0.00  0.00    -0.047 A 
ATOM     17  H   UNK d   0      11.386   2.743  -6.775  0.00  0.00     0.062 H 
ATOM     18  C   UNK d   0      11.010   3.498  -3.507  0.00  0.00    -0.046 A 
ATOM     19  C   UNK d   0      10.045   2.569  -3.172  0.00  0.00    -0.037 A 
ATOM     20  H   UNK d   0       9.669   2.522  -2.160  0.00  0.00     0.064 H 
BRANCH  16  21
ATOM     21  C   UNK d   0      12.544   4.575  -5.165  0.00  0.00    -0.040 C 
ATOM     22  H   UNK d   0      13.531   4.123  -5.076  0.00  0.00     0.028 H 
ATOM     23  H   UNK d   0      12.388   4.909  -6.192  0.00  0.00     0.028 H 
ATOM     24  H   UNK d   0      12.471   5.430  -4.492  0.00  0.00     0.028 H 
ENDBRANCH  16  21
BRANCH  18  25
ATOM     25  C   UNK d   0      11.539   4.446  -2.462  0.00  0.00    -0.039 C 
ATOM     26  H   UNK d   0      12.308   5.079  -2.902  0.00  0.00     0.028 H 
ATOM     27  H   UNK d   0      10.724   5.069  -2.091  0.00  0.00     0.028 H 
ATOM     28  H   UNK d   0      11.965   3.876  -1.636  0.00  0.00     0.028 H 
ENDBRANCH  18  25
ENDBRANCH   1  12
BRANCH   6  29
ATOM     29  CB  LEU d   1       4.094  -0.755  -4.068  0.00  0.00    -0.027 C 
ATOM     30  HB1 LEU d   1       4.116  -0.936  -5.142  0.00  0.00     0.029 H 
ATOM     31  HB2 LEU d   1       3.063  -0.608  -3.745  0.00  0.00     0.029 H 
BRANCH  29  32
ATOM     32  CG  LEU d   1       4.691  -1.959  -3.336  0.00  0.00    -0.045 C 
ATOM     33  HG  LEU d   1       5.668  -1.692  -2.934  0.00  0.00     0.030 H 
BRANCH  32  34
ATOM     34  CD1 LEU d   1       4.842  -3.126  -4.313  0.00  0.00    -0.063 C 
ATOM     35 1HD1 LEU d   1       3.884  -3.323  -4.794  0.00  0.00     0.023 H 
ATOM     36 2HD1 LEU d   1       5.583  -2.872  -5.070  0.00  0.00     0.023 H 
ATOM     37 3HD1 LEU d   1       5.166  -4.015  -3.771  0.00  0.00     0.023 H 
ENDBRANCH  32  34
BRANCH  32  38
ATOM     38  CD2 LEU d   1       3.764  -2.370  -2.190  0.00  0.00    -0.063 C 
ATOM     39 1HD2 LEU d   1       3.282  -1.484  -1.776  0.00  0.00     0.023 H 
ATOM     40 2HD2 LEU d   1       3.004  -3.056  -2.565  0.00  0.00     0.023 H 
ATOM     41 3HD2 LEU d   1       4.346  -2.863  -1.411  0.00  0.00     0.023 H 
ENDBRANCH  32  38
ENDBRANCH  29  32
ENDBRANCH   6  29
TORSDOF 9
ENDMDL
MODEL 9
REMARK VINA RESULT:      -5.2      1.613      2.015
REMARK  7 active torsions:
REMARK  status: ('A' for Active; 'I' for Inactive)
REMARK    1  A    between atoms: C_1  and  C_2 
REMARK    2  A    between atoms: C_5  and  N_9 
REMARK    3  A    between atoms: C_7  and  C_8 
REMARK       I    between atoms: N_9  and  C_10 
REMARK       I    between atoms: C_10  and  N_12 
REMARK       I    between atoms: N_12  and  CA_13 
REMARK    4  A    between atoms: CA_13  and  CB_15 
REMARK       I    between atoms: CA_13  and  C_19 
REMARK    5  A    between atoms: CB_15  and  CG_16 
REMARK    6  A    between atoms: CG_16  and  CD1_17 
REMARK    7  A    between atoms: CG_16  and  CD2_18 
ROOT
ATOM      1  N   UNK d   0       3.276   0.422  -6.806  0.00  0.00    -0.270 N 
ATOM      2  C   UNK d   0       3.351  -0.435  -7.844  0.00  0.00     0.304 C 
ATOM      3  O   UNK d   0       3.758  -1.568  -7.668  0.00  0.00    -0.253 OA
ATOM      4  H   UNK d   0       3.021   1.346  -6.958  0.00  0.00     0.156 HD
ATOM      5  N   LEU d   1       2.977  -0.038  -9.075  0.00  0.00    -0.291 N 
ATOM      6  CA  LEU d   1       3.059  -0.968 -10.203  0.00  0.00     0.064 C 
ATOM      7  HA  LEU d   1       2.826  -1.977  -9.859  0.00  0.00     0.056 H 
ATOM      8  C   LEU d   1       4.453  -0.942 -10.776  0.00  0.00     0.062 C 
ATOM      9  O   LEU d   1       5.291  -0.219 -10.292  0.00  0.00    -0.548 OA
ATOM     10  H   LEU d   1       2.653   0.867  -9.216  0.00  0.00     0.151 HD
ATOM     11  OXT LEU d   1       4.763  -1.722 -11.824  0.00  0.00    -0.548 OA
ENDROOT
BRANCH   1  12
ATOM     12  C   UNK d   0       3.563  -0.021  -5.510  0.00  0.00     0.035 A 
ATOM     13  C   UNK d   0       2.559  -0.073  -4.553  0.00  0.00    -0.040 A 
ATOM     14  C   UNK d   0       2.845  -0.516  -3.277  0.00  0.00    -0.057 A 
ATOM     15  H   UNK d   0       1.553   0.229  -4.807  0.00  0.00     0.064 H 
ATOM     16  C   UNK d   0       4.133  -0.897  -2.948  0.00  0.00    -0.047 A 
ATOM     17  H   UNK d   0       2.064  -0.561  -2.533  0.00  0.00     0.062 H 
ATOM     18  C   UNK d   0       5.137  -0.842  -3.898  0.00  0.00    -0.046 A 
ATOM     19  C   UNK d   0       4.856  -0.405  -5.177  0.00  0.00    -0.037 A 
ATOM     20  H   UNK d   0       5.640  -0.362  -5.919  0.00  0.00     0.064 H 
BRANCH  16  21
ATOM     21  C   UNK d   0       4.444  -1.375  -1.553  0.00  0.00    -0.040 C 
ATOM     22  H   UNK d   0       3.553  -1.285  -0.932  0.00  0.00     0.028 H 
ATOM     23  H   UNK d   0       4.760  -2.418  -1.589  0.00  0.00     0.028 H 
ATOM     24  H   UNK d   0       5.245  -0.768  -1.132  0.00  0.00     0.028 H 
ENDBRANCH  16  21
BRANCH  18  25
ATOM     25  C   UNK d   0       6.540  -1.259  -3.536  0.00  0.00    -0.039 C 
ATOM     26  H   UNK d   0       7.015  -0.468  -2.955  0.00  0.00     0.028 H 
ATOM     27  H   UNK d   0       6.505  -2.173  -2.944  0.00  0.00     0.028 H 
ATOM     28  H   UNK d   0       7.113  -1.436  -4.446  0.00  0.00     0.028 H 
ENDBRANCH  18  25
ENDBRANCH   1  12
BRANCH   6  29
ATOM     29  CB  LEU d   1       2.057  -0.554 -11.281  0.00  0.00    -0.027 C 
ATOM     30  HB1 LEU d   1       2.591  -0.287 -12.193  0.00  0.00     0.029 H 
ATOM     31  HB2 LEU d   1       1.482   0.305 -10.932  0.00  0.00     0.029 H 
BRANCH  29  32
ATOM     32  CG  LEU d   1       1.107  -1.719 -11.570  0.00  0.00    -0.045 C 
ATOM     33  HG  LEU d   1       0.079  -1.359 -11.563  0.00  0.00     0.030 H 
BRANCH  32  34
ATOM     34  CD1 LEU d   1       1.279  -2.794 -10.494  0.00  0.00    -0.063 C 
ATOM     35 1HD1 LEU d   1       1.610  -3.722 -10.959  0.00  0.00     0.023 H 
ATOM     36 2HD1 LEU d   1       2.022  -2.466  -9.768  0.00  0.00     0.023 H 
ATOM     37 3HD1 LEU d   1       0.327  -2.959  -9.990  0.00  0.00     0.023 H 
ENDBRANCH  32  34
BRANCH  32  38
ATOM     38  CD2 LEU d   1       1.431  -2.314 -12.941  0.00  0.00    -0.063 C 
ATOM     39 1HD2 LEU d   1       0.733  -1.922 -13.682  0.00  0.00     0.023 H 
ATOM     40 2HD2 LEU d   1       2.449  -2.045 -13.224  0.00  0.00     0.023 H 
ATOM     41 3HD2 LEU d   1       1.341  -3.399 -12.897  0.00  0.00     0.023 H 
ENDBRANCH  32  38
ENDBRANCH  29  32
ENDBRANCH   6  29
TORSDOF 9
ENDMDL
MODEL 10
REMARK VINA RESULT:      -5.2      5.616      7.549
REMARK  7 active torsions:
REMARK  status: ('A' for Active; 'I' for Inactive)
REMARK    1  A    between atoms: C_1  and  C_2 
REMARK    2  A    between atoms: C_5  and  N_9 
REMARK    3  A    between atoms: C_7  and  C_8 
REMARK       I    between atoms: N_9  and  C_10 
REMARK       I    between atoms: C_10  and  N_12 
REMARK       I    between atoms: N_12  and  CA_13 
REMARK    4  A    between atoms: CA_13  and  CB_15 
REMARK       I    between atoms: CA_13  and  C_19 
REMARK    5  A    between atoms: CB_15  and  CG_16 
REMARK    6  A    between atoms: CG_16  and  CD1_17 
REMARK    7  A    between atoms: CG_16  and  CD2_18 
ROOT
ATOM      1  N   UNK d   0       8.811   1.330  -3.710  0.00  0.00    -0.270 N 
ATOM      2  C   UNK d   0       7.536   0.930  -3.884  0.00  0.00     0.304 C 
ATOM      3  O   UNK d   0       6.829   1.490  -4.700  0.00  0.00    -0.253 OA
ATOM      4  H   UNK d   0       9.353   0.932  -3.009  0.00  0.00     0.156 HD
ATOM      5  N   LEU d   1       7.044  -0.090  -3.154  0.00  0.00    -0.291 N 
ATOM      6  CA  LEU d   1       5.658  -0.525  -3.342  0.00  0.00     0.064 C 
ATOM      7  HA  LEU d   1       5.385  -0.423  -4.393  0.00  0.00     0.056 H 
ATOM      8  C   LEU d   1       4.744   0.328  -2.500  0.00  0.00     0.062 C 
ATOM      9  O   LEU d   1       5.205   1.208  -1.813  0.00  0.00    -0.548 OA
ATOM     10  H   LEU d   1       7.608  -0.537  -2.502  0.00  0.00     0.151 HD
ATOM     11  OXT LEU d   1       3.420   0.110  -2.514  0.00  0.00    -0.548 OA
ENDROOT
BRANCH   1  12
ATOM     12  C   UNK d   0       9.354   2.316  -4.540  0.00  0.00     0.035 A 
ATOM     13  C   UNK d   0      10.009   1.959  -5.711  0.00  0.00    -0.040 A 
ATOM     14  C   UNK d   0      10.539   2.936  -6.531  0.00  0.00    -0.057 A 
ATOM     15  H   UNK d   0      10.100   0.917  -5.983  0.00  0.00     0.064 H 
ATOM     16  C   UNK d   0      10.427   4.269  -6.181  0.00  0.00    -0.047 A 
ATOM     17  H   UNK d   0      11.044   2.659  -7.444  0.00  0.00     0.062 H 
ATOM     18  C   UNK d   0       9.781   4.629  -5.012  0.00  0.00    -0.046 A 
ATOM     19  C   UNK d   0       9.244   3.656  -4.191  0.00  0.00    -0.037 A 
ATOM     20  H   UNK d   0       8.739   3.938  -3.279  0.00  0.00     0.064 H 
BRANCH  16  21
ATOM     21  C   UNK d   0      11.011   5.332  -7.075  0.00  0.00    -0.040 C 
ATOM     22  H   UNK d   0      11.641   4.866  -7.831  0.00  0.00     0.028 H 
ATOM     23  H   UNK d   0      10.204   5.882  -7.560  0.00  0.00     0.028 H 
ATOM     24  H   UNK d   0      11.609   6.021  -6.477  0.00  0.00     0.028 H 
ENDBRANCH  16  21
BRANCH  18  25
ATOM     25  C   UNK d   0       9.661   6.083  -4.635  0.00  0.00    -0.039 C 
ATOM     26  H   UNK d   0      10.646   6.475  -4.383  0.00  0.00     0.028 H 
ATOM     27  H   UNK d   0       9.251   6.644  -5.475  0.00  0.00     0.028 H 
ATOM     28  H   UNK d   0       8.999   6.182  -3.775  0.00  0.00     0.028 H 
ENDBRANCH  18  25
ENDBRANCH   1  12
BRANCH   6  29
ATOM     29  CB  LEU d   1       5.520  -1.989  -2.921  0.00  0.00    -0.027 C 
ATOM     30  HB1 LEU d   1       4.666  -2.097  -2.253  0.00  0.00     0.029 H 
ATOM     31  HB2 LEU d   1       6.427  -2.305  -2.404  0.00  0.00     0.029 H 
BRANCH  29  32
ATOM     32  CG  LEU d   1       5.311  -2.859  -4.162  0.00  0.00    -0.045 C 
ATOM     33  HG  LEU d   1       4.652  -3.691  -3.916  0.00  0.00     0.030 H 
BRANCH  32  34
ATOM     34  CD1 LEU d   1       6.661  -3.401  -4.637  0.00  0.00    -0.063 C 
ATOM     35 1HD1 LEU d   1       7.061  -4.086  -3.891  0.00  0.00     0.023 H 
ATOM     36 2HD1 LEU d   1       6.528  -3.930  -5.581  0.00  0.00     0.023 H 
ATOM     37 3HD1 LEU d   1       7.355  -2.573  -4.780  0.00  0.00     0.023 H 
ENDBRANCH  32  34
BRANCH  32  38
ATOM     38  CD2 LEU d   1       4.679  -2.020  -5.273  0.00  0.00    -0.063 C 
ATOM     39 1HD2 LEU d   1       5.446  -1.734  -5.994  0.00  0.00     0.023 H 
ATOM     40 2HD2 LEU d   1       3.907  -2.603  -5.776  0.00  0.00     0.023 H 
ATOM     41 3HD2 LEU d   1       4.235  -1.123  -4.843  0.00  0.00     0.023 H 
ENDBRANCH  32  38
ENDBRANCH  29  32
ENDBRANCH   6  29
TORSDOF 9
ENDMDL
