MODEL 1
REMARK VINA RESULT:      -6.6      0.000      0.000
REMARK  7 active torsions:
REMARK  status: ('A' for Active; 'I' for Inactive)
REMARK    1  A    between atoms: C_7  and  O_31 
REMARK    2  A    between atoms: C_8  and  C_12 
REMARK    3  A    between atoms: C_12  and  C_14 
REMARK    4  A    between atoms: C_12  and  C_25 
REMARK    5  A    between atoms: C_14  and  C_15 
REMARK    6  A    between atoms: C_15  and  C_17 
REMARK    7  A    between atoms: C_15  and  O_24 
ROOT
ATOM      1  C   LIG d   1       5.551  -3.106  -6.978  0.00  0.00     0.028 C 
ATOM      2  H   LIG d   1       6.117  -2.754  -7.840  0.00  0.00     0.041 H 
ENDROOT
BRANCH   1   3
ATOM      3  C   LIG d   1       5.531  -2.033  -5.919  0.00  0.00     0.087 A 
ATOM      4  C   LIG d   1       4.814  -2.218  -4.769  0.00  0.00     0.138 A 
ATOM      5  C   LIG d   1       4.827  -1.141  -3.767  0.00  0.00     0.059 A 
ATOM      6  C   LIG d   1       5.567   0.023  -4.030  0.00  0.00     0.143 A 
ATOM      7  C   LIG d   1       4.117  -1.261  -2.570  0.00  0.00    -0.048 A 
ATOM      8  C   LIG d   1       5.587   1.047  -3.092  0.00  0.00    -0.018 A 
ATOM      9  O   LIG d   1       6.251   0.136  -5.190  0.00  0.00    -0.422 OA
ATOM     10  C   LIG d   1       4.882   0.915  -1.914  0.00  0.00    -0.058 A 
ATOM     11  H   LIG d   1       6.153   1.946  -3.284  0.00  0.00     0.065 H 
ATOM     12  C   LIG d   1       4.150  -0.235  -1.653  0.00  0.00    -0.061 A 
ATOM     13  H   LIG d   1       4.900   1.713  -1.187  0.00  0.00     0.062 H 
ATOM     14  H   LIG d   1       3.606  -0.327  -0.724  0.00  0.00     0.062 H 
ATOM     15  C   LIG d   1       6.246  -0.842  -6.110  0.00  0.00     0.345 A 
ATOM     16  O   LIG d   1       6.881  -0.689  -7.139  0.00  0.00    -0.245 OA
ATOM     17  H   LIG d   1       3.547  -2.155  -2.365  0.00  0.00     0.063 H 
BRANCH   4  18
ATOM     18  O   LIG d   1       4.115  -3.356  -4.559  0.00  0.00    -0.505 OA
ATOM     19  H   LIG d   1       3.625  -3.369  -3.725  0.00  0.00     0.292 HD
ENDBRANCH   4  18
ENDBRANCH   1   3
BRANCH   1  20
ATOM     20  C   LIG d   1       4.117  -3.427  -7.405  0.00  0.00    -0.011 C 
ATOM     21  H   LIG d   1       3.939  -4.497  -7.302  0.00  0.00     0.030 H 
ATOM     22  H   LIG d   1       3.418  -2.880  -6.774  0.00  0.00     0.030 H 
BRANCH  20  23
ATOM     23  C   LIG d   1       3.917  -3.016  -8.865  0.00  0.00     0.081 C 
ATOM     24  H   LIG d   1       2.967  -3.408  -9.227  0.00  0.00     0.064 H 
BRANCH  23  25
ATOM     25  C   LIG d   1       3.909  -1.511  -8.966  0.00  0.00    -0.019 A 
ATOM     26  C   LIG d   1       3.024  -0.773  -8.204  0.00  0.00    -0.055 A 
ATOM     27  C   LIG d   1       3.020   0.607  -8.293  0.00  0.00    -0.043 A 
ATOM     28  H   LIG d   1       2.338  -1.272  -7.537  0.00  0.00     0.062 H 
ATOM     29  C   LIG d   1       3.895   1.248  -9.152  0.00  0.00     0.041 A 
ATOM     30  H   LIG d   1       2.333   1.184  -7.694  0.00  0.00     0.063 H 
ATOM     31  C   LIG d   1       4.776   0.506  -9.919  0.00  0.00    -0.043 A 
ATOM     32 CL   LIG d   1       3.887   2.979  -9.269  0.00  0.00    -0.084 Cl
ATOM     33  C   LIG d   1       4.783  -0.873  -9.826  0.00  0.00    -0.055 A 
ATOM     34  H   LIG d   1       5.459   1.006 -10.591  0.00  0.00     0.063 H 
ATOM     35  H   LIG d   1       5.472  -1.451 -10.424  0.00  0.00     0.062 H 
ENDBRANCH  23  25
BRANCH  23  36
ATOM     36  O   LIG d   1       4.983  -3.541  -9.659  0.00  0.00    -0.387 OA
ATOM     37  H   LIG d   1       5.493  -4.237  -9.221  0.00  0.00     0.210 HD
ENDBRANCH  23  36
ENDBRANCH  20  23
ENDBRANCH   1  20
BRANCH   1  38
ATOM     38  C   LIG d   1       6.200  -4.348  -6.422  0.00  0.00    -0.001 A 
ATOM     39  S   LIG d   1       7.692  -4.498  -5.454  0.00  0.00    -0.081 SA
ATOM     40  C   LIG d   1       7.684  -6.273  -5.254  0.00  0.00     0.078 A 
ATOM     41  C   LIG d   1       6.565  -6.627  -5.936  0.00  0.00    -0.036 A 
ATOM     42 CL   LIG d   1       8.817  -7.283  -4.413  0.00  0.00    -0.076 Cl
ATOM     43  C   LIG d   1       5.805  -5.639  -6.533  0.00  0.00    -0.050 A 
ATOM     44  H   LIG d   1       6.273  -7.664  -6.008  0.00  0.00     0.064 H 
ATOM     45  H   LIG d   1       4.910  -5.892  -7.081  0.00  0.00     0.063 H 
ENDBRANCH   1  38
TORSDOF 7
ENDMDL
MODEL 2
REMARK VINA RESULT:      -6.6      6.471      8.604
REMARK  7 active torsions:
REMARK  status: ('A' for Active; 'I' for Inactive)
REMARK    1  A    between atoms: C_7  and  O_31 
REMARK    2  A    between atoms: C_8  and  C_12 
REMARK    3  A    between atoms: C_12  and  C_14 
REMARK    4  A    between atoms: C_12  and  C_25 
REMARK    5  A    between atoms: C_14  and  C_15 
REMARK    6  A    between atoms: C_15  and  C_17 
REMARK    7  A    between atoms: C_15  and  O_24 
ROOT
ATOM      1  C   LIG d   1      10.117   3.139  -4.239  0.00  0.00     0.028 C 
ATOM      2  H   LIG d   1       9.800   3.287  -5.272  0.00  0.00     0.041 H 
ENDROOT
BRANCH   1   3
ATOM      3  C   LIG d   1      10.080   4.457  -3.509  0.00  0.00     0.087 A 
ATOM      4  C   LIG d   1      10.507   4.534  -2.212  0.00  0.00     0.138 A 
ATOM      5  C   LIG d   1      10.450   5.844  -1.544  0.00  0.00     0.059 A 
ATOM      6  C   LIG d   1       9.964   6.951  -2.259  0.00  0.00     0.143 A 
ATOM      7  C   LIG d   1      10.869   5.997  -0.220  0.00  0.00    -0.048 A 
ATOM      8  C   LIG d   1       9.906   8.192  -1.639  0.00  0.00    -0.018 A 
ATOM      9  O   LIG d   1       9.559   6.799  -3.538  0.00  0.00    -0.422 OA
ATOM     10  C   LIG d   1      10.323   8.329  -0.331  0.00  0.00    -0.058 A 
ATOM     11  H   LIG d   1       9.534   9.049  -2.179  0.00  0.00     0.065 H 
ATOM     12  C   LIG d   1      10.804   7.236   0.376  0.00  0.00    -0.061 A 
ATOM     13  H   LIG d   1      10.276   9.296   0.147  0.00  0.00     0.062 H 
ATOM     14  H   LIG d   1      11.131   7.358   1.398  0.00  0.00     0.062 H 
ATOM     15  C   LIG d   1       9.607   5.608  -4.156  0.00  0.00     0.345 A 
ATOM     16  O   LIG d   1       9.230   5.525  -5.313  0.00  0.00    -0.245 OA
ATOM     17  H   LIG d   1      11.243   5.147   0.332  0.00  0.00     0.063 H 
BRANCH   4  18
ATOM     18  O   LIG d   1      10.967   3.441  -1.563  0.00  0.00    -0.505 OA
ATOM     19  H   LIG d   1      11.197   3.601  -0.637  0.00  0.00     0.292 HD
ENDBRANCH   4  18
ENDBRANCH   1   3
BRANCH   1  20
ATOM     20  C   LIG d   1       9.173   2.149  -3.553  0.00  0.00    -0.011 C 
ATOM     21  H   LIG d   1       9.750   1.483  -2.911  0.00  0.00     0.030 H 
ATOM     22  H   LIG d   1       8.448   2.696  -2.952  0.00  0.00     0.030 H 
BRANCH  20  23
ATOM     23  C   LIG d   1       8.440   1.325  -4.614  0.00  0.00     0.081 C 
ATOM     24  H   LIG d   1       9.141   0.645  -5.095  0.00  0.00     0.064 H 
BRANCH  23  25
ATOM     25  C   LIG d   1       7.339   0.530  -3.959  0.00  0.00    -0.019 A 
ATOM     26  C   LIG d   1       6.332   1.182  -3.272  0.00  0.00    -0.055 A 
ATOM     27  C   LIG d   1       5.320   0.453  -2.675  0.00  0.00    -0.043 A 
ATOM     28  H   LIG d   1       6.334   2.259  -3.203  0.00  0.00     0.062 H 
ATOM     29  C   LIG d   1       5.320  -0.928  -2.758  0.00  0.00     0.041 A 
ATOM     30  H   LIG d   1       4.530   0.962  -2.143  0.00  0.00     0.063 H 
ATOM     31  C   LIG d   1       6.332  -1.579  -3.442  0.00  0.00    -0.043 A 
ATOM     32 CL   LIG d   1       4.052  -1.844  -2.004  0.00  0.00    -0.084 Cl
ATOM     33  C   LIG d   1       7.341  -0.850  -4.042  0.00  0.00    -0.055 A 
ATOM     34  H   LIG d   1       6.332  -2.657  -3.506  0.00  0.00     0.063 H 
ATOM     35  H   LIG d   1       8.129  -1.358  -4.576  0.00  0.00     0.062 H 
ENDBRANCH  23  25
BRANCH  23  36
ATOM     36  O   LIG d   1       7.877   2.201  -5.593  0.00  0.00    -0.387 OA
ATOM     37  H   LIG d   1       7.622   3.068  -5.245  0.00  0.00     0.210 HD
ENDBRANCH  23  36
ENDBRANCH  20  23
ENDBRANCH   1  20
BRANCH   1  38
ATOM     38  C   LIG d   1      11.522   2.592  -4.217  0.00  0.00    -0.001 A 
ATOM     39  S   LIG d   1      13.050   3.402  -4.657  0.00  0.00    -0.081 SA
ATOM     40  C   LIG d   1      14.159   2.041  -4.331  0.00  0.00     0.078 A 
ATOM     41  C   LIG d   1      13.302   1.072  -3.923  0.00  0.00    -0.036 A 
ATOM     42 CL   LIG d   1      15.885   1.972  -4.499  0.00  0.00    -0.076 Cl
ATOM     43  C   LIG d   1      11.950   1.356  -3.864  0.00  0.00    -0.050 A 
ATOM     44  H   LIG d   1      13.670   0.095  -3.647  0.00  0.00     0.064 H 
ATOM     45  H   LIG d   1      11.245   0.603  -3.543  0.00  0.00     0.063 H 
ENDBRANCH   1  38
TORSDOF 7
ENDMDL
MODEL 3
REMARK VINA RESULT:      -6.5      3.551      4.605
REMARK  7 active torsions:
REMARK  status: ('A' for Active; 'I' for Inactive)
REMARK    1  A    between atoms: C_7  and  O_31 
REMARK    2  A    between atoms: C_8  and  C_12 
REMARK    3  A    between atoms: C_12  and  C_14 
REMARK    4  A    between atoms: C_12  and  C_25 
REMARK    5  A    between atoms: C_14  and  C_15 
REMARK    6  A    between atoms: C_15  and  C_17 
REMARK    7  A    between atoms: C_15  and  O_24 
ROOT
ATOM      1  C   LIG d   1       9.082   0.438  -5.992  0.00  0.00     0.028 C 
ATOM      2  H   LIG d   1       9.182   1.417  -6.460  0.00  0.00     0.041 H 
ENDROOT
BRANCH   1   3
ATOM      3  C   LIG d   1       7.985   0.485  -4.959  0.00  0.00     0.087 A 
ATOM      4  C   LIG d   1       7.331  -0.661  -4.600  0.00  0.00     0.138 A 
ATOM      5  C   LIG d   1       6.270  -0.562  -3.587  0.00  0.00     0.059 A 
ATOM      6  C   LIG d   1       5.973   0.695  -3.034  0.00  0.00     0.143 A 
ATOM      7  C   LIG d   1       5.560  -1.691  -3.173  0.00  0.00    -0.048 A 
ATOM      8  C   LIG d   1       4.973   0.802  -2.077  0.00  0.00    -0.018 A 
ATOM      9  O   LIG d   1       6.662   1.785  -3.438  0.00  0.00    -0.422 OA
ATOM     10  C   LIG d   1       4.279  -0.322  -1.677  0.00  0.00    -0.058 A 
ATOM     11  H   LIG d   1       4.737   1.763  -1.646  0.00  0.00     0.065 H 
ATOM     12  C   LIG d   1       4.572  -1.564  -2.222  0.00  0.00    -0.061 A 
ATOM     13  H   LIG d   1       3.503  -0.234  -0.933  0.00  0.00     0.062 H 
ATOM     14  H   LIG d   1       4.024  -2.436  -1.897  0.00  0.00     0.062 H 
ATOM     15  C   LIG d   1       7.632   1.704  -4.362  0.00  0.00     0.345 A 
ATOM     16  O   LIG d   1       8.223   2.719  -4.690  0.00  0.00    -0.245 OA
ATOM     17  H   LIG d   1       5.785  -2.659  -3.596  0.00  0.00     0.063 H 
BRANCH   4  18
ATOM     18  O   LIG d   1       7.651  -1.850  -5.160  0.00  0.00    -0.505 OA
ATOM     19  H   LIG d   1       6.914  -2.476  -5.201  0.00  0.00     0.292 HD
ENDBRANCH   4  18
ENDBRANCH   1   3
BRANCH   1  20
ATOM     20  C   LIG d   1       8.732  -0.603  -7.058  0.00  0.00    -0.011 C 
ATOM     21  H   LIG d   1       9.558  -1.307  -7.163  0.00  0.00     0.030 H 
ATOM     22  H   LIG d   1       7.832  -1.140  -6.761  0.00  0.00     0.030 H 
BRANCH  20  23
ATOM     23  C   LIG d   1       8.489   0.100  -8.396  0.00  0.00     0.081 C 
ATOM     24  H   LIG d   1       8.735  -0.578  -9.213  0.00  0.00     0.064 H 
BRANCH  23  25
ATOM     25  C   LIG d   1       7.040   0.502  -8.496  0.00  0.00    -0.019 A 
ATOM     26  C   LIG d   1       6.701   1.749  -8.986  0.00  0.00    -0.055 A 
ATOM     27  C   LIG d   1       5.372   2.116  -9.082  0.00  0.00    -0.043 A 
ATOM     28  H   LIG d   1       7.474   2.436  -9.297  0.00  0.00     0.062 H 
ATOM     29  C   LIG d   1       4.381   1.239  -8.678  0.00  0.00     0.041 A 
ATOM     30  H   LIG d   1       5.107   3.088  -9.470  0.00  0.00     0.063 H 
ATOM     31  C   LIG d   1       4.722  -0.007  -8.182  0.00  0.00    -0.043 A 
ATOM     32 CL   LIG d   1       2.712   1.702  -8.793  0.00  0.00    -0.084 Cl
ATOM     33  C   LIG d   1       6.050  -0.375  -8.091  0.00  0.00    -0.055 A 
ATOM     34  H   LIG d   1       3.948  -0.692  -7.866  0.00  0.00     0.063 H 
ATOM     35  H   LIG d   1       6.316  -1.348  -7.705  0.00  0.00     0.062 H 
ENDBRANCH  23  25
BRANCH  23  36
ATOM     36  O   LIG d   1       9.313   1.265  -8.479  0.00  0.00    -0.387 OA
ATOM     37  H   LIG d   1       9.354   1.655  -9.363  0.00  0.00     0.210 HD
ENDBRANCH  23  36
ENDBRANCH  20  23
ENDBRANCH   1  20
BRANCH   1  38
ATOM     38  C   LIG d   1      10.382   0.061  -5.329  0.00  0.00    -0.001 A 
ATOM     39  S   LIG d   1      11.541   1.101  -4.457  0.00  0.00    -0.081 SA
ATOM     40  C   LIG d   1      12.735  -0.156  -4.031  0.00  0.00     0.078 A 
ATOM     41  C   LIG d   1      12.183  -1.267  -4.582  0.00  0.00    -0.036 A 
ATOM     42 CL   LIG d   1      14.221   0.002  -3.149  0.00  0.00    -0.076 Cl
ATOM     43  C   LIG d   1      10.976  -1.154  -5.246  0.00  0.00    -0.050 A 
ATOM     44  H   LIG d   1      12.677  -2.223  -4.500  0.00  0.00     0.064 H 
ATOM     45  H   LIG d   1      10.513  -2.021  -5.693  0.00  0.00     0.063 H 
ENDBRANCH   1  38
TORSDOF 7
ENDMDL
MODEL 4
REMARK VINA RESULT:      -6.5      1.188      2.261
REMARK  7 active torsions:
REMARK  status: ('A' for Active; 'I' for Inactive)
REMARK    1  A    between atoms: C_7  and  O_31 
REMARK    2  A    between atoms: C_8  and  C_12 
REMARK    3  A    between atoms: C_12  and  C_14 
REMARK    4  A    between atoms: C_12  and  C_25 
REMARK    5  A    between atoms: C_14  and  C_15 
REMARK    6  A    between atoms: C_15  and  C_17 
REMARK    7  A    between atoms: C_15  and  O_24 
ROOT
ATOM      1  C   LIG d   1       6.578  -3.488  -6.343  0.00  0.00     0.028 C 
ATOM      2  H   LIG d   1       7.302  -2.847  -6.845  0.00  0.00     0.041 H 
ENDROOT
BRANCH   1   3
ATOM      3  C   LIG d   1       5.898  -2.712  -5.244  0.00  0.00     0.087 A 
ATOM      4  C   LIG d   1       6.327  -1.452  -4.928  0.00  0.00     0.138 A 
ATOM      5  C   LIG d   1       5.630  -0.737  -3.848  0.00  0.00     0.059 A 
ATOM      6  C   LIG d   1       4.563  -1.372  -3.190  0.00  0.00     0.143 A 
ATOM      7  C   LIG d   1       6.013   0.552  -3.472  0.00  0.00    -0.048 A 
ATOM      8  C   LIG d   1       3.898  -0.707  -2.169  0.00  0.00    -0.018 A 
ATOM      9  O   LIG d   1       4.195  -2.619  -3.557  0.00  0.00    -0.422 OA
ATOM     10  C   LIG d   1       4.287   0.566  -1.808  0.00  0.00    -0.058 A 
ATOM     11  H   LIG d   1       3.076  -1.186  -1.657  0.00  0.00     0.065 H 
ATOM     12  C   LIG d   1       5.340   1.194  -2.457  0.00  0.00    -0.061 A 
ATOM     13  H   LIG d   1       3.767   1.079  -1.013  0.00  0.00     0.062 H 
ATOM     14  H   LIG d   1       5.632   2.193  -2.167  0.00  0.00     0.062 H 
ATOM     15  C   LIG d   1       4.825  -3.279  -4.541  0.00  0.00     0.345 A 
ATOM     16  O   LIG d   1       4.453  -4.403  -4.833  0.00  0.00    -0.245 OA
ATOM     17  H   LIG d   1       6.833   1.043  -3.975  0.00  0.00     0.063 H 
BRANCH   4  18
ATOM     18  O   LIG d   1       7.359  -0.881  -5.589  0.00  0.00    -0.505 OA
ATOM     19  H   LIG d   1       8.221  -1.267  -5.380  0.00  0.00     0.292 HD
ENDBRANCH   4  18
ENDBRANCH   1   3
BRANCH   1  20
ATOM     20  C   LIG d   1       5.531  -3.963  -7.353  0.00  0.00    -0.011 C 
ATOM     21  H   LIG d   1       5.665  -5.028  -7.542  0.00  0.00     0.030 H 
ATOM     22  H   LIG d   1       4.533  -3.788  -6.953  0.00  0.00     0.030 H 
BRANCH  20  23
ATOM     23  C   LIG d   1       5.699  -3.190  -8.663  0.00  0.00     0.081 C 
ATOM     24  H   LIG d   1       5.282  -3.771  -9.485  0.00  0.00     0.064 H 
BRANCH  23  25
ATOM     25  C   LIG d   1       4.975  -1.871  -8.563  0.00  0.00    -0.019 A 
ATOM     26  C   LIG d   1       5.678  -0.687  -8.679  0.00  0.00    -0.055 A 
ATOM     27  C   LIG d   1       5.014   0.523  -8.592  0.00  0.00    -0.043 A 
ATOM     28  H   LIG d   1       6.746  -0.706  -8.840  0.00  0.00     0.062 H 
ATOM     29  C   LIG d   1       3.647   0.548  -8.380  0.00  0.00     0.041 A 
ATOM     30  H   LIG d   1       5.562   1.447  -8.688  0.00  0.00     0.063 H 
ATOM     31  C   LIG d   1       2.946  -0.639  -8.258  0.00  0.00    -0.043 A 
ATOM     32 CL   LIG d   1       2.813   2.066  -8.265  0.00  0.00    -0.084 Cl
ATOM     33  C   LIG d   1       3.609  -1.847  -8.350  0.00  0.00    -0.055 A 
ATOM     34  H   LIG d   1       1.878  -0.620  -8.092  0.00  0.00     0.063 H 
ATOM     35  H   LIG d   1       3.061  -2.773  -8.256  0.00  0.00     0.062 H 
ENDBRANCH  23  25
BRANCH  23  36
ATOM     36  O   LIG d   1       7.088  -2.954  -8.902  0.00  0.00    -0.387 OA
ATOM     37  H   LIG d   1       7.438  -2.174  -8.449  0.00  0.00     0.210 HD
ENDBRANCH  23  36
ENDBRANCH  20  23
ENDBRANCH   1  20
BRANCH   1  38
ATOM     38  C   LIG d   1       7.285  -4.681  -5.753  0.00  0.00    -0.001 A 
ATOM     39  S   LIG d   1       8.508  -4.734  -4.454  0.00  0.00    -0.081 SA
ATOM     40  C   LIG d   1       8.765  -6.500  -4.422  0.00  0.00     0.078 A 
ATOM     41  C   LIG d   1       7.920  -6.925  -5.395  0.00  0.00    -0.036 A 
ATOM     42 CL   LIG d   1       9.825  -7.432  -3.412  0.00  0.00    -0.076 Cl
ATOM     43  C   LIG d   1       7.161  -5.991  -6.076  0.00  0.00    -0.050 A 
ATOM     44  H   LIG d   1       7.840  -7.975  -5.632  0.00  0.00     0.064 H 
ATOM     45  H   LIG d   1       6.481  -6.301  -6.855  0.00  0.00     0.063 H 
ENDBRANCH   1  38
TORSDOF 7
ENDMDL
MODEL 5
REMARK VINA RESULT:      -6.5      3.690      5.781
REMARK  7 active torsions:
REMARK  status: ('A' for Active; 'I' for Inactive)
REMARK    1  A    between atoms: C_7  and  O_31 
REMARK    2  A    between atoms: C_8  and  C_12 
REMARK    3  A    between atoms: C_12  and  C_14 
REMARK    4  A    between atoms: C_12  and  C_25 
REMARK    5  A    between atoms: C_14  and  C_15 
REMARK    6  A    between atoms: C_15  and  C_17 
REMARK    7  A    between atoms: C_15  and  O_24 
ROOT
ATOM      1  C   LIG d   1       5.835  -0.100  -8.360  0.00  0.00     0.028 C 
ATOM      2  H   LIG d   1       6.590  -0.886  -8.397  0.00  0.00     0.041 H 
ENDROOT
BRANCH   1   3
ATOM      3  C   LIG d   1       5.036  -0.231  -7.089  0.00  0.00     0.087 A 
ATOM      4  C   LIG d   1       5.406  -1.140  -6.136  0.00  0.00     0.138 A 
ATOM      5  C   LIG d   1       4.593  -1.228  -4.913  0.00  0.00     0.059 A 
ATOM      6  C   LIG d   1       3.479  -0.384  -4.775  0.00  0.00     0.143 A 
ATOM      7  C   LIG d   1       4.912  -2.134  -3.899  0.00  0.00    -0.048 A 
ATOM      8  C   LIG d   1       2.704  -0.458  -3.626  0.00  0.00    -0.018 A 
ATOM      9  O   LIG d   1       3.174   0.491  -5.759  0.00  0.00    -0.422 OA
ATOM     10  C   LIG d   1       3.030  -1.357  -2.632  0.00  0.00    -0.058 A 
ATOM     11  H   LIG d   1       1.846   0.187  -3.510  0.00  0.00     0.065 H 
ATOM     12  C   LIG d   1       4.130  -2.192  -2.767  0.00  0.00    -0.061 A 
ATOM     13  H   LIG d   1       2.425  -1.411  -1.740  0.00  0.00     0.062 H 
ATOM     14  H   LIG d   1       4.377  -2.888  -1.979  0.00  0.00     0.062 H 
ATOM     15  C   LIG d   1       3.910   0.579  -6.878  0.00  0.00     0.345 A 
ATOM     16  O   LIG d   1       3.591   1.385  -7.735  0.00  0.00    -0.245 OA
ATOM     17  H   LIG d   1       5.767  -2.785  -4.002  0.00  0.00     0.063 H 
BRANCH   4  18
ATOM     18  O   LIG d   1       6.487  -1.934  -6.313  0.00  0.00    -0.505 OA
ATOM     19  H   LIG d   1       7.238  -1.705  -5.749  0.00  0.00     0.292 HD
ENDBRANCH   4  18
ENDBRANCH   1   3
BRANCH   1  20
ATOM     20  C   LIG d   1       6.522   1.267  -8.391  0.00  0.00    -0.011 C 
ATOM     21  H   LIG d   1       6.361   1.732  -9.364  0.00  0.00     0.030 H 
ATOM     22  H   LIG d   1       6.103   1.902  -7.612  0.00  0.00     0.030 H 
BRANCH  20  23
ATOM     23  C   LIG d   1       8.023   1.089  -8.153  0.00  0.00     0.081 C 
ATOM     24  H   LIG d   1       8.576   1.493  -9.001  0.00  0.00     0.064 H 
BRANCH  23  25
ATOM     25  C   LIG d   1       8.422   1.823  -6.898  0.00  0.00    -0.019 A 
ATOM     26  C   LIG d   1       7.983   1.374  -5.667  0.00  0.00    -0.055 A 
ATOM     27  C   LIG d   1       8.353   2.044  -4.515  0.00  0.00    -0.043 A 
ATOM     28  H   LIG d   1       7.354   0.499  -5.604  0.00  0.00     0.062 H 
ATOM     29  C   LIG d   1       9.155   3.168  -4.596  0.00  0.00     0.041 A 
ATOM     30  H   LIG d   1       8.014   1.690  -3.553  0.00  0.00     0.063 H 
ATOM     31  C   LIG d   1       9.588   3.620  -5.830  0.00  0.00    -0.043 A 
ATOM     32 CL   LIG d   1       9.615   4.013  -3.151  0.00  0.00    -0.084 Cl
ATOM     33  C   LIG d   1       9.222   2.947  -6.980  0.00  0.00    -0.055 A 
ATOM     34  H   LIG d   1      10.214   4.498  -5.894  0.00  0.00     0.063 H 
ATOM     35  H   LIG d   1       9.562   3.299  -7.943  0.00  0.00     0.062 H 
ENDBRANCH  23  25
BRANCH  23  36
ATOM     36  O   LIG d   1       8.321  -0.301  -8.008  0.00  0.00    -0.387 OA
ATOM     37  H   LIG d   1       7.548  -0.879  -8.086  0.00  0.00     0.210 HD
ENDBRANCH  23  36
ENDBRANCH  20  23
ENDBRANCH   1  20
BRANCH   1  38
ATOM     38  C   LIG d   1       4.916  -0.228  -9.547  0.00  0.00    -0.001 A 
ATOM     39  S   LIG d   1       3.735  -1.514  -9.920  0.00  0.00    -0.081 SA
ATOM     40  C   LIG d   1       3.127  -0.856 -11.465  0.00  0.00     0.078 A 
ATOM     41  C   LIG d   1       3.860   0.278 -11.595  0.00  0.00    -0.036 A 
ATOM     42 CL   LIG d   1       1.917  -1.504 -12.528  0.00  0.00    -0.076 Cl
ATOM     43  C   LIG d   1       4.776   0.599 -10.611  0.00  0.00    -0.050 A 
ATOM     44  H   LIG d   1       3.728   0.920 -12.453  0.00  0.00     0.064 H 
ATOM     45  H   LIG d   1       5.373   1.495 -10.689  0.00  0.00     0.063 H 
ENDBRANCH   1  38
TORSDOF 7
ENDMDL
MODEL 6
REMARK VINA RESULT:      -6.5      2.911      3.641
REMARK  7 active torsions:
REMARK  status: ('A' for Active; 'I' for Inactive)
REMARK    1  A    between atoms: C_7  and  O_31 
REMARK    2  A    between atoms: C_8  and  C_12 
REMARK    3  A    between atoms: C_12  and  C_14 
REMARK    4  A    between atoms: C_12  and  C_25 
REMARK    5  A    between atoms: C_14  and  C_15 
REMARK    6  A    between atoms: C_15  and  C_17 
REMARK    7  A    between atoms: C_15  and  O_24 
ROOT
ATOM      1  C   LIG d   1       4.780  -0.952  -8.104  0.00  0.00     0.028 C 
ATOM      2  H   LIG d   1       5.695  -0.773  -8.669  0.00  0.00     0.041 H 
ENDROOT
BRANCH   1   3
ATOM      3  C   LIG d   1       4.984  -0.531  -6.672  0.00  0.00     0.087 A 
ATOM      4  C   LIG d   1       3.904  -0.318  -5.859  0.00  0.00     0.138 A 
ATOM      5  C   LIG d   1       4.157   0.091  -4.469  0.00  0.00     0.059 A 
ATOM      6  C   LIG d   1       5.485   0.245  -4.036  0.00  0.00     0.143 A 
ATOM      7  C   LIG d   1       3.103   0.327  -3.584  0.00  0.00    -0.048 A 
ATOM      8  C   LIG d   1       5.736   0.631  -2.726  0.00  0.00    -0.018 A 
ATOM      9  O   LIG d   1       6.502   0.016  -4.896  0.00  0.00    -0.422 OA
ATOM     10  C   LIG d   1       4.685   0.860  -1.862  0.00  0.00    -0.058 A 
ATOM     11  H   LIG d   1       6.753   0.752  -2.384  0.00  0.00     0.065 H 
ATOM     12  C   LIG d   1       3.373   0.709  -2.289  0.00  0.00    -0.061 A 
ATOM     13  H   LIG d   1       4.885   1.160  -0.845  0.00  0.00     0.062 H 
ATOM     14  H   LIG d   1       2.561   0.888  -1.601  0.00  0.00     0.062 H 
ATOM     15  C   LIG d   1       6.281  -0.357  -6.166  0.00  0.00     0.345 A 
ATOM     16  O   LIG d   1       7.235  -0.551  -6.901  0.00  0.00    -0.245 OA
ATOM     17  H   LIG d   1       2.081   0.210  -3.914  0.00  0.00     0.063 H 
BRANCH   4  18
ATOM     18  O   LIG d   1       2.643  -0.478  -6.320  0.00  0.00    -0.505 OA
ATOM     19  H   LIG d   1       2.431   0.076  -7.084  0.00  0.00     0.292 HD
ENDBRANCH   4  18
ENDBRANCH   1   3
BRANCH   1  20
ATOM     20  C   LIG d   1       3.636  -0.141  -8.716  0.00  0.00    -0.011 C 
ATOM     21  H   LIG d   1       2.739  -0.758  -8.766  0.00  0.00     0.030 H 
ATOM     22  H   LIG d   1       3.440   0.734  -8.097  0.00  0.00     0.030 H 
BRANCH  20  23
ATOM     23  C   LIG d   1       4.026   0.307 -10.126  0.00  0.00     0.081 C 
ATOM     24  H   LIG d   1       5.077   0.083 -10.301  0.00  0.00     0.064 H 
BRANCH  23  25
ATOM     25  C   LIG d   1       3.182  -0.427 -11.137  0.00  0.00    -0.019 A 
ATOM     26  C   LIG d   1       3.744  -0.857 -12.324  0.00  0.00    -0.055 A 
ATOM     27  C   LIG d   1       2.972  -1.534 -13.250  0.00  0.00    -0.043 A 
ATOM     28  H   LIG d   1       4.787  -0.666 -12.528  0.00  0.00     0.062 H 
ATOM     29  C   LIG d   1       1.634  -1.773 -12.991  0.00  0.00     0.041 A 
ATOM     30  H   LIG d   1       3.412  -1.874 -14.175  0.00  0.00     0.063 H 
ATOM     31  C   LIG d   1       1.071  -1.337 -11.805  0.00  0.00    -0.043 A 
ATOM     32 CL   LIG d   1       0.662  -2.618 -14.155  0.00  0.00    -0.084 Cl
ATOM     33  C   LIG d   1       1.844  -0.664 -10.879  0.00  0.00    -0.055 A 
ATOM     34  H   LIG d   1       0.026  -1.523 -11.603  0.00  0.00     0.063 H 
ATOM     35  H   LIG d   1       1.405  -0.325  -9.952  0.00  0.00     0.062 H 
ENDBRANCH  23  25
BRANCH  23  36
ATOM     36  O   LIG d   1       3.809   1.714 -10.256  0.00  0.00    -0.387 OA
ATOM     37  H   LIG d   1       4.019   2.219  -9.458  0.00  0.00     0.210 HD
ENDBRANCH  23  36
ENDBRANCH  20  23
ENDBRANCH   1  20
BRANCH   1  38
ATOM     38  C   LIG d   1       4.438  -2.420  -8.153  0.00  0.00    -0.001 A 
ATOM     39  S   LIG d   1       5.272  -3.794  -7.378  0.00  0.00    -0.081 SA
ATOM     40  C   LIG d   1       4.203  -5.099  -7.963  0.00  0.00     0.078 A 
ATOM     41  C   LIG d   1       3.300  -4.411  -8.706  0.00  0.00    -0.036 A 
ATOM     42 CL   LIG d   1       4.297  -6.806  -7.665  0.00  0.00    -0.076 Cl
ATOM     43  C   LIG d   1       3.421  -3.037  -8.802  0.00  0.00    -0.050 A 
ATOM     44  H   LIG d   1       2.499  -4.928  -9.213  0.00  0.00     0.064 H 
ATOM     45  H   LIG d   1       2.717  -2.464  -9.386  0.00  0.00     0.063 H 
ENDBRANCH   1  38
TORSDOF 7
ENDMDL
MODEL 7
REMARK VINA RESULT:      -6.4      2.597      5.138
REMARK  7 active torsions:
REMARK  status: ('A' for Active; 'I' for Inactive)
REMARK    1  A    between atoms: C_7  and  O_31 
REMARK    2  A    between atoms: C_8  and  C_12 
REMARK    3  A    between atoms: C_12  and  C_14 
REMARK    4  A    between atoms: C_12  and  C_25 
REMARK    5  A    between atoms: C_14  and  C_15 
REMARK    6  A    between atoms: C_15  and  C_17 
REMARK    7  A    between atoms: C_15  and  O_24 
ROOT
ATOM      1  C   LIG d   1       6.111  -2.534  -6.280  0.00  0.00     0.028 C 
ATOM      2  H   LIG d   1       5.596  -2.395  -5.330  0.00  0.00     0.041 H 
ENDROOT
BRANCH   1   3
ATOM      3  C   LIG d   1       5.678  -1.463  -7.248  0.00  0.00     0.087 A 
ATOM      4  C   LIG d   1       4.558  -0.720  -6.992  0.00  0.00     0.138 A 
ATOM      5  C   LIG d   1       4.178   0.314  -7.967  0.00  0.00     0.059 A 
ATOM      6  C   LIG d   1       4.973   0.494  -9.111  0.00  0.00     0.143 A 
ATOM      7  C   LIG d   1       3.047   1.110  -7.771  0.00  0.00    -0.048 A 
ATOM      8  C   LIG d   1       4.625   1.467 -10.039  0.00  0.00    -0.018 A 
ATOM      9  O   LIG d   1       6.066  -0.278  -9.297  0.00  0.00    -0.422 OA
ATOM     10  C   LIG d   1       3.505   2.246  -9.833  0.00  0.00    -0.058 A 
ATOM     11  H   LIG d   1       5.229   1.613 -10.922  0.00  0.00     0.065 H 
ATOM     12  C   LIG d   1       2.719   2.069  -8.703  0.00  0.00    -0.061 A 
ATOM     13  H   LIG d   1       3.238   3.000 -10.557  0.00  0.00     0.062 H 
ATOM     14  H   LIG d   1       1.848   2.688  -8.552  0.00  0.00     0.062 H 
ATOM     15  C   LIG d   1       6.421  -1.224  -8.413  0.00  0.00     0.345 A 
ATOM     16  O   LIG d   1       7.417  -1.893  -8.629  0.00  0.00    -0.245 OA
ATOM     17  H   LIG d   1       2.434   0.974  -6.892  0.00  0.00     0.063 H 
BRANCH   4  18
ATOM     18  O   LIG d   1       3.823  -0.929  -5.876  0.00  0.00    -0.505 OA
ATOM     19  H   LIG d   1       2.973  -0.466  -5.873  0.00  0.00     0.292 HD
ENDBRANCH   4  18
ENDBRANCH   1   3
BRANCH   1  20
ATOM     20  C   LIG d   1       7.622  -2.441  -6.060  0.00  0.00    -0.011 C 
ATOM     21  H   LIG d   1       8.108  -3.311  -6.501  0.00  0.00     0.030 H 
ATOM     22  H   LIG d   1       8.003  -1.535  -6.530  0.00  0.00     0.030 H 
BRANCH  20  23
ATOM     23  C   LIG d   1       7.917  -2.400  -4.559  0.00  0.00     0.081 C 
ATOM     24  H   LIG d   1       8.931  -2.035  -4.397  0.00  0.00     0.064 H 
BRANCH  23  25
ATOM     25  C   LIG d   1       6.937  -1.476  -3.880  0.00  0.00    -0.019 A 
ATOM     26  C   LIG d   1       5.880  -2.000  -3.159  0.00  0.00    -0.055 A 
ATOM     27  C   LIG d   1       4.984  -1.154  -2.533  0.00  0.00    -0.043 A 
ATOM     28  H   LIG d   1       5.756  -3.070  -3.082  0.00  0.00     0.062 H 
ATOM     29  C   LIG d   1       5.140   0.218  -2.636  0.00  0.00     0.041 A 
ATOM     30  H   LIG d   1       4.162  -1.562  -1.966  0.00  0.00     0.063 H 
ATOM     31  C   LIG d   1       6.195   0.740  -3.364  0.00  0.00    -0.043 A 
ATOM     32 CL   LIG d   1       4.012   1.281  -1.856  0.00  0.00    -0.084 Cl
ATOM     33  C   LIG d   1       7.092  -0.107  -3.985  0.00  0.00    -0.055 A 
ATOM     34  H   LIG d   1       6.316   1.811  -3.445  0.00  0.00     0.063 H 
ATOM     35  H   LIG d   1       7.916   0.302  -4.552  0.00  0.00     0.062 H 
ENDBRANCH  23  25
BRANCH  23  36
ATOM     36  O   LIG d   1       7.790  -3.714  -4.012  0.00  0.00    -0.387 OA
ATOM     37  H   LIG d   1       8.200  -4.405  -4.551  0.00  0.00     0.210 HD
ENDBRANCH  23  36
ENDBRANCH  20  23
ENDBRANCH   1  20
BRANCH   1  38
ATOM     38  C   LIG d   1       5.768  -3.889  -6.844  0.00  0.00    -0.001 A 
ATOM     39  S   LIG d   1       4.191  -4.504  -7.412  0.00  0.00    -0.081 SA
ATOM     40  C   LIG d   1       4.717  -6.142  -7.890  0.00  0.00     0.078 A 
ATOM     41  C   LIG d   1       6.038  -6.114  -7.581  0.00  0.00    -0.036 A 
ATOM     42 CL   LIG d   1       3.780  -7.437  -8.567  0.00  0.00    -0.076 Cl
ATOM     43  C   LIG d   1       6.575  -4.958  -7.046  0.00  0.00    -0.050 A 
ATOM     44  H   LIG d   1       6.659  -6.981  -7.752  0.00  0.00     0.064 H 
ATOM     45  H   LIG d   1       7.623  -4.909  -6.791  0.00  0.00     0.063 H 
ENDBRANCH   1  38
TORSDOF 7
ENDMDL
MODEL 8
REMARK VINA RESULT:      -6.3      1.323      1.713
REMARK  7 active torsions:
REMARK  status: ('A' for Active; 'I' for Inactive)
REMARK    1  A    between atoms: C_7  and  O_31 
REMARK    2  A    between atoms: C_8  and  C_12 
REMARK    3  A    between atoms: C_12  and  C_14 
REMARK    4  A    between atoms: C_12  and  C_25 
REMARK    5  A    between atoms: C_14  and  C_15 
REMARK    6  A    between atoms: C_15  and  C_17 
REMARK    7  A    between atoms: C_15  and  O_24 
ROOT
ATOM      1  C   LIG d   1       7.234  -3.099  -6.296  0.00  0.00     0.028 C 
ATOM      2  H   LIG d   1       7.982  -2.702  -6.982  0.00  0.00     0.041 H 
ENDROOT
BRANCH   1   3
ATOM      3  C   LIG d   1       6.783  -2.008  -5.359  0.00  0.00     0.087 A 
ATOM      4  C   LIG d   1       5.799  -2.255  -4.441  0.00  0.00     0.138 A 
ATOM      5  C   LIG d   1       5.395  -1.157  -3.549  0.00  0.00     0.059 A 
ATOM      6  C   LIG d   1       6.030   0.089  -3.676  0.00  0.00     0.143 A 
ATOM      7  C   LIG d   1       4.398  -1.338  -2.589  0.00  0.00    -0.048 A 
ATOM      8  C   LIG d   1       5.658   1.134  -2.840  0.00  0.00    -0.018 A 
ATOM      9  O   LIG d   1       6.995   0.260  -4.606  0.00  0.00    -0.422 OA
ATOM     10  C   LIG d   1       4.671   0.941  -1.896  0.00  0.00    -0.058 A 
ATOM     11  H   LIG d   1       6.139   2.096  -2.929  0.00  0.00     0.065 H 
ATOM     12  C   LIG d   1       4.043  -0.290  -1.770  0.00  0.00    -0.061 A 
ATOM     13  H   LIG d   1       4.384   1.756  -1.248  0.00  0.00     0.062 H 
ATOM     14  H   LIG d   1       3.275  -0.428  -1.023  0.00  0.00     0.062 H 
ATOM     15  C   LIG d   1       7.370  -0.736  -5.424  0.00  0.00     0.345 A 
ATOM     16  O   LIG d   1       8.246  -0.529  -6.247  0.00  0.00    -0.245 OA
ATOM     17  H   LIG d   1       3.907  -2.295  -2.489  0.00  0.00     0.063 H 
BRANCH   4  18
ATOM     18  O   LIG d   1       5.216  -3.472  -4.356  0.00  0.00    -0.505 OA
ATOM     19  H   LIG d   1       4.249  -3.447  -4.373  0.00  0.00     0.292 HD
ENDBRANCH   4  18
ENDBRANCH   1   3
BRANCH   1  20
ATOM     20  C   LIG d   1       6.033  -3.615  -7.093  0.00  0.00    -0.011 C 
ATOM     21  H   LIG d   1       6.105  -4.697  -7.197  0.00  0.00     0.030 H 
ATOM     22  H   LIG d   1       5.113  -3.360  -6.569  0.00  0.00     0.030 H 
BRANCH  20  23
ATOM     23  C   LIG d   1       6.027  -2.969  -8.480  0.00  0.00     0.081 C 
ATOM     24  H   LIG d   1       5.579  -3.654  -9.198  0.00  0.00     0.064 H 
BRANCH  23  25
ATOM     25  C   LIG d   1       5.225  -1.693  -8.436  0.00  0.00    -0.019 A 
ATOM     26  C   LIG d   1       5.796  -0.504  -8.850  0.00  0.00    -0.055 A 
ATOM     27  C   LIG d   1       5.060   0.665  -8.814  0.00  0.00    -0.043 A 
ATOM     28  H   LIG d   1       6.816  -0.489  -9.204  0.00  0.00     0.062 H 
ATOM     29  C   LIG d   1       3.754   0.647  -8.355  0.00  0.00     0.041 A 
ATOM     30  H   LIG d   1       5.503   1.593  -9.142  0.00  0.00     0.063 H 
ATOM     31  C   LIG d   1       3.187  -0.543  -7.935  0.00  0.00    -0.043 A 
ATOM     32 CL   LIG d   1       2.831   2.116  -8.304  0.00  0.00    -0.084 Cl
ATOM     33  C   LIG d   1       3.922  -1.712  -7.975  0.00  0.00    -0.055 A 
ATOM     34  H   LIG d   1       2.168  -0.557  -7.575  0.00  0.00     0.063 H 
ATOM     35  H   LIG d   1       3.478  -2.641  -7.648  0.00  0.00     0.062 H 
ENDBRANCH  23  25
BRANCH  23  36
ATOM     36  O   LIG d   1       7.369  -2.675  -8.874  0.00  0.00    -0.387 OA
ATOM     37  H   LIG d   1       7.624  -1.751  -8.741  0.00  0.00     0.210 HD
ENDBRANCH  23  36
ENDBRANCH  20  23
ENDBRANCH   1  20
BRANCH   1  38
ATOM     38  C   LIG d   1       7.831  -4.231  -5.499  0.00  0.00    -0.001 A 
ATOM     39  S   LIG d   1       8.954  -4.159  -4.113  0.00  0.00    -0.081 SA
ATOM     40  C   LIG d   1       9.112  -5.914  -3.826  0.00  0.00     0.078 A 
ATOM     41  C   LIG d   1       8.317  -6.430  -4.797  0.00  0.00    -0.036 A 
ATOM     42 CL   LIG d   1      10.046  -6.745  -2.623  0.00  0.00    -0.076 Cl
ATOM     43  C   LIG d   1       7.661  -5.566  -5.654  0.00  0.00    -0.050 A 
ATOM     44  H   LIG d   1       8.198  -7.498  -4.898  0.00  0.00     0.064 H 
ATOM     45  H   LIG d   1       7.022  -5.949  -6.435  0.00  0.00     0.063 H 
ENDBRANCH   1  38
TORSDOF 7
ENDMDL
MODEL 9
REMARK VINA RESULT:      -6.0      3.517      5.053
REMARK  7 active torsions:
REMARK  status: ('A' for Active; 'I' for Inactive)
REMARK    1  A    between atoms: C_7  and  O_31 
REMARK    2  A    between atoms: C_8  and  C_12 
REMARK    3  A    between atoms: C_12  and  C_14 
REMARK    4  A    between atoms: C_12  and  C_25 
REMARK    5  A    between atoms: C_14  and  C_15 
REMARK    6  A    between atoms: C_15  and  C_17 
REMARK    7  A    between atoms: C_15  and  O_24 
ROOT
ATOM      1  C   LIG d   1       3.917  -0.236  -8.632  0.00  0.00     0.028 C 
ATOM      2  H   LIG d   1       3.319   0.675  -8.616  0.00  0.00     0.041 H 
ENDROOT
BRANCH   1   3
ATOM      3  C   LIG d   1       4.026  -0.790  -7.234  0.00  0.00     0.087 A 
ATOM      4  C   LIG d   1       3.552  -0.070  -6.172  0.00  0.00     0.138 A 
ATOM      5  C   LIG d   1       3.682  -0.656  -4.829  0.00  0.00     0.059 A 
ATOM      6  C   LIG d   1       4.282  -1.918  -4.693  0.00  0.00     0.143 A 
ATOM      7  C   LIG d   1       3.221   0.023  -3.699  0.00  0.00    -0.048 A 
ATOM      8  C   LIG d   1       4.410  -2.481  -3.430  0.00  0.00    -0.018 A 
ATOM      9  O   LIG d   1       4.727  -2.571  -5.789  0.00  0.00    -0.422 OA
ATOM     10  C   LIG d   1       3.950  -1.800  -2.322  0.00  0.00    -0.058 A 
ATOM     11  H   LIG d   1       4.870  -3.451  -3.315  0.00  0.00     0.065 H 
ATOM     12  C   LIG d   1       3.357  -0.552  -2.456  0.00  0.00    -0.061 A 
ATOM     13  H   LIG d   1       4.052  -2.241  -1.343  0.00  0.00     0.062 H 
ATOM     14  H   LIG d   1       2.998  -0.032  -1.580  0.00  0.00     0.062 H 
ATOM     15  C   LIG d   1       4.613  -2.045  -7.019  0.00  0.00     0.345 A 
ATOM     16  O   LIG d   1       5.031  -2.677  -7.974  0.00  0.00    -0.245 OA
ATOM     17  H   LIG d   1       2.759   0.994  -3.800  0.00  0.00     0.063 H 
BRANCH   4  18
ATOM     18  O   LIG d   1       2.982   1.143  -6.352  0.00  0.00    -0.505 OA
ATOM     19  H   LIG d   1       2.693   1.566  -5.531  0.00  0.00     0.292 HD
ENDBRANCH   4  18
ENDBRANCH   1   3
BRANCH   1  20
ATOM     20  C   LIG d   1       3.248  -1.270  -9.540  0.00  0.00    -0.011 C 
ATOM     21  H   LIG d   1       3.996  -1.719 -10.192  0.00  0.00     0.030 H 
ATOM     22  H   LIG d   1       2.786  -2.045  -8.929  0.00  0.00     0.030 H 
BRANCH  20  23
ATOM     23  C   LIG d   1       2.177  -0.584 -10.390  0.00  0.00     0.081 C 
ATOM     24  H   LIG d   1       2.354   0.491 -10.402  0.00  0.00     0.064 H 
BRANCH  23  25
ATOM     25  C   LIG d   1       2.237  -1.118 -11.799  0.00  0.00    -0.019 A 
ATOM     26  C   LIG d   1       1.165  -1.820 -12.317  0.00  0.00    -0.055 A 
ATOM     27  C   LIG d   1       1.218  -2.306 -13.611  0.00  0.00    -0.043 A 
ATOM     28  H   LIG d   1       0.285  -1.987 -11.714  0.00  0.00     0.062 H 
ATOM     29  C   LIG d   1       2.347  -2.097 -14.383  0.00  0.00     0.041 A 
ATOM     30  H   LIG d   1       0.379  -2.850 -14.018  0.00  0.00     0.063 H 
ATOM     31  C   LIG d   1       3.421  -1.399 -13.860  0.00  0.00    -0.043 A 
ATOM     32 CL   LIG d   1       2.416  -2.711 -16.004  0.00  0.00    -0.084 Cl
ATOM     33  C   LIG d   1       3.366  -0.910 -12.569  0.00  0.00    -0.055 A 
ATOM     34  H   LIG d   1       4.303  -1.236 -14.462  0.00  0.00     0.063 H 
ATOM     35  H   LIG d   1       4.204  -0.364 -12.162  0.00  0.00     0.062 H 
ENDBRANCH  23  25
BRANCH  23  36
ATOM     36  O   LIG d   1       0.886  -0.848  -9.835  0.00  0.00    -0.387 OA
ATOM     37  H   LIG d   1       0.179  -0.304 -10.210  0.00  0.00     0.210 HD
ENDBRANCH  23  36
ENDBRANCH  20  23
ENDBRANCH   1  20
BRANCH   1  38
ATOM     38  C   LIG d   1       5.295   0.077  -9.157  0.00  0.00    -0.001 A 
ATOM     39  S   LIG d   1       6.500   1.235  -8.531  0.00  0.00    -0.081 SA
ATOM     40  C   LIG d   1       7.783   0.940  -9.737  0.00  0.00     0.078 A 
ATOM     41  C   LIG d   1       7.212  -0.002 -10.530  0.00  0.00    -0.036 A 
ATOM     42 CL   LIG d   1       9.351   1.672  -9.867  0.00  0.00    -0.076 Cl
ATOM     43  C   LIG d   1       5.937  -0.444 -10.231  0.00  0.00    -0.050 A 
ATOM     44  H   LIG d   1       7.747  -0.401 -11.379  0.00  0.00     0.064 H 
ATOM     45  H   LIG d   1       5.459  -1.192 -10.844  0.00  0.00     0.063 H 
ENDBRANCH   1  38
TORSDOF 7
ENDMDL
