MODEL 1
REMARK VINA RESULT:      -6.2      0.000      0.000
REMARK  4 active torsions:
REMARK  status: ('A' for Active; 'I' for Inactive)
REMARK    1  A    between atoms: C_1  and  C_2 
REMARK    2  A    between atoms: C_2  and  C_19 
REMARK    3  A    between atoms: N_7  and  N_8 
REMARK    4  A    between atoms: N_8  and  C_9 
ROOT
ATOM      1  C   LIG d   1       4.112  -1.166  -3.140  0.00  0.00     0.255 C 
ATOM      2  O   LIG d   1       5.248  -1.551  -3.965  0.00  0.00    -0.418 OA
ATOM      3  C   LIG d   1       5.648  -0.623  -4.878  0.00  0.00     0.369 C 
ATOM      4  O   LIG d   1       6.817  -0.330  -5.039  0.00  0.00    -0.243 OA
ATOM      5  C   LIG d   1       4.553   0.007  -5.663  0.00  0.00     0.249 C 
ATOM      6  N   LIG d   1       4.691   0.358  -6.927  0.00  0.00    -0.168 NA
ATOM      7  C   LIG d   1       3.289   0.211  -4.903  0.00  0.00     0.369 C 
ATOM      8  O   LIG d   1       2.569   1.172  -5.085  0.00  0.00    -0.243 OA
ATOM      9  O   LIG d   1       3.001  -0.762  -3.992  0.00  0.00    -0.418 OA
ENDROOT
BRANCH   6  10
ATOM     10  N   LIG d   1       3.705   0.901  -7.557  0.00  0.00    -0.237 N 
ATOM     11  H   LIG d   1       3.254   1.830  -7.177  0.00  0.00     0.174 HD
BRANCH  10  12
ATOM     12  C   LIG d   1       3.209   0.309  -8.720  0.00  0.00     0.048 A 
ATOM     13  C   LIG d   1       3.784   0.602  -9.950  0.00  0.00    -0.038 A 
ATOM     14  C   LIG d   1       3.292   0.015 -11.098  0.00  0.00    -0.046 A 
ATOM     15  H   LIG d   1       4.615   1.290 -10.009  0.00  0.00     0.064 H 
ATOM     16  C   LIG d   1       2.227  -0.866 -11.024  0.00  0.00     0.018 A 
ATOM     17  H   LIG d   1       3.738   0.242 -12.055  0.00  0.00     0.063 H 
ATOM     18  C   LIG d   1       1.652  -1.161  -9.801  0.00  0.00    -0.046 A 
ATOM     19 BR   LIG d   1       1.555  -1.669 -12.599  0.00  0.00    -0.050 Br
ATOM     20  C   LIG d   1       2.140  -0.576  -8.649  0.00  0.00    -0.038 A 
ATOM     21  H   LIG d   1       0.824  -1.852  -9.745  0.00  0.00     0.063 H 
ATOM     22  H   LIG d   1       1.691  -0.806  -7.694  0.00  0.00     0.064 H 
ENDBRANCH  10  12
ENDBRANCH   6  10
BRANCH   1  23
ATOM     23  C   LIG d   1       3.685  -2.353  -2.276  0.00  0.00     0.013 C 
ATOM     24  H   LIG d   1       2.685  -2.163  -1.859  0.00  0.00     0.030 H 
ATOM     25  H   LIG d   1       4.405  -2.487  -1.455  0.00  0.00     0.030 H 
ATOM     26  H   LIG d   1       3.658  -3.264  -2.892  0.00  0.00     0.030 H 
ENDBRANCH   1  23
BRANCH   1  27
ATOM     27  C   LIG d   1       4.511   0.003  -2.237  0.00  0.00     0.013 C 
ATOM     28  H   LIG d   1       4.490  -0.322  -1.187  0.00  0.00     0.030 H 
ATOM     29  H   LIG d   1       3.803   0.833  -2.378  0.00  0.00     0.030 H 
ATOM     30  H   LIG d   1       5.525   0.337  -2.498  0.00  0.00     0.030 H 
ENDBRANCH   1  27
TORSDOF 4
ENDMDL
MODEL 2
REMARK VINA RESULT:      -6.0      5.250      6.931
REMARK  4 active torsions:
REMARK  status: ('A' for Active; 'I' for Inactive)
REMARK    1  A    between atoms: C_1  and  C_2 
REMARK    2  A    between atoms: C_2  and  C_19 
REMARK    3  A    between atoms: N_7  and  N_8 
REMARK    4  A    between atoms: N_8  and  C_9 
ROOT
ATOM      1  C   LIG d   1       3.996  -1.354  -2.868  0.00  0.00     0.255 C 
ATOM      2  O   LIG d   1       4.489  -0.592  -1.730  0.00  0.00    -0.418 OA
ATOM      3  C   LIG d   1       4.890   0.680  -2.009  0.00  0.00     0.369 C 
ATOM      4  O   LIG d   1       4.568   1.629  -1.321  0.00  0.00    -0.243 OA
ATOM      5  C   LIG d   1       5.749   0.823  -3.215  0.00  0.00     0.249 C 
ATOM      6  N   LIG d   1       6.726   1.705  -3.295  0.00  0.00    -0.168 NA
ATOM      7  C   LIG d   1       5.410  -0.108  -4.326  0.00  0.00     0.369 C 
ATOM      8  O   LIG d   1       5.506   0.212  -5.494  0.00  0.00    -0.243 OA
ATOM      9  O   LIG d   1       4.989  -1.344  -3.934  0.00  0.00    -0.418 OA
ENDROOT
BRANCH   6  10
ATOM     10  N   LIG d   1       7.438   1.784  -4.368  0.00  0.00    -0.237 N 
ATOM     11  H   LIG d   1       6.951   1.955  -5.339  0.00  0.00     0.174 HD
BRANCH  10  12
ATOM     12  C   LIG d   1       8.825   1.650  -4.296  0.00  0.00     0.048 A 
ATOM     13  C   LIG d   1       9.564   2.485  -3.468  0.00  0.00    -0.038 A 
ATOM     14  C   LIG d   1      10.936   2.350  -3.399  0.00  0.00    -0.046 A 
ATOM     15  H   LIG d   1       9.066   3.241  -2.879  0.00  0.00     0.064 H 
ATOM     16  C   LIG d   1      11.576   1.381  -4.154  0.00  0.00     0.018 A 
ATOM     17  H   LIG d   1      11.511   2.999  -2.755  0.00  0.00     0.063 H 
ATOM     18  C   LIG d   1      10.844   0.547  -4.980  0.00  0.00    -0.046 A 
ATOM     19 BR   LIG d   1      13.456   1.199  -4.057  0.00  0.00    -0.050 Br
ATOM     20  C   LIG d   1       9.471   0.678  -5.053  0.00  0.00    -0.038 A 
ATOM     21  H   LIG d   1      11.345  -0.210  -5.564  0.00  0.00     0.063 H 
ATOM     22  H   LIG d   1       8.899   0.027  -5.697  0.00  0.00     0.064 H 
ENDBRANCH  10  12
ENDBRANCH   6  10
BRANCH   1  23
ATOM     23  C   LIG d   1       3.727  -2.797  -2.436  0.00  0.00     0.013 C 
ATOM     24  H   LIG d   1       2.656  -2.923  -2.225  0.00  0.00     0.030 H 
ATOM     25  H   LIG d   1       4.309  -3.023  -1.530  0.00  0.00     0.030 H 
ATOM     26  H   LIG d   1       4.026  -3.483  -3.243  0.00  0.00     0.030 H 
ENDBRANCH   1  23
BRANCH   1  27
ATOM     27  C   LIG d   1       2.697  -0.726  -3.377  0.00  0.00     0.013 C 
ATOM     28  H   LIG d   1       2.131  -0.317  -2.528  0.00  0.00     0.030 H 
ATOM     29  H   LIG d   1       2.094  -1.493  -3.885  0.00  0.00     0.030 H 
ATOM     30  H   LIG d   1       2.934   0.082  -4.084  0.00  0.00     0.030 H 
ENDBRANCH   1  27
TORSDOF 4
ENDMDL
MODEL 3
REMARK VINA RESULT:      -5.8      4.525      6.274
REMARK  4 active torsions:
REMARK  status: ('A' for Active; 'I' for Inactive)
REMARK    1  A    between atoms: C_1  and  C_2 
REMARK    2  A    between atoms: C_2  and  C_19 
REMARK    3  A    between atoms: N_7  and  N_8 
REMARK    4  A    between atoms: N_8  and  C_9 
ROOT
ATOM      1  C   LIG d   1       3.320  -0.122  -4.228  0.00  0.00     0.255 C 
ATOM      2  O   LIG d   1       4.125  -0.942  -5.123  0.00  0.00    -0.418 OA
ATOM      3  C   LIG d   1       5.348  -1.300  -4.644  0.00  0.00     0.369 C 
ATOM      4  O   LIG d   1       5.773  -2.436  -4.727  0.00  0.00    -0.243 OA
ATOM      5  C   LIG d   1       6.127  -0.201  -4.013  0.00  0.00     0.249 C 
ATOM      6  N   LIG d   1       7.441  -0.116  -4.100  0.00  0.00    -0.168 NA
ATOM      7  C   LIG d   1       5.302   0.791  -3.271  0.00  0.00     0.369 C 
ATOM      8  O   LIG d   1       5.691   1.329  -2.253  0.00  0.00    -0.243 OA
ATOM      9  O   LIG d   1       4.081   1.051  -3.820  0.00  0.00    -0.418 OA
ENDROOT
BRANCH   6  10
ATOM     10  N   LIG d   1       8.063   0.861  -3.530  0.00  0.00    -0.237 N 
ATOM     11  H   LIG d   1       8.171   0.879  -2.435  0.00  0.00     0.174 HD
BRANCH  10  12
ATOM     12  C   LIG d   1       8.595   1.893  -4.302  0.00  0.00     0.048 A 
ATOM     13  C   LIG d   1       9.060   3.052  -3.692  0.00  0.00    -0.038 A 
ATOM     14  C   LIG d   1       9.586   4.072  -4.459  0.00  0.00    -0.046 A 
ATOM     15  H   LIG d   1       9.009   3.155  -2.618  0.00  0.00     0.064 H 
ATOM     16  C   LIG d   1       9.651   3.941  -5.836  0.00  0.00     0.018 A 
ATOM     17  H   LIG d   1       9.947   4.973  -3.986  0.00  0.00     0.063 H 
ATOM     18  C   LIG d   1       9.190   2.789  -6.447  0.00  0.00    -0.046 A 
ATOM     19 BR   LIG d   1      10.373   5.340  -6.883  0.00  0.00    -0.050 Br
ATOM     20  C   LIG d   1       8.662   1.765  -5.685  0.00  0.00    -0.038 A 
ATOM     21  H   LIG d   1       9.246   2.687  -7.521  0.00  0.00     0.063 H 
ATOM     22  H   LIG d   1       8.302   0.866  -6.162  0.00  0.00     0.064 H 
ENDBRANCH  10  12
ENDBRANCH   6  10
BRANCH   1  23
ATOM     23  C   LIG d   1       2.048   0.324  -4.952  0.00  0.00     0.013 C 
ATOM     24  H   LIG d   1       2.099   1.403  -5.153  0.00  0.00     0.030 H 
ATOM     25  H   LIG d   1       1.173   0.108  -4.322  0.00  0.00     0.030 H 
ATOM     26  H   LIG d   1       1.958  -0.223  -5.903  0.00  0.00     0.030 H 
ENDBRANCH   1  23
BRANCH   1  27
ATOM     27  C   LIG d   1       2.941  -0.939  -2.991  0.00  0.00     0.013 C 
ATOM     28  H   LIG d   1       3.789  -0.959  -2.292  0.00  0.00     0.030 H 
ATOM     29  H   LIG d   1       2.691  -1.966  -3.293  0.00  0.00     0.030 H 
ATOM     30  H   LIG d   1       2.072  -0.478  -2.501  0.00  0.00     0.030 H 
ENDBRANCH   1  27
TORSDOF 4
ENDMDL
MODEL 4
REMARK VINA RESULT:      -5.7      1.091      2.274
REMARK  4 active torsions:
REMARK  status: ('A' for Active; 'I' for Inactive)
REMARK    1  A    between atoms: C_1  and  C_2 
REMARK    2  A    between atoms: C_2  and  C_19 
REMARK    3  A    between atoms: N_7  and  N_8 
REMARK    4  A    between atoms: N_8  and  C_9 
ROOT
ATOM      1  C   LIG d   1       4.177  -0.051  -2.915  0.00  0.00     0.255 C 
ATOM      2  O   LIG d   1       2.884   0.522  -3.257  0.00  0.00    -0.418 OA
ATOM      3  C   LIG d   1       2.400   0.180  -4.483  0.00  0.00     0.369 C 
ATOM      4  O   LIG d   1       1.248  -0.170  -4.654  0.00  0.00    -0.243 OA
ATOM      5  C   LIG d   1       3.381   0.264  -5.598  0.00  0.00     0.249 C 
ATOM      6  N   LIG d   1       3.044   0.630  -6.820  0.00  0.00    -0.168 NA
ATOM      7  C   LIG d   1       4.773  -0.104  -5.221  0.00  0.00     0.369 C 
ATOM      8  O   LIG d   1       5.523  -0.681  -5.984  0.00  0.00    -0.243 OA
ATOM      9  O   LIG d   1       5.144   0.258  -3.960  0.00  0.00    -0.418 OA
ENDROOT
BRANCH   6  10
ATOM     10  N   LIG d   1       3.940   0.684  -7.747  0.00  0.00    -0.237 N 
ATOM     11  H   LIG d   1       4.921   1.137  -7.537  0.00  0.00     0.174 HD
BRANCH  10  12
ATOM     12  C   LIG d   1       3.664   0.170  -9.014  0.00  0.00     0.048 A 
ATOM     13  C   LIG d   1       4.364   0.633 -10.122  0.00  0.00    -0.038 A 
ATOM     14  C   LIG d   1       4.088   0.122 -11.374  0.00  0.00    -0.046 A 
ATOM     15  H   LIG d   1       5.122   1.393 -10.003  0.00  0.00     0.064 H 
ATOM     16  C   LIG d   1       3.116  -0.852 -11.527  0.00  0.00     0.018 A 
ATOM     17  H   LIG d   1       4.631   0.481 -12.235  0.00  0.00     0.063 H 
ATOM     18  C   LIG d   1       2.417  -1.315 -10.427  0.00  0.00    -0.046 A 
ATOM     19 BR   LIG d   1       2.741  -1.549 -13.245  0.00  0.00    -0.050 Br
ATOM     20  C   LIG d   1       2.689  -0.808  -9.171  0.00  0.00    -0.038 A 
ATOM     21  H   LIG d   1       1.662  -2.078 -10.548  0.00  0.00     0.063 H 
ATOM     22  H   LIG d   1       2.143  -1.170  -8.313  0.00  0.00     0.064 H 
ENDBRANCH  10  12
ENDBRANCH   6  10
BRANCH   1  23
ATOM     23  C   LIG d   1       4.659   0.536  -1.586  0.00  0.00     0.013 C 
ATOM     24  H   LIG d   1       4.969  -0.278  -0.916  0.00  0.00     0.030 H 
ATOM     25  H   LIG d   1       3.841   1.104  -1.119  0.00  0.00     0.030 H 
ATOM     26  H   LIG d   1       5.511   1.206  -1.770  0.00  0.00     0.030 H 
ENDBRANCH   1  23
BRANCH   1  27
ATOM     27  C   LIG d   1       4.042  -1.569  -2.780  0.00  0.00     0.013 C 
ATOM     28  H   LIG d   1       5.037  -2.014  -2.638  0.00  0.00     0.030 H 
ATOM     29  H   LIG d   1       3.584  -1.979  -3.693  0.00  0.00     0.030 H 
ATOM     30  H   LIG d   1       3.407  -1.805  -1.913  0.00  0.00     0.030 H 
ENDBRANCH   1  27
TORSDOF 4
ENDMDL
MODEL 5
REMARK VINA RESULT:      -5.4      4.968      6.915
REMARK  4 active torsions:
REMARK  status: ('A' for Active; 'I' for Inactive)
REMARK    1  A    between atoms: C_1  and  C_2 
REMARK    2  A    between atoms: C_2  and  C_19 
REMARK    3  A    between atoms: N_7  and  N_8 
REMARK    4  A    between atoms: N_8  and  C_9 
ROOT
ATOM      1  C   LIG d   1       4.200   0.074  -3.105  0.00  0.00     0.255 C 
ATOM      2  O   LIG d   1       5.218   0.527  -4.043  0.00  0.00    -0.418 OA
ATOM      3  C   LIG d   1       5.449  -0.302  -5.098  0.00  0.00     0.369 C 
ATOM      4  O   LIG d   1       5.540   0.108  -6.240  0.00  0.00    -0.243 OA
ATOM      5  C   LIG d   1       5.583  -1.742  -4.755  0.00  0.00     0.249 C 
ATOM      6  N   LIG d   1       6.405  -2.555  -5.391  0.00  0.00    -0.168 NA
ATOM      7  C   LIG d   1       4.710  -2.192  -3.637  0.00  0.00     0.369 C 
ATOM      8  O   LIG d   1       4.208  -3.299  -3.608  0.00  0.00    -0.243 OA
ATOM      9  O   LIG d   1       4.518  -1.272  -2.649  0.00  0.00    -0.418 OA
ENDROOT
BRANCH   6  10
ATOM     10  N   LIG d   1       6.477  -3.797  -5.049  0.00  0.00    -0.237 N 
ATOM     11  H   LIG d   1       5.578  -4.429  -5.080  0.00  0.00     0.174 HD
BRANCH  10  12
ATOM     12  C   LIG d   1       7.697  -4.336  -4.637  0.00  0.00     0.048 A 
ATOM     13  C   LIG d   1       8.110  -5.573  -5.119  0.00  0.00    -0.038 A 
ATOM     14  C   LIG d   1       9.317  -6.104  -4.711  0.00  0.00    -0.046 A 
ATOM     15  H   LIG d   1       7.487  -6.118  -5.812  0.00  0.00     0.064 H 
ATOM     16  C   LIG d   1      10.116  -5.405  -3.822  0.00  0.00     0.018 A 
ATOM     17  H   LIG d   1       9.638  -7.064  -5.084  0.00  0.00     0.063 H 
ATOM     18  C   LIG d   1       9.708  -4.174  -3.340  0.00  0.00    -0.046 A 
ATOM     19 BR   LIG d   1      11.769  -6.136  -3.264  0.00  0.00    -0.050 Br
ATOM     20  C   LIG d   1       8.502  -3.637  -3.745  0.00  0.00    -0.038 A 
ATOM     21  H   LIG d   1      10.335  -3.629  -2.650  0.00  0.00     0.063 H 
ATOM     22  H   LIG d   1       8.184  -2.677  -3.369  0.00  0.00     0.064 H 
ENDBRANCH  10  12
ENDBRANCH   6  10
BRANCH   1  23
ATOM     23  C   LIG d   1       4.157   1.022  -1.904  0.00  0.00     0.013 C 
ATOM     24  H   LIG d   1       4.020   2.054  -2.257  0.00  0.00     0.030 H 
ATOM     25  H   LIG d   1       5.100   0.947  -1.344  0.00  0.00     0.030 H 
ATOM     26  H   LIG d   1       3.318   0.743  -1.249  0.00  0.00     0.030 H 
ENDBRANCH   1  23
BRANCH   1  27
ATOM     27  C   LIG d   1       2.836   0.068  -3.797  0.00  0.00     0.013 C 
ATOM     28  H   LIG d   1       2.739  -0.843  -4.405  0.00  0.00     0.030 H 
ATOM     29  H   LIG d   1       2.751   0.952  -4.446  0.00  0.00     0.030 H 
ATOM     30  H   LIG d   1       2.041   0.089  -3.039  0.00  0.00     0.030 H 
ENDBRANCH   1  27
TORSDOF 4
ENDMDL
MODEL 6
REMARK VINA RESULT:      -5.3      1.947      2.339
REMARK  4 active torsions:
REMARK  status: ('A' for Active; 'I' for Inactive)
REMARK    1  A    between atoms: C_1  and  C_2 
REMARK    2  A    between atoms: C_2  and  C_19 
REMARK    3  A    between atoms: N_7  and  N_8 
REMARK    4  A    between atoms: N_8  and  C_9 
ROOT
ATOM      1  C   LIG d   1       4.582  -2.040  -3.538  0.00  0.00     0.255 C 
ATOM      2  O   LIG d   1       4.459  -3.340  -4.183  0.00  0.00    -0.418 OA
ATOM      3  C   LIG d   1       5.010  -3.430  -5.425  0.00  0.00     0.369 C 
ATOM      4  O   LIG d   1       5.709  -4.367  -5.760  0.00  0.00    -0.243 OA
ATOM      5  C   LIG d   1       4.697  -2.301  -6.341  0.00  0.00     0.249 C 
ATOM      6  N   LIG d   1       4.530  -2.461  -7.639  0.00  0.00    -0.168 NA
ATOM      7  C   LIG d   1       4.591  -0.976  -5.671  0.00  0.00     0.369 C 
ATOM      8  O   LIG d   1       4.955   0.053  -6.204  0.00  0.00    -0.243 OA
ATOM      9  O   LIG d   1       4.055  -1.005  -4.417  0.00  0.00    -0.418 OA
ENDROOT
BRANCH   6  10
ATOM     10  N   LIG d   1       4.259  -1.442  -8.385  0.00  0.00    -0.237 N 
ATOM     11  H   LIG d   1       4.779  -0.487  -8.220  0.00  0.00     0.174 HD
BRANCH  10  12
ATOM     12  C   LIG d   1       3.306  -1.553  -9.397  0.00  0.00     0.048 A 
ATOM     13  C   LIG d   1       2.188  -0.728  -9.396  0.00  0.00    -0.038 A 
ATOM     14  C   LIG d   1       1.247  -0.840 -10.399  0.00  0.00    -0.046 A 
ATOM     15  H   LIG d   1       2.055   0.000  -8.610  0.00  0.00     0.064 H 
ATOM     16  C   LIG d   1       1.416  -1.774 -11.407  0.00  0.00     0.018 A 
ATOM     17  H   LIG d   1       0.378  -0.199 -10.399  0.00  0.00     0.063 H 
ATOM     18  C   LIG d   1       2.528  -2.598 -11.412  0.00  0.00    -0.046 A 
ATOM     19 BR   LIG d   1       0.124  -1.925 -12.780  0.00  0.00    -0.050 Br
ATOM     20  C   LIG d   1       3.473  -2.490 -10.411  0.00  0.00    -0.038 A 
ATOM     21  H   LIG d   1       2.660  -3.322 -12.202  0.00  0.00     0.063 H 
ATOM     22  H   LIG d   1       4.340  -3.132 -10.415  0.00  0.00     0.064 H 
ENDBRANCH  10  12
ENDBRANCH   6  10
BRANCH   1  23
ATOM     23  C   LIG d   1       3.792  -2.046  -2.228  0.00  0.00     0.013 C 
ATOM     24  H   LIG d   1       4.490  -2.004  -1.379  0.00  0.00     0.030 H 
ATOM     25  H   LIG d   1       3.193  -2.966  -2.165  0.00  0.00     0.030 H 
ATOM     26  H   LIG d   1       3.125  -1.171  -2.198  0.00  0.00     0.030 H 
ENDBRANCH   1  23
BRANCH   1  27
ATOM     27  C   LIG d   1       6.055  -1.755  -3.243  0.00  0.00     0.013 C 
ATOM     28  H   LIG d   1       6.130  -1.043  -2.409  0.00  0.00     0.030 H 
ATOM     29  H   LIG d   1       6.531  -1.325  -4.137  0.00  0.00     0.030 H 
ATOM     30  H   LIG d   1       6.562  -2.692  -2.972  0.00  0.00     0.030 H 
ENDBRANCH   1  27
TORSDOF 4
ENDMDL
MODEL 7
REMARK VINA RESULT:      -5.3      4.788      6.698
REMARK  4 active torsions:
REMARK  status: ('A' for Active; 'I' for Inactive)
REMARK    1  A    between atoms: C_1  and  C_2 
REMARK    2  A    between atoms: C_2  and  C_19 
REMARK    3  A    between atoms: N_7  and  N_8 
REMARK    4  A    between atoms: N_8  and  C_9 
ROOT
ATOM      1  C   LIG d   1       4.739  -1.880  -3.544  0.00  0.00     0.255 C 
ATOM      2  O   LIG d   1       4.130  -0.838  -4.358  0.00  0.00    -0.418 OA
ATOM      3  C   LIG d   1       4.817  -0.502  -5.485  0.00  0.00     0.369 C 
ATOM      4  O   LIG d   1       4.273  -0.370  -6.564  0.00  0.00    -0.243 OA
ATOM      5  C   LIG d   1       6.280  -0.307  -5.300  0.00  0.00     0.249 C 
ATOM      6  N   LIG d   1       6.971   0.593  -5.973  0.00  0.00    -0.168 NA
ATOM      7  C   LIG d   1       6.900  -1.215  -4.298  0.00  0.00     0.369 C 
ATOM      8  O   LIG d   1       8.026  -1.655  -4.426  0.00  0.00    -0.243 OA
ATOM      9  O   LIG d   1       6.113  -1.513  -3.225  0.00  0.00    -0.418 OA
ENDROOT
BRANCH   6  10
ATOM     10  N   LIG d   1       8.240   0.716  -5.770  0.00  0.00    -0.237 N 
ATOM     11  H   LIG d   1       8.918  -0.114  -6.017  0.00  0.00     0.174 HD
BRANCH  10  12
ATOM     12  C   LIG d   1       8.749   1.900  -5.236  0.00  0.00     0.048 A 
ATOM     13  C   LIG d   1       9.127   2.939  -6.079  0.00  0.00    -0.038 A 
ATOM     14  C   LIG d   1       9.630   4.109  -5.547  0.00  0.00    -0.046 A 
ATOM     15  H   LIG d   1       9.028   2.830  -7.149  0.00  0.00     0.064 H 
ATOM     16  C   LIG d   1       9.758   4.249  -4.176  0.00  0.00     0.018 A 
ATOM     17  H   LIG d   1       9.924   4.917  -6.201  0.00  0.00     0.063 H 
ATOM     18  C   LIG d   1       9.383   3.217  -3.334  0.00  0.00    -0.046 A 
ATOM     19 BR   LIG d   1      10.448   5.854  -3.452  0.00  0.00    -0.050 Br
ATOM     20  C   LIG d   1       8.879   2.044  -3.860  0.00  0.00    -0.038 A 
ATOM     21  H   LIG d   1       9.480   3.331  -2.264  0.00  0.00     0.063 H 
ATOM     22  H   LIG d   1       8.586   1.239  -3.202  0.00  0.00     0.064 H 
ENDBRANCH  10  12
ENDBRANCH   6  10
BRANCH   1  23
ATOM     23  C   LIG d   1       3.942  -2.044  -2.248  0.00  0.00     0.013 C 
ATOM     24  H   LIG d   1       3.788  -1.059  -1.785  0.00  0.00     0.030 H 
ATOM     25  H   LIG d   1       4.498  -2.693  -1.555  0.00  0.00     0.030 H 
ATOM     26  H   LIG d   1       2.967  -2.501  -2.474  0.00  0.00     0.030 H 
ENDBRANCH   1  23
BRANCH   1  27
ATOM     27  C   LIG d   1       4.732  -3.200  -4.316  0.00  0.00     0.013 C 
ATOM     28  H   LIG d   1       4.072  -3.918  -3.808  0.00  0.00     0.030 H 
ATOM     29  H   LIG d   1       5.753  -3.607  -4.357  0.00  0.00     0.030 H 
ATOM     30  H   LIG d   1       4.365  -3.025  -5.338  0.00  0.00     0.030 H 
ENDBRANCH   1  27
TORSDOF 4
ENDMDL
MODEL 8
REMARK VINA RESULT:      -5.2      6.135      8.063
REMARK  4 active torsions:
REMARK  status: ('A' for Active; 'I' for Inactive)
REMARK    1  A    between atoms: C_1  and  C_2 
REMARK    2  A    between atoms: C_2  and  C_19 
REMARK    3  A    between atoms: N_7  and  N_8 
REMARK    4  A    between atoms: N_8  and  C_9 
ROOT
ATOM      1  C   LIG d   1      10.230   5.536  -5.590  0.00  0.00     0.255 C 
ATOM      2  O   LIG d   1       9.633   5.679  -4.271  0.00  0.00    -0.418 OA
ATOM      3  C   LIG d   1       9.738   4.589  -3.461  0.00  0.00     0.369 C 
ATOM      4  O   LIG d   1      10.076   4.674  -2.296  0.00  0.00    -0.243 OA
ATOM      5  C   LIG d   1       9.412   3.288  -4.103  0.00  0.00     0.249 C 
ATOM      6  N   LIG d   1       8.820   2.302  -3.458  0.00  0.00    -0.168 NA
ATOM      7  C   LIG d   1       9.812   3.190  -5.533  0.00  0.00     0.369 C 
ATOM      8  O   LIG d   1      10.208   2.154  -6.028  0.00  0.00    -0.243 OA
ATOM      9  O   LIG d   1       9.697   4.348  -6.245  0.00  0.00    -0.418 OA
ENDROOT
BRANCH   6  10
ATOM     10  N   LIG d   1       8.562   1.194  -4.069  0.00  0.00    -0.237 N 
ATOM     11  H   LIG d   1       9.222   0.846  -4.876  0.00  0.00     0.174 HD
BRANCH  10  12
ATOM     12  C   LIG d   1       7.444   0.442  -3.705  0.00  0.00     0.048 A 
ATOM     13  C   LIG d   1       6.314   1.072  -3.198  0.00  0.00    -0.038 A 
ATOM     14  C   LIG d   1       5.211   0.325  -2.840  0.00  0.00    -0.046 A 
ATOM     15  H   LIG d   1       6.300   2.146  -3.083  0.00  0.00     0.064 H 
ATOM     16  C   LIG d   1       5.228  -1.051  -2.986  0.00  0.00     0.018 A 
ATOM     17  H   LIG d   1       4.332   0.814  -2.445  0.00  0.00     0.063 H 
ATOM     18  C   LIG d   1       6.351  -1.683  -3.491  0.00  0.00    -0.046 A 
ATOM     19 BR   LIG d   1       3.714  -2.071  -2.494  0.00  0.00    -0.050 Br
ATOM     20  C   LIG d   1       7.459  -0.940  -3.851  0.00  0.00    -0.038 A 
ATOM     21  H   LIG d   1       6.360  -2.756  -3.608  0.00  0.00     0.063 H 
ATOM     22  H   LIG d   1       8.334  -1.433  -4.245  0.00  0.00     0.064 H 
ENDBRANCH  10  12
ENDBRANCH   6  10
BRANCH   1  23
ATOM     23  C   LIG d   1       9.905   6.771  -6.433  0.00  0.00     0.013 C 
ATOM     24  H   LIG d   1       9.908   7.664  -5.792  0.00  0.00     0.030 H 
ATOM     25  H   LIG d   1       8.912   6.651  -6.891  0.00  0.00     0.030 H 
ATOM     26  H   LIG d   1      10.662   6.884  -7.224  0.00  0.00     0.030 H 
ENDBRANCH   1  23
BRANCH   1  27
ATOM     27  C   LIG d   1      11.748   5.401  -5.450  0.00  0.00     0.013 C 
ATOM     28  H   LIG d   1      12.109   6.107  -4.688  0.00  0.00     0.030 H 
ATOM     29  H   LIG d   1      12.226   5.627  -6.415  0.00  0.00     0.030 H 
ATOM     30  H   LIG d   1      11.998   4.375  -5.147  0.00  0.00     0.030 H 
ENDBRANCH   1  27
TORSDOF 4
ENDMDL
MODEL 9
REMARK VINA RESULT:      -5.2      3.885      6.683
REMARK  4 active torsions:
REMARK  status: ('A' for Active; 'I' for Inactive)
REMARK    1  A    between atoms: C_1  and  C_2 
REMARK    2  A    between atoms: C_2  and  C_19 
REMARK    3  A    between atoms: N_7  and  N_8 
REMARK    4  A    between atoms: N_8  and  C_9 
ROOT
ATOM      1  C   LIG d   1       4.526  -1.292 -11.532  0.00  0.00     0.255 C 
ATOM      2  O   LIG d   1       3.217  -1.816 -11.171  0.00  0.00    -0.418 OA
ATOM      3  C   LIG d   1       2.395  -0.941 -10.528  0.00  0.00     0.369 C 
ATOM      4  O   LIG d   1       1.226  -0.802 -10.832  0.00  0.00    -0.243 OA
ATOM      5  C   LIG d   1       3.030  -0.168  -9.427  0.00  0.00     0.249 C 
ATOM      6  N   LIG d   1       2.384   0.172  -8.329  0.00  0.00    -0.168 NA
ATOM      7  C   LIG d   1       4.453   0.194  -9.671  0.00  0.00     0.369 C 
ATOM      8  O   LIG d   1       4.933   1.242  -9.287  0.00  0.00    -0.243 OA
ATOM      9  O   LIG d   1       5.177  -0.740 -10.352  0.00  0.00    -0.418 OA
ENDROOT
BRANCH   6  10
ATOM     10  N   LIG d   1       2.988   0.845  -7.407  0.00  0.00    -0.237 N 
ATOM     11  H   LIG d   1       3.285   1.887  -7.593  0.00  0.00     0.174 HD
BRANCH  10  12
ATOM     12  C   LIG d   1       3.267   0.247  -6.178  0.00  0.00     0.048 A 
ATOM     13  C   LIG d   1       4.397  -0.548  -6.029  0.00  0.00    -0.038 A 
ATOM     14  C   LIG d   1       4.670  -1.137  -4.811  0.00  0.00    -0.046 A 
ATOM     15  H   LIG d   1       5.061  -0.705  -6.866  0.00  0.00     0.064 H 
ATOM     16  C   LIG d   1       3.818  -0.937  -3.738  0.00  0.00     0.018 A 
ATOM     17  H   LIG d   1       5.548  -1.755  -4.695  0.00  0.00     0.063 H 
ATOM     18  C   LIG d   1       2.692  -0.146  -3.882  0.00  0.00    -0.046 A 
ATOM     19 BR   LIG d   1       4.196  -1.746  -2.071  0.00  0.00    -0.050 Br
ATOM     20  C   LIG d   1       2.414   0.447  -5.098  0.00  0.00    -0.038 A 
ATOM     21  H   LIG d   1       2.033   0.013  -3.042  0.00  0.00     0.063 H 
ATOM     22  H   LIG d   1       1.536   1.064  -5.210  0.00  0.00     0.064 H 
ENDBRANCH  10  12
ENDBRANCH   6  10
BRANCH   1  23
ATOM     23  C   LIG d   1       5.385  -2.420 -12.107  0.00  0.00     0.013 C 
ATOM     24  H   LIG d   1       5.401  -3.264 -11.402  0.00  0.00     0.030 H 
ATOM     25  H   LIG d   1       6.411  -2.056 -12.266  0.00  0.00     0.030 H 
ATOM     26  H   LIG d   1       4.961  -2.751 -13.067  0.00  0.00     0.030 H 
ENDBRANCH   1  23
BRANCH   1  27
ATOM     27  C   LIG d   1       4.362  -0.193 -12.584  0.00  0.00     0.013 C 
ATOM     28  H   LIG d   1       3.752   0.622 -12.169  0.00  0.00     0.030 H 
ATOM     29  H   LIG d   1       3.864  -0.607 -13.472  0.00  0.00     0.030 H 
ATOM     30  H   LIG d   1       5.352   0.196 -12.865  0.00  0.00     0.030 H 
ENDBRANCH   1  27
TORSDOF 4
ENDMDL
MODEL 10
REMARK VINA RESULT:      -5.1      5.759      7.418
REMARK  4 active torsions:
REMARK  status: ('A' for Active; 'I' for Inactive)
REMARK    1  A    between atoms: C_1  and  C_2 
REMARK    2  A    between atoms: C_2  and  C_19 
REMARK    3  A    between atoms: N_7  and  N_8 
REMARK    4  A    between atoms: N_8  and  C_9 
ROOT
ATOM      1  C   LIG d   1       5.061  -8.268  -7.127  0.00  0.00     0.255 C 
ATOM      2  O   LIG d   1       3.782  -7.624  -7.386  0.00  0.00    -0.418 OA
ATOM      3  C   LIG d   1       3.799  -6.262  -7.363  0.00  0.00     0.369 C 
ATOM      4  O   LIG d   1       3.258  -5.590  -8.219  0.00  0.00    -0.243 OA
ATOM      5  C   LIG d   1       4.526  -5.658  -6.215  0.00  0.00     0.249 C 
ATOM      6  N   LIG d   1       4.142  -4.535  -5.638  0.00  0.00    -0.168 NA
ATOM      7  C   LIG d   1       5.725  -6.421  -5.775  0.00  0.00     0.369 C 
ATOM      8  O   LIG d   1       6.728  -5.875  -5.359  0.00  0.00    -0.243 OA
ATOM      9  O   LIG d   1       5.612  -7.777  -5.871  0.00  0.00    -0.418 OA
ENDROOT
BRANCH   6  10
ATOM     10  N   LIG d   1       4.815  -4.058  -4.645  0.00  0.00    -0.237 N 
ATOM     11  H   LIG d   1       5.590  -4.670  -4.162  0.00  0.00     0.174 HD
BRANCH  10  12
ATOM     12  C   LIG d   1       4.555  -2.767  -4.184  0.00  0.00     0.048 A 
ATOM     13  C   LIG d   1       4.731  -1.677  -5.028  0.00  0.00    -0.038 A 
ATOM     14  C   LIG d   1       4.473  -0.401  -4.569  0.00  0.00    -0.046 A 
ATOM     15  H   LIG d   1       5.070  -1.828  -6.042  0.00  0.00     0.064 H 
ATOM     16  C   LIG d   1       4.039  -0.207  -3.268  0.00  0.00     0.018 A 
ATOM     17  H   LIG d   1       4.610   0.447  -5.224  0.00  0.00     0.063 H 
ATOM     18  C   LIG d   1       3.863  -1.289  -2.425  0.00  0.00    -0.046 A 
ATOM     19 BR   LIG d   1       3.688   1.543  -2.643  0.00  0.00    -0.050 Br
ATOM     20  C   LIG d   1       4.119  -2.568  -2.879  0.00  0.00    -0.038 A 
ATOM     21  H   LIG d   1       3.520  -1.135  -1.413  0.00  0.00     0.063 H 
ATOM     22  H   LIG d   1       3.982  -3.413  -2.221  0.00  0.00     0.064 H 
ENDBRANCH  10  12
ENDBRANCH   6  10
BRANCH   1  23
ATOM     23  C   LIG d   1       4.859  -9.782  -7.036  0.00  0.00     0.013 C 
ATOM     24  H   LIG d   1       4.744 -10.075  -5.983  0.00  0.00     0.030 H 
ATOM     25  H   LIG d   1       5.732 -10.295  -7.467  0.00  0.00     0.030 H 
ATOM     26  H   LIG d   1       3.956 -10.065  -7.597  0.00  0.00     0.030 H 
ENDBRANCH   1  23
BRANCH   1  27
ATOM     27  C   LIG d   1       6.032  -7.952  -8.266  0.00  0.00     0.013 C 
ATOM     28  H   LIG d   1       6.344  -8.888  -8.751  0.00  0.00     0.030 H 
ATOM     29  H   LIG d   1       6.915  -7.436  -7.862  0.00  0.00     0.030 H 
ATOM     30  H   LIG d   1       5.533  -7.306  -9.003  0.00  0.00     0.030 H 
ENDBRANCH   1  27
TORSDOF 4
ENDMDL
