MODEL 1
REMARK VINA RESULT:      -6.6      0.000      0.000
REMARK  10 active torsions:
REMARK  status: ('A' for Active; 'I' for Inactive)
REMARK    1  A    between atoms: C_1  and  C_2 
REMARK    2  A    between atoms: C_3  and  C_33 
REMARK    3  A    between atoms: C_9  and  C_32 
REMARK    4  A    between atoms: C_20  and  O_31 
REMARK    5  A    between atoms: C_24  and  C_30 
REMARK    6  A    between atoms: C_33  and  C_34 
REMARK    7  A    between atoms: C_34  and  C_35 
REMARK    8  A    between atoms: C_35  and  C_37 
REMARK    9  A    between atoms: C_35  and  C_38 
REMARK   10  A    between atoms: C_38  and  O_39 
ROOT
ATOM      1  C   LIG d   1       6.818  -3.354  -4.735  0.00  0.00    -0.028 C 
ATOM      2  C   LIG d   1       5.647  -2.698  -4.623  0.00  0.00     0.098 C 
ATOM      3  O   LIG d   1       4.574  -3.583  -4.602  0.00  0.00    -0.492 OA
ATOM      4  C   LIG d   1       5.029  -4.589  -5.470  0.00  0.00     0.107 C 
ATOM      5  H   LIG d   1       5.167  -4.116  -6.442  0.00  0.00     0.074 H 
ATOM      6  C   LIG d   1       6.442  -4.784  -4.765  0.00  0.00     0.033 C 
ATOM      7  H   LIG d   1       6.301  -5.140  -3.734  0.00  0.00     0.039 H 
ATOM      8  C   LIG d   1       6.979  -5.897  -5.591  0.00  0.00     0.039 C 
ATOM      9  C   LIG d   1       5.761  -6.878  -5.478  0.00  0.00    -0.022 C 
ATOM     10  H   LIG d   1       5.748  -7.216  -4.434  0.00  0.00     0.031 H 
ATOM     11  C   LIG d   1       4.524  -5.987  -5.666  0.00  0.00    -0.011 C 
ATOM     12  C   LIG d   1       5.958  -8.059  -6.370  0.00  0.00    -0.034 C 
ATOM     13  H   LIG d   1       6.176  -7.684  -7.396  0.00  0.00     0.031 H 
ATOM     14  C   LIG d   1       4.711  -8.917  -6.522  0.00  0.00    -0.049 C 
ATOM     15  C   LIG d   1       4.579  -9.981  -5.439  0.00  0.00    -0.049 C 
ATOM     16  C   LIG d   1       5.472  -9.635  -4.257  0.00  0.00    -0.033 C 
ATOM     17  H   LIG d   1       5.221  -8.622  -3.914  0.00  0.00     0.031 H 
ATOM     18  C   LIG d   1       5.222 -10.565  -3.071  0.00  0.00    -0.024 C 
ATOM     19  C   LIG d   1       6.056 -10.070  -1.885  0.00  0.00     0.056 C 
ATOM     20  H   LIG d   1       5.720  -9.069  -1.605  0.00  0.00     0.059 H 
ATOM     21  C   LIG d   1       7.536 -10.027  -2.250  0.00  0.00    -0.026 C 
ATOM     22  C   LIG d   1       7.780  -9.171  -3.493  0.00  0.00    -0.045 C 
ATOM     23  C   LIG d   1       6.942  -9.680  -4.666  0.00  0.00    -0.026 C 
ATOM     24  C   LIG d   1       7.179  -8.862  -5.928  0.00  0.00    -0.026 C 
ATOM     25  H   LIG d   1       7.388  -9.594  -6.741  0.00  0.00     0.031 H 
ATOM     26  C   LIG d   1       8.429  -7.996  -5.809  0.00  0.00     0.010 C 
ATOM     27  C   LIG d   1       8.150  -6.688  -5.089  0.00  0.00     0.140 C 
ATOM     28  O   LIG d   1       8.831  -6.297  -4.166  0.00  0.00    -0.297 OA
ATOM     29  H   LIG d   1       3.765  -6.234  -4.923  0.00  0.00     0.030 H 
ATOM     30  H   LIG d   1       4.120  -6.113  -6.671  0.00  0.00     0.030 H 
ATOM     31  H   LIG d   1       3.826  -8.271  -6.498  0.00  0.00     0.027 H 
ATOM     32  H   LIG d   1       4.735  -9.409  -7.502  0.00  0.00     0.027 H 
ATOM     33  H   LIG d   1       4.830 -10.959  -5.846  0.00  0.00     0.027 H 
ATOM     34  H   LIG d   1       3.535 -10.012  -5.101  0.00  0.00     0.027 H 
ATOM     35  H   LIG d   1       5.461 -11.593  -3.303  0.00  0.00     0.029 H 
ATOM     36  H   LIG d   1       4.161 -10.505  -2.797  0.00  0.00     0.029 H 
ATOM     37  H   LIG d   1       7.915 -11.036  -2.400  0.00  0.00     0.029 H 
ATOM     38  H   LIG d   1       8.091  -9.584  -1.411  0.00  0.00     0.029 H 
ATOM     39  H   LIG d   1       8.841  -9.226  -3.748  0.00  0.00     0.027 H 
ATOM     40  H   LIG d   1       7.514  -8.137  -3.275  0.00  0.00     0.027 H 
ATOM     41  H   LIG d   1       9.129  -8.489  -5.291  0.00  0.00     0.035 H 
ATOM     42  H   LIG d   1       8.802  -7.778  -6.817  0.00  0.00     0.035 H 
ENDROOT
BRANCH   2  43
ATOM     43  C   LIG d   1       5.514  -1.201  -4.542  0.00  0.00     0.005 C 
ATOM     44  H   LIG d   1       6.307  -0.733  -5.126  0.00  0.00     0.034 H 
ATOM     45  H   LIG d   1       4.544  -0.900  -4.939  0.00  0.00     0.034 H 
BRANCH  43  46
ATOM     46  C   LIG d   1       5.628  -0.758  -3.083  0.00  0.00    -0.042 C 
ATOM     47  H   LIG d   1       5.969  -1.596  -2.474  0.00  0.00     0.027 H 
ATOM     48  H   LIG d   1       6.342   0.062  -3.006  0.00  0.00     0.027 H 
BRANCH  46  49
ATOM     49  C   LIG d   1       4.259  -0.289  -2.583  0.00  0.00    -0.020 C 
ATOM     50  H   LIG d   1       3.788  -1.089  -2.012  0.00  0.00     0.032 H 
BRANCH  49  51
ATOM     51  C   LIG d   1       4.437   0.941  -1.690  0.00  0.00    -0.060 C 
ATOM     52  H   LIG d   1       3.501   1.498  -1.648  0.00  0.00     0.023 H 
ATOM     53  H   LIG d   1       4.715   0.623  -0.685  0.00  0.00     0.023 H 
ATOM     54  H   LIG d   1       5.222   1.577  -2.100  0.00  0.00     0.023 H 
ENDBRANCH  49  51
BRANCH  49  55
ATOM     55  C   LIG d   1       3.376   0.072  -3.778  0.00  0.00     0.047 C 
ATOM     56  H   LIG d   1       3.065   1.115  -3.698  0.00  0.00     0.056 H 
ATOM     57  H   LIG d   1       3.937  -0.069  -4.702  0.00  0.00     0.056 H 
BRANCH  55  58
ATOM     58  O   LIG d   1       2.221  -0.770  -3.789  0.00  0.00    -0.395 OA
ATOM     59  H   LIG d   1       2.186  -1.399  -3.055  0.00  0.00     0.209 HD
ENDBRANCH  55  58
ENDBRANCH  49  55
ENDBRANCH  46  49
ENDBRANCH  43  46
ENDBRANCH   2  43
BRANCH   1  60
ATOM     60  C   LIG d   1       8.195  -2.749  -4.802  0.00  0.00    -0.040 C 
ATOM     61  H   LIG d   1       8.139  -1.770  -5.278  0.00  0.00     0.028 H 
ATOM     62  H   LIG d   1       8.594  -2.641  -3.794  0.00  0.00     0.028 H 
ATOM     63  H   LIG d   1       8.849  -3.398  -5.384  0.00  0.00     0.028 H 
ENDBRANCH   1  60
BRANCH   8  64
ATOM     64  C   LIG d   1       7.231  -5.442  -7.023  0.00  0.00    -0.052 C 
ATOM     65  H   LIG d   1       7.186  -6.303  -7.690  0.00  0.00     0.024 H 
ATOM     66  H   LIG d   1       6.471  -4.718  -7.314  0.00  0.00     0.024 H 
ATOM     67  H   LIG d   1       8.217  -4.982  -7.090  0.00  0.00     0.024 H 
ENDBRANCH   8  64
BRANCH  23  68
ATOM     68  C   LIG d   1       7.354 -11.130  -4.970  0.00  0.00    -0.059 C 
ATOM     69  H   LIG d   1       7.868 -11.168  -5.932  0.00  0.00     0.024 H 
ATOM     70  H   LIG d   1       8.022 -11.491  -4.187  0.00  0.00     0.024 H 
ATOM     71  H   LIG d   1       6.466 -11.761  -5.009  0.00  0.00     0.024 H 
ENDBRANCH  23  68
BRANCH  19  72
ATOM     72  O   LIG d   1       5.864 -10.952  -0.775  0.00  0.00    -0.392 OA
ATOM     73  H   LIG d   1       5.164 -11.606  -0.909  0.00  0.00     0.210 HD
ENDBRANCH  19  72
TORSDOF 10
ENDMDL
MODEL 2
REMARK VINA RESULT:      -6.6      5.482      7.484
REMARK  10 active torsions:
REMARK  status: ('A' for Active; 'I' for Inactive)
REMARK    1  A    between atoms: C_1  and  C_2 
REMARK    2  A    between atoms: C_3  and  C_33 
REMARK    3  A    between atoms: C_9  and  C_32 
REMARK    4  A    between atoms: C_20  and  O_31 
REMARK    5  A    between atoms: C_24  and  C_30 
REMARK    6  A    between atoms: C_33  and  C_34 
REMARK    7  A    between atoms: C_34  and  C_35 
REMARK    8  A    between atoms: C_35  and  C_37 
REMARK    9  A    between atoms: C_35  and  C_38 
REMARK   10  A    between atoms: C_38  and  O_39 
ROOT
ATOM      1  C   LIG d   1       5.757  -1.923  -5.237  0.00  0.00    -0.028 C 
ATOM      2  C   LIG d   1       5.000  -1.517  -4.200  0.00  0.00     0.098 C 
ATOM      3  O   LIG d   1       3.720  -1.166  -4.617  0.00  0.00    -0.492 OA
ATOM      4  C   LIG d   1       3.985  -0.615  -5.882  0.00  0.00     0.107 C 
ATOM      5  H   LIG d   1       4.626   0.249  -5.713  0.00  0.00     0.074 H 
ATOM      6  C   LIG d   1       4.859  -1.835  -6.409  0.00  0.00     0.033 C 
ATOM      7  H   LIG d   1       4.243  -2.745  -6.459  0.00  0.00     0.039 H 
ATOM      8  C   LIG d   1       5.134  -1.363  -7.791  0.00  0.00     0.039 C 
ATOM      9  C   LIG d   1       3.661  -1.043  -8.225  0.00  0.00    -0.022 C 
ATOM     10  H   LIG d   1       3.157  -2.014  -8.300  0.00  0.00     0.031 H 
ATOM     11  C   LIG d   1       3.047  -0.322  -7.015  0.00  0.00    -0.011 C 
ATOM     12  C   LIG d   1       3.644  -0.379  -9.562  0.00  0.00    -0.034 C 
ATOM     13  H   LIG d   1       4.331   0.496  -9.521  0.00  0.00     0.031 H 
ATOM     14  C   LIG d   1       2.287   0.203  -9.930  0.00  0.00    -0.049 C 
ATOM     15  C   LIG d   1       1.369  -0.803 -10.615  0.00  0.00    -0.049 C 
ATOM     16  C   LIG d   1       1.865  -2.218 -10.362  0.00  0.00    -0.033 C 
ATOM     17  H   LIG d   1       1.954  -2.369  -9.278  0.00  0.00     0.031 H 
ATOM     18  C   LIG d   1       0.867  -3.262 -10.860  0.00  0.00    -0.024 C 
ATOM     19  C   LIG d   1       1.374  -4.649 -10.450  0.00  0.00     0.056 C 
ATOM     20  H   LIG d   1       1.408  -4.708  -9.360  0.00  0.00     0.059 H 
ATOM     21  C   LIG d   1       2.767  -4.901 -11.017  0.00  0.00    -0.026 C 
ATOM     22  C   LIG d   1       3.748  -3.807 -10.597  0.00  0.00    -0.045 C 
ATOM     23  C   LIG d   1       3.228  -2.431 -11.015  0.00  0.00    -0.026 C 
ATOM     24  C   LIG d   1       4.194  -1.320 -10.631  0.00  0.00    -0.026 C 
ATOM     25  H   LIG d   1       4.345  -0.705 -11.547  0.00  0.00     0.031 H 
ATOM     26  C   LIG d   1       5.568  -1.872 -10.263  0.00  0.00     0.010 C 
ATOM     27  C   LIG d   1       5.627  -2.338  -8.819  0.00  0.00     0.140 C 
ATOM     28  O   LIG d   1       6.050  -3.429  -8.506  0.00  0.00    -0.297 OA
ATOM     29  H   LIG d   1       2.052  -0.715  -6.808  0.00  0.00     0.030 H 
ATOM     30  H   LIG d   1       2.995   0.751  -7.204  0.00  0.00     0.030 H 
ATOM     31  H   LIG d   1       1.798   0.574  -9.023  0.00  0.00     0.027 H 
ATOM     32  H   LIG d   1       2.437   1.059 -10.599  0.00  0.00     0.027 H 
ATOM     33  H   LIG d   1       1.315  -0.591 -11.681  0.00  0.00     0.027 H 
ATOM     34  H   LIG d   1       0.359  -0.698 -10.198  0.00  0.00     0.027 H 
ATOM     35  H   LIG d   1       0.724  -3.210 -11.930  0.00  0.00     0.029 H 
ATOM     36  H   LIG d   1      -0.098  -3.087 -10.368  0.00  0.00     0.029 H 
ATOM     37  H   LIG d   1       2.721  -4.978 -12.102  0.00  0.00     0.029 H 
ATOM     38  H   LIG d   1       3.134  -5.862 -10.631  0.00  0.00     0.029 H 
ATOM     39  H   LIG d   1       4.709  -4.000 -11.080  0.00  0.00     0.027 H 
ATOM     40  H   LIG d   1       3.876  -3.836  -9.515  0.00  0.00     0.027 H 
ATOM     41  H   LIG d   1       5.780  -2.656 -10.848  0.00  0.00     0.035 H 
ATOM     42  H   LIG d   1       6.315  -1.085 -10.417  0.00  0.00     0.035 H 
ENDROOT
BRANCH   2  43
ATOM     43  C   LIG d   1       5.477  -1.445  -2.775  0.00  0.00     0.005 C 
ATOM     44  H   LIG d   1       5.675  -2.452  -2.405  0.00  0.00     0.034 H 
ATOM     45  H   LIG d   1       6.392  -0.855  -2.727  0.00  0.00     0.034 H 
BRANCH  43  46
ATOM     46  C   LIG d   1       4.400  -0.788  -1.910  0.00  0.00    -0.042 C 
ATOM     47  H   LIG d   1       3.419  -0.980  -2.343  0.00  0.00     0.027 H 
ATOM     48  H   LIG d   1       4.440  -1.201  -0.902  0.00  0.00     0.027 H 
BRANCH  46  49
ATOM     49  C   LIG d   1       4.644   0.722  -1.850  0.00  0.00    -0.020 C 
ATOM     50  H   LIG d   1       4.882   1.011  -0.827  0.00  0.00     0.032 H 
BRANCH  49  51
ATOM     51  C   LIG d   1       5.813   1.086  -2.769  0.00  0.00    -0.060 C 
ATOM     52  H   LIG d   1       5.434   1.598  -3.653  0.00  0.00     0.023 H 
ATOM     53  H   LIG d   1       6.502   1.741  -2.237  0.00  0.00     0.023 H 
ATOM     54  H   LIG d   1       6.335   0.177  -3.070  0.00  0.00     0.023 H 
ENDBRANCH  49  51
BRANCH  49  55
ATOM     55  C   LIG d   1       3.386   1.460  -2.309  0.00  0.00     0.047 C 
ATOM     56  H   LIG d   1       2.522   0.802  -2.214  0.00  0.00     0.056 H 
ATOM     57  H   LIG d   1       3.238   2.346  -1.691  0.00  0.00     0.056 H 
BRANCH  55  58
ATOM     58  O   LIG d   1       3.536   1.854  -3.675  0.00  0.00    -0.395 OA
ATOM     59  H   LIG d   1       2.745   1.713  -4.215  0.00  0.00     0.209 HD
ENDBRANCH  55  58
ENDBRANCH  49  55
ENDBRANCH  46  49
ENDBRANCH  43  46
ENDBRANCH   2  43
BRANCH   1  60
ATOM     60  C   LIG d   1       7.193  -2.372  -5.193  0.00  0.00    -0.040 C 
ATOM     61  H   LIG d   1       7.613  -2.347  -6.199  0.00  0.00     0.028 H 
ATOM     62  H   LIG d   1       7.762  -1.705  -4.546  0.00  0.00     0.028 H 
ATOM     63  H   LIG d   1       7.245  -3.388  -4.803  0.00  0.00     0.028 H 
ENDBRANCH   1  60
BRANCH   8  64
ATOM     64  C   LIG d   1       6.021  -0.124  -7.779  0.00  0.00    -0.052 C 
ATOM     65  H   LIG d   1       5.725   0.542  -8.590  0.00  0.00     0.024 H 
ATOM     66  H   LIG d   1       5.911   0.392  -6.826  0.00  0.00     0.024 H 
ATOM     67  H   LIG d   1       7.061  -0.421  -7.915  0.00  0.00     0.024 H 
ENDBRANCH   8  64
BRANCH  23  68
ATOM     68  C   LIG d   1       3.082  -2.408 -12.546  0.00  0.00    -0.059 C 
ATOM     69  H   LIG d   1       3.121  -3.428 -12.931  0.00  0.00     0.024 H 
ATOM     70  H   LIG d   1       2.126  -1.957 -12.814  0.00  0.00     0.024 H 
ATOM     71  H   LIG d   1       3.893  -1.825 -12.981  0.00  0.00     0.024 H 
ENDBRANCH  23  68
BRANCH  19  72
ATOM     72  O   LIG d   1       0.471  -5.643 -10.941  0.00  0.00    -0.392 OA
ATOM     73  H   LIG d   1       0.857  -6.526 -11.010  0.00  0.00     0.210 HD
ENDBRANCH  19  72
TORSDOF 10
ENDMDL
MODEL 3
REMARK VINA RESULT:      -6.5      7.057     12.149
REMARK  10 active torsions:
REMARK  status: ('A' for Active; 'I' for Inactive)
REMARK    1  A    between atoms: C_1  and  C_2 
REMARK    2  A    between atoms: C_3  and  C_33 
REMARK    3  A    between atoms: C_9  and  C_32 
REMARK    4  A    between atoms: C_20  and  O_31 
REMARK    5  A    between atoms: C_24  and  C_30 
REMARK    6  A    between atoms: C_33  and  C_34 
REMARK    7  A    between atoms: C_34  and  C_35 
REMARK    8  A    between atoms: C_35  and  C_37 
REMARK    9  A    between atoms: C_35  and  C_38 
REMARK   10  A    between atoms: C_38  and  O_39 
ROOT
ATOM      1  C   LIG d   1       7.569   0.994  -5.186  0.00  0.00    -0.028 C 
ATOM      2  C   LIG d   1       7.101   1.141  -3.931  0.00  0.00     0.098 C 
ATOM      3  O   LIG d   1       7.545   2.331  -3.365  0.00  0.00    -0.492 OA
ATOM      4  C   LIG d   1       8.827   2.444  -3.928  0.00  0.00     0.107 C 
ATOM      5  H   LIG d   1       9.390   1.577  -3.585  0.00  0.00     0.074 H 
ATOM      6  C   LIG d   1       8.362   2.218  -5.432  0.00  0.00     0.033 C 
ATOM      7  H   LIG d   1       7.686   3.028  -5.742  0.00  0.00     0.039 H 
ATOM      8  C   LIG d   1       9.668   2.389  -6.122  0.00  0.00     0.039 C 
ATOM      9  C   LIG d   1      10.084   3.764  -5.493  0.00  0.00    -0.022 C 
ATOM     10  H   LIG d   1       9.389   4.503  -5.911  0.00  0.00     0.031 H 
ATOM     11  C   LIG d   1       9.740   3.631  -4.002  0.00  0.00    -0.011 C 
ATOM     12  C   LIG d   1      11.476   4.121  -5.897  0.00  0.00    -0.034 C 
ATOM     13  H   LIG d   1      12.139   3.262  -5.648  0.00  0.00     0.031 H 
ATOM     14  C   LIG d   1      12.048   5.297  -5.118  0.00  0.00    -0.049 C 
ATOM     15  C   LIG d   1      11.711   6.648  -5.738  0.00  0.00    -0.049 C 
ATOM     16  C   LIG d   1      10.545   6.502  -6.704  0.00  0.00    -0.033 C 
ATOM     17  H   LIG d   1       9.704   6.040  -6.169  0.00  0.00     0.031 H 
ATOM     18  C   LIG d   1      10.047   7.860  -7.195  0.00  0.00    -0.024 C 
ATOM     19  C   LIG d   1       8.796   7.636  -8.050  0.00  0.00     0.056 C 
ATOM     20  H   LIG d   1       8.014   7.194  -7.429  0.00  0.00     0.059 H 
ATOM     21  C   LIG d   1       9.103   6.704  -9.218  0.00  0.00    -0.026 C 
ATOM     22  C   LIG d   1       9.689   5.378  -8.736  0.00  0.00    -0.045 C 
ATOM     23  C   LIG d   1      10.937   5.620  -7.887  0.00  0.00    -0.026 C 
ATOM     24  C   LIG d   1      11.560   4.316  -7.408  0.00  0.00    -0.026 C 
ATOM     25  H   LIG d   1      12.642   4.375  -7.662  0.00  0.00     0.031 H 
ATOM     26  C   LIG d   1      11.011   3.118  -8.177  0.00  0.00     0.010 C 
ATOM     27  C   LIG d   1       9.693   2.627  -7.603  0.00  0.00     0.140 C 
ATOM     28  O   LIG d   1       8.716   2.433  -8.293  0.00  0.00    -0.297 OA
ATOM     29  H   LIG d   1       9.237   4.531  -3.650  0.00  0.00     0.030 H 
ATOM     30  H   LIG d   1      10.647   3.456  -3.422  0.00  0.00     0.030 H 
ATOM     31  H   LIG d   1      11.664   5.269  -4.092  0.00  0.00     0.027 H 
ATOM     32  H   LIG d   1      13.139   5.193  -5.066  0.00  0.00     0.027 H 
ATOM     33  H   LIG d   1      12.587   7.055  -6.241  0.00  0.00     0.027 H 
ATOM     34  H   LIG d   1      11.427   7.343  -4.937  0.00  0.00     0.027 H 
ATOM     35  H   LIG d   1      10.802   8.391  -7.757  0.00  0.00     0.029 H 
ATOM     36  H   LIG d   1       9.767   8.467  -6.324  0.00  0.00     0.029 H 
ATOM     37  H   LIG d   1       9.782   7.191  -9.916  0.00  0.00     0.029 H 
ATOM     38  H   LIG d   1       8.167   6.495  -9.755  0.00  0.00     0.029 H 
ATOM     39  H   LIG d   1       9.950   4.777  -9.610  0.00  0.00     0.027 H 
ATOM     40  H   LIG d   1       8.942   4.849  -8.144  0.00  0.00     0.027 H 
ATOM     41  H   LIG d   1      10.854   3.377  -9.131  0.00  0.00     0.035 H 
ATOM     42  H   LIG d   1      11.746   2.306  -8.131  0.00  0.00     0.035 H 
ENDROOT
BRANCH   2  43
ATOM     43  C   LIG d   1       6.221   0.143  -3.229  0.00  0.00     0.005 C 
ATOM     44  H   LIG d   1       5.707  -0.473  -3.969  0.00  0.00     0.034 H 
ATOM     45  H   LIG d   1       6.831  -0.494  -2.589  0.00  0.00     0.034 H 
BRANCH  43  46
ATOM     46  C   LIG d   1       5.189   0.884  -2.378  0.00  0.00    -0.042 C 
ATOM     47  H   LIG d   1       5.640   1.172  -1.429  0.00  0.00     0.027 H 
ATOM     48  H   LIG d   1       4.853   1.776  -2.907  0.00  0.00     0.027 H 
BRANCH  46  49
ATOM     49  C   LIG d   1       3.991  -0.032  -2.116  0.00  0.00    -0.020 C 
ATOM     50  H   LIG d   1       3.491   0.279  -1.199  0.00  0.00     0.032 H 
BRANCH  49  51
ATOM     51  C   LIG d   1       3.012   0.062  -3.289  0.00  0.00    -0.060 C 
ATOM     52  H   LIG d   1       2.064   0.470  -2.938  0.00  0.00     0.023 H 
ATOM     53  H   LIG d   1       3.426   0.713  -4.057  0.00  0.00     0.023 H 
ATOM     54  H   LIG d   1       2.847  -0.933  -3.705  0.00  0.00     0.023 H 
ENDBRANCH  49  51
BRANCH  49  55
ATOM     55  C   LIG d   1       4.474  -1.475  -1.970  0.00  0.00     0.047 C 
ATOM     56  H   LIG d   1       5.493  -1.558  -2.350  0.00  0.00     0.056 H 
ATOM     57  H   LIG d   1       4.455  -1.761  -0.918  0.00  0.00     0.056 H 
BRANCH  55  58
ATOM     58  O   LIG d   1       3.616  -2.343  -2.713  0.00  0.00    -0.395 OA
ATOM     59  H   LIG d   1       3.807  -3.284  -2.593  0.00  0.00     0.209 HD
ENDBRANCH  55  58
ENDBRANCH  49  55
ENDBRANCH  46  49
ENDBRANCH  43  46
ENDBRANCH   2  43
BRANCH   1  60
ATOM     60  C   LIG d   1       7.321  -0.161  -6.119  0.00  0.00    -0.040 C 
ATOM     61  H   LIG d   1       8.273  -0.606  -6.408  0.00  0.00     0.028 H 
ATOM     62  H   LIG d   1       6.707  -0.908  -5.617  0.00  0.00     0.028 H 
ATOM     63  H   LIG d   1       6.803   0.196  -7.009  0.00  0.00     0.028 H 
ENDBRANCH   1  60
BRANCH   8  64
ATOM     64  C   LIG d   1      10.630   1.265  -5.757  0.00  0.00    -0.052 C 
ATOM     65  H   LIG d   1      10.707   0.568  -6.591  0.00  0.00     0.024 H 
ATOM     66  H   LIG d   1      11.612   1.684  -5.542  0.00  0.00     0.024 H 
ATOM     67  H   LIG d   1      10.258   0.740  -4.877  0.00  0.00     0.024 H 
ENDBRANCH   8  64
BRANCH  23  68
ATOM     68  C   LIG d   1      11.985   6.343  -8.751  0.00  0.00    -0.059 C 
ATOM     69  H   LIG d   1      11.480   7.004  -9.457  0.00  0.00     0.024 H 
ATOM     70  H   LIG d   1      12.642   6.932  -8.110  0.00  0.00     0.024 H 
ATOM     71  H   LIG d   1      12.574   5.608  -9.299  0.00  0.00     0.024 H 
ENDBRANCH  23  68
BRANCH  19  72
ATOM     72  O   LIG d   1       8.337   8.895  -8.551  0.00  0.00    -0.392 OA
ATOM     73  H   LIG d   1       8.976   9.613  -8.454  0.00  0.00     0.210 HD
ENDBRANCH  19  72
TORSDOF 10
ENDMDL
MODEL 4
REMARK VINA RESULT:      -6.4      6.073      9.121
REMARK  10 active torsions:
REMARK  status: ('A' for Active; 'I' for Inactive)
REMARK    1  A    between atoms: C_1  and  C_2 
REMARK    2  A    between atoms: C_3  and  C_33 
REMARK    3  A    between atoms: C_9  and  C_32 
REMARK    4  A    between atoms: C_20  and  O_31 
REMARK    5  A    between atoms: C_24  and  C_30 
REMARK    6  A    between atoms: C_33  and  C_34 
REMARK    7  A    between atoms: C_34  and  C_35 
REMARK    8  A    between atoms: C_35  and  C_37 
REMARK    9  A    between atoms: C_35  and  C_38 
REMARK   10  A    between atoms: C_38  and  O_39 
ROOT
ATOM      1  C   LIG d   1       9.304   3.139  -8.002  0.00  0.00    -0.028 C 
ATOM      2  C   LIG d   1       8.698   3.756  -9.034  0.00  0.00     0.098 C 
ATOM      3  O   LIG d   1       7.393   3.303  -9.194  0.00  0.00    -0.492 OA
ATOM      4  C   LIG d   1       7.522   1.953  -8.827  0.00  0.00     0.107 C 
ATOM      5  H   LIG d   1       8.214   1.506  -9.540  0.00  0.00     0.074 H 
ATOM      6  C   LIG d   1       8.274   2.231  -7.453  0.00  0.00     0.033 C 
ATOM      7  H   LIG d   1       7.619   2.798  -6.775  0.00  0.00     0.039 H 
ATOM      8  C   LIG d   1       8.396   0.837  -6.953  0.00  0.00     0.039 C 
ATOM      9  C   LIG d   1       6.895   0.406  -7.099  0.00  0.00    -0.022 C 
ATOM     10  H   LIG d   1       6.346   0.982  -6.344  0.00  0.00     0.031 H 
ATOM     11  C   LIG d   1       6.465   0.952  -8.469  0.00  0.00    -0.011 C 
ATOM     12  C   LIG d   1       6.741  -1.051  -6.807  0.00  0.00    -0.034 C 
ATOM     13  H   LIG d   1       7.464  -1.609  -7.446  0.00  0.00     0.031 H 
ATOM     14  C   LIG d   1       5.375  -1.602  -7.187  0.00  0.00    -0.049 C 
ATOM     15  C   LIG d   1       4.338  -1.451  -6.079  0.00  0.00    -0.049 C 
ATOM     16  C   LIG d   1       4.804  -0.415  -5.068  0.00  0.00    -0.033 C 
ATOM     17  H   LIG d   1       5.019   0.521  -5.601  0.00  0.00     0.031 H 
ATOM     18  C   LIG d   1       3.710  -0.089  -4.052  0.00  0.00    -0.024 C 
ATOM     19  C   LIG d   1       4.206   1.052  -3.158  0.00  0.00     0.056 C 
ATOM     20  H   LIG d   1       4.371   1.940  -3.772  0.00  0.00     0.059 H 
ATOM     21  C   LIG d   1       5.507   0.664  -2.463  0.00  0.00    -0.026 C 
ATOM     22  C   LIG d   1       6.577   0.248  -3.473  0.00  0.00    -0.045 C 
ATOM     23  C   LIG d   1       6.066  -0.892  -4.355  0.00  0.00    -0.026 C 
ATOM     24  C   LIG d   1       7.116  -1.347  -5.358  0.00  0.00    -0.026 C 
ATOM     25  H   LIG d   1       7.179  -2.455  -5.266  0.00  0.00     0.031 H 
ATOM     26  C   LIG d   1       8.501  -0.815  -4.999  0.00  0.00     0.010 C 
ATOM     27  C   LIG d   1       8.719   0.600  -5.507  0.00  0.00     0.140 C 
ATOM     28  O   LIG d   1       9.132   1.488  -4.795  0.00  0.00    -0.297 OA
ATOM     29  H   LIG d   1       5.487   1.428  -8.394  0.00  0.00     0.030 H 
ATOM     30  H   LIG d   1       6.434   0.145  -9.202  0.00  0.00     0.030 H 
ATOM     31  H   LIG d   1       5.016  -1.085  -8.085  0.00  0.00     0.027 H 
ATOM     32  H   LIG d   1       5.476  -2.665  -7.436  0.00  0.00     0.027 H 
ATOM     33  H   LIG d   1       4.163  -2.413  -5.601  0.00  0.00     0.027 H 
ATOM     34  H   LIG d   1       3.392  -1.117  -6.525  0.00  0.00     0.027 H 
ATOM     35  H   LIG d   1       3.439  -0.949  -3.457  0.00  0.00     0.029 H 
ATOM     36  H   LIG d   1       2.820   0.257  -4.594  0.00  0.00     0.029 H 
ATOM     37  H   LIG d   1       5.325  -0.135  -1.747  0.00  0.00     0.029 H 
ATOM     38  H   LIG d   1       5.878   1.535  -1.904  0.00  0.00     0.029 H 
ATOM     39  H   LIG d   1       7.461  -0.080  -2.923  0.00  0.00     0.027 H 
ATOM     40  H   LIG d   1       6.835   1.104  -4.096  0.00  0.00     0.027 H 
ATOM     41  H   LIG d   1       8.607  -0.805  -4.004  0.00  0.00     0.035 H 
ATOM     42  H   LIG d   1       9.256  -1.475  -5.444  0.00  0.00     0.035 H 
ENDROOT
BRANCH   2  43
ATOM     43  C   LIG d   1       9.349   4.793  -9.908  0.00  0.00     0.005 C 
ATOM     44  H   LIG d   1      10.407   4.870  -9.654  0.00  0.00     0.034 H 
ATOM     45  H   LIG d   1       9.247   4.504 -10.954  0.00  0.00     0.034 H 
BRANCH  43  46
ATOM     46  C   LIG d   1       8.673   6.146  -9.683  0.00  0.00    -0.042 C 
ATOM     47  H   LIG d   1       8.257   6.505 -10.624  0.00  0.00     0.027 H 
ATOM     48  H   LIG d   1       7.874   6.037  -8.950  0.00  0.00     0.027 H 
BRANCH  46  49
ATOM     49  C   LIG d   1       9.703   7.152  -9.165  0.00  0.00    -0.020 C 
ATOM     50  H   LIG d   1      10.553   6.617  -8.742  0.00  0.00     0.032 H 
BRANCH  49  51
ATOM     51  C   LIG d   1      10.180   8.034 -10.322  0.00  0.00    -0.060 C 
ATOM     52  H   LIG d   1      11.258   7.930 -10.437  0.00  0.00     0.023 H 
ATOM     53  H   LIG d   1       9.685   7.726 -11.242  0.00  0.00     0.023 H 
ATOM     54  H   LIG d   1       9.936   9.076 -10.109  0.00  0.00     0.023 H 
ENDBRANCH  49  51
BRANCH  49  55
ATOM     55  C   LIG d   1       9.064   8.028  -8.087  0.00  0.00     0.047 C 
ATOM     56  H   LIG d   1       8.398   7.421  -7.473  0.00  0.00     0.056 H 
ATOM     57  H   LIG d   1       9.844   8.459  -7.459  0.00  0.00     0.056 H 
BRANCH  55  58
ATOM     58  O   LIG d   1       8.317   9.078  -8.706  0.00  0.00    -0.395 OA
ATOM     59  H   LIG d   1       8.442   9.138  -9.663  0.00  0.00     0.209 HD
ENDBRANCH  55  58
ENDBRANCH  49  55
ENDBRANCH  46  49
ENDBRANCH  43  46
ENDBRANCH   2  43
BRANCH   1  60
ATOM     60  C   LIG d   1      10.716   3.348  -7.521  0.00  0.00    -0.040 C 
ATOM     61  H   LIG d   1      10.709   3.541  -6.448  0.00  0.00     0.028 H 
ATOM     62  H   LIG d   1      11.305   2.455  -7.725  0.00  0.00     0.028 H 
ATOM     63  H   LIG d   1      11.154   4.200  -8.040  0.00  0.00     0.028 H 
ENDBRANCH   1  60
BRANCH   8  64
ATOM     64  C   LIG d   1       9.328   0.018  -7.837  0.00  0.00    -0.052 C 
ATOM     65  H   LIG d   1       9.713  -0.830  -7.271  0.00  0.00     0.024 H 
ATOM     66  H   LIG d   1       8.779  -0.344  -8.706  0.00  0.00     0.024 H 
ATOM     67  H   LIG d   1      10.158   0.643  -8.166  0.00  0.00     0.024 H 
ENDBRANCH   8  64
BRANCH  23  68
ATOM     68  C   LIG d   1       5.733  -2.095  -3.456  0.00  0.00    -0.059 C 
ATOM     69  H   LIG d   1       5.985  -3.019  -3.978  0.00  0.00     0.024 H 
ATOM     70  H   LIG d   1       6.310  -2.031  -2.533  0.00  0.00     0.024 H 
ATOM     71  H   LIG d   1       4.669  -2.090  -3.220  0.00  0.00     0.024 H 
ENDBRANCH  23  68
BRANCH  19  72
ATOM     72  O   LIG d   1       3.209   1.346  -2.175  0.00  0.00    -0.392 OA
ATOM     73  H   LIG d   1       3.046   0.626  -1.552  0.00  0.00     0.210 HD
ENDBRANCH  19  72
TORSDOF 10
ENDMDL
MODEL 5
REMARK VINA RESULT:      -6.1      1.805      7.662
REMARK  10 active torsions:
REMARK  status: ('A' for Active; 'I' for Inactive)
REMARK    1  A    between atoms: C_1  and  C_2 
REMARK    2  A    between atoms: C_3  and  C_33 
REMARK    3  A    between atoms: C_9  and  C_32 
REMARK    4  A    between atoms: C_20  and  O_31 
REMARK    5  A    between atoms: C_24  and  C_30 
REMARK    6  A    between atoms: C_33  and  C_34 
REMARK    7  A    between atoms: C_34  and  C_35 
REMARK    8  A    between atoms: C_35  and  C_37 
REMARK    9  A    between atoms: C_35  and  C_38 
REMARK   10  A    between atoms: C_38  and  O_39 
ROOT
ATOM      1  C   LIG d   1       5.531  -8.090  -6.073  0.00  0.00    -0.028 C 
ATOM      2  C   LIG d   1       6.342  -8.890  -5.354  0.00  0.00     0.098 C 
ATOM      3  O   LIG d   1       7.230  -8.145  -4.584  0.00  0.00    -0.492 OA
ATOM      4  C   LIG d   1       7.470  -7.046  -5.425  0.00  0.00     0.107 C 
ATOM      5  H   LIG d   1       7.928  -7.447  -6.330  0.00  0.00     0.074 H 
ATOM      6  C   LIG d   1       5.939  -6.717  -5.702  0.00  0.00     0.033 C 
ATOM      7  H   LIG d   1       5.439  -6.436  -4.763  0.00  0.00     0.039 H 
ATOM      8  C   LIG d   1       6.096  -5.505  -6.546  0.00  0.00     0.039 C 
ATOM      9  C   LIG d   1       7.048  -4.688  -5.605  0.00  0.00    -0.022 C 
ATOM     10  H   LIG d   1       6.439  -4.410  -4.736  0.00  0.00     0.031 H 
ATOM     11  C   LIG d   1       8.079  -5.713  -5.110  0.00  0.00    -0.011 C 
ATOM     12  C   LIG d   1       7.517  -3.446  -6.289  0.00  0.00    -0.034 C 
ATOM     13  H   LIG d   1       7.951  -3.737  -7.273  0.00  0.00     0.031 H 
ATOM     14  C   LIG d   1       8.647  -2.741  -5.553  0.00  0.00    -0.049 C 
ATOM     15  C   LIG d   1       8.155  -1.760  -4.495  0.00  0.00    -0.049 C 
ATOM     16  C   LIG d   1       6.704  -2.056  -4.146  0.00  0.00    -0.033 C 
ATOM     17  H   LIG d   1       6.625  -3.109  -3.843  0.00  0.00     0.031 H 
ATOM     18  C   LIG d   1       6.233  -1.229  -2.951  0.00  0.00    -0.024 C 
ATOM     19  C   LIG d   1       4.816  -1.679  -2.580  0.00  0.00     0.056 C 
ATOM     20  H   LIG d   1       4.844  -2.727  -2.274  0.00  0.00     0.059 H 
ATOM     21  C   LIG d   1       3.874  -1.520  -3.768  0.00  0.00    -0.026 C 
ATOM     22  C   LIG d   1       4.389  -2.272  -4.995  0.00  0.00    -0.045 C 
ATOM     23  C   LIG d   1       5.802  -1.809  -5.352  0.00  0.00    -0.026 C 
ATOM     24  C   LIG d   1       6.338  -2.523  -6.585  0.00  0.00    -0.026 C 
ATOM     25  H   LIG d   1       6.719  -1.729  -7.266  0.00  0.00     0.031 H 
ATOM     26  C   LIG d   1       5.225  -3.234  -7.349  0.00  0.00     0.010 C 
ATOM     27  C   LIG d   1       4.917  -4.603  -6.767  0.00  0.00     0.140 C 
ATOM     28  O   LIG d   1       3.790  -4.955  -6.498  0.00  0.00    -0.297 OA
ATOM     29  H   LIG d   1       8.235  -5.601  -4.037  0.00  0.00     0.030 H 
ATOM     30  H   LIG d   1       9.022  -5.584  -5.642  0.00  0.00     0.030 H 
ATOM     31  H   LIG d   1       9.287  -3.492  -5.075  0.00  0.00     0.027 H 
ATOM     32  H   LIG d   1       9.262  -2.199  -6.282  0.00  0.00     0.027 H 
ATOM     33  H   LIG d   1       8.271  -0.739  -4.853  0.00  0.00     0.027 H 
ATOM     34  H   LIG d   1       8.771  -1.876  -3.594  0.00  0.00     0.027 H 
ATOM     35  H   LIG d   1       6.254  -0.168  -3.158  0.00  0.00     0.029 H 
ATOM     36  H   LIG d   1       6.896  -1.433  -2.101  0.00  0.00     0.029 H 
ATOM     37  H   LIG d   1       3.734  -0.466  -3.997  0.00  0.00     0.029 H 
ATOM     38  H   LIG d   1       2.893  -1.935  -3.495  0.00  0.00     0.029 H 
ATOM     39  H   LIG d   1       3.715  -2.074  -5.831  0.00  0.00     0.027 H 
ATOM     40  H   LIG d   1       4.398  -3.342  -4.784  0.00  0.00     0.027 H 
ATOM     41  H   LIG d   1       4.388  -2.686  -7.307  0.00  0.00     0.035 H 
ATOM     42  H   LIG d   1       5.536  -3.351  -8.394  0.00  0.00     0.035 H 
ENDROOT
BRANCH   2  43
ATOM     43  C   LIG d   1       6.300 -10.393  -5.385  0.00  0.00     0.005 C 
ATOM     44  H   LIG d   1       5.829 -10.725  -6.312  0.00  0.00     0.034 H 
ATOM     45  H   LIG d   1       7.315 -10.787  -5.332  0.00  0.00     0.034 H 
BRANCH  43  46
ATOM     46  C   LIG d   1       5.491 -10.905  -4.193  0.00  0.00    -0.042 C 
ATOM     47  H   LIG d   1       5.763 -11.940  -3.986  0.00  0.00     0.027 H 
ATOM     48  H   LIG d   1       5.703 -10.291  -3.317  0.00  0.00     0.027 H 
BRANCH  46  49
ATOM     49  C   LIG d   1       3.997 -10.827  -4.517  0.00  0.00    -0.020 C 
ATOM     50  H   LIG d   1       3.774  -9.862  -4.971  0.00  0.00     0.032 H 
BRANCH  49  51
ATOM     51  C   LIG d   1       3.629 -11.947  -5.494  0.00  0.00    -0.060 C 
ATOM     52  H   LIG d   1       4.010 -12.896  -5.118  0.00  0.00     0.023 H 
ATOM     53  H   LIG d   1       2.545 -12.003  -5.590  0.00  0.00     0.023 H 
ATOM     54  H   LIG d   1       4.070 -11.738  -6.469  0.00  0.00     0.023 H 
ENDBRANCH  49  51
BRANCH  49  55
ATOM     55  C   LIG d   1       3.186 -10.985  -3.231  0.00  0.00     0.047 C 
ATOM     56  H   LIG d   1       2.570 -11.883  -3.298  0.00  0.00     0.056 H 
ATOM     57  H   LIG d   1       3.864 -11.073  -2.382  0.00  0.00     0.056 H 
BRANCH  55  58
ATOM     58  O   LIG d   1       2.346  -9.843  -3.053  0.00  0.00    -0.395 OA
ATOM     59  H   LIG d   1       2.396  -9.452  -2.169  0.00  0.00     0.209 HD
ENDBRANCH  55  58
ENDBRANCH  49  55
ENDBRANCH  46  49
ENDBRANCH  43  46
ENDBRANCH   2  43
BRANCH   1  60
ATOM     60  C   LIG d   1       4.450  -8.516  -7.031  0.00  0.00    -0.040 C 
ATOM     61  H   LIG d   1       4.872  -8.625  -8.030  0.00  0.00     0.028 H 
ATOM     62  H   LIG d   1       4.033  -9.469  -6.706  0.00  0.00     0.028 H 
ATOM     63  H   LIG d   1       3.663  -7.762  -7.049  0.00  0.00     0.028 H 
ENDBRANCH   1  60
BRANCH   8  64
ATOM     64  C   LIG d   1       6.747  -5.848  -7.880  0.00  0.00    -0.052 C 
ATOM     65  H   LIG d   1       6.388  -6.819  -8.220  0.00  0.00     0.024 H 
ATOM     66  H   LIG d   1       6.490  -5.088  -8.617  0.00  0.00     0.024 H 
ATOM     67  H   LIG d   1       7.830  -5.884  -7.757  0.00  0.00     0.024 H 
ENDBRANCH   8  64
BRANCH  23  68
ATOM     68  C   LIG d   1       5.759  -0.305  -5.671  0.00  0.00    -0.059 C 
ATOM     69  H   LIG d   1       4.815  -0.065  -6.163  0.00  0.00     0.024 H 
ATOM     70  H   LIG d   1       5.841   0.266  -4.746  0.00  0.00     0.024 H 
ATOM     71  H   LIG d   1       6.587  -0.049  -6.331  0.00  0.00     0.024 H 
ENDBRANCH  23  68
BRANCH  19  72
ATOM     72  O   LIG d   1       4.344  -0.888  -1.486  0.00  0.00    -0.392 OA
ATOM     73  H   LIG d   1       5.046  -0.538  -0.921  0.00  0.00     0.210 HD
ENDBRANCH  19  72
TORSDOF 10
ENDMDL
MODEL 6
REMARK VINA RESULT:      -5.9      6.504      8.358
REMARK  10 active torsions:
REMARK  status: ('A' for Active; 'I' for Inactive)
REMARK    1  A    between atoms: C_1  and  C_2 
REMARK    2  A    between atoms: C_3  and  C_33 
REMARK    3  A    between atoms: C_9  and  C_32 
REMARK    4  A    between atoms: C_20  and  O_31 
REMARK    5  A    between atoms: C_24  and  C_30 
REMARK    6  A    between atoms: C_33  and  C_34 
REMARK    7  A    between atoms: C_34  and  C_35 
REMARK    8  A    between atoms: C_35  and  C_37 
REMARK    9  A    between atoms: C_35  and  C_38 
REMARK   10  A    between atoms: C_38  and  O_39 
ROOT
ATOM      1  C   LIG d   1       6.172  -0.626  -6.984  0.00  0.00    -0.028 C 
ATOM      2  C   LIG d   1       5.545  -0.932  -5.832  0.00  0.00     0.098 C 
ATOM      3  O   LIG d   1       4.265  -1.421  -6.070  0.00  0.00    -0.492 OA
ATOM      4  C   LIG d   1       3.887  -0.670  -7.195  0.00  0.00     0.107 C 
ATOM      5  H   LIG d   1       3.889   0.374  -6.881  0.00  0.00     0.074 H 
ATOM      6  C   LIG d   1       5.198  -0.976  -8.041  0.00  0.00     0.033 C 
ATOM      7  H   LIG d   1       5.267  -2.054  -8.250  0.00  0.00     0.039 H 
ATOM      8  C   LIG d   1       4.853  -0.263  -9.298  0.00  0.00     0.039 C 
ATOM      9  C   LIG d   1       3.440  -0.897  -9.545  0.00  0.00    -0.022 C 
ATOM     10  H   LIG d   1       3.628  -1.947  -9.800  0.00  0.00     0.031 H 
ATOM     11  C   LIG d   1       2.766  -0.894  -8.165  0.00  0.00    -0.011 C 
ATOM     12  C   LIG d   1       2.763  -0.228 -10.695  0.00  0.00    -0.034 C 
ATOM     13  H   LIG d   1       2.767   0.869 -10.508  0.00  0.00     0.031 H 
ATOM     14  C   LIG d   1       1.292  -0.598 -10.828  0.00  0.00    -0.049 C 
ATOM     15  C   LIG d   1       1.062  -1.858 -11.654  0.00  0.00    -0.049 C 
ATOM     16  C   LIG d   1       2.354  -2.654 -11.760  0.00  0.00    -0.033 C 
ATOM     17  H   LIG d   1       2.726  -2.853 -10.746  0.00  0.00     0.031 H 
ATOM     18  C   LIG d   1       2.123  -4.019 -12.408  0.00  0.00    -0.024 C 
ATOM     19  C   LIG d   1       3.436  -4.807 -12.355  0.00  0.00     0.056 C 
ATOM     20  H   LIG d   1       3.711  -4.972 -11.311  0.00  0.00     0.059 H 
ATOM     21  C   LIG d   1       4.551  -4.042 -13.060  0.00  0.00    -0.026 C 
ATOM     22  C   LIG d   1       4.724  -2.640 -12.476  0.00  0.00    -0.045 C 
ATOM     23  C   LIG d   1       3.406  -1.868 -12.538  0.00  0.00    -0.026 C 
ATOM     24  C   LIG d   1       3.549  -0.458 -11.983  0.00  0.00    -0.026 C 
ATOM     25  H   LIG d   1       3.112   0.225 -12.747  0.00  0.00     0.031 H 
ATOM     26  C   LIG d   1       5.014  -0.055 -11.846  0.00  0.00     0.010 C 
ATOM     27  C   LIG d   1       5.625  -0.560 -10.550  0.00  0.00     0.140 C 
ATOM     28  O   LIG d   1       6.675  -1.163 -10.519  0.00  0.00    -0.297 OA
ATOM     29  H   LIG d   1       2.279  -1.852  -7.982  0.00  0.00     0.030 H 
ATOM     30  H   LIG d   1       2.037  -0.085  -8.105  0.00  0.00     0.030 H 
ATOM     31  H   LIG d   1       0.867  -0.744  -9.828  0.00  0.00     0.027 H 
ATOM     32  H   LIG d   1       0.757   0.236 -11.297  0.00  0.00     0.027 H 
ATOM     33  H   LIG d   1       0.685  -1.593 -12.639  0.00  0.00     0.027 H 
ATOM     34  H   LIG d   1       0.303  -2.473 -11.155  0.00  0.00     0.027 H 
ATOM     35  H   LIG d   1       1.772  -3.931 -13.426  0.00  0.00     0.029 H 
ATOM     36  H   LIG d   1       1.369  -4.561 -11.823  0.00  0.00     0.029 H 
ATOM     37  H   LIG d   1       4.350  -3.989 -14.129  0.00  0.00     0.029 H 
ATOM     38  H   LIG d   1       5.493  -4.592 -12.926  0.00  0.00     0.029 H 
ATOM     39  H   LIG d   1       5.485  -2.115 -13.056  0.00  0.00     0.027 H 
ATOM     40  H   LIG d   1       5.051  -2.722 -11.439  0.00  0.00     0.027 H 
ATOM     41  H   LIG d   1       5.539  -0.442 -12.605  0.00  0.00     0.035 H 
ATOM     42  H   LIG d   1       5.080   1.039 -11.871  0.00  0.00     0.035 H 
ENDROOT
BRANCH   2  43
ATOM     43  C   LIG d   1       6.147  -0.759  -4.464  0.00  0.00     0.005 C 
ATOM     44  H   LIG d   1       5.926  -1.636  -3.855  0.00  0.00     0.034 H 
ATOM     45  H   LIG d   1       7.227  -0.641  -4.553  0.00  0.00     0.034 H 
BRANCH  43  46
ATOM     46  C   LIG d   1       5.552   0.484  -3.799  0.00  0.00    -0.042 C 
ATOM     47  H   LIG d   1       6.336   1.022  -3.266  0.00  0.00     0.027 H 
ATOM     48  H   LIG d   1       5.120   1.133  -4.561  0.00  0.00     0.027 H 
BRANCH  46  49
ATOM     49  C   LIG d   1       4.462   0.063  -2.812  0.00  0.00    -0.020 C 
ATOM     50  H   LIG d   1       4.562  -1.000  -2.592  0.00  0.00     0.032 H 
BRANCH  49  51
ATOM     51  C   LIG d   1       4.608   0.867  -1.518  0.00  0.00    -0.060 C 
ATOM     52  H   LIG d   1       3.694   1.433  -1.337  0.00  0.00     0.023 H 
ATOM     53  H   LIG d   1       4.785   0.187  -0.685  0.00  0.00     0.023 H 
ATOM     54  H   LIG d   1       5.449   1.554  -1.610  0.00  0.00     0.023 H 
ENDBRANCH  49  51
BRANCH  49  55
ATOM     55  C   LIG d   1       3.087   0.329  -3.425  0.00  0.00     0.047 C 
ATOM     56  H   LIG d   1       2.444   0.806  -2.684  0.00  0.00     0.056 H 
ATOM     57  H   LIG d   1       3.194   0.987  -4.288  0.00  0.00     0.056 H 
BRANCH  55  58
ATOM     58  O   LIG d   1       2.502  -0.907  -3.839  0.00  0.00    -0.395 OA
ATOM     59  H   LIG d   1       2.634  -1.634  -3.215  0.00  0.00     0.209 HD
ENDBRANCH  55  58
ENDBRANCH  49  55
ENDBRANCH  46  49
ENDBRANCH  43  46
ENDBRANCH   2  43
BRANCH   1  60
ATOM     60  C   LIG d   1       7.559  -0.062  -7.142  0.00  0.00    -0.040 C 
ATOM     61  H   LIG d   1       8.273  -0.702  -6.623  0.00  0.00     0.028 H 
ATOM     62  H   LIG d   1       7.815  -0.018  -8.201  0.00  0.00     0.028 H 
ATOM     63  H   LIG d   1       7.594   0.941  -6.718  0.00  0.00     0.028 H 
ENDBRANCH   1  60
BRANCH   8  64
ATOM     64  C   LIG d   1       4.785   1.243  -9.071  0.00  0.00    -0.052 C 
ATOM     65  H   LIG d   1       4.179   1.700  -9.852  0.00  0.00     0.024 H 
ATOM     66  H   LIG d   1       4.337   1.444  -8.099  0.00  0.00     0.024 H 
ATOM     67  H   LIG d   1       5.792   1.660  -9.102  0.00  0.00     0.024 H 
ENDBRANCH   8  64
BRANCH  23  68
ATOM     68  C   LIG d   1       2.979  -1.744 -14.011  0.00  0.00    -0.059 C 
ATOM     69  H   LIG d   1       3.719  -1.156 -14.555  0.00  0.00     0.024 H 
ATOM     70  H   LIG d   1       2.909  -2.738 -14.454  0.00  0.00     0.024 H 
ATOM     71  H   LIG d   1       2.009  -1.251 -14.069  0.00  0.00     0.024 H 
ENDBRANCH  23  68
BRANCH  19  72
ATOM     72  O   LIG d   1       3.249  -6.074 -12.992  0.00  0.00    -0.392 OA
ATOM     73  H   LIG d   1       3.406  -6.062 -13.946  0.00  0.00     0.210 HD
ENDBRANCH  19  72
TORSDOF 10
ENDMDL
MODEL 7
REMARK VINA RESULT:      -5.8      6.211      8.622
REMARK  10 active torsions:
REMARK  status: ('A' for Active; 'I' for Inactive)
REMARK    1  A    between atoms: C_1  and  C_2 
REMARK    2  A    between atoms: C_3  and  C_33 
REMARK    3  A    between atoms: C_9  and  C_32 
REMARK    4  A    between atoms: C_20  and  O_31 
REMARK    5  A    between atoms: C_24  and  C_30 
REMARK    6  A    between atoms: C_33  and  C_34 
REMARK    7  A    between atoms: C_34  and  C_35 
REMARK    8  A    between atoms: C_35  and  C_37 
REMARK    9  A    between atoms: C_35  and  C_38 
REMARK   10  A    between atoms: C_38  and  O_39 
ROOT
ATOM      1  C   LIG d   1       3.161   0.815  -7.936  0.00  0.00    -0.028 C 
ATOM      2  C   LIG d   1       3.160   0.258  -6.710  0.00  0.00     0.098 C 
ATOM      3  O   LIG d   1       3.663  -1.039  -6.747  0.00  0.00    -0.492 OA
ATOM      4  C   LIG d   1       3.202  -1.479  -7.999  0.00  0.00     0.107 C 
ATOM      5  H   LIG d   1       2.114  -1.448  -7.953  0.00  0.00     0.074 H 
ATOM      6  C   LIG d   1       3.737  -0.224  -8.817  0.00  0.00     0.033 C 
ATOM      7  H   LIG d   1       4.835  -0.177  -8.758  0.00  0.00     0.039 H 
ATOM      8  C   LIG d   1       3.346  -0.639 -10.189  0.00  0.00     0.039 C 
ATOM      9  C   LIG d   1       3.988  -2.070 -10.191  0.00  0.00    -0.022 C 
ATOM     10  H   LIG d   1       5.073  -1.908 -10.191  0.00  0.00     0.031 H 
ATOM     11  C   LIG d   1       3.631  -2.659  -8.818  0.00  0.00    -0.011 C 
ATOM     12  C   LIG d   1       3.606  -2.811 -11.430  0.00  0.00    -0.034 C 
ATOM     13  H   LIG d   1       2.496  -2.785 -11.519  0.00  0.00     0.031 H 
ATOM     14  C   LIG d   1       3.962  -4.290 -11.383  0.00  0.00    -0.049 C 
ATOM     15  C   LIG d   1       5.381  -4.580 -11.860  0.00  0.00    -0.049 C 
ATOM     16  C   LIG d   1       6.209  -3.304 -11.840  0.00  0.00    -0.033 C 
ATOM     17  H   LIG d   1       6.162  -2.873 -10.831  0.00  0.00     0.031 H 
ATOM     18  C   LIG d   1       7.684  -3.587 -12.117  0.00  0.00    -0.024 C 
ATOM     19  C   LIG d   1       8.466  -2.280 -11.948  0.00  0.00     0.056 C 
ATOM     20  H   LIG d   1       8.377  -1.943 -10.913  0.00  0.00     0.059 H 
ATOM     21  C   LIG d   1       7.924  -1.203 -12.882  0.00  0.00    -0.026 C 
ATOM     22  C   LIG d   1       6.426  -0.983 -12.671  0.00  0.00    -0.045 C 
ATOM     23  C   LIG d   1       5.662  -2.296 -12.846  0.00  0.00    -0.026 C 
ATOM     24  C   LIG d   1       4.162  -2.107 -12.665  0.00  0.00    -0.026 C 
ATOM     25  H   LIG d   1       3.678  -2.584 -13.547  0.00  0.00     0.031 H 
ATOM     26  C   LIG d   1       3.772  -0.633 -12.714  0.00  0.00     0.010 C 
ATOM     27  C   LIG d   1       3.958   0.052 -11.371  0.00  0.00     0.140 C 
ATOM     28  O   LIG d   1       4.560   1.097 -11.253  0.00  0.00    -0.297 OA
ATOM     29  H   LIG d   1       4.503  -3.142  -8.377  0.00  0.00     0.030 H 
ATOM     30  H   LIG d   1       2.816  -3.376  -8.917  0.00  0.00     0.030 H 
ATOM     31  H   LIG d   1       3.849  -4.654 -10.356  0.00  0.00     0.027 H 
ATOM     32  H   LIG d   1       3.256  -4.846 -12.012  0.00  0.00     0.027 H 
ATOM     33  H   LIG d   1       5.356  -5.015 -12.857  0.00  0.00     0.027 H 
ATOM     34  H   LIG d   1       5.837  -5.313 -11.182  0.00  0.00     0.027 H 
ATOM     35  H   LIG d   1       7.841  -3.998 -13.104  0.00  0.00     0.029 H 
ATOM     36  H   LIG d   1       8.049  -4.308 -11.375  0.00  0.00     0.029 H 
ATOM     37  H   LIG d   1       8.129  -1.468 -13.917  0.00  0.00     0.029 H 
ATOM     38  H   LIG d   1       8.446  -0.260 -12.670  0.00  0.00     0.029 H 
ATOM     39  H   LIG d   1       6.077  -0.254 -13.405  0.00  0.00     0.027 H 
ATOM     40  H   LIG d   1       6.258  -0.594 -11.667  0.00  0.00     0.027 H 
ATOM     41  H   LIG d   1       4.346  -0.159 -13.384  0.00  0.00     0.035 H 
ATOM     42  H   LIG d   1       2.720  -0.559 -13.012  0.00  0.00     0.035 H 
ENDROOT
BRANCH   2  43
ATOM     43  C   LIG d   1       2.671   0.943  -5.464  0.00  0.00     0.005 C 
ATOM     44  H   LIG d   1       3.375   1.726  -5.179  0.00  0.00     0.034 H 
ATOM     45  H   LIG d   1       1.693   1.386  -5.652  0.00  0.00     0.034 H 
BRANCH  43  46
ATOM     46  C   LIG d   1       2.560  -0.078  -4.331  0.00  0.00    -0.042 C 
ATOM     47  H   LIG d   1       1.735   0.196  -3.674  0.00  0.00     0.027 H 
ATOM     48  H   LIG d   1       2.378  -1.068  -4.749  0.00  0.00     0.027 H 
BRANCH  46  49
ATOM     49  C   LIG d   1       3.864  -0.097  -3.530  0.00  0.00    -0.020 C 
ATOM     50  H   LIG d   1       4.668   0.320  -4.136  0.00  0.00     0.032 H 
BRANCH  49  51
ATOM     51  C   LIG d   1       3.694   0.741  -2.260  0.00  0.00    -0.060 C 
ATOM     52  H   LIG d   1       3.087   0.192  -1.542  0.00  0.00     0.023 H 
ATOM     53  H   LIG d   1       4.673   0.946  -1.827  0.00  0.00     0.023 H 
ATOM     54  H   LIG d   1       3.203   1.682  -2.509  0.00  0.00     0.023 H 
ENDBRANCH  49  51
BRANCH  49  55
ATOM     55  C   LIG d   1       4.208  -1.537  -3.148  0.00  0.00     0.047 C 
ATOM     56  H   LIG d   1       5.291  -1.652  -3.101  0.00  0.00     0.056 H 
ATOM     57  H   LIG d   1       3.776  -1.768  -2.174  0.00  0.00     0.056 H 
BRANCH  55  58
ATOM     58  O   LIG d   1       3.676  -2.430  -4.128  0.00  0.00    -0.395 OA
ATOM     59  H   LIG d   1       2.830  -2.145  -4.503  0.00  0.00     0.209 HD
ENDBRANCH  55  58
ENDBRANCH  49  55
ENDBRANCH  46  49
ENDBRANCH  43  46
ENDBRANCH   2  43
BRANCH   1  60
ATOM     60  C   LIG d   1       2.686   2.195  -8.307  0.00  0.00    -0.040 C 
ATOM     61  H   LIG d   1       2.332   2.710  -7.414  0.00  0.00     0.028 H 
ATOM     62  H   LIG d   1       3.510   2.756  -8.748  0.00  0.00     0.028 H 
ATOM     63  H   LIG d   1       1.873   2.117  -9.029  0.00  0.00     0.028 H 
ENDBRANCH   1  60
BRANCH   8  64
ATOM     64  C   LIG d   1       1.829  -0.680 -10.336  0.00  0.00    -0.052 C 
ATOM     65  H   LIG d   1       1.555  -1.449 -11.059  0.00  0.00     0.024 H 
ATOM     66  H   LIG d   1       1.377  -0.910  -9.373  0.00  0.00     0.024 H 
ATOM     67  H   LIG d   1       1.472   0.289 -10.684  0.00  0.00     0.024 H 
ENDBRANCH   8  64
BRANCH  23  68
ATOM     68  C   LIG d   1       5.893  -2.810 -14.277  0.00  0.00    -0.059 C 
ATOM     69  H   LIG d   1       5.071  -2.487 -14.917  0.00  0.00     0.024 H 
ATOM     70  H   LIG d   1       6.832  -2.409 -14.661  0.00  0.00     0.024 H 
ATOM     71  H   LIG d   1       5.940  -3.899 -14.270  0.00  0.00     0.024 H 
ENDBRANCH  23  68
BRANCH  19  72
ATOM     72  O   LIG d   1       9.846  -2.516 -12.241  0.00  0.00    -0.392 OA
ATOM     73  H   LIG d   1      10.257  -3.192 -11.685  0.00  0.00     0.210 HD
ENDBRANCH  19  72
TORSDOF 10
ENDMDL
MODEL 8
REMARK VINA RESULT:      -5.7      5.223      8.456
REMARK  10 active torsions:
REMARK  status: ('A' for Active; 'I' for Inactive)
REMARK    1  A    between atoms: C_1  and  C_2 
REMARK    2  A    between atoms: C_3  and  C_33 
REMARK    3  A    between atoms: C_9  and  C_32 
REMARK    4  A    between atoms: C_20  and  O_31 
REMARK    5  A    between atoms: C_24  and  C_30 
REMARK    6  A    between atoms: C_33  and  C_34 
REMARK    7  A    between atoms: C_34  and  C_35 
REMARK    8  A    between atoms: C_35  and  C_37 
REMARK    9  A    between atoms: C_35  and  C_38 
REMARK   10  A    between atoms: C_38  and  O_39 
ROOT
ATOM      1  C   LIG d   1       6.839  -9.600  -2.828  0.00  0.00    -0.028 C 
ATOM      2  C   LIG d   1       5.662 -10.107  -2.414  0.00  0.00     0.098 C 
ATOM      3  O   LIG d   1       5.813 -10.830  -1.235  0.00  0.00    -0.492 OA
ATOM      4  C   LIG d   1       7.087 -11.393  -1.417  0.00  0.00     0.107 C 
ATOM      5  H   LIG d   1       7.017 -12.031  -2.298  0.00  0.00     0.074 H 
ATOM      6  C   LIG d   1       7.812 -10.030  -1.800  0.00  0.00     0.033 C 
ATOM      7  H   LIG d   1       7.770  -9.332  -0.951  0.00  0.00     0.039 H 
ATOM      8  C   LIG d   1       9.205 -10.526  -1.949  0.00  0.00     0.039 C 
ATOM      9  C   LIG d   1       9.334 -11.272  -0.576  0.00  0.00    -0.022 C 
ATOM     10  H   LIG d   1       9.342 -10.486   0.189  0.00  0.00     0.031 H 
ATOM     11  C   LIG d   1       8.006 -12.028  -0.417  0.00  0.00    -0.011 C 
ATOM     12  C   LIG d   1      10.621 -12.027  -0.513  0.00  0.00    -0.034 C 
ATOM     13  H   LIG d   1      10.686 -12.674  -1.417  0.00  0.00     0.031 H 
ATOM     14  C   LIG d   1      10.700 -12.988   0.665  0.00  0.00    -0.049 C 
ATOM     15  C   LIG d   1      11.226 -12.335   1.938  0.00  0.00    -0.049 C 
ATOM     16  C   LIG d   1      11.120 -10.821   1.829  0.00  0.00    -0.033 C 
ATOM     17  H   LIG d   1      10.078 -10.560   1.596  0.00  0.00     0.031 H 
ATOM     18  C   LIG d   1      11.448 -10.137   3.155  0.00  0.00    -0.024 C 
ATOM     19  C   LIG d   1      11.189  -8.634   3.000  0.00  0.00     0.056 C 
ATOM     20  H   LIG d   1      10.128  -8.475   2.792  0.00  0.00     0.059 H 
ATOM     21  C   LIG d   1      12.023  -8.060   1.860  0.00  0.00    -0.026 C 
ATOM     22  C   LIG d   1      11.766  -8.803   0.549  0.00  0.00    -0.045 C 
ATOM     23  C   LIG d   1      12.031 -10.299   0.721  0.00  0.00    -0.026 C 
ATOM     24  C   LIG d   1      11.806 -11.067  -0.573  0.00  0.00    -0.026 C 
ATOM     25  H   LIG d   1      12.714 -11.693  -0.728  0.00  0.00     0.031 H 
ATOM     26  C   LIG d   1      11.729 -10.130  -1.775  0.00  0.00     0.010 C 
ATOM     27  C   LIG d   1      10.339  -9.544  -1.954  0.00  0.00     0.140 C 
ATOM     28  O   LIG d   1      10.149  -8.356  -2.097  0.00  0.00    -0.297 OA
ATOM     29  H   LIG d   1       7.623 -11.906   0.596  0.00  0.00     0.030 H 
ATOM     30  H   LIG d   1       8.147 -13.086  -0.640  0.00  0.00     0.030 H 
ATOM     31  H   LIG d   1       9.704 -13.400   0.860  0.00  0.00     0.027 H 
ATOM     32  H   LIG d   1      11.358 -13.824   0.398  0.00  0.00     0.027 H 
ATOM     33  H   LIG d   1      12.254 -12.643   2.117  0.00  0.00     0.027 H 
ATOM     34  H   LIG d   1      10.618 -12.676   2.786  0.00  0.00     0.027 H 
ATOM     35  H   LIG d   1      12.467 -10.318   3.464  0.00  0.00     0.029 H 
ATOM     36  H   LIG d   1      10.773 -10.527   3.927  0.00  0.00     0.029 H 
ATOM     37  H   LIG d   1      13.080  -8.091   2.117  0.00  0.00     0.029 H 
ATOM     38  H   LIG d   1      11.746  -7.005   1.720  0.00  0.00     0.029 H 
ATOM     39  H   LIG d   1      12.432  -8.397  -0.215  0.00  0.00     0.027 H 
ATOM     40  H   LIG d   1      10.730  -8.648   0.246  0.00  0.00     0.027 H 
ATOM     41  H   LIG d   1      12.369  -9.371  -1.648  0.00  0.00     0.035 H 
ATOM     42  H   LIG d   1      11.999 -10.693  -2.676  0.00  0.00     0.035 H 
ENDROOT
BRANCH   2  43
ATOM     43  C   LIG d   1       4.355  -9.925  -3.136  0.00  0.00     0.005 C 
ATOM     44  H   LIG d   1       3.608  -9.536  -2.444  0.00  0.00     0.034 H 
ATOM     45  H   LIG d   1       4.489  -9.221  -3.958  0.00  0.00     0.034 H 
BRANCH  43  46
ATOM     46  C   LIG d   1       3.886 -11.271  -3.689  0.00  0.00    -0.042 C 
ATOM     47  H   LIG d   1       4.322 -12.078  -3.099  0.00  0.00     0.027 H 
ATOM     48  H   LIG d   1       2.799 -11.328  -3.635  0.00  0.00     0.027 H 
BRANCH  46  49
ATOM     49  C   LIG d   1       4.330 -11.408  -5.147  0.00  0.00    -0.020 C 
ATOM     50  H   LIG d   1       4.411 -10.419  -5.596  0.00  0.00     0.032 H 
BRANCH  49  51
ATOM     51  C   LIG d   1       5.691 -12.107  -5.201  0.00  0.00    -0.060 C 
ATOM     52  H   LIG d   1       6.101 -12.183  -4.195  0.00  0.00     0.023 H 
ATOM     53  H   LIG d   1       5.570 -13.106  -5.620  0.00  0.00     0.023 H 
ATOM     54  H   LIG d   1       6.371 -11.530  -5.829  0.00  0.00     0.023 H 
ENDBRANCH  49  51
BRANCH  49  55
ATOM     55  C   LIG d   1       3.301 -12.236  -5.918  0.00  0.00     0.047 C 
ATOM     56  H   LIG d   1       3.352 -13.275  -5.591  0.00  0.00     0.056 H 
ATOM     57  H   LIG d   1       2.302 -11.844  -5.728  0.00  0.00     0.056 H 
BRANCH  55  58
ATOM     58  O   LIG d   1       3.582 -12.162  -7.317  0.00  0.00    -0.395 OA
ATOM     59  H   LIG d   1       3.062 -11.495  -7.788  0.00  0.00     0.209 HD
ENDBRANCH  55  58
ENDBRANCH  49  55
ENDBRANCH  46  49
ENDBRANCH  43  46
ENDBRANCH   2  43
BRANCH   1  60
ATOM     60  C   LIG d   1       7.089  -8.773  -4.061  0.00  0.00    -0.040 C 
ATOM     61  H   LIG d   1       7.285  -7.740  -3.773  0.00  0.00     0.028 H 
ATOM     62  H   LIG d   1       7.951  -9.171  -4.596  0.00  0.00     0.028 H 
ATOM     63  H   LIG d   1       6.212  -8.809  -4.707  0.00  0.00     0.028 H 
ENDBRANCH   1  60
BRANCH   8  64
ATOM     64  C   LIG d   1       9.326 -11.469  -3.140  0.00  0.00    -0.052 C 
ATOM     65  H   LIG d   1       8.352 -11.577  -3.617  0.00  0.00     0.024 H 
ATOM     66  H   LIG d   1      10.037 -11.060  -3.856  0.00  0.00     0.024 H 
ATOM     67  H   LIG d   1       9.672 -12.443  -2.797  0.00  0.00     0.024 H 
ENDBRANCH   8  64
BRANCH  23  68
ATOM     68  C   LIG d   1      13.503 -10.492   1.124  0.00  0.00    -0.059 C 
ATOM     69  H   LIG d   1      13.624 -10.261   2.183  0.00  0.00     0.024 H 
ATOM     70  H   LIG d   1      13.797 -11.526   0.942  0.00  0.00     0.024 H 
ATOM     71  H   LIG d   1      14.132  -9.826   0.533  0.00  0.00     0.024 H 
ENDBRANCH  23  68
BRANCH  19  72
ATOM     72  O   LIG d   1      11.527  -7.971   4.221  0.00  0.00    -0.392 OA
ATOM     73  H   LIG d   1      12.416  -7.591   4.230  0.00  0.00     0.210 HD
ENDBRANCH  19  72
TORSDOF 10
ENDMDL
MODEL 9
REMARK VINA RESULT:      -5.7     12.404     14.847
REMARK  10 active torsions:
REMARK  status: ('A' for Active; 'I' for Inactive)
REMARK    1  A    between atoms: C_1  and  C_2 
REMARK    2  A    between atoms: C_3  and  C_33 
REMARK    3  A    between atoms: C_9  and  C_32 
REMARK    4  A    between atoms: C_20  and  O_31 
REMARK    5  A    between atoms: C_24  and  C_30 
REMARK    6  A    between atoms: C_33  and  C_34 
REMARK    7  A    between atoms: C_34  and  C_35 
REMARK    8  A    between atoms: C_35  and  C_37 
REMARK    9  A    between atoms: C_35  and  C_38 
REMARK   10  A    between atoms: C_38  and  O_39 
ROOT
ATOM      1  C   LIG d   1      11.397   6.218  -7.067  0.00  0.00    -0.028 C 
ATOM      2  C   LIG d   1      11.223   7.378  -7.729  0.00  0.00     0.098 C 
ATOM      3  O   LIG d   1      10.997   8.430  -6.847  0.00  0.00    -0.492 OA
ATOM      4  C   LIG d   1      10.269   7.788  -5.832  0.00  0.00     0.107 C 
ATOM      5  H   LIG d   1       9.354   7.422  -6.295  0.00  0.00     0.074 H 
ATOM      6  C   LIG d   1      11.290   6.584  -5.638  0.00  0.00     0.033 C 
ATOM      7  H   LIG d   1      12.262   6.968  -5.292  0.00  0.00     0.039 H 
ATOM      8  C   LIG d   1      10.624   5.874  -4.516  0.00  0.00     0.039 C 
ATOM      9  C   LIG d   1      10.453   7.089  -3.540  0.00  0.00    -0.022 C 
ATOM     10  H   LIG d   1      11.467   7.350  -3.212  0.00  0.00     0.031 H 
ATOM     11  C   LIG d   1       9.970   8.241  -4.434  0.00  0.00    -0.011 C 
ATOM     12  C   LIG d   1       9.643   6.692  -2.351  0.00  0.00    -0.034 C 
ATOM     13  H   LIG d   1       8.695   6.236  -2.716  0.00  0.00     0.031 H 
ATOM     14  C   LIG d   1       9.206   7.873  -1.496  0.00  0.00    -0.049 C 
ATOM     15  C   LIG d   1      10.236   8.264  -0.442  0.00  0.00    -0.049 C 
ATOM     16  C   LIG d   1      11.593   7.674  -0.795  0.00  0.00    -0.033 C 
ATOM     17  H   LIG d   1      11.859   7.994  -1.812  0.00  0.00     0.031 H 
ATOM     18  C   LIG d   1      12.693   8.204   0.122  0.00  0.00    -0.024 C 
ATOM     19  C   LIG d   1      14.039   7.671  -0.380  0.00  0.00     0.056 C 
ATOM     20  H   LIG d   1      14.223   8.058  -1.385  0.00  0.00     0.059 H 
ATOM     21  C   LIG d   1      14.035   6.147  -0.415  0.00  0.00    -0.026 C 
ATOM     22  C   LIG d   1      12.878   5.610  -1.258  0.00  0.00    -0.045 C 
ATOM     23  C   LIG d   1      11.544   6.150  -0.742  0.00  0.00    -0.026 C 
ATOM     24  C   LIG d   1      10.368   5.616  -1.547  0.00  0.00    -0.026 C 
ATOM     25  H   LIG d   1       9.634   5.225  -0.806  0.00  0.00     0.031 H 
ATOM     26  C   LIG d   1      10.773   4.425  -2.410  0.00  0.00     0.010 C 
ATOM     27  C   LIG d   1      11.396   4.859  -3.725  0.00  0.00     0.140 C 
ATOM     28  O   LIG d   1      12.450   4.414  -4.122  0.00  0.00    -0.297 OA
ATOM     29  H   LIG d   1      10.514   9.156  -4.197  0.00  0.00     0.030 H 
ATOM     30  H   LIG d   1       8.899   8.396  -4.300  0.00  0.00     0.030 H 
ATOM     31  H   LIG d   1       9.015   8.735  -2.145  0.00  0.00     0.027 H 
ATOM     32  H   LIG d   1       8.264   7.621  -0.994  0.00  0.00     0.027 H 
ATOM     33  H   LIG d   1       9.908   7.930   0.540  0.00  0.00     0.027 H 
ATOM     34  H   LIG d   1      10.317   9.359  -0.417  0.00  0.00     0.027 H 
ATOM     35  H   LIG d   1      12.533   7.922   1.153  0.00  0.00     0.029 H 
ATOM     36  H   LIG d   1      12.708   9.299   0.057  0.00  0.00     0.029 H 
ATOM     37  H   LIG d   1      13.987   5.749   0.597  0.00  0.00     0.029 H 
ATOM     38  H   LIG d   1      14.978   5.804  -0.863  0.00  0.00     0.029 H 
ATOM     39  H   LIG d   1      12.882   4.520  -1.197  0.00  0.00     0.027 H 
ATOM     40  H   LIG d   1      13.019   5.915  -2.295  0.00  0.00     0.027 H 
ATOM     41  H   LIG d   1      11.446   3.871  -1.919  0.00  0.00     0.035 H 
ATOM     42  H   LIG d   1       9.880   3.823  -2.617  0.00  0.00     0.035 H 
ENDROOT
BRANCH   2  43
ATOM     43  C   LIG d   1      11.258   7.518  -9.226  0.00  0.00     0.005 C 
ATOM     44  H   LIG d   1      11.748   8.455  -9.492  0.00  0.00     0.034 H 
ATOM     45  H   LIG d   1      11.811   6.684  -9.657  0.00  0.00     0.034 H 
BRANCH  43  46
ATOM     46  C   LIG d   1       9.829   7.519  -9.771  0.00  0.00    -0.042 C 
ATOM     47  H   LIG d   1       9.129   7.710  -8.957  0.00  0.00     0.027 H 
ATOM     48  H   LIG d   1       9.728   8.297 -10.528  0.00  0.00     0.027 H 
BRANCH  46  49
ATOM     49  C   LIG d   1       9.521   6.158 -10.398  0.00  0.00    -0.020 C 
ATOM     50  H   LIG d   1      10.418   5.539 -10.381  0.00  0.00     0.032 H 
BRANCH  49  51
ATOM     51  C   LIG d   1       8.410   5.469  -9.602  0.00  0.00    -0.060 C 
ATOM     52  H   LIG d   1       8.723   5.359  -8.564  0.00  0.00     0.023 H 
ATOM     53  H   LIG d   1       7.504   6.072  -9.646  0.00  0.00     0.023 H 
ATOM     54  H   LIG d   1       8.214   4.485 -10.029  0.00  0.00     0.023 H 
ENDBRANCH  49  51
BRANCH  49  55
ATOM     55  C   LIG d   1       9.064   6.353 -11.845  0.00  0.00     0.047 C 
ATOM     56  H   LIG d   1       9.761   5.853 -12.517  0.00  0.00     0.056 H 
ATOM     57  H   LIG d   1       8.068   5.929 -11.972  0.00  0.00     0.056 H 
BRANCH  55  58
ATOM     58  O   LIG d   1       9.028   7.749 -12.148  0.00  0.00    -0.395 OA
ATOM     59  H   LIG d   1       8.136   8.099 -12.288  0.00  0.00     0.209 HD
ENDBRANCH  55  58
ENDBRANCH  49  55
ENDBRANCH  46  49
ENDBRANCH  43  46
ENDBRANCH   2  43
BRANCH   1  60
ATOM     60  C   LIG d   1      11.653   4.861  -7.666  0.00  0.00    -0.040 C 
ATOM     61  H   LIG d   1      10.733   4.276  -7.649  0.00  0.00     0.028 H 
ATOM     62  H   LIG d   1      11.991   4.976  -8.696  0.00  0.00     0.028 H 
ATOM     63  H   LIG d   1      12.421   4.347  -7.088  0.00  0.00     0.028 H 
ENDBRANCH   1  60
BRANCH   8  64
ATOM     64  C   LIG d   1       9.288   5.287  -4.957  0.00  0.00    -0.052 C 
ATOM     65  H   LIG d   1       9.463   4.371  -5.521  0.00  0.00     0.024 H 
ATOM     66  H   LIG d   1       8.683   5.063  -4.079  0.00  0.00     0.024 H 
ATOM     67  H   LIG d   1       8.766   6.007  -5.586  0.00  0.00     0.024 H 
ENDBRANCH   8  64
BRANCH  23  68
ATOM     68  C   LIG d   1      11.358   5.685   0.713  0.00  0.00    -0.059 C 
ATOM     69  H   LIG d   1      10.778   6.429   1.260  0.00  0.00     0.024 H 
ATOM     70  H   LIG d   1      10.830   4.731   0.726  0.00  0.00     0.024 H 
ATOM     71  H   LIG d   1      12.334   5.567   1.185  0.00  0.00     0.024 H 
ENDBRANCH  23  68
BRANCH  19  72
ATOM     72  O   LIG d   1      15.079   8.127   0.491  0.00  0.00    -0.392 OA
ATOM     73  H   LIG d   1      15.519   8.933   0.190  0.00  0.00     0.210 HD
ENDBRANCH  19  72
TORSDOF 10
ENDMDL
MODEL 10
REMARK VINA RESULT:      -5.6      3.346      7.958
REMARK  10 active torsions:
REMARK  status: ('A' for Active; 'I' for Inactive)
REMARK    1  A    between atoms: C_1  and  C_2 
REMARK    2  A    between atoms: C_3  and  C_33 
REMARK    3  A    between atoms: C_9  and  C_32 
REMARK    4  A    between atoms: C_20  and  O_31 
REMARK    5  A    between atoms: C_24  and  C_30 
REMARK    6  A    between atoms: C_33  and  C_34 
REMARK    7  A    between atoms: C_34  and  C_35 
REMARK    8  A    between atoms: C_35  and  C_37 
REMARK    9  A    between atoms: C_35  and  C_38 
REMARK   10  A    between atoms: C_38  and  O_39 
ROOT
ATOM      1  C   LIG d   1       9.681  -8.192  -2.450  0.00  0.00    -0.028 C 
ATOM      2  C   LIG d   1      10.240  -7.913  -1.256  0.00  0.00     0.098 C 
ATOM      3  O   LIG d   1      10.223  -6.546  -1.001  0.00  0.00    -0.492 OA
ATOM      4  C   LIG d   1      10.408  -6.021  -2.290  0.00  0.00     0.107 C 
ATOM      5  H   LIG d   1      11.381  -6.376  -2.629  0.00  0.00     0.074 H 
ATOM      6  C   LIG d   1       9.257  -6.877  -2.979  0.00  0.00     0.033 C 
ATOM      7  H   LIG d   1       8.282  -6.613  -2.545  0.00  0.00     0.039 H 
ATOM      8  C   LIG d   1       9.336  -6.332  -4.359  0.00  0.00     0.039 C 
ATOM      9  C   LIG d   1       9.251  -4.805  -4.010  0.00  0.00    -0.022 C 
ATOM     10  H   LIG d   1       8.229  -4.641  -3.646  0.00  0.00     0.031 H 
ATOM     11  C   LIG d   1      10.182  -4.630  -2.801  0.00  0.00    -0.011 C 
ATOM     12  C   LIG d   1       9.472  -3.978  -5.233  0.00  0.00    -0.034 C 
ATOM     13  H   LIG d   1      10.425  -4.308  -5.705  0.00  0.00     0.031 H 
ATOM     14  C   LIG d   1       9.672  -2.499  -4.934  0.00  0.00    -0.049 C 
ATOM     15  C   LIG d   1       8.365  -1.719  -4.859  0.00  0.00    -0.049 C 
ATOM     16  C   LIG d   1       7.198  -2.676  -4.665  0.00  0.00    -0.033 C 
ATOM     17  H   LIG d   1       7.396  -3.293  -3.778  0.00  0.00     0.031 H 
ATOM     18  C   LIG d   1       5.897  -1.927  -4.385  0.00  0.00    -0.024 C 
ATOM     19  C   LIG d   1       4.805  -2.956  -4.070  0.00  0.00     0.056 C 
ATOM     20  H   LIG d   1       5.081  -3.502  -3.165  0.00  0.00     0.059 H 
ATOM     21  C   LIG d   1       4.641  -3.937  -5.226  0.00  0.00    -0.026 C 
ATOM     22  C   LIG d   1       5.964  -4.621  -5.571  0.00  0.00    -0.045 C 
ATOM     23  C   LIG d   1       7.039  -3.581  -5.884  0.00  0.00    -0.026 C 
ATOM     24  C   LIG d   1       8.365  -4.230  -6.254  0.00  0.00    -0.026 C 
ATOM     25  H   LIG d   1       8.695  -3.751  -7.204  0.00  0.00     0.031 H 
ATOM     26  C   LIG d   1       8.195  -5.714  -6.567  0.00  0.00     0.010 C 
ATOM     27  C   LIG d   1       8.199  -6.566  -5.309  0.00  0.00     0.140 C 
ATOM     28  O   LIG d   1       7.342  -7.392  -5.082  0.00  0.00    -0.297 OA
ATOM     29  H   LIG d   1       9.702  -4.011  -2.043  0.00  0.00     0.030 H 
ATOM     30  H   LIG d   1      11.123  -4.177  -3.114  0.00  0.00     0.030 H 
ATOM     31  H   LIG d   1      10.207  -2.395  -3.983  0.00  0.00     0.027 H 
ATOM     32  H   LIG d   1      10.302  -2.060  -5.718  0.00  0.00     0.027 H 
ATOM     33  H   LIG d   1       8.235  -1.123  -5.759  0.00  0.00     0.027 H 
ATOM     34  H   LIG d   1       8.412  -1.035  -4.002  0.00  0.00     0.027 H 
ATOM     35  H   LIG d   1       5.601  -1.301  -5.215  0.00  0.00     0.029 H 
ATOM     36  H   LIG d   1       6.040  -1.293  -3.501  0.00  0.00     0.029 H 
ATOM     37  H   LIG d   1       4.237  -3.424  -6.097  0.00  0.00     0.029 H 
ATOM     38  H   LIG d   1       3.918  -4.709  -4.930  0.00  0.00     0.029 H 
ATOM     39  H   LIG d   1       5.806  -5.260  -6.442  0.00  0.00     0.027 H 
ATOM     40  H   LIG d   1       6.282  -5.233  -4.726  0.00  0.00     0.027 H 
ATOM     41  H   LIG d   1       7.322  -5.858  -7.034  0.00  0.00     0.035 H 
ATOM     42  H   LIG d   1       9.018  -6.032  -7.218  0.00  0.00     0.035 H 
ENDROOT
BRANCH   2  43
ATOM     43  C   LIG d   1      10.816  -8.944  -0.325  0.00  0.00     0.005 C 
ATOM     44  H   LIG d   1      10.009  -9.429   0.225  0.00  0.00     0.034 H 
ATOM     45  H   LIG d   1      11.363  -9.690  -0.901  0.00  0.00     0.034 H 
BRANCH  43  46
ATOM     46  C   LIG d   1      11.766  -8.264   0.662  0.00  0.00    -0.042 C 
ATOM     47  H   LIG d   1      12.763  -8.694   0.563  0.00  0.00     0.027 H 
ATOM     48  H   LIG d   1      11.808  -7.196   0.450  0.00  0.00     0.027 H 
BRANCH  46  49
ATOM     49  C   LIG d   1      11.259  -8.479   2.090  0.00  0.00    -0.020 C 
ATOM     50  H   LIG d   1      10.351  -7.897   2.244  0.00  0.00     0.032 H 
BRANCH  49  51
ATOM     51  C   LIG d   1      10.956  -9.964   2.305  0.00  0.00    -0.060 C 
ATOM     52  H   LIG d   1      11.686 -10.388   2.994  0.00  0.00     0.023 H 
ATOM     53  H   LIG d   1       9.956 -10.074   2.724  0.00  0.00     0.023 H 
ATOM     54  H   LIG d   1      11.009 -10.488   1.350  0.00  0.00     0.023 H 
ENDBRANCH  49  51
BRANCH  49  55
ATOM     55  C   LIG d   1      12.329  -8.028   3.085  0.00  0.00     0.047 C 
ATOM     56  H   LIG d   1      13.181  -8.706   3.035  0.00  0.00     0.056 H 
ATOM     57  H   LIG d   1      12.654  -7.018   2.837  0.00  0.00     0.056 H 
BRANCH  55  58
ATOM     58  O   LIG d   1      11.786  -8.041   4.407  0.00  0.00    -0.395 OA
ATOM     59  H   LIG d   1      10.888  -8.399   4.461  0.00  0.00     0.209 HD
ENDBRANCH  55  58
ENDBRANCH  49  55
ENDBRANCH  46  49
ENDBRANCH  43  46
ENDBRANCH   2  43
BRANCH   1  60
ATOM     60  C   LIG d   1       9.522  -9.549  -3.084  0.00  0.00    -0.040 C 
ATOM     61  H   LIG d   1       8.614 -10.021  -2.709  0.00  0.00     0.028 H 
ATOM     62  H   LIG d   1       9.454  -9.438  -4.166  0.00  0.00     0.028 H 
ATOM     63  H   LIG d   1      10.383 -10.169  -2.835  0.00  0.00     0.028 H 
ENDBRANCH   1  60
BRANCH   8  64
ATOM     64  C   LIG d   1      10.656  -6.707  -5.021  0.00  0.00    -0.052 C 
ATOM     65  H   LIG d   1      10.485  -7.501  -5.747  0.00  0.00     0.024 H 
ATOM     66  H   LIG d   1      11.069  -5.835  -5.527  0.00  0.00     0.024 H 
ATOM     67  H   LIG d   1      11.357  -7.053  -4.261  0.00  0.00     0.024 H 
ENDBRANCH   8  64
BRANCH  23  68
ATOM     68  C   LIG d   1       6.579  -2.749  -7.093  0.00  0.00    -0.059 C 
ATOM     69  H   LIG d   1       5.520  -2.933  -7.279  0.00  0.00     0.024 H 
ATOM     70  H   LIG d   1       6.732  -1.689  -6.886  0.00  0.00     0.024 H 
ATOM     71  H   LIG d   1       7.157  -3.034  -7.973  0.00  0.00     0.024 H 
ENDBRANCH  23  68
BRANCH  19  72
ATOM     72  O   LIG d   1       3.569  -2.274  -3.842  0.00  0.00    -0.392 OA
ATOM     73  H   LIG d   1       3.055  -2.627  -3.104  0.00  0.00     0.210 HD
ENDBRANCH  19  72
TORSDOF 10
ENDMDL
