MODEL 1
REMARK VINA RESULT:      -7.7      0.000      0.000
REMARK  12 active torsions:
REMARK  status: ('A' for Active; 'I' for Inactive)
REMARK    1  A    between atoms: C_1  and  O_2 
REMARK    2  A    between atoms: O_2  and  C_3 
REMARK    3  A    between atoms: C_7  and  C_10 
REMARK    4  A    between atoms: C_8  and  O_9 
REMARK    5  A    between atoms: N_11  and  C_12 
REMARK    6  A    between atoms: C_13  and  C_29 
REMARK    7  A    between atoms: C_14  and  N_18 
REMARK    8  A    between atoms: C_19  and  C_20 
REMARK    9  A    between atoms: C_24  and  O_27 
REMARK   10  A    between atoms: C_25  and  O_26 
REMARK   11  A    between atoms: O_27  and  C_28 
REMARK   12  A    between atoms: C_29  and  C_30 
ROOT
ATOM      1  C   LIG d   1       4.321  -3.524  -6.992  0.00  0.00     0.154 A 
ATOM      2  C   LIG d   1       4.960  -4.260  -6.018  0.00  0.00     0.046 A 
ATOM      3  C   LIG d   1       4.359  -5.533  -5.986  0.00  0.00     0.179 A 
ATOM      4  N   LIG d   1       3.405  -5.565  -6.896  0.00  0.00    -0.152 NA
ATOM      5  N   LIG d   1       3.354  -4.321  -7.537  0.00  0.00    -0.258 N 
ATOM      6  H   LIG d   1       2.742  -4.070  -8.246  0.00  0.00     0.191 HD
ENDROOT
BRANCH   1   7
ATOM      7  N   LIG d   1       4.599  -2.238  -7.343  0.00  0.00    -0.236 NA
ATOM      8  C   LIG d   1       3.764  -1.570  -8.092  0.00  0.00     0.041 C 
ATOM      9  H   LIG d   1       2.852  -2.039  -8.433  0.00  0.00     0.084 H 
BRANCH   8  10
ATOM     10  C   LIG d   1       4.063  -0.183  -8.470  0.00  0.00     0.038 A 
ATOM     11  C   LIG d   1       3.066   0.798  -8.399  0.00  0.00    -0.049 A 
ATOM     12  C   LIG d   1       3.353   2.097  -8.755  0.00  0.00    -0.058 A 
ATOM     13  H   LIG d   1       2.074   0.535  -8.065  0.00  0.00     0.062 H 
ATOM     14  C   LIG d   1       4.624   2.443  -9.184  0.00  0.00    -0.016 A 
ATOM     15  H   LIG d   1       2.582   2.852  -8.699  0.00  0.00     0.062 H 
ATOM     16  C   LIG d   1       5.622   1.484  -9.259  0.00  0.00     0.162 A 
ATOM     17  H   LIG d   1       4.838   3.464  -9.460  0.00  0.00     0.066 H 
ATOM     18  C   LIG d   1       5.349   0.166  -8.910  0.00  0.00     0.167 A 
BRANCH  16  19
ATOM     19  O   LIG d   1       6.867   1.832  -9.681  0.00  0.00    -0.491 OA
BRANCH  19  20
ATOM     20  C   LIG d   1       7.755   2.376  -8.703  0.00  0.00     0.079 C 
ATOM     21  H   LIG d   1       8.757   2.454  -9.124  0.00  0.00     0.066 H 
ATOM     22  H   LIG d   1       7.408   3.366  -8.408  0.00  0.00     0.066 H 
ATOM     23  H   LIG d   1       7.778   1.723  -7.830  0.00  0.00     0.066 H 
ENDBRANCH  19  20
ENDBRANCH  16  19
BRANCH  18  24
ATOM     24  O   LIG d   1       6.323  -0.777  -8.989  0.00  0.00    -0.503 OA
ATOM     25  H   LIG d   1       6.090  -1.618  -8.573  0.00  0.00     0.292 HD
ENDBRANCH  18  24
ENDBRANCH   8  10
ENDBRANCH   1   7
BRANCH   2  26
ATOM     26  C   LIG d   1       6.094  -3.789  -5.145  0.00  0.00     0.005 C 
ATOM     27  H   LIG d   1       6.432  -4.611  -4.513  0.00  0.00     0.036 H 
ATOM     28  H   LIG d   1       6.919  -3.452  -5.773  0.00  0.00     0.036 H 
BRANCH  26  29
ATOM     29  C   LIG d   1       5.623  -2.650  -4.279  0.00  0.00    -0.043 A 
ATOM     30  C   LIG d   1       6.309  -1.450  -4.284  0.00  0.00    -0.057 A 
ATOM     31  C   LIG d   1       5.876  -0.402  -3.493  0.00  0.00    -0.043 A 
ATOM     32  H   LIG d   1       7.182  -1.329  -4.908  0.00  0.00     0.062 H 
ATOM     33  C   LIG d   1       4.761  -0.559  -2.688  0.00  0.00     0.041 A 
ATOM     34  H   LIG d   1       6.409   0.537  -3.500  0.00  0.00     0.063 H 
ATOM     35  C   LIG d   1       4.078  -1.762  -2.680  0.00  0.00    -0.043 A 
ATOM     36 CL   LIG d   1       4.219   0.755  -1.690  0.00  0.00    -0.084 Cl
ATOM     37  C   LIG d   1       4.509  -2.807  -3.475  0.00  0.00    -0.057 A 
ATOM     38  H   LIG d   1       3.208  -1.885  -2.052  0.00  0.00     0.063 H 
ATOM     39  H   LIG d   1       3.977  -3.746  -3.469  0.00  0.00     0.062 H 
ENDBRANCH  26  29
ENDBRANCH   2  26
BRANCH   3  40
ATOM     40  N   LIG d   1       4.707  -6.562  -5.153  0.00  0.00    -0.234 NA
ATOM     41  C   LIG d   1       4.852  -7.766  -5.629  0.00  0.00     0.041 C 
ATOM     42  H   LIG d   1       4.698  -7.952  -6.682  0.00  0.00     0.084 H 
BRANCH  41  43
ATOM     43  C   LIG d   1       5.225  -8.872  -4.734  0.00  0.00     0.038 A 
ATOM     44  C   LIG d   1       6.516  -8.932  -4.190  0.00  0.00     0.167 A 
ATOM     45  C   LIG d   1       6.855  -9.979  -3.340  0.00  0.00     0.162 A 
ATOM     46  C   LIG d   1       5.925 -10.962  -3.044  0.00  0.00    -0.016 A 
ATOM     47  C   LIG d   1       4.651 -10.906  -3.586  0.00  0.00    -0.058 A 
ATOM     48  H   LIG d   1       6.194 -11.776  -2.387  0.00  0.00     0.066 H 
ATOM     49  C   LIG d   1       4.297  -9.872  -4.425  0.00  0.00    -0.049 A 
ATOM     50  H   LIG d   1       3.932 -11.676  -3.349  0.00  0.00     0.062 H 
ATOM     51  H   LIG d   1       3.302  -9.833  -4.844  0.00  0.00     0.062 H 
BRANCH  44  52
ATOM     52  O   LIG d   1       7.427  -7.971  -4.487  0.00  0.00    -0.503 OA
ATOM     53  H   LIG d   1       8.346  -8.268  -4.430  0.00  0.00     0.292 HD
ENDBRANCH  44  52
BRANCH  45  54
ATOM     54  O   LIG d   1       8.104 -10.040  -2.803  0.00  0.00    -0.491 OA
BRANCH  54  55
ATOM     55  C   LIG d   1       8.220  -9.787  -1.401  0.00  0.00     0.079 C 
ATOM     56  H   LIG d   1       9.041  -9.092  -1.224  0.00  0.00     0.066 H 
ATOM     57  H   LIG d   1       7.291  -9.350  -1.032  0.00  0.00     0.066 H 
ATOM     58  H   LIG d   1       8.415 -10.722  -0.877  0.00  0.00     0.066 H 
ENDBRANCH  54  55
ENDBRANCH  45  54
ENDBRANCH  41  43
ENDBRANCH   3  40
TORSDOF 12
ENDMDL
MODEL 2
REMARK VINA RESULT:      -6.7      2.799      9.403
REMARK  12 active torsions:
REMARK  status: ('A' for Active; 'I' for Inactive)
REMARK    1  A    between atoms: C_1  and  O_2 
REMARK    2  A    between atoms: O_2  and  C_3 
REMARK    3  A    between atoms: C_7  and  C_10 
REMARK    4  A    between atoms: C_8  and  O_9 
REMARK    5  A    between atoms: N_11  and  C_12 
REMARK    6  A    between atoms: C_13  and  C_29 
REMARK    7  A    between atoms: C_14  and  N_18 
REMARK    8  A    between atoms: C_19  and  C_20 
REMARK    9  A    between atoms: C_24  and  O_27 
REMARK   10  A    between atoms: C_25  and  O_26 
REMARK   11  A    between atoms: O_27  and  C_28 
REMARK   12  A    between atoms: C_29  and  C_30 
ROOT
ATOM      1  C   LIG d   1       8.590  -4.113  -5.140  0.00  0.00     0.154 A 
ATOM      2  C   LIG d   1       7.384  -3.573  -5.532  0.00  0.00     0.046 A 
ATOM      3  C   LIG d   1       7.632  -2.738  -6.637  0.00  0.00     0.179 A 
ATOM      4  N   LIG d   1       8.924  -2.771  -6.901  0.00  0.00    -0.152 NA
ATOM      5  N   LIG d   1       9.549  -3.618  -5.978  0.00  0.00    -0.258 N 
ATOM      6  H   LIG d   1      10.497  -3.821  -5.942  0.00  0.00     0.191 HD
ENDROOT
BRANCH   1   7
ATOM      7  N   LIG d   1       8.789  -4.976  -4.106  0.00  0.00    -0.236 NA
ATOM      8  C   LIG d   1       9.077  -6.226  -4.345  0.00  0.00     0.041 C 
ATOM      9  H   LIG d   1       9.157  -6.576  -5.364  0.00  0.00     0.084 H 
BRANCH   8  10
ATOM     10  C   LIG d   1       9.292  -7.157  -3.229  0.00  0.00     0.038 A 
ATOM     11  C   LIG d   1       8.517  -8.319  -3.121  0.00  0.00    -0.049 A 
ATOM     12  C   LIG d   1       8.724  -9.189  -2.074  0.00  0.00    -0.058 A 
ATOM     13  H   LIG d   1       7.760  -8.532  -3.860  0.00  0.00     0.062 H 
ATOM     14  C   LIG d   1       9.696  -8.923  -1.122  0.00  0.00    -0.016 A 
ATOM     15  H   LIG d   1       8.125 -10.084  -1.993  0.00  0.00     0.062 H 
ATOM     16  C   LIG d   1      10.471  -7.777  -1.215  0.00  0.00     0.162 A 
ATOM     17  H   LIG d   1       9.849  -9.611  -0.305  0.00  0.00     0.066 H 
ATOM     18  C   LIG d   1      10.272  -6.885  -2.263  0.00  0.00     0.167 A 
BRANCH  16  19
ATOM     19  O   LIG d   1      11.423  -7.524  -0.278  0.00  0.00    -0.491 OA
BRANCH  19  20
ATOM     20  C   LIG d   1      11.364  -8.287   0.930  0.00  0.00     0.079 C 
ATOM     21  H   LIG d   1      10.662  -7.820   1.620  0.00  0.00     0.066 H 
ATOM     22  H   LIG d   1      11.031  -9.300   0.704  0.00  0.00     0.066 H 
ATOM     23  H   LIG d   1      12.353  -8.322   1.385  0.00  0.00     0.066 H 
ENDBRANCH  19  20
ENDBRANCH  16  19
BRANCH  18  24
ATOM     24  O   LIG d   1      11.026  -5.760  -2.353  0.00  0.00    -0.503 OA
ATOM     25  H   LIG d   1      10.537  -4.982  -2.654  0.00  0.00     0.292 HD
ENDBRANCH  18  24
ENDBRANCH   8  10
ENDBRANCH   1   7
BRANCH   2  26
ATOM     26  C   LIG d   1       6.044  -3.829  -4.893  0.00  0.00     0.005 C 
ATOM     27  H   LIG d   1       5.294  -3.980  -5.669  0.00  0.00     0.036 H 
ATOM     28  H   LIG d   1       6.104  -4.720  -4.268  0.00  0.00     0.036 H 
BRANCH  26  29
ATOM     29  C   LIG d   1       5.656  -2.646  -4.044  0.00  0.00    -0.043 A 
ATOM     30  C   LIG d   1       4.356  -2.517  -3.592  0.00  0.00    -0.057 A 
ATOM     31  C   LIG d   1       4.001  -1.434  -2.809  0.00  0.00    -0.043 A 
ATOM     32  H   LIG d   1       3.619  -3.263  -3.847  0.00  0.00     0.062 H 
ATOM     33  C   LIG d   1       4.945  -0.474  -2.488  0.00  0.00     0.041 A 
ATOM     34  H   LIG d   1       2.986  -1.335  -2.452  0.00  0.00     0.063 H 
ATOM     35  C   LIG d   1       6.244  -0.601  -2.945  0.00  0.00    -0.043 A 
ATOM     36 CL   LIG d   1       4.497   0.889  -1.510  0.00  0.00    -0.084 Cl
ATOM     37  C   LIG d   1       6.599  -1.687  -3.723  0.00  0.00    -0.057 A 
ATOM     38  H   LIG d   1       6.981   0.148  -2.694  0.00  0.00     0.063 H 
ATOM     39  H   LIG d   1       7.613  -1.787  -4.080  0.00  0.00     0.062 H 
ENDBRANCH  26  29
ENDBRANCH   2  26
BRANCH   3  40
ATOM     40  N   LIG d   1       6.692  -2.014  -7.322  0.00  0.00    -0.234 NA
ATOM     41  C   LIG d   1       6.581  -0.732  -7.117  0.00  0.00     0.041 C 
ATOM     42  H   LIG d   1       7.230  -0.240  -6.408  0.00  0.00     0.084 H 
BRANCH  41  43
ATOM     43  C   LIG d   1       5.572   0.045  -7.853  0.00  0.00     0.038 A 
ATOM     44  C   LIG d   1       4.240  -0.388  -7.893  0.00  0.00     0.167 A 
ATOM     45  C   LIG d   1       3.294   0.359  -8.586  0.00  0.00     0.162 A 
ATOM     46  C   LIG d   1       3.672   1.519  -9.243  0.00  0.00    -0.016 A 
ATOM     47  C   LIG d   1       4.990   1.945  -9.209  0.00  0.00    -0.058 A 
ATOM     48  H   LIG d   1       2.935   2.094  -9.784  0.00  0.00     0.066 H 
ATOM     49  C   LIG d   1       5.938   1.219  -8.522  0.00  0.00    -0.049 A 
ATOM     50  H   LIG d   1       5.275   2.850  -9.724  0.00  0.00     0.062 H 
ATOM     51  H   LIG d   1       6.964   1.556  -8.498  0.00  0.00     0.062 H 
BRANCH  44  52
ATOM     52  O   LIG d   1       3.874  -1.528  -7.253  0.00  0.00    -0.503 OA
ATOM     53  H   LIG d   1       2.979  -1.829  -7.466  0.00  0.00     0.292 HD
ENDBRANCH  44  52
BRANCH  45  54
ATOM     54  O   LIG d   1       1.998  -0.052  -8.623  0.00  0.00    -0.491 OA
BRANCH  54  55
ATOM     55  C   LIG d   1       1.561  -0.714  -9.812  0.00  0.00     0.079 C 
ATOM     56  H   LIG d   1       1.940  -1.736  -9.818  0.00  0.00     0.066 H 
ATOM     57  H   LIG d   1       0.471  -0.732  -9.838  0.00  0.00     0.066 H 
ATOM     58  H   LIG d   1       1.936  -0.181 -10.685  0.00  0.00     0.066 H 
ENDBRANCH  54  55
ENDBRANCH  45  54
ENDBRANCH  41  43
ENDBRANCH   3  40
TORSDOF 12
ENDMDL
MODEL 3
REMARK VINA RESULT:      -6.7      2.778      3.688
REMARK  12 active torsions:
REMARK  status: ('A' for Active; 'I' for Inactive)
REMARK    1  A    between atoms: C_1  and  O_2 
REMARK    2  A    between atoms: O_2  and  C_3 
REMARK    3  A    between atoms: C_7  and  C_10 
REMARK    4  A    between atoms: C_8  and  O_9 
REMARK    5  A    between atoms: N_11  and  C_12 
REMARK    6  A    between atoms: C_13  and  C_29 
REMARK    7  A    between atoms: C_14  and  N_18 
REMARK    8  A    between atoms: C_19  and  C_20 
REMARK    9  A    between atoms: C_24  and  O_27 
REMARK   10  A    between atoms: C_25  and  O_26 
REMARK   11  A    between atoms: O_27  and  C_28 
REMARK   12  A    between atoms: C_29  and  C_30 
ROOT
ATOM      1  C   LIG d   1       7.576  -2.758  -6.661  0.00  0.00     0.154 A 
ATOM      2  C   LIG d   1       7.338  -3.574  -5.576  0.00  0.00     0.046 A 
ATOM      3  C   LIG d   1       8.572  -4.121  -5.177  0.00  0.00     0.179 A 
ATOM      4  N   LIG d   1       9.510  -3.658  -5.981  0.00  0.00    -0.152 NA
ATOM      5  N   LIG d   1       8.916  -2.809  -6.922  0.00  0.00    -0.258 N 
ATOM      6  H   LIG d   1       9.377  -2.336  -7.633  0.00  0.00     0.191 HD
ENDROOT
BRANCH   1   7
ATOM      7  N   LIG d   1       6.647  -2.040  -7.349  0.00  0.00    -0.236 NA
ATOM      8  C   LIG d   1       6.525  -0.757  -7.138  0.00  0.00     0.041 C 
ATOM      9  H   LIG d   1       7.163  -0.267  -6.416  0.00  0.00     0.084 H 
BRANCH   8  10
ATOM     10  C   LIG d   1       5.523   0.019  -7.879  0.00  0.00     0.038 A 
ATOM     11  C   LIG d   1       5.896   1.184  -8.560  0.00  0.00    -0.049 A 
ATOM     12  C   LIG d   1       4.952   1.907  -9.255  0.00  0.00    -0.058 A 
ATOM     13  H   LIG d   1       6.923   1.514  -8.541  0.00  0.00     0.062 H 
ATOM     14  C   LIG d   1       3.631   1.489  -9.285  0.00  0.00    -0.016 A 
ATOM     15  H   LIG d   1       5.242   2.806  -9.779  0.00  0.00     0.062 H 
ATOM     16  C   LIG d   1       3.246   0.338  -8.617  0.00  0.00     0.162 A 
ATOM     17  H   LIG d   1       2.899   2.063  -9.833  0.00  0.00     0.066 H 
ATOM     18  C   LIG d   1       4.184  -0.401  -7.906  0.00  0.00     0.167 A 
BRANCH  16  19
ATOM     19  O   LIG d   1       1.948  -0.066  -8.652  0.00  0.00    -0.491 OA
BRANCH  19  20
ATOM     20  C   LIG d   1       1.508  -0.736  -9.835  0.00  0.00     0.079 C 
ATOM     21  H   LIG d   1       2.273  -0.652 -10.606  0.00  0.00     0.066 H 
ATOM     22  H   LIG d   1       1.333  -1.789  -9.612  0.00  0.00     0.066 H 
ATOM     23  H   LIG d   1       0.584  -0.280 -10.189  0.00  0.00     0.066 H 
ENDBRANCH  19  20
ENDBRANCH  16  19
BRANCH  18  24
ATOM     24  O   LIG d   1       3.809  -1.527  -7.245  0.00  0.00    -0.503 OA
ATOM     25  H   LIG d   1       4.548  -2.044  -6.898  0.00  0.00     0.292 HD
ENDBRANCH  18  24
ENDBRANCH   8  10
ENDBRANCH   1   7
BRANCH   2  26
ATOM     26  C   LIG d   1       6.000  -3.835  -4.934  0.00  0.00     0.005 C 
ATOM     27  H   LIG d   1       5.246  -3.975  -5.708  0.00  0.00     0.036 H 
ATOM     28  H   LIG d   1       6.061  -4.734  -4.321  0.00  0.00     0.036 H 
BRANCH  26  29
ATOM     29  C   LIG d   1       5.620  -2.661  -4.069  0.00  0.00    -0.043 A 
ATOM     30  C   LIG d   1       6.569  -1.711  -3.739  0.00  0.00    -0.057 A 
ATOM     31  C   LIG d   1       6.220  -0.631  -2.950  0.00  0.00    -0.043 A 
ATOM     32  H   LIG d   1       7.581  -1.809  -4.102  0.00  0.00     0.062 H 
ATOM     33  C   LIG d   1       4.924  -0.508  -2.479  0.00  0.00     0.041 A 
ATOM     34  H   LIG d   1       6.959   0.114  -2.696  0.00  0.00     0.063 H 
ATOM     35  C   LIG d   1       3.977  -1.463  -2.805  0.00  0.00    -0.043 A 
ATOM     36 CL   LIG d   1       4.487   0.844  -1.482  0.00  0.00    -0.084 Cl
ATOM     37  C   LIG d   1       4.326  -2.539  -3.600  0.00  0.00    -0.057 A 
ATOM     38  H   LIG d   1       2.966  -1.367  -2.438  0.00  0.00     0.063 H 
ATOM     39  H   LIG d   1       3.587  -3.284  -3.854  0.00  0.00     0.062 H 
ENDBRANCH  26  29
ENDBRANCH   2  26
BRANCH   3  40
ATOM     40  N   LIG d   1       8.766  -4.985  -4.133  0.00  0.00    -0.234 NA
ATOM     41  C   LIG d   1       9.043  -6.237  -4.366  0.00  0.00     0.041 C 
ATOM     42  H   LIG d   1       9.120  -6.592  -5.383  0.00  0.00     0.084 H 
BRANCH  41  43
ATOM     43  C   LIG d   1       9.252  -7.165  -3.244  0.00  0.00     0.038 A 
ATOM     44  C   LIG d   1      10.226  -6.892  -2.275  0.00  0.00     0.167 A 
ATOM     45  C   LIG d   1      10.410  -7.774  -1.216  0.00  0.00     0.162 A 
ATOM     46  C   LIG d   1       9.640  -8.922  -1.129  0.00  0.00    -0.016 A 
ATOM     47  C   LIG d   1       8.680  -9.197  -2.090  0.00  0.00    -0.058 A 
ATOM     48  H   LIG d   1       9.789  -9.607  -0.307  0.00  0.00     0.066 H 
ATOM     49  C   LIG d   1       8.482  -8.330  -3.142  0.00  0.00    -0.049 A 
ATOM     50  H   LIG d   1       8.085 -10.094  -2.013  0.00  0.00     0.062 H 
ATOM     51  H   LIG d   1       7.732  -8.549  -3.888  0.00  0.00     0.062 H 
BRANCH  44  52
ATOM     52  O   LIG d   1      10.983  -5.768  -2.367  0.00  0.00    -0.503 OA
ATOM     53  H   LIG d   1      10.483  -4.974  -2.600  0.00  0.00     0.292 HD
ENDBRANCH  44  52
BRANCH  45  54
ATOM     54  O   LIG d   1      11.349  -7.511  -0.268  0.00  0.00    -0.491 OA
BRANCH  54  55
ATOM     55  C   LIG d   1      11.345  -8.339   0.896  0.00  0.00     0.079 C 
ATOM     56  H   LIG d   1      11.701  -7.766   1.752  0.00  0.00     0.066 H 
ATOM     57  H   LIG d   1      10.330  -8.688   1.092  0.00  0.00     0.066 H 
ATOM     58  H   LIG d   1      11.999  -9.196   0.736  0.00  0.00     0.066 H 
ENDBRANCH  54  55
ENDBRANCH  45  54
ENDBRANCH  41  43
ENDBRANCH   3  40
TORSDOF 12
ENDMDL
MODEL 4
REMARK VINA RESULT:      -6.6      0.676      9.098
REMARK  12 active torsions:
REMARK  status: ('A' for Active; 'I' for Inactive)
REMARK    1  A    between atoms: C_1  and  O_2 
REMARK    2  A    between atoms: O_2  and  C_3 
REMARK    3  A    between atoms: C_7  and  C_10 
REMARK    4  A    between atoms: C_8  and  O_9 
REMARK    5  A    between atoms: N_11  and  C_12 
REMARK    6  A    between atoms: C_13  and  C_29 
REMARK    7  A    between atoms: C_14  and  N_18 
REMARK    8  A    between atoms: C_19  and  C_20 
REMARK    9  A    between atoms: C_24  and  O_27 
REMARK   10  A    between atoms: C_25  and  O_26 
REMARK   11  A    between atoms: O_27  and  C_28 
REMARK   12  A    between atoms: C_29  and  C_30 
ROOT
ATOM      1  C   LIG d   1       4.438  -5.404  -6.019  0.00  0.00     0.154 A 
ATOM      2  C   LIG d   1       5.105  -4.200  -5.945  0.00  0.00     0.046 A 
ATOM      3  C   LIG d   1       4.584  -3.363  -6.949  0.00  0.00     0.179 A 
ATOM      4  N   LIG d   1       3.648  -4.028  -7.599  0.00  0.00    -0.152 NA
ATOM      5  N   LIG d   1       3.539  -5.308  -7.043  0.00  0.00    -0.258 N 
ATOM      6  H   LIG d   1       2.929  -6.005  -7.333  0.00  0.00     0.191 HD
ENDROOT
BRANCH   1   7
ATOM      7  N   LIG d   1       4.642  -6.489  -5.223  0.00  0.00    -0.236 NA
ATOM      8  C   LIG d   1       5.015  -7.624  -5.749  0.00  0.00     0.041 C 
ATOM      9  H   LIG d   1       5.162  -7.702  -6.816  0.00  0.00     0.084 H 
BRANCH   8  10
ATOM     10  C   LIG d   1       5.236  -8.796  -4.890  0.00  0.00     0.038 A 
ATOM     11  C   LIG d   1       4.235  -9.765  -4.750  0.00  0.00    -0.049 A 
ATOM     12  C   LIG d   1       4.447 -10.862  -3.945  0.00  0.00    -0.058 A 
ATOM     13  H   LIG d   1       3.298  -9.653  -5.275  0.00  0.00     0.062 H 
ATOM     14  C   LIG d   1       5.647 -11.014  -3.269  0.00  0.00    -0.016 A 
ATOM     15  H   LIG d   1       3.674 -11.609  -3.839  0.00  0.00     0.062 H 
ATOM     16  C   LIG d   1       6.648 -10.063  -3.397  0.00  0.00     0.162 A 
ATOM     17  H   LIG d   1       5.803 -11.877  -2.640  0.00  0.00     0.066 H 
ATOM     18  C   LIG d   1       6.448  -8.947  -4.201  0.00  0.00     0.167 A 
BRANCH  16  19
ATOM     19  O   LIG d   1       7.822 -10.220  -2.730  0.00  0.00    -0.491 OA
BRANCH  19  20
ATOM     20  C   LIG d   1       7.764 -10.217  -1.302  0.00  0.00     0.079 C 
ATOM     21  H   LIG d   1       7.678  -9.192  -0.944  0.00  0.00     0.066 H 
ATOM     22  H   LIG d   1       6.898 -10.791  -0.973  0.00  0.00     0.066 H 
ATOM     23  H   LIG d   1       8.673 -10.667  -0.901  0.00  0.00     0.066 H 
ENDBRANCH  19  20
ENDBRANCH  16  19
BRANCH  18  24
ATOM     24  O   LIG d   1       7.424  -8.010  -4.324  0.00  0.00    -0.503 OA
ATOM     25  H   LIG d   1       7.907  -7.836  -3.505  0.00  0.00     0.292 HD
ENDBRANCH  18  24
ENDBRANCH   8  10
ENDBRANCH   1   7
BRANCH   2  26
ATOM     26  C   LIG d   1       6.194  -3.844  -4.966  0.00  0.00     0.005 C 
ATOM     27  H   LIG d   1       6.404  -4.702  -4.327  0.00  0.00     0.036 H 
ATOM     28  H   LIG d   1       7.097  -3.570  -5.512  0.00  0.00     0.036 H 
BRANCH  26  29
ATOM     29  C   LIG d   1       5.748  -2.682  -4.118  0.00  0.00    -0.043 A 
ATOM     30  C   LIG d   1       6.563  -1.573  -3.982  0.00  0.00    -0.057 A 
ATOM     31  C   LIG d   1       6.152  -0.504  -3.208  0.00  0.00    -0.043 A 
ATOM     32  H   LIG d   1       7.518  -1.540  -4.484  0.00  0.00     0.062 H 
ATOM     33  C   LIG d   1       4.931  -0.549  -2.558  0.00  0.00     0.041 A 
ATOM     34  H   LIG d   1       6.786   0.364  -3.105  0.00  0.00     0.063 H 
ATOM     35  C   LIG d   1       4.119  -1.662  -2.690  0.00  0.00    -0.043 A 
ATOM     36 CL   LIG d   1       4.418   0.790  -1.580  0.00  0.00    -0.084 Cl
ATOM     37  C   LIG d   1       4.528  -2.727  -3.470  0.00  0.00    -0.057 A 
ATOM     38  H   LIG d   1       3.166  -1.697  -2.184  0.00  0.00     0.063 H 
ATOM     39  H   LIG d   1       3.895  -3.596  -3.572  0.00  0.00     0.062 H 
ENDBRANCH  26  29
ENDBRANCH   2  26
BRANCH   3  40
ATOM     40  N   LIG d   1       4.981  -2.079  -7.208  0.00  0.00    -0.234 NA
ATOM     41  C   LIG d   1       4.602  -1.488  -8.305  0.00  0.00     0.041 C 
ATOM     42  H   LIG d   1       3.975  -2.012  -9.011  0.00  0.00     0.084 H 
BRANCH  41  43
ATOM     43  C   LIG d   1       5.028  -0.107  -8.583  0.00  0.00     0.038 A 
ATOM     44  C   LIG d   1       6.361   0.273  -8.381  0.00  0.00     0.167 A 
ATOM     45  C   LIG d   1       6.753   1.579  -8.653  0.00  0.00     0.162 A 
ATOM     46  C   LIG d   1       5.825   2.500  -9.109  0.00  0.00    -0.016 A 
ATOM     47  C   LIG d   1       4.505   2.127  -9.304  0.00  0.00    -0.058 A 
ATOM     48  H   LIG d   1       6.132   3.515  -9.316  0.00  0.00     0.066 H 
ATOM     49  C   LIG d   1       4.102   0.835  -9.045  0.00  0.00    -0.049 A 
ATOM     50  H   LIG d   1       3.789   2.851  -9.660  0.00  0.00     0.062 H 
ATOM     51  H   LIG d   1       3.072   0.549  -9.198  0.00  0.00     0.062 H 
BRANCH  44  52
ATOM     52  O   LIG d   1       7.268  -0.631  -7.927  0.00  0.00    -0.503 OA
ATOM     53  H   LIG d   1       8.157  -0.270  -7.806  0.00  0.00     0.292 HD
ENDBRANCH  44  52
BRANCH  45  54
ATOM     54  O   LIG d   1       8.048   1.953  -8.466  0.00  0.00    -0.491 OA
BRANCH  54  55
ATOM     55  C   LIG d   1       8.866   2.064  -9.632  0.00  0.00     0.079 C 
ATOM     56  H   LIG d   1       9.644   2.808  -9.461  0.00  0.00     0.066 H 
ATOM     57  H   LIG d   1       9.328   1.099  -9.846  0.00  0.00     0.066 H 
ATOM     58  H   LIG d   1       8.252   2.368 -10.480  0.00  0.00     0.066 H 
ENDBRANCH  54  55
ENDBRANCH  45  54
ENDBRANCH  41  43
ENDBRANCH   3  40
TORSDOF 12
ENDMDL
MODEL 5
REMARK VINA RESULT:      -6.3      3.589      9.510
REMARK  12 active torsions:
REMARK  status: ('A' for Active; 'I' for Inactive)
REMARK    1  A    between atoms: C_1  and  O_2 
REMARK    2  A    between atoms: O_2  and  C_3 
REMARK    3  A    between atoms: C_7  and  C_10 
REMARK    4  A    between atoms: C_8  and  O_9 
REMARK    5  A    between atoms: N_11  and  C_12 
REMARK    6  A    between atoms: C_13  and  C_29 
REMARK    7  A    between atoms: C_14  and  N_18 
REMARK    8  A    between atoms: C_19  and  C_20 
REMARK    9  A    between atoms: C_24  and  O_27 
REMARK   10  A    between atoms: C_25  and  O_26 
REMARK   11  A    between atoms: O_27  and  C_28 
REMARK   12  A    between atoms: C_29  and  C_30 
ROOT
ATOM      1  C   LIG d   1       8.205  -3.895  -6.033  0.00  0.00     0.154 A 
ATOM      2  C   LIG d   1       8.184  -2.723  -5.309  0.00  0.00     0.046 A 
ATOM      3  C   LIG d   1       8.458  -1.668  -6.199  0.00  0.00     0.179 A 
ATOM      4  N   LIG d   1       8.636  -2.177  -7.403  0.00  0.00    -0.152 NA
ATOM      5  N   LIG d   1       8.490  -3.568  -7.329  0.00  0.00    -0.258 N 
ATOM      6  H   LIG d   1       8.572  -4.189  -8.069  0.00  0.00     0.191 HD
ENDROOT
BRANCH   1   7
ATOM      7  N   LIG d   1       7.989  -5.148  -5.546  0.00  0.00    -0.236 NA
ATOM      8  C   LIG d   1       6.939  -5.824  -5.927  0.00  0.00     0.041 C 
ATOM      9  H   LIG d   1       6.242  -5.388  -6.629  0.00  0.00     0.084 H 
BRANCH   8  10
ATOM     10  C   LIG d   1       6.705  -7.176  -5.402  0.00  0.00     0.038 A 
ATOM     11  C   LIG d   1       7.787  -8.004  -5.080  0.00  0.00    -0.049 A 
ATOM     12  C   LIG d   1       7.561  -9.270  -4.587  0.00  0.00    -0.058 A 
ATOM     13  H   LIG d   1       8.797  -7.649  -5.216  0.00  0.00     0.062 H 
ATOM     14  C   LIG d   1       6.268  -9.733  -4.407  0.00  0.00    -0.016 A 
ATOM     15  H   LIG d   1       8.398  -9.907  -4.339  0.00  0.00     0.062 H 
ATOM     16  C   LIG d   1       5.186  -8.925  -4.722  0.00  0.00     0.162 A 
ATOM     17  H   LIG d   1       6.102 -10.727  -4.021  0.00  0.00     0.066 H 
ATOM     18  C   LIG d   1       5.395  -7.647  -5.226  0.00  0.00     0.167 A 
BRANCH  16  19
ATOM     19  O   LIG d   1       3.919  -9.387  -4.542  0.00  0.00    -0.491 OA
BRANCH  19  20
ATOM     20  C   LIG d   1       3.660 -10.123  -3.345  0.00  0.00     0.079 C 
ATOM     21  H   LIG d   1       3.288  -9.447  -2.576  0.00  0.00     0.066 H 
ATOM     22  H   LIG d   1       2.914 -10.891  -3.546  0.00  0.00     0.066 H 
ATOM     23  H   LIG d   1       4.582 -10.592  -3.002  0.00  0.00     0.066 H 
ENDBRANCH  19  20
ENDBRANCH  16  19
BRANCH  18  24
ATOM     24  O   LIG d   1       4.337  -6.855  -5.540  0.00  0.00    -0.503 OA
ATOM     25  H   LIG d   1       4.278  -6.632  -6.479  0.00  0.00     0.292 HD
ENDBRANCH  18  24
ENDBRANCH   8  10
ENDBRANCH   1   7
BRANCH   2  26
ATOM     26  C   LIG d   1       7.917  -2.593  -3.832  0.00  0.00     0.005 C 
ATOM     27  H   LIG d   1       8.019  -3.569  -3.356  0.00  0.00     0.036 H 
ATOM     28  H   LIG d   1       8.634  -1.900  -3.392  0.00  0.00     0.036 H 
BRANCH  26  29
ATOM     29  C   LIG d   1       6.520  -2.073  -3.617  0.00  0.00    -0.043 A 
ATOM     30  C   LIG d   1       5.433  -2.826  -4.022  0.00  0.00    -0.057 A 
ATOM     31  C   LIG d   1       4.150  -2.351  -3.821  0.00  0.00    -0.043 A 
ATOM     32  H   LIG d   1       5.585  -3.785  -4.493  0.00  0.00     0.062 H 
ATOM     33  C   LIG d   1       3.954  -1.118  -3.224  0.00  0.00     0.041 A 
ATOM     34  H   LIG d   1       3.301  -2.941  -4.134  0.00  0.00     0.063 H 
ATOM     35  C   LIG d   1       5.042  -0.363  -2.824  0.00  0.00    -0.043 A 
ATOM     36 CL   LIG d   1       2.343  -0.519  -2.977  0.00  0.00    -0.084 Cl
ATOM     37  C   LIG d   1       6.324  -0.841  -3.020  0.00  0.00    -0.057 A 
ATOM     38  H   LIG d   1       4.890   0.599  -2.358  0.00  0.00     0.063 H 
ATOM     39  H   LIG d   1       7.174  -0.253  -2.708  0.00  0.00     0.062 H 
ENDBRANCH  26  29
ENDBRANCH   2  26
BRANCH   3  40
ATOM     40  N   LIG d   1       8.528  -0.341  -5.872  0.00  0.00    -0.234 NA
ATOM     41  C   LIG d   1       9.494   0.397  -6.343  0.00  0.00     0.041 C 
ATOM     42  H   LIG d   1      10.239  -0.040  -6.992  0.00  0.00     0.084 H 
BRANCH  41  43
ATOM     43  C   LIG d   1       9.569   1.823  -5.992  0.00  0.00     0.038 A 
ATOM     44  C   LIG d   1       9.491   2.224  -4.652  0.00  0.00     0.167 A 
ATOM     45  C   LIG d   1       9.569   3.575  -4.332  0.00  0.00     0.162 A 
ATOM     46  C   LIG d   1       9.712   4.518  -5.337  0.00  0.00    -0.016 A 
ATOM     47  C   LIG d   1       9.783   4.123  -6.663  0.00  0.00    -0.058 A 
ATOM     48  H   LIG d   1       9.768   5.567  -5.085  0.00  0.00     0.066 H 
ATOM     49  C   LIG d   1       9.712   2.788  -6.996  0.00  0.00    -0.049 A 
ATOM     50  H   LIG d   1       9.894   4.865  -7.439  0.00  0.00     0.062 H 
ATOM     51  H   LIG d   1       9.769   2.486  -8.031  0.00  0.00     0.062 H 
BRANCH  44  52
ATOM     52  O   LIG d   1       9.345   1.298  -3.670  0.00  0.00    -0.503 OA
ATOM     53  H   LIG d   1       9.228   1.675  -2.787  0.00  0.00     0.292 HD
ENDBRANCH  44  52
BRANCH  45  54
ATOM     54  O   LIG d   1       9.502   3.971  -3.032  0.00  0.00    -0.491 OA
BRANCH  54  55
ATOM     55  C   LIG d   1      10.739   4.244  -2.372  0.00  0.00     0.079 C 
ATOM     56  H   LIG d   1      11.466   4.610  -3.098  0.00  0.00     0.066 H 
ATOM     57  H   LIG d   1      10.583   5.001  -1.603  0.00  0.00     0.066 H 
ATOM     58  H   LIG d   1      11.115   3.331  -1.911  0.00  0.00     0.066 H 
ENDBRANCH  54  55
ENDBRANCH  45  54
ENDBRANCH  41  43
ENDBRANCH   3  40
TORSDOF 12
ENDMDL
MODEL 6
REMARK VINA RESULT:      -6.1      5.518     10.612
REMARK  12 active torsions:
REMARK  status: ('A' for Active; 'I' for Inactive)
REMARK    1  A    between atoms: C_1  and  O_2 
REMARK    2  A    between atoms: O_2  and  C_3 
REMARK    3  A    between atoms: C_7  and  C_10 
REMARK    4  A    between atoms: C_8  and  O_9 
REMARK    5  A    between atoms: N_11  and  C_12 
REMARK    6  A    between atoms: C_13  and  C_29 
REMARK    7  A    between atoms: C_14  and  N_18 
REMARK    8  A    between atoms: C_19  and  C_20 
REMARK    9  A    between atoms: C_24  and  O_27 
REMARK   10  A    between atoms: C_25  and  O_26 
REMARK   11  A    between atoms: O_27  and  C_28 
REMARK   12  A    between atoms: C_29  and  C_30 
ROOT
ATOM      1  C   LIG d   1       4.539  -1.076  -9.247  0.00  0.00     0.154 A 
ATOM      2  C   LIG d   1       3.729  -0.747 -10.313  0.00  0.00     0.046 A 
ATOM      3  C   LIG d   1       4.527  -0.760 -11.472  0.00  0.00     0.179 A 
ATOM      4  N   LIG d   1       5.758  -1.082 -11.125  0.00  0.00    -0.152 NA
ATOM      5  N   LIG d   1       5.797  -1.279  -9.740  0.00  0.00    -0.258 N 
ATOM      6  H   LIG d   1       6.580  -1.521  -9.221  0.00  0.00     0.191 HD
ENDROOT
BRANCH   1   7
ATOM      7  N   LIG d   1       4.156  -1.174  -7.944  0.00  0.00    -0.236 NA
ATOM      8  C   LIG d   1       5.022  -1.531  -7.035  0.00  0.00     0.041 C 
ATOM      9  H   LIG d   1       6.042  -1.748  -7.317  0.00  0.00     0.084 H 
BRANCH   8  10
ATOM     10  C   LIG d   1       4.610  -1.637  -5.629  0.00  0.00     0.038 A 
ATOM     11  C   LIG d   1       4.877  -2.804  -4.903  0.00  0.00    -0.049 A 
ATOM     12  C   LIG d   1       4.489  -2.898  -3.584  0.00  0.00    -0.058 A 
ATOM     13  H   LIG d   1       5.387  -3.629  -5.376  0.00  0.00     0.062 H 
ATOM     14  C   LIG d   1       3.835  -1.843  -2.969  0.00  0.00    -0.016 A 
ATOM     15  H   LIG d   1       4.695  -3.800  -3.026  0.00  0.00     0.062 H 
ATOM     16  C   LIG d   1       3.564  -0.681  -3.674  0.00  0.00     0.162 A 
ATOM     17  H   LIG d   1       3.535  -1.927  -1.936  0.00  0.00     0.066 H 
ATOM     18  C   LIG d   1       3.943  -0.571  -5.007  0.00  0.00     0.167 A 
BRANCH  16  19
ATOM     19  O   LIG d   1       2.922   0.350  -3.062  0.00  0.00    -0.491 OA
BRANCH  19  20
ATOM     20  C   LIG d   1       3.721   1.237  -2.276  0.00  0.00     0.079 C 
ATOM     21  H   LIG d   1       3.763   0.875  -1.250  0.00  0.00     0.066 H 
ATOM     22  H   LIG d   1       4.729   1.280  -2.688  0.00  0.00     0.066 H 
ATOM     23  H   LIG d   1       3.279   2.233  -2.292  0.00  0.00     0.066 H 
ENDBRANCH  19  20
ENDBRANCH  16  19
BRANCH  18  24
ATOM     24  O   LIG d   1       3.674   0.564  -5.702  0.00  0.00    -0.503 OA
ATOM     25  H   LIG d   1       4.203   0.669  -6.504  0.00  0.00     0.292 HD
ENDBRANCH  18  24
ENDBRANCH   8  10
ENDBRANCH   1   7
BRANCH   2  26
ATOM     26  C   LIG d   1       2.258  -0.430 -10.249  0.00  0.00     0.005 C 
ATOM     27  H   LIG d   1       1.960  -0.290  -9.210  0.00  0.00     0.036 H 
ATOM     28  H   LIG d   1       2.058   0.483 -10.810  0.00  0.00     0.036 H 
BRANCH  26  29
ATOM     29  C   LIG d   1       1.471  -1.568 -10.847  0.00  0.00    -0.043 A 
ATOM     30  C   LIG d   1       1.443  -2.796 -10.213  0.00  0.00    -0.057 A 
ATOM     31  C   LIG d   1       0.718  -3.839 -10.758  0.00  0.00    -0.043 A 
ATOM     32  H   LIG d   1       1.984  -2.940  -9.289  0.00  0.00     0.062 H 
ATOM     33  C   LIG d   1       0.030  -3.657 -11.945  0.00  0.00     0.041 A 
ATOM     34  H   LIG d   1       0.692  -4.798 -10.261  0.00  0.00     0.063 H 
ATOM     35  C   LIG d   1       0.063  -2.429 -12.582  0.00  0.00    -0.043 A 
ATOM     36 CL   LIG d   1      -0.875  -4.969 -12.634  0.00  0.00    -0.084 Cl
ATOM     37  C   LIG d   1       0.784  -1.385 -12.032  0.00  0.00    -0.057 A 
ATOM     38  H   LIG d   1      -0.474  -2.286 -13.508  0.00  0.00     0.063 H 
ATOM     39  H   LIG d   1       0.810  -0.427 -12.529  0.00  0.00     0.062 H 
ENDBRANCH  26  29
ENDBRANCH   2  26
BRANCH   3  40
ATOM     40  N   LIG d   1       4.098  -0.487 -12.743  0.00  0.00    -0.234 NA
ATOM     41  C   LIG d   1       4.041  -1.438 -13.631  0.00  0.00     0.041 C 
ATOM     42  H   LIG d   1       4.332  -2.444 -13.364  0.00  0.00     0.084 H 
BRANCH  41  43
ATOM     43  C   LIG d   1       3.579  -1.145 -14.996  0.00  0.00     0.038 A 
ATOM     44  C   LIG d   1       4.275  -0.225 -15.792  0.00  0.00     0.167 A 
ATOM     45  C   LIG d   1       3.832   0.040 -17.084  0.00  0.00     0.162 A 
ATOM     46  C   LIG d   1       2.703  -0.596 -17.574  0.00  0.00    -0.016 A 
ATOM     47  C   LIG d   1       2.012  -1.501 -16.786  0.00  0.00    -0.058 A 
ATOM     48  H   LIG d   1       2.360  -0.385 -18.576  0.00  0.00     0.066 H 
ATOM     49  C   LIG d   1       2.440  -1.779 -15.506  0.00  0.00    -0.049 A 
ATOM     50  H   LIG d   1       1.133  -1.992 -17.176  0.00  0.00     0.062 H 
ATOM     51  H   LIG d   1       1.898  -2.486 -14.896  0.00  0.00     0.062 H 
BRANCH  44  52
ATOM     52  O   LIG d   1       5.377   0.401 -15.307  0.00  0.00    -0.503 OA
ATOM     53  H   LIG d   1       5.182   1.138 -14.712  0.00  0.00     0.292 HD
ENDBRANCH  44  52
BRANCH  45  54
ATOM     54  O   LIG d   1       4.507   0.927 -17.865  0.00  0.00    -0.491 OA
BRANCH  54  55
ATOM     55  C   LIG d   1       3.871   2.180 -18.120  0.00  0.00     0.079 C 
ATOM     56  H   LIG d   1       3.478   2.585 -17.187  0.00  0.00     0.066 H 
ATOM     57  H   LIG d   1       4.597   2.878 -18.540  0.00  0.00     0.066 H 
ATOM     58  H   LIG d   1       3.054   2.037 -18.827  0.00  0.00     0.066 H 
ENDBRANCH  54  55
ENDBRANCH  45  54
ENDBRANCH  41  43
ENDBRANCH   3  40
TORSDOF 12
ENDMDL
MODEL 7
REMARK VINA RESULT:      -6.1      5.416      8.304
REMARK  12 active torsions:
REMARK  status: ('A' for Active; 'I' for Inactive)
REMARK    1  A    between atoms: C_1  and  O_2 
REMARK    2  A    between atoms: O_2  and  C_3 
REMARK    3  A    between atoms: C_7  and  C_10 
REMARK    4  A    between atoms: C_8  and  O_9 
REMARK    5  A    between atoms: N_11  and  C_12 
REMARK    6  A    between atoms: C_13  and  C_29 
REMARK    7  A    between atoms: C_14  and  N_18 
REMARK    8  A    between atoms: C_19  and  C_20 
REMARK    9  A    between atoms: C_24  and  O_27 
REMARK   10  A    between atoms: C_25  and  O_26 
REMARK   11  A    between atoms: O_27  and  C_28 
REMARK   12  A    between atoms: C_29  and  C_30 
ROOT
ATOM      1  C   LIG d   1       4.919  -0.378 -11.518  0.00  0.00     0.154 A 
ATOM      2  C   LIG d   1       4.303  -0.320 -10.287  0.00  0.00     0.046 A 
ATOM      3  C   LIG d   1       5.297  -0.502  -9.307  0.00  0.00     0.179 A 
ATOM      4  N   LIG d   1       6.456  -0.662  -9.916  0.00  0.00    -0.152 NA
ATOM      5  N   LIG d   1       6.249  -0.594 -11.299  0.00  0.00    -0.258 N 
ATOM      6  H   LIG d   1       6.933  -0.683 -11.982  0.00  0.00     0.191 HD
ENDROOT
BRANCH   1   7
ATOM      7  N   LIG d   1       4.311  -0.248 -12.730  0.00  0.00    -0.236 NA
ATOM      8  C   LIG d   1       4.236  -1.273 -13.536  0.00  0.00     0.041 C 
ATOM      9  H   LIG d   1       4.657  -2.223 -13.240  0.00  0.00     0.084 H 
BRANCH   8  10
ATOM     10  C   LIG d   1       3.581  -1.134 -14.843  0.00  0.00     0.038 A 
ATOM     11  C   LIG d   1       2.484  -1.941 -15.171  0.00  0.00    -0.049 A 
ATOM     12  C   LIG d   1       1.873  -1.806 -16.398  0.00  0.00    -0.058 A 
ATOM     13  H   LIG d   1       2.118  -2.668 -14.462  0.00  0.00     0.062 H 
ATOM     14  C   LIG d   1       2.336  -0.875 -17.313  0.00  0.00    -0.016 A 
ATOM     15  H   LIG d   1       1.028  -2.430 -16.648  0.00  0.00     0.062 H 
ATOM     16  C   LIG d   1       3.420  -0.068 -17.003  0.00  0.00     0.162 A 
ATOM     17  H   LIG d   1       1.850  -0.777 -18.272  0.00  0.00     0.066 H 
ATOM     18  C   LIG d   1       4.053  -0.196 -15.772  0.00  0.00     0.167 A 
BRANCH  16  19
ATOM     19  O   LIG d   1       3.868   0.843 -17.907  0.00  0.00    -0.491 OA
BRANCH  19  20
ATOM     20  C   LIG d   1       3.144   2.072 -18.004  0.00  0.00     0.079 C 
ATOM     21  H   LIG d   1       2.519   2.056 -18.896  0.00  0.00     0.066 H 
ATOM     22  H   LIG d   1       2.514   2.192 -17.122  0.00  0.00     0.066 H 
ATOM     23  H   LIG d   1       3.846   2.903 -18.065  0.00  0.00     0.066 H 
ENDBRANCH  19  20
ENDBRANCH  16  19
BRANCH  18  24
ATOM     24  O   LIG d   1       5.119   0.590 -15.468  0.00  0.00    -0.503 OA
ATOM     25  H   LIG d   1       5.202   1.374 -16.028  0.00  0.00     0.292 HD
ENDBRANCH  18  24
ENDBRANCH   8  10
ENDBRANCH   1   7
BRANCH   2  26
ATOM     26  C   LIG d   1       2.834  -0.102 -10.034  0.00  0.00     0.005 C 
ATOM     27  H   LIG d   1       2.661   0.009  -8.964  0.00  0.00     0.036 H 
ATOM     28  H   LIG d   1       2.507   0.801 -10.549  0.00  0.00     0.036 H 
BRANCH  26  29
ATOM     29  C   LIG d   1       2.054  -1.284 -10.549  0.00  0.00    -0.043 A 
ATOM     30  C   LIG d   1       1.161  -1.120 -11.592  0.00  0.00    -0.057 A 
ATOM     31  C   LIG d   1       0.448  -2.205 -12.068  0.00  0.00    -0.043 A 
ATOM     32  H   LIG d   1       1.022  -0.147 -12.037  0.00  0.00     0.062 H 
ATOM     33  C   LIG d   1       0.620  -3.452 -11.493  0.00  0.00     0.041 A 
ATOM     34  H   LIG d   1      -0.246  -2.079 -12.886  0.00  0.00     0.063 H 
ATOM     35  C   LIG d   1       1.510  -3.614 -10.446  0.00  0.00    -0.043 A 
ATOM     36 CL   LIG d   1      -0.279  -4.813 -12.086  0.00  0.00    -0.084 Cl
ATOM     37  C   LIG d   1       2.226  -2.529  -9.975  0.00  0.00    -0.057 A 
ATOM     38  H   LIG d   1       1.645  -4.587  -9.997  0.00  0.00     0.063 H 
ATOM     39  H   LIG d   1       2.920  -2.655  -9.157  0.00  0.00     0.062 H 
ENDBRANCH  26  29
ENDBRANCH   2  26
BRANCH   3  40
ATOM     40  N   LIG d   1       5.095  -0.511  -7.953  0.00  0.00    -0.234 NA
ATOM     41  C   LIG d   1       4.678  -1.596  -7.363  0.00  0.00     0.041 C 
ATOM     42  H   LIG d   1       4.492  -2.488  -7.943  0.00  0.00     0.084 H 
BRANCH  41  43
ATOM     43  C   LIG d   1       4.462  -1.606  -5.908  0.00  0.00     0.038 A 
ATOM     44  C   LIG d   1       3.807  -0.535  -5.286  0.00  0.00     0.167 A 
ATOM     45  C   LIG d   1       3.603  -0.560  -3.910  0.00  0.00     0.162 A 
ATOM     46  C   LIG d   1       4.056  -1.633  -3.161  0.00  0.00    -0.016 A 
ATOM     47  C   LIG d   1       4.708  -2.690  -3.775  0.00  0.00    -0.058 A 
ATOM     48  H   LIG d   1       3.899  -1.647  -2.092  0.00  0.00     0.066 H 
ATOM     49  C   LIG d   1       4.913  -2.684  -5.137  0.00  0.00    -0.049 A 
ATOM     50  H   LIG d   1       5.057  -3.522  -3.183  0.00  0.00     0.062 H 
ATOM     51  H   LIG d   1       5.422  -3.511  -5.611  0.00  0.00     0.062 H 
BRANCH  44  52
ATOM     52  O   LIG d   1       3.370   0.519  -6.022  0.00  0.00    -0.503 OA
ATOM     53  H   LIG d   1       2.885   0.267  -6.820  0.00  0.00     0.292 HD
ENDBRANCH  44  52
BRANCH  45  54
ATOM     54  O   LIG d   1       2.962   0.474  -3.300  0.00  0.00    -0.491 OA
BRANCH  54  55
ATOM     55  C   LIG d   1       3.712   1.231  -2.349  0.00  0.00     0.079 C 
ATOM     56  H   LIG d   1       3.474   0.888  -1.342  0.00  0.00     0.066 H 
ATOM     57  H   LIG d   1       4.778   1.095  -2.534  0.00  0.00     0.066 H 
ATOM     58  H   LIG d   1       3.460   2.287  -2.443  0.00  0.00     0.066 H 
ENDBRANCH  54  55
ENDBRANCH  45  54
ENDBRANCH  41  43
ENDBRANCH   3  40
TORSDOF 12
ENDMDL
MODEL 8
REMARK VINA RESULT:      -6.1      5.782      8.449
REMARK  12 active torsions:
REMARK  status: ('A' for Active; 'I' for Inactive)
REMARK    1  A    between atoms: C_1  and  O_2 
REMARK    2  A    between atoms: O_2  and  C_3 
REMARK    3  A    between atoms: C_7  and  C_10 
REMARK    4  A    between atoms: C_8  and  O_9 
REMARK    5  A    between atoms: N_11  and  C_12 
REMARK    6  A    between atoms: C_13  and  C_29 
REMARK    7  A    between atoms: C_14  and  N_18 
REMARK    8  A    between atoms: C_19  and  C_20 
REMARK    9  A    between atoms: C_24  and  O_27 
REMARK   10  A    between atoms: C_25  and  O_26 
REMARK   11  A    between atoms: O_27  and  C_28 
REMARK   12  A    between atoms: C_29  and  C_30 
ROOT
ATOM      1  C   LIG d   1       3.197   0.307  -9.923  0.00  0.00     0.154 A 
ATOM      2  C   LIG d   1       4.073   0.127  -8.874  0.00  0.00     0.046 A 
ATOM      3  C   LIG d   1       4.962   1.218  -8.871  0.00  0.00     0.179 A 
ATOM      4  N   LIG d   1       4.640   2.019  -9.868  0.00  0.00    -0.152 NA
ATOM      5  N   LIG d   1       3.544   1.472 -10.547  0.00  0.00    -0.258 N 
ATOM      6  H   LIG d   1       3.105   1.855 -11.322  0.00  0.00     0.191 HD
ENDROOT
BRANCH   1   7
ATOM      7  N   LIG d   1       2.179  -0.525 -10.275  0.00  0.00    -0.236 NA
ATOM      8  C   LIG d   1       2.300  -1.301 -11.318  0.00  0.00     0.041 C 
ATOM      9  H   LIG d   1       3.209  -1.281 -11.901  0.00  0.00     0.084 H 
BRANCH   8  10
ATOM     10  C   LIG d   1       1.202  -2.199 -11.698  0.00  0.00     0.038 A 
ATOM     11  C   LIG d   1       0.432  -1.928 -12.835  0.00  0.00    -0.049 A 
ATOM     12  C   LIG d   1      -0.596  -2.774 -13.188  0.00  0.00    -0.058 A 
ATOM     13  H   LIG d   1       0.645  -1.057 -13.436  0.00  0.00     0.062 H 
ATOM     14  C   LIG d   1      -0.875  -3.895 -12.423  0.00  0.00    -0.016 A 
ATOM     15  H   LIG d   1      -1.189  -2.562 -14.066  0.00  0.00     0.062 H 
ATOM     16  C   LIG d   1      -0.122  -4.177 -11.294  0.00  0.00     0.162 A 
ATOM     17  H   LIG d   1      -1.683  -4.552 -12.708  0.00  0.00     0.066 H 
ATOM     18  C   LIG d   1       0.916  -3.331 -10.921  0.00  0.00     0.167 A 
BRANCH  16  19
ATOM     19  O   LIG d   1      -0.402  -5.280 -10.550  0.00  0.00    -0.491 OA
BRANCH  19  20
ATOM     20  C   LIG d   1      -1.698  -5.349  -9.953  0.00  0.00     0.079 C 
ATOM     21  H   LIG d   1      -1.914  -6.378  -9.669  0.00  0.00     0.066 H 
ATOM     22  H   LIG d   1      -1.724  -4.715  -9.067  0.00  0.00     0.066 H 
ATOM     23  H   LIG d   1      -2.446  -5.005 -10.669  0.00  0.00     0.066 H 
ENDBRANCH  19  20
ENDBRANCH  16  19
BRANCH  18  24
ATOM     24  O   LIG d   1       1.652  -3.602  -9.812  0.00  0.00    -0.503 OA
ATOM     25  H   LIG d   1       2.161  -4.423  -9.869  0.00  0.00     0.292 HD
ENDBRANCH  18  24
ENDBRANCH   8  10
ENDBRANCH   1   7
BRANCH   2  26
ATOM     26  C   LIG d   1       4.079  -1.028  -7.906  0.00  0.00     0.005 C 
ATOM     27  H   LIG d   1       3.262  -1.709  -8.147  0.00  0.00     0.036 H 
ATOM     28  H   LIG d   1       5.027  -1.559  -7.980  0.00  0.00     0.036 H 
BRANCH  26  29
ATOM     29  C   LIG d   1       3.902  -0.510  -6.503  0.00  0.00    -0.043 A 
ATOM     30  C   LIG d   1       2.793   0.251  -6.182  0.00  0.00    -0.057 A 
ATOM     31  C   LIG d   1       2.628   0.723  -4.893  0.00  0.00    -0.043 A 
ATOM     32  H   LIG d   1       2.054   0.474  -6.937  0.00  0.00     0.062 H 
ATOM     33  C   LIG d   1       3.579   0.444  -3.927  0.00  0.00     0.041 A 
ATOM     34  H   LIG d   1       1.759   1.314  -4.641  0.00  0.00     0.063 H 
ATOM     35  C   LIG d   1       4.690  -0.313  -4.250  0.00  0.00    -0.043 A 
ATOM     36 CL   LIG d   1       3.374   1.042  -2.310  0.00  0.00    -0.084 Cl
ATOM     37  C   LIG d   1       4.852  -0.789  -5.538  0.00  0.00    -0.057 A 
ATOM     38  H   LIG d   1       5.432  -0.531  -3.496  0.00  0.00     0.063 H 
ATOM     39  H   LIG d   1       5.720  -1.380  -5.790  0.00  0.00     0.062 H 
ENDBRANCH  26  29
ENDBRANCH   2  26
BRANCH   3  40
ATOM     40  N   LIG d   1       5.986   1.415  -7.983  0.00  0.00    -0.234 NA
ATOM     41  C   LIG d   1       7.096   0.744  -8.110  0.00  0.00     0.041 C 
ATOM     42  H   LIG d   1       7.208   0.033  -8.915  0.00  0.00     0.084 H 
BRANCH  41  43
ATOM     43  C   LIG d   1       8.196   0.956  -7.157  0.00  0.00     0.038 A 
ATOM     44  C   LIG d   1       8.952   2.135  -7.204  0.00  0.00     0.167 A 
ATOM     45  C   LIG d   1       9.986   2.327  -6.295  0.00  0.00     0.162 A 
ATOM     46  C   LIG d   1      10.273   1.350  -5.355  0.00  0.00    -0.016 A 
ATOM     47  C   LIG d   1       9.530   0.181  -5.311  0.00  0.00    -0.058 A 
ATOM     48  H   LIG d   1      11.079   1.501  -4.653  0.00  0.00     0.066 H 
ATOM     49  C   LIG d   1       8.499  -0.022  -6.202  0.00  0.00    -0.049 A 
ATOM     50  H   LIG d   1       9.761  -0.574  -4.576  0.00  0.00     0.062 H 
ATOM     51  H   LIG d   1       7.923  -0.934  -6.163  0.00  0.00     0.062 H 
BRANCH  44  52
ATOM     52  O   LIG d   1       8.672   3.088  -8.130  0.00  0.00    -0.503 OA
ATOM     53  H   LIG d   1       9.135   3.925  -7.986  0.00  0.00     0.292 HD
ENDBRANCH  44  52
BRANCH  45  54
ATOM     54  O   LIG d   1      10.718   3.473  -6.330  0.00  0.00    -0.491 OA
BRANCH  54  55
ATOM     55  C   LIG d   1      10.438   4.453  -5.329  0.00  0.00     0.079 C 
ATOM     56  H   LIG d   1       9.574   5.045  -5.632  0.00  0.00     0.066 H 
ATOM     57  H   LIG d   1      10.222   3.956  -4.383  0.00  0.00     0.066 H 
ATOM     58  H   LIG d   1      11.301   5.107  -5.207  0.00  0.00     0.066 H 
ENDBRANCH  54  55
ENDBRANCH  45  54
ENDBRANCH  41  43
ENDBRANCH   3  40
TORSDOF 12
ENDMDL
MODEL 9
REMARK VINA RESULT:      -6.1     12.496     15.485
REMARK  12 active torsions:
REMARK  status: ('A' for Active; 'I' for Inactive)
REMARK    1  A    between atoms: C_1  and  O_2 
REMARK    2  A    between atoms: O_2  and  C_3 
REMARK    3  A    between atoms: C_7  and  C_10 
REMARK    4  A    between atoms: C_8  and  O_9 
REMARK    5  A    between atoms: N_11  and  C_12 
REMARK    6  A    between atoms: C_13  and  C_29 
REMARK    7  A    between atoms: C_14  and  N_18 
REMARK    8  A    between atoms: C_19  and  C_20 
REMARK    9  A    between atoms: C_24  and  O_27 
REMARK   10  A    between atoms: C_25  and  O_26 
REMARK   11  A    between atoms: O_27  and  C_28 
REMARK   12  A    between atoms: C_29  and  C_30 
ROOT
ATOM      1  C   LIG d   1      11.193   6.387  -0.207  0.00  0.00     0.154 A 
ATOM      2  C   LIG d   1      11.455   7.307   0.785  0.00  0.00     0.046 A 
ATOM      3  C   LIG d   1      11.186   6.688   2.020  0.00  0.00     0.179 A 
ATOM      4  N   LIG d   1      10.780   5.455   1.786  0.00  0.00    -0.152 NA
ATOM      5  N   LIG d   1      10.769   5.241   0.403  0.00  0.00    -0.258 N 
ATOM      6  H   LIG d   1      10.509   4.420  -0.044  0.00  0.00     0.191 HD
ENDROOT
BRANCH   1   7
ATOM      7  N   LIG d   1      11.325   6.587  -1.548  0.00  0.00    -0.236 NA
ATOM      8  C   LIG d   1      10.288   6.465  -2.331  0.00  0.00     0.041 C 
ATOM      9  H   LIG d   1       9.325   6.206  -1.916  0.00  0.00     0.084 H 
BRANCH   8  10
ATOM     10  C   LIG d   1      10.431   6.681  -3.778  0.00  0.00     0.038 A 
ATOM     11  C   LIG d   1       9.726   7.713  -4.409  0.00  0.00    -0.049 A 
ATOM     12  C   LIG d   1       9.863   7.910  -5.765  0.00  0.00    -0.058 A 
ATOM     13  H   LIG d   1       9.076   8.353  -3.833  0.00  0.00     0.062 H 
ATOM     14  C   LIG d   1      10.697   7.093  -6.512  0.00  0.00    -0.016 A 
ATOM     15  H   LIG d   1       9.319   8.707  -6.250  0.00  0.00     0.062 H 
ATOM     16  C   LIG d   1      11.402   6.067  -5.901  0.00  0.00     0.162 A 
ATOM     17  H   LIG d   1      10.798   7.257  -7.574  0.00  0.00     0.066 H 
ATOM     18  C   LIG d   1      11.269   5.850  -4.535  0.00  0.00     0.167 A 
BRANCH  16  19
ATOM     19  O   LIG d   1      12.218   5.271  -6.641  0.00  0.00    -0.491 OA
BRANCH  19  20
ATOM     20  C   LIG d   1      12.423   5.640  -8.007  0.00  0.00     0.079 C 
ATOM     21  H   LIG d   1      13.361   5.215  -8.361  0.00  0.00     0.066 H 
ATOM     22  H   LIG d   1      11.600   5.261  -8.613  0.00  0.00     0.066 H 
ATOM     23  H   LIG d   1      12.463   6.727  -8.086  0.00  0.00     0.066 H 
ENDBRANCH  19  20
ENDBRANCH  16  19
BRANCH  18  24
ATOM     24  O   LIG d   1      11.954   4.842  -3.935  0.00  0.00    -0.503 OA
ATOM     25  H   LIG d   1      12.031   4.935  -2.975  0.00  0.00     0.292 HD
ENDBRANCH  18  24
ENDBRANCH   8  10
ENDBRANCH   1   7
BRANCH   2  26
ATOM     26  C   LIG d   1      11.942   8.719   0.584  0.00  0.00     0.005 C 
ATOM     27  H   LIG d   1      11.950   9.241   1.541  0.00  0.00     0.036 H 
ATOM     28  H   LIG d   1      12.952   8.700   0.174  0.00  0.00     0.036 H 
BRANCH  26  29
ATOM     29  C   LIG d   1      11.026   9.437  -0.372  0.00  0.00    -0.043 A 
ATOM     30  C   LIG d   1      11.546  10.059  -1.492  0.00  0.00    -0.057 A 
ATOM     31  C   LIG d   1      10.705  10.713  -2.372  0.00  0.00    -0.043 A 
ATOM     32  H   LIG d   1      12.609  10.030  -1.681  0.00  0.00     0.062 H 
ATOM     33  C   LIG d   1       9.344  10.756  -2.127  0.00  0.00     0.041 A 
ATOM     34  H   LIG d   1      11.111  11.196  -3.250  0.00  0.00     0.063 H 
ATOM     35  C   LIG d   1       8.825  10.138  -1.003  0.00  0.00    -0.043 A 
ATOM     36 CL   LIG d   1       8.288  11.584  -3.229  0.00  0.00    -0.084 Cl
ATOM     37  C   LIG d   1       9.666   9.478  -0.127  0.00  0.00    -0.057 A 
ATOM     38  H   LIG d   1       7.762  10.171  -0.811  0.00  0.00     0.063 H 
ATOM     39  H   LIG d   1       9.261   8.997   0.751  0.00  0.00     0.062 H 
ENDBRANCH  26  29
ENDBRANCH   2  26
BRANCH   3  40
ATOM     40  N   LIG d   1      11.322   7.268   3.253  0.00  0.00    -0.234 NA
ATOM     41  C   LIG d   1      11.254   6.535   4.328  0.00  0.00     0.041 C 
ATOM     42  H   LIG d   1      11.091   5.471   4.247  0.00  0.00     0.084 H 
BRANCH  41  43
ATOM     43  C   LIG d   1      11.401   7.157   5.653  0.00  0.00     0.038 A 
ATOM     44  C   LIG d   1      12.318   8.200   5.844  0.00  0.00     0.167 A 
ATOM     45  C   LIG d   1      12.443   8.785   7.100  0.00  0.00     0.162 A 
ATOM     46  C   LIG d   1      11.673   8.328   8.157  0.00  0.00    -0.016 A 
ATOM     47  C   LIG d   1      10.771   7.293   7.970  0.00  0.00    -0.058 A 
ATOM     48  H   LIG d   1      11.776   8.782   9.132  0.00  0.00     0.066 H 
ATOM     49  C   LIG d   1      10.630   6.708   6.731  0.00  0.00    -0.049 A 
ATOM     50  H   LIG d   1      10.175   6.944   8.800  0.00  0.00     0.062 H 
ATOM     51  H   LIG d   1       9.925   5.901   6.591  0.00  0.00     0.062 H 
BRANCH  44  52
ATOM     52  O   LIG d   1      13.075   8.641   4.807  0.00  0.00    -0.503 OA
ATOM     53  H   LIG d   1      12.665   8.520   3.940  0.00  0.00     0.292 HD
ENDBRANCH  44  52
BRANCH  45  54
ATOM     54  O   LIG d   1      13.325   9.802   7.290  0.00  0.00    -0.491 OA
BRANCH  54  55
ATOM     55  C   LIG d   1      12.786  11.123   7.365  0.00  0.00     0.079 C 
ATOM     56  H   LIG d   1      12.238  11.240   8.300  0.00  0.00     0.066 H 
ATOM     57  H   LIG d   1      13.598  11.851   7.327  0.00  0.00     0.066 H 
ATOM     58  H   LIG d   1      12.111  11.289   6.526  0.00  0.00     0.066 H 
ENDBRANCH  54  55
ENDBRANCH  45  54
ENDBRANCH  41  43
ENDBRANCH   3  40
TORSDOF 12
ENDMDL
