MODEL 1
REMARK VINA RESULT:      -7.2      0.000      0.000
REMARK  9 active torsions:
REMARK  status: ('A' for Active; 'I' for Inactive)
REMARK    1  A    between atoms: C_1  and  C_2 
REMARK    2  A    between atoms: C_2  and  C_4 
REMARK    3  A    between atoms: C_2  and  N_10 
REMARK    4  A    between atoms: N_10  and  C_11 
REMARK    5  A    between atoms: C_11  and  C_12 
REMARK    6  A    between atoms: C_12  and  C_13 
REMARK    7  A    between atoms: C_13  and  C_15 
REMARK    8  A    between atoms: C_13  and  C_22 
REMARK    9  A    between atoms: C_15  and  C_16 
ROOT
ATOM      1  C   LIG d   1       4.600  -3.700  -5.891  0.00  0.00    -0.003 C 
ATOM      2  H   LIG d   1       3.570  -3.908  -5.602  0.00  0.00     0.032 H 
ATOM      3  H   LIG d   1       5.164  -4.633  -5.918  0.00  0.00     0.032 H 
ENDROOT
BRANCH   1   4
ATOM      4  C   LIG d   1       4.623  -3.051  -7.275  0.00  0.00    -0.032 C 
ATOM      5  H   LIG d   1       4.180  -3.732  -8.002  0.00  0.00     0.081 H 
ATOM      6  H   LIG d   1       5.653  -2.837  -7.560  0.00  0.00     0.081 H 
BRANCH   4   7
ATOM      7  N   LIG d   1       3.853  -1.801  -7.243  0.00  0.00     0.232 N 
ATOM      8  H   LIG d   1       4.479  -1.025  -7.086  0.00  0.00     0.202 HD
ATOM      9  H   LIG d   1       3.175  -1.841  -6.498  0.00  0.00     0.202 HD
BRANCH   7  10
ATOM     10  C   LIG d   1       3.160  -1.619  -8.526  0.00  0.00     0.000 C 
ATOM     11  H   LIG d   1       2.105  -1.864  -8.407  0.00  0.00     0.090 H 
BRANCH  10  12
ATOM     12  C   LIG d   1       3.783  -2.539  -9.578  0.00  0.00    -0.017 C 
ATOM     13  H   LIG d   1       3.031  -2.798 -10.324  0.00  0.00     0.029 H 
ATOM     14  H   LIG d   1       4.615  -2.028 -10.062  0.00  0.00     0.029 H 
ATOM     15  H   LIG d   1       4.144  -3.448  -9.097  0.00  0.00     0.029 H 
ENDBRANCH  10  12
BRANCH  10  16
ATOM     16  C   LIG d   1       3.295  -0.185  -8.970  0.00  0.00    -0.000 A 
ATOM     17  C   LIG d   1       2.910   0.840  -8.125  0.00  0.00    -0.053 A 
ATOM     18  C   LIG d   1       3.036   2.155  -8.530  0.00  0.00    -0.061 A 
ATOM     19  H   LIG d   1       2.513   0.612  -7.147  0.00  0.00     0.062 H 
ATOM     20  C   LIG d   1       3.539   2.446  -9.785  0.00  0.00    -0.062 A 
ATOM     21  H   LIG d   1       2.740   2.954  -7.869  0.00  0.00     0.062 H 
ATOM     22  C   LIG d   1       3.919   1.422 -10.632  0.00  0.00    -0.061 A 
ATOM     23  H   LIG d   1       3.637   3.474 -10.103  0.00  0.00     0.062 H 
ATOM     24  C   LIG d   1       3.796   0.106 -10.224  0.00  0.00    -0.053 A 
ATOM     25  H   LIG d   1       4.312   1.649 -11.612  0.00  0.00     0.062 H 
ATOM     26  H   LIG d   1       4.093  -0.694 -10.886  0.00  0.00     0.062 H 
ENDBRANCH  10  16
ENDBRANCH   7  10
ENDBRANCH   4   7
ENDBRANCH   1   4
BRANCH   1  27
ATOM     27  C   LIG d   1       5.234  -2.750  -4.872  0.00  0.00     0.026 C 
ATOM     28  H   LIG d   1       5.293  -1.749  -5.297  0.00  0.00     0.038 H 
BRANCH  27  29
ATOM     29  C   LIG d   1       4.375  -2.716  -3.605  0.00  0.00    -0.018 C 
ATOM     30  H   LIG d   1       3.422  -3.207  -3.799  0.00  0.00     0.032 H 
ATOM     31  H   LIG d   1       4.895  -3.235  -2.800  0.00  0.00     0.032 H 
BRANCH  29  32
ATOM     32  C   LIG d   1       4.131  -1.284  -3.204  0.00  0.00    -0.047 A 
ATOM     33  C   LIG d   1       3.369  -0.460  -4.012  0.00  0.00    -0.059 A 
ATOM     34  C   LIG d   1       3.140   0.852  -3.641  0.00  0.00    -0.061 A 
ATOM     35  H   LIG d   1       2.949  -0.844  -4.930  0.00  0.00     0.062 H 
ATOM     36  C   LIG d   1       3.681   1.343  -2.468  0.00  0.00    -0.062 A 
ATOM     37  H   LIG d   1       2.541   1.493  -4.269  0.00  0.00     0.062 H 
ATOM     38  C   LIG d   1       4.448   0.522  -1.663  0.00  0.00    -0.061 A 
ATOM     39  H   LIG d   1       3.505   2.369  -2.181  0.00  0.00     0.062 H 
ATOM     40  C   LIG d   1       4.672  -0.792  -2.031  0.00  0.00    -0.059 A 
ATOM     41  H   LIG d   1       4.871   0.905  -0.747  0.00  0.00     0.062 H 
ATOM     42  H   LIG d   1       5.271  -1.434  -1.402  0.00  0.00     0.062 H 
ENDBRANCH  29  32
ENDBRANCH  27  29
BRANCH  27  43
ATOM     43  C   LIG d   1       6.618  -3.234  -4.528  0.00  0.00     0.108 A 
ATOM     44  O   LIG d   1       7.163  -4.399  -4.916  0.00  0.00    -0.468 OA
ATOM     45  C   LIG d   1       8.411  -4.495  -4.427  0.00  0.00     0.092 A 
ATOM     46  C   LIG d   1       8.671  -3.388  -3.709  0.00  0.00    -0.024 A 
ATOM     47  H   LIG d   1       9.088  -5.321  -4.582  0.00  0.00     0.103 H 
ATOM     48  C   LIG d   1       7.516  -2.575  -3.773  0.00  0.00    -0.020 A 
ATOM     49  H   LIG d   1       9.589  -3.163  -3.184  0.00  0.00     0.065 H 
ATOM     50  H   LIG d   1       7.382  -1.611  -3.307  0.00  0.00     0.065 H 
ENDBRANCH  27  43
ENDBRANCH   1  27
TORSDOF 9
ENDMDL
MODEL 2
REMARK VINA RESULT:      -7.1      2.454      4.277
REMARK  9 active torsions:
REMARK  status: ('A' for Active; 'I' for Inactive)
REMARK    1  A    between atoms: C_1  and  C_2 
REMARK    2  A    between atoms: C_2  and  C_4 
REMARK    3  A    between atoms: C_2  and  N_10 
REMARK    4  A    between atoms: N_10  and  C_11 
REMARK    5  A    between atoms: C_11  and  C_12 
REMARK    6  A    between atoms: C_12  and  C_13 
REMARK    7  A    between atoms: C_13  and  C_15 
REMARK    8  A    between atoms: C_13  and  C_22 
REMARK    9  A    between atoms: C_15  and  C_16 
ROOT
ATOM      1  C   LIG d   1       4.806  -0.646  -6.033  0.00  0.00    -0.003 C 
ATOM      2  H   LIG d   1       4.741  -0.824  -4.960  0.00  0.00     0.032 H 
ATOM      3  H   LIG d   1       5.575   0.101  -6.231  0.00  0.00     0.032 H 
ENDROOT
BRANCH   1   4
ATOM      4  C   LIG d   1       5.169  -1.950  -6.746  0.00  0.00    -0.032 C 
ATOM      5  H   LIG d   1       5.739  -2.587  -6.070  0.00  0.00     0.081 H 
ATOM      6  H   LIG d   1       5.770  -1.727  -7.628  0.00  0.00     0.081 H 
BRANCH   4   7
ATOM      7  N   LIG d   1       3.940  -2.644  -7.153  0.00  0.00     0.232 N 
ATOM      8  H   LIG d   1       3.170  -1.992  -7.153  0.00  0.00     0.202 HD
ATOM      9  H   LIG d   1       3.745  -3.392  -6.506  0.00  0.00     0.202 HD
BRANCH   7  10
ATOM     10  C   LIG d   1       4.113  -3.196  -8.503  0.00  0.00     0.000 C 
ATOM     11  H   LIG d   1       3.604  -4.158  -8.570  0.00  0.00     0.090 H 
BRANCH  10  12
ATOM     12  C   LIG d   1       5.604  -3.388  -8.789  0.00  0.00    -0.017 C 
ATOM     13  H   LIG d   1       5.735  -4.193  -9.513  0.00  0.00     0.029 H 
ATOM     14  H   LIG d   1       6.018  -2.464  -9.194  0.00  0.00     0.029 H 
ATOM     15  H   LIG d   1       6.121  -3.643  -7.864  0.00  0.00     0.029 H 
ENDBRANCH  10  12
BRANCH  10  16
ATOM     16  C   LIG d   1       3.526  -2.245  -9.514  0.00  0.00    -0.000 A 
ATOM     17  C   LIG d   1       2.161  -2.024  -9.543  0.00  0.00    -0.053 A 
ATOM     18  C   LIG d   1       1.622  -1.149 -10.468  0.00  0.00    -0.061 A 
ATOM     19  H   LIG d   1       1.517  -2.532  -8.842  0.00  0.00     0.062 H 
ATOM     20  C   LIG d   1       2.447  -0.503 -11.370  0.00  0.00    -0.062 A 
ATOM     21  H   LIG d   1       0.558  -0.973 -10.487  0.00  0.00     0.062 H 
ATOM     22  C   LIG d   1       3.811  -0.728 -11.344  0.00  0.00    -0.061 A 
ATOM     23  H   LIG d   1       2.026   0.180 -12.094  0.00  0.00     0.062 H 
ATOM     24  C   LIG d   1       4.350  -1.600 -10.417  0.00  0.00    -0.053 A 
ATOM     25  H   LIG d   1       4.456  -0.223 -12.049  0.00  0.00     0.062 H 
ATOM     26  H   LIG d   1       5.415  -1.776 -10.396  0.00  0.00     0.062 H 
ENDBRANCH  10  16
ENDBRANCH   7  10
ENDBRANCH   4   7
ENDBRANCH   1   4
BRANCH   1  27
ATOM     27  C   LIG d   1       3.458  -0.140  -6.549  0.00  0.00     0.026 C 
ATOM     28  H   LIG d   1       2.881  -0.978  -6.938  0.00  0.00     0.038 H 
BRANCH  27  29
ATOM     29  C   LIG d   1       2.688   0.520  -5.402  0.00  0.00    -0.018 C 
ATOM     30  H   LIG d   1       2.765   1.604  -5.490  0.00  0.00     0.032 H 
ATOM     31  H   LIG d   1       1.641   0.225  -5.451  0.00  0.00     0.032 H 
BRANCH  29  32
ATOM     32  C   LIG d   1       3.275   0.079  -4.086  0.00  0.00    -0.047 A 
ATOM     33  C   LIG d   1       3.165  -1.241  -3.688  0.00  0.00    -0.059 A 
ATOM     34  C   LIG d   1       3.707  -1.647  -2.483  0.00  0.00    -0.061 A 
ATOM     35  H   LIG d   1       2.659  -1.955  -4.322  0.00  0.00     0.062 H 
ATOM     36  C   LIG d   1       4.350  -0.732  -1.672  0.00  0.00    -0.062 A 
ATOM     37  H   LIG d   1       3.626  -2.679  -2.175  0.00  0.00     0.062 H 
ATOM     38  C   LIG d   1       4.455   0.588  -2.066  0.00  0.00    -0.061 A 
ATOM     39  H   LIG d   1       4.771  -1.049  -0.729  0.00  0.00     0.062 H 
ATOM     40  C   LIG d   1       3.918   0.994  -3.273  0.00  0.00    -0.059 A 
ATOM     41  H   LIG d   1       4.958   1.303  -1.432  0.00  0.00     0.062 H 
ATOM     42  H   LIG d   1       4.000   2.026  -3.582  0.00  0.00     0.062 H 
ENDBRANCH  29  32
ENDBRANCH  27  29
BRANCH  27  43
ATOM     43  C   LIG d   1       3.687   0.867  -7.646  0.00  0.00     0.108 A 
ATOM     44  O   LIG d   1       4.874   1.181  -8.190  0.00  0.00    -0.468 OA
ATOM     45  C   LIG d   1       4.699   2.114  -9.141  0.00  0.00     0.092 A 
ATOM     46  C   LIG d   1       3.388   2.413  -9.205  0.00  0.00    -0.024 A 
ATOM     47  H   LIG d   1       5.477   2.552  -9.747  0.00  0.00     0.103 H 
ATOM     48  C   LIG d   1       2.736   1.610  -8.242  0.00  0.00    -0.020 A 
ATOM     49  H   LIG d   1       2.924   3.130  -9.867  0.00  0.00     0.065 H 
ATOM     50  H   LIG d   1       1.678   1.595  -8.027  0.00  0.00     0.065 H 
ENDBRANCH  27  43
ENDBRANCH   1  27
TORSDOF 9
ENDMDL
MODEL 3
REMARK VINA RESULT:      -7.1      2.337      4.617
REMARK  9 active torsions:
REMARK  status: ('A' for Active; 'I' for Inactive)
REMARK    1  A    between atoms: C_1  and  C_2 
REMARK    2  A    between atoms: C_2  and  C_4 
REMARK    3  A    between atoms: C_2  and  N_10 
REMARK    4  A    between atoms: N_10  and  C_11 
REMARK    5  A    between atoms: C_11  and  C_12 
REMARK    6  A    between atoms: C_12  and  C_13 
REMARK    7  A    between atoms: C_13  and  C_15 
REMARK    8  A    between atoms: C_13  and  C_22 
REMARK    9  A    between atoms: C_15  and  C_16 
ROOT
ATOM      1  C   LIG d   1       4.300  -2.143  -5.342  0.00  0.00    -0.003 C 
ATOM      2  H   LIG d   1       3.265  -2.481  -5.286  0.00  0.00     0.032 H 
ATOM      3  H   LIG d   1       4.830  -2.446  -4.438  0.00  0.00     0.032 H 
ENDROOT
BRANCH   1   4
ATOM      4  C   LIG d   1       4.976  -2.769  -6.562  0.00  0.00    -0.032 C 
ATOM      5  H   LIG d   1       5.624  -3.584  -6.241  0.00  0.00     0.081 H 
ATOM      6  H   LIG d   1       5.572  -2.013  -7.075  0.00  0.00     0.081 H 
BRANCH   4   7
ATOM      7  N   LIG d   1       3.952  -3.289  -7.477  0.00  0.00     0.232 N 
ATOM      8  H   LIG d   1       3.128  -2.709  -7.424  0.00  0.00     0.202 HD
ATOM      9  H   LIG d   1       3.715  -4.234  -7.215  0.00  0.00     0.202 HD
BRANCH   7  10
ATOM     10  C   LIG d   1       4.471  -3.278  -8.852  0.00  0.00     0.000 C 
ATOM     11  H   LIG d   1       4.409  -4.283  -9.271  0.00  0.00     0.090 H 
BRANCH  10  12
ATOM     12  C   LIG d   1       5.931  -2.818  -8.843  0.00  0.00    -0.017 C 
ATOM     13  H   LIG d   1       6.181  -2.386  -9.812  0.00  0.00     0.029 H 
ATOM     14  H   LIG d   1       6.071  -2.070  -8.063  0.00  0.00     0.029 H 
ATOM     15  H   LIG d   1       6.579  -3.673  -8.648  0.00  0.00     0.029 H 
ENDBRANCH  10  12
BRANCH  10  16
ATOM     16  C   LIG d   1       3.651  -2.332  -9.691  0.00  0.00    -0.000 A 
ATOM     17  C   LIG d   1       4.235  -1.668 -10.754  0.00  0.00    -0.053 A 
ATOM     18  C   LIG d   1       3.483  -0.803 -11.526  0.00  0.00    -0.061 A 
ATOM     19  H   LIG d   1       5.278  -1.828 -10.983  0.00  0.00     0.062 H 
ATOM     20  C   LIG d   1       2.148  -0.595 -11.229  0.00  0.00    -0.062 A 
ATOM     21  H   LIG d   1       3.937  -0.288 -12.358  0.00  0.00     0.062 H 
ATOM     22  C   LIG d   1       1.566  -1.254 -10.162  0.00  0.00    -0.061 A 
ATOM     23  H   LIG d   1       1.561   0.083 -11.831  0.00  0.00     0.062 H 
ATOM     24  C   LIG d   1       2.318  -2.123  -9.394  0.00  0.00    -0.053 A 
ATOM     25  H   LIG d   1       0.524  -1.092  -9.931  0.00  0.00     0.062 H 
ATOM     26  H   LIG d   1       1.863  -2.639  -8.561  0.00  0.00     0.062 H 
ENDBRANCH  10  16
ENDBRANCH   7  10
ENDBRANCH   4   7
ENDBRANCH   1   4
BRANCH   1  27
ATOM     27  C   LIG d   1       4.333  -0.619  -5.466  0.00  0.00     0.026 C 
ATOM     28  H   LIG d   1       5.264  -0.314  -5.942  0.00  0.00     0.038 H 
BRANCH  27  29
ATOM     29  C   LIG d   1       3.149  -0.150  -6.315  0.00  0.00    -0.018 C 
ATOM     30  H   LIG d   1       2.610  -1.017  -6.696  0.00  0.00     0.032 H 
ATOM     31  H   LIG d   1       2.480   0.454  -5.703  0.00  0.00     0.032 H 
BRANCH  29  32
ATOM     32  C   LIG d   1       3.656   0.674  -7.470  0.00  0.00    -0.047 A 
ATOM     33  C   LIG d   1       4.977   0.572  -7.865  0.00  0.00    -0.059 A 
ATOM     34  C   LIG d   1       5.442   1.324  -8.928  0.00  0.00    -0.061 A 
ATOM     35  H   LIG d   1       5.645  -0.100  -7.346  0.00  0.00     0.062 H 
ATOM     36  C   LIG d   1       4.587   2.185  -9.590  0.00  0.00    -0.062 A 
ATOM     37  H   LIG d   1       6.472   1.240  -9.240  0.00  0.00     0.062 H 
ATOM     38  C   LIG d   1       3.268   2.293  -9.192  0.00  0.00    -0.061 A 
ATOM     39  H   LIG d   1       4.951   2.775 -10.418  0.00  0.00     0.062 H 
ATOM     40  C   LIG d   1       2.802   1.537  -8.132  0.00  0.00    -0.059 A 
ATOM     41  H   LIG d   1       2.600   2.966  -9.709  0.00  0.00     0.062 H 
ATOM     42  H   LIG d   1       1.771   1.620  -7.821  0.00  0.00     0.062 H 
ENDBRANCH  29  32
ENDBRANCH  27  29
BRANCH  27  43
ATOM     43  C   LIG d   1       4.242  -0.002  -4.094  0.00  0.00     0.108 A 
ATOM     44  O   LIG d   1       3.666   1.174  -3.798  0.00  0.00    -0.468 OA
ATOM     45  C   LIG d   1       3.769   1.404  -2.478  0.00  0.00     0.092 A 
ATOM     46  C   LIG d   1       4.426   0.373  -1.918  0.00  0.00    -0.024 A 
ATOM     47  H   LIG d   1       3.391   2.271  -1.957  0.00  0.00     0.103 H 
ATOM     48  C   LIG d   1       4.732  -0.534  -2.959  0.00  0.00    -0.020 A 
ATOM     49  H   LIG d   1       4.673   0.259  -0.872  0.00  0.00     0.065 H 
ATOM     50  H   LIG d   1       5.256  -1.472  -2.861  0.00  0.00     0.065 H 
ENDBRANCH  27  43
ENDBRANCH   1  27
TORSDOF 9
ENDMDL
MODEL 4
REMARK VINA RESULT:      -6.9      2.353      4.124
REMARK  9 active torsions:
REMARK  status: ('A' for Active; 'I' for Inactive)
REMARK    1  A    between atoms: C_1  and  C_2 
REMARK    2  A    between atoms: C_2  and  C_4 
REMARK    3  A    between atoms: C_2  and  N_10 
REMARK    4  A    between atoms: N_10  and  C_11 
REMARK    5  A    between atoms: C_11  and  C_12 
REMARK    6  A    between atoms: C_12  and  C_13 
REMARK    7  A    between atoms: C_13  and  C_15 
REMARK    8  A    between atoms: C_13  and  C_22 
REMARK    9  A    between atoms: C_15  and  C_16 
ROOT
ATOM      1  C   LIG d   1       6.415  -0.241  -7.728  0.00  0.00    -0.003 C 
ATOM      2  H   LIG d   1       6.969  -0.734  -8.527  0.00  0.00     0.032 H 
ATOM      3  H   LIG d   1       7.108   0.074  -6.947  0.00  0.00     0.032 H 
ENDROOT
BRANCH   1   4
ATOM      4  C   LIG d   1       5.690   0.983  -8.289  0.00  0.00    -0.032 C 
ATOM      5  H   LIG d   1       6.243   1.885  -8.026  0.00  0.00     0.081 H 
ATOM      6  H   LIG d   1       4.686   1.037  -7.866  0.00  0.00     0.081 H 
BRANCH   4   7
ATOM      7  N   LIG d   1       5.601   0.872  -9.751  0.00  0.00     0.232 N 
ATOM      8  H   LIG d   1       5.579  -0.101 -10.014  0.00  0.00     0.202 HD
ATOM      9  H   LIG d   1       6.403   1.316 -10.172  0.00  0.00     0.202 HD
BRANCH   7  10
ATOM     10  C   LIG d   1       4.375   1.533 -10.218  0.00  0.00     0.000 C 
ATOM     11  H   LIG d   1       4.596   2.120 -11.110  0.00  0.00     0.090 H 
BRANCH  10  12
ATOM     12  C   LIG d   1       3.840   2.454  -9.120  0.00  0.00    -0.017 C 
ATOM     13  H   LIG d   1       2.928   2.940  -9.466  0.00  0.00     0.029 H 
ATOM     14  H   LIG d   1       3.623   1.867  -8.227  0.00  0.00     0.029 H 
ATOM     15  H   LIG d   1       4.588   3.211  -8.885  0.00  0.00     0.029 H 
ENDBRANCH  10  12
BRANCH  10  16
ATOM     16  C   LIG d   1       3.337   0.490 -10.549  0.00  0.00    -0.000 A 
ATOM     17  C   LIG d   1       3.386  -0.173 -11.762  0.00  0.00    -0.053 A 
ATOM     18  C   LIG d   1       2.438  -1.131 -12.064  0.00  0.00    -0.061 A 
ATOM     19  H   LIG d   1       4.167   0.056 -12.471  0.00  0.00     0.062 H 
ATOM     20  C   LIG d   1       1.435  -1.421 -11.157  0.00  0.00    -0.062 A 
ATOM     21  H   LIG d   1       2.479  -1.652 -13.008  0.00  0.00     0.062 H 
ATOM     22  C   LIG d   1       1.383  -0.754  -9.947  0.00  0.00    -0.061 A 
ATOM     23  H   LIG d   1       0.692  -2.169 -11.394  0.00  0.00     0.062 H 
ATOM     24  C   LIG d   1       2.334   0.201  -9.644  0.00  0.00    -0.053 A 
ATOM     25  H   LIG d   1       0.600  -0.980  -9.239  0.00  0.00     0.062 H 
ATOM     26  H   LIG d   1       2.294   0.722  -8.698  0.00  0.00     0.062 H 
ENDBRANCH  10  16
ENDBRANCH   7  10
ENDBRANCH   4   7
ENDBRANCH   1   4
BRANCH   1  27
ATOM     27  C   LIG d   1       5.392  -1.215  -7.141  0.00  0.00     0.026 C 
ATOM     28  H   LIG d   1       5.858  -1.796  -6.346  0.00  0.00     0.038 H 
BRANCH  27  29
ATOM     29  C   LIG d   1       4.209  -0.429  -6.569  0.00  0.00    -0.018 C 
ATOM     30  H   LIG d   1       4.435   0.637  -6.596  0.00  0.00     0.032 H 
ATOM     31  H   LIG d   1       3.319  -0.628  -7.165  0.00  0.00     0.032 H 
BRANCH  29  32
ATOM     32  C   LIG d   1       3.965  -0.856  -5.144  0.00  0.00    -0.047 A 
ATOM     33  C   LIG d   1       3.081  -0.146  -4.352  0.00  0.00    -0.059 A 
ATOM     34  C   LIG d   1       2.853  -0.540  -3.047  0.00  0.00    -0.061 A 
ATOM     35  H   LIG d   1       2.566   0.714  -4.755  0.00  0.00     0.062 H 
ATOM     36  C   LIG d   1       3.515  -1.638  -2.531  0.00  0.00    -0.062 A 
ATOM     37  H   LIG d   1       2.159   0.010  -2.430  0.00  0.00     0.062 H 
ATOM     38  C   LIG d   1       4.403  -2.344  -3.321  0.00  0.00    -0.061 A 
ATOM     39  H   LIG d   1       3.339  -1.944  -1.511  0.00  0.00     0.062 H 
ATOM     40  C   LIG d   1       4.627  -1.953  -4.628  0.00  0.00    -0.059 A 
ATOM     41  H   LIG d   1       4.921  -3.202  -2.918  0.00  0.00     0.062 H 
ATOM     42  H   LIG d   1       5.321  -2.505  -5.245  0.00  0.00     0.062 H 
ENDBRANCH  29  32
ENDBRANCH  27  29
BRANCH  27  43
ATOM     43  C   LIG d   1       4.902  -2.142  -8.223  0.00  0.00     0.108 A 
ATOM     44  O   LIG d   1       5.440  -2.275  -9.446  0.00  0.00    -0.468 OA
ATOM     45  C   LIG d   1       4.749  -3.192 -10.143  0.00  0.00     0.092 A 
ATOM     46  C   LIG d   1       3.749  -3.649  -9.366  0.00  0.00    -0.024 A 
ATOM     47  H   LIG d   1       4.957  -3.507 -11.154  0.00  0.00     0.103 H 
ATOM     48  C   LIG d   1       3.848  -2.973  -8.129  0.00  0.00    -0.020 A 
ATOM     49  H   LIG d   1       3.013  -4.392  -9.637  0.00  0.00     0.065 H 
ATOM     50  H   LIG d   1       3.202  -3.099  -7.274  0.00  0.00     0.065 H 
ENDBRANCH  27  43
ENDBRANCH   1  27
TORSDOF 9
ENDMDL
MODEL 5
REMARK VINA RESULT:      -6.8      2.581      4.697
REMARK  9 active torsions:
REMARK  status: ('A' for Active; 'I' for Inactive)
REMARK    1  A    between atoms: C_1  and  C_2 
REMARK    2  A    between atoms: C_2  and  C_4 
REMARK    3  A    between atoms: C_2  and  N_10 
REMARK    4  A    between atoms: N_10  and  C_11 
REMARK    5  A    between atoms: C_11  and  C_12 
REMARK    6  A    between atoms: C_12  and  C_13 
REMARK    7  A    between atoms: C_13  and  C_15 
REMARK    8  A    between atoms: C_13  and  C_22 
REMARK    9  A    between atoms: C_15  and  C_16 
ROOT
ATOM      1  C   LIG d   1       7.274  -0.275  -5.113  0.00  0.00    -0.003 C 
ATOM      2  H   LIG d   1       7.639  -1.281  -5.322  0.00  0.00     0.032 H 
ATOM      3  H   LIG d   1       7.568   0.016  -4.104  0.00  0.00     0.032 H 
ENDROOT
BRANCH   1   4
ATOM      4  C   LIG d   1       7.875   0.706  -6.121  0.00  0.00    -0.032 C 
ATOM      5  H   LIG d   1       8.613   0.189  -6.735  0.00  0.00     0.081 H 
ATOM      6  H   LIG d   1       8.358   1.525  -5.587  0.00  0.00     0.081 H 
BRANCH   4   7
ATOM      7  N   LIG d   1       6.811   1.240  -6.980  0.00  0.00     0.232 N 
ATOM      8  H   LIG d   1       6.601   2.189  -6.705  0.00  0.00     0.202 HD
ATOM      9  H   LIG d   1       5.983   0.673  -6.883  0.00  0.00     0.202 HD
BRANCH   7  10
ATOM     10  C   LIG d   1       7.256   1.223  -8.380  0.00  0.00     0.000 C 
ATOM     11  H   LIG d   1       7.838   0.320  -8.565  0.00  0.00     0.090 H 
BRANCH  10  12
ATOM     12  C   LIG d   1       8.122   2.455  -8.656  0.00  0.00    -0.017 C 
ATOM     13  H   LIG d   1       7.516   3.355  -8.549  0.00  0.00     0.029 H 
ATOM     14  H   LIG d   1       8.948   2.485  -7.946  0.00  0.00     0.029 H 
ATOM     15  H   LIG d   1       8.516   2.401  -9.671  0.00  0.00     0.029 H 
ENDBRANCH  10  12
BRANCH  10  16
ATOM     16  C   LIG d   1       6.054   1.240  -9.289  0.00  0.00    -0.000 A 
ATOM     17  C   LIG d   1       5.932   0.295 -10.291  0.00  0.00    -0.053 A 
ATOM     18  C   LIG d   1       4.828   0.308 -11.123  0.00  0.00    -0.061 A 
ATOM     19  H   LIG d   1       6.697  -0.455 -10.422  0.00  0.00     0.062 H 
ATOM     20  C   LIG d   1       3.850   1.271 -10.959  0.00  0.00    -0.062 A 
ATOM     21  H   LIG d   1       4.731  -0.433 -11.901  0.00  0.00     0.062 H 
ATOM     22  C   LIG d   1       3.975   2.220  -9.961  0.00  0.00    -0.061 A 
ATOM     23  H   LIG d   1       2.989   1.283 -11.610  0.00  0.00     0.062 H 
ATOM     24  C   LIG d   1       5.077   2.204  -9.126  0.00  0.00    -0.053 A 
ATOM     25  H   LIG d   1       3.212   2.973  -9.832  0.00  0.00     0.062 H 
ATOM     26  H   LIG d   1       5.175   2.945  -8.346  0.00  0.00     0.062 H 
ENDBRANCH  10  16
ENDBRANCH   7  10
ENDBRANCH   4   7
ENDBRANCH   1   4
BRANCH   1  27
ATOM     27  C   LIG d   1       5.748  -0.251  -5.226  0.00  0.00     0.026 C 
ATOM     28  H   LIG d   1       5.449   0.516  -5.940  0.00  0.00     0.038 H 
BRANCH  27  29
ATOM     29  C   LIG d   1       5.252  -1.617  -5.709  0.00  0.00    -0.018 C 
ATOM     30  H   LIG d   1       6.096  -2.200  -6.077  0.00  0.00     0.032 H 
ATOM     31  H   LIG d   1       4.779  -2.144  -4.881  0.00  0.00     0.032 H 
BRANCH  29  32
ATOM     32  C   LIG d   1       4.252  -1.423  -6.819  0.00  0.00    -0.047 A 
ATOM     33  C   LIG d   1       3.408  -0.328  -6.806  0.00  0.00    -0.059 A 
ATOM     34  C   LIG d   1       2.493  -0.148  -7.827  0.00  0.00    -0.061 A 
ATOM     35  H   LIG d   1       3.466   0.388  -5.999  0.00  0.00     0.062 H 
ATOM     36  C   LIG d   1       2.417  -1.066  -8.856  0.00  0.00    -0.062 A 
ATOM     37  H   LIG d   1       1.838   0.710  -7.819  0.00  0.00     0.062 H 
ATOM     38  C   LIG d   1       3.257  -2.164  -8.867  0.00  0.00    -0.061 A 
ATOM     39  H   LIG d   1       1.701  -0.926  -9.652  0.00  0.00     0.062 H 
ATOM     40  C   LIG d   1       4.174  -2.342  -7.849  0.00  0.00    -0.059 A 
ATOM     41  H   LIG d   1       3.197  -2.882  -9.672  0.00  0.00     0.062 H 
ATOM     42  H   LIG d   1       4.831  -3.200  -7.857  0.00  0.00     0.062 H 
ENDBRANCH  29  32
ENDBRANCH  27  29
BRANCH  27  43
ATOM     43  C   LIG d   1       5.149   0.053  -3.878  0.00  0.00     0.108 A 
ATOM     44  O   LIG d   1       4.509   1.184  -3.539  0.00  0.00    -0.468 OA
ATOM     45  C   LIG d   1       4.107   1.105  -2.260  0.00  0.00     0.092 A 
ATOM     46  C   LIG d   1       4.500  -0.082  -1.764  0.00  0.00    -0.024 A 
ATOM     47  H   LIG d   1       3.565   1.867  -1.720  0.00  0.00     0.103 H 
ATOM     48  C   LIG d   1       5.171  -0.761  -2.807  0.00  0.00    -0.020 A 
ATOM     49  H   LIG d   1       4.333  -0.448  -0.761  0.00  0.00     0.065 H 
ATOM     50  H   LIG d   1       5.616  -1.743  -2.753  0.00  0.00     0.065 H 
ENDBRANCH  27  43
ENDBRANCH   1  27
TORSDOF 9
ENDMDL
MODEL 6
REMARK VINA RESULT:      -6.8      3.208      3.980
REMARK  9 active torsions:
REMARK  status: ('A' for Active; 'I' for Inactive)
REMARK    1  A    between atoms: C_1  and  C_2 
REMARK    2  A    between atoms: C_2  and  C_4 
REMARK    3  A    between atoms: C_2  and  N_10 
REMARK    4  A    between atoms: N_10  and  C_11 
REMARK    5  A    between atoms: C_11  and  C_12 
REMARK    6  A    between atoms: C_12  and  C_13 
REMARK    7  A    between atoms: C_13  and  C_15 
REMARK    8  A    between atoms: C_13  and  C_22 
REMARK    9  A    between atoms: C_15  and  C_16 
ROOT
ATOM      1  C   LIG d   1       7.737  -0.430  -5.359  0.00  0.00    -0.003 C 
ATOM      2  H   LIG d   1       7.907  -1.316  -4.747  0.00  0.00     0.032 H 
ATOM      3  H   LIG d   1       8.683  -0.101  -5.791  0.00  0.00     0.032 H 
ENDROOT
BRANCH   1   4
ATOM      4  C   LIG d   1       6.754  -0.766  -6.481  0.00  0.00    -0.032 C 
ATOM      5  H   LIG d   1       6.437  -1.804  -6.387  0.00  0.00     0.081 H 
ATOM      6  H   LIG d   1       7.240  -0.621  -7.446  0.00  0.00     0.081 H 
BRANCH   4   7
ATOM      7  N   LIG d   1       5.582   0.115  -6.385  0.00  0.00     0.232 N 
ATOM      8  H   LIG d   1       5.567   0.741  -7.176  0.00  0.00     0.202 HD
ATOM      9  H   LIG d   1       5.633   0.652  -5.533  0.00  0.00     0.202 HD
BRANCH   7  10
ATOM     10  C   LIG d   1       4.358  -0.697  -6.380  0.00  0.00     0.000 C 
ATOM     11  H   LIG d   1       3.763  -0.452  -5.499  0.00  0.00     0.090 H 
BRANCH  10  12
ATOM     12  C   LIG d   1       4.729  -2.181  -6.347  0.00  0.00    -0.017 C 
ATOM     13  H   LIG d   1       3.850  -2.781  -6.586  0.00  0.00     0.029 H 
ATOM     14  H   LIG d   1       5.513  -2.376  -7.078  0.00  0.00     0.029 H 
ATOM     15  H   LIG d   1       5.087  -2.444  -5.351  0.00  0.00     0.029 H 
ENDBRANCH  10  12
BRANCH  10  16
ATOM     16  C   LIG d   1       3.557  -0.407  -7.623  0.00  0.00    -0.000 A 
ATOM     17  C   LIG d   1       3.135  -1.447  -8.432  0.00  0.00    -0.053 A 
ATOM     18  C   LIG d   1       2.398  -1.182  -9.570  0.00  0.00    -0.061 A 
ATOM     19  H   LIG d   1       3.380  -2.466  -8.172  0.00  0.00     0.062 H 
ATOM     20  C   LIG d   1       2.090   0.124  -9.906  0.00  0.00    -0.062 A 
ATOM     21  H   LIG d   1       2.066  -1.993 -10.199  0.00  0.00     0.062 H 
ATOM     22  C   LIG d   1       2.516   1.164  -9.100  0.00  0.00    -0.061 A 
ATOM     23  H   LIG d   1       1.515   0.332 -10.796  0.00  0.00     0.062 H 
ATOM     24  C   LIG d   1       3.250   0.897  -7.959  0.00  0.00    -0.053 A 
ATOM     25  H   LIG d   1       2.276   2.184  -9.361  0.00  0.00     0.062 H 
ATOM     26  H   LIG d   1       3.583   1.710  -7.329  0.00  0.00     0.062 H 
ENDBRANCH  10  16
ENDBRANCH   7  10
ENDBRANCH   4   7
ENDBRANCH   1   4
BRANCH   1  27
ATOM     27  C   LIG d   1       7.158   0.687  -4.489  0.00  0.00     0.026 C 
ATOM     28  H   LIG d   1       6.209   1.018  -4.908  0.00  0.00     0.038 H 
BRANCH  27  29
ATOM     29  C   LIG d   1       6.933   0.163  -3.069  0.00  0.00    -0.018 C 
ATOM     30  H   LIG d   1       7.591  -0.686  -2.887  0.00  0.00     0.032 H 
ATOM     31  H   LIG d   1       7.151   0.953  -2.351  0.00  0.00     0.032 H 
BRANCH  29  32
ATOM     32  C   LIG d   1       5.498  -0.272  -2.917  0.00  0.00    -0.047 A 
ATOM     33  C   LIG d   1       5.195  -1.611  -2.753  0.00  0.00    -0.059 A 
ATOM     34  C   LIG d   1       3.879  -2.010  -2.609  0.00  0.00    -0.061 A 
ATOM     35  H   LIG d   1       5.987  -2.345  -2.734  0.00  0.00     0.062 H 
ATOM     36  C   LIG d   1       2.866  -1.070  -2.637  0.00  0.00    -0.062 A 
ATOM     37  H   LIG d   1       3.643  -3.055  -2.475  0.00  0.00     0.062 H 
ATOM     38  C   LIG d   1       3.167   0.268  -2.806  0.00  0.00    -0.061 A 
ATOM     39  H   LIG d   1       1.838  -1.382  -2.527  0.00  0.00     0.062 H 
ATOM     40  C   LIG d   1       4.483   0.667  -2.946  0.00  0.00    -0.059 A 
ATOM     41  H   LIG d   1       2.376   1.002  -2.829  0.00  0.00     0.062 H 
ATOM     42  H   LIG d   1       4.720   1.713  -3.078  0.00  0.00     0.062 H 
ENDBRANCH  29  32
ENDBRANCH  27  29
BRANCH  27  43
ATOM     43  C   LIG d   1       8.122   1.844  -4.450  0.00  0.00     0.108 A 
ATOM     44  O   LIG d   1       8.618   2.417  -3.342  0.00  0.00    -0.468 OA
ATOM     45  C   LIG d   1       9.449   3.415  -3.686  0.00  0.00     0.092 A 
ATOM     46  C   LIG d   1       9.483   3.495  -5.028  0.00  0.00    -0.024 A 
ATOM     47  H   LIG d   1       9.994   4.048  -3.002  0.00  0.00     0.103 H 
ATOM     48  C   LIG d   1       8.628   2.482  -5.521  0.00  0.00    -0.020 A 
ATOM     49  H   LIG d   1      10.055   4.198  -5.617  0.00  0.00     0.065 H 
ATOM     50  H   LIG d   1       8.422   2.264  -6.558  0.00  0.00     0.065 H 
ENDBRANCH  27  43
ENDBRANCH   1  27
TORSDOF 9
ENDMDL
MODEL 7
REMARK VINA RESULT:      -6.7      1.717      5.706
REMARK  9 active torsions:
REMARK  status: ('A' for Active; 'I' for Inactive)
REMARK    1  A    between atoms: C_1  and  C_2 
REMARK    2  A    between atoms: C_2  and  C_4 
REMARK    3  A    between atoms: C_2  and  N_10 
REMARK    4  A    between atoms: N_10  and  C_11 
REMARK    5  A    between atoms: C_11  and  C_12 
REMARK    6  A    between atoms: C_12  and  C_13 
REMARK    7  A    between atoms: C_13  and  C_15 
REMARK    8  A    between atoms: C_13  and  C_22 
REMARK    9  A    between atoms: C_15  and  C_16 
ROOT
ATOM      1  C   LIG d   1       5.962  -1.580  -7.985  0.00  0.00    -0.003 C 
ATOM      2  H   LIG d   1       5.874  -0.925  -8.852  0.00  0.00     0.032 H 
ATOM      3  H   LIG d   1       6.388  -2.535  -8.294  0.00  0.00     0.032 H 
ENDROOT
BRANCH   1   4
ATOM      4  C   LIG d   1       6.873  -0.928  -6.944  0.00  0.00    -0.032 C 
ATOM      5  H   LIG d   1       7.712  -0.447  -7.445  0.00  0.00     0.081 H 
ATOM      6  H   LIG d   1       7.247  -1.691  -6.261  0.00  0.00     0.081 H 
BRANCH   4   7
ATOM      7  N   LIG d   1       6.113   0.076  -6.187  0.00  0.00     0.232 N 
ATOM      8  H   LIG d   1       5.125  -0.077  -6.323  0.00  0.00     0.202 HD
ATOM      9  H   LIG d   1       6.357   0.998  -6.513  0.00  0.00     0.202 HD
BRANCH   7  10
ATOM     10  C   LIG d   1       6.434  -0.041  -4.758  0.00  0.00     0.000 C 
ATOM     11  H   LIG d   1       6.759   0.928  -4.379  0.00  0.00     0.090 H 
BRANCH  10  12
ATOM     12  C   LIG d   1       7.555  -1.065  -4.569  0.00  0.00    -0.017 C 
ATOM     13  H   LIG d   1       8.261  -0.988  -5.396  0.00  0.00     0.029 H 
ATOM     14  H   LIG d   1       8.072  -0.869  -3.629  0.00  0.00     0.029 H 
ATOM     15  H   LIG d   1       7.129  -2.068  -4.547  0.00  0.00     0.029 H 
ENDBRANCH  10  12
BRANCH  10  16
ATOM     16  C   LIG d   1       5.209  -0.490  -4.004  0.00  0.00    -0.000 A 
ATOM     17  C   LIG d   1       5.336  -1.357  -2.934  0.00  0.00    -0.053 A 
ATOM     18  C   LIG d   1       4.214  -1.767  -2.239  0.00  0.00    -0.061 A 
ATOM     19  H   LIG d   1       6.313  -1.712  -2.640  0.00  0.00     0.062 H 
ATOM     20  C   LIG d   1       2.963  -1.317  -2.619  0.00  0.00    -0.062 A 
ATOM     21  H   LIG d   1       4.314  -2.440  -1.402  0.00  0.00     0.062 H 
ATOM     22  C   LIG d   1       2.836  -0.454  -3.692  0.00  0.00    -0.061 A 
ATOM     23  H   LIG d   1       2.086  -1.638  -2.078  0.00  0.00     0.062 H 
ATOM     24  C   LIG d   1       3.959  -0.041  -4.384  0.00  0.00    -0.053 A 
ATOM     25  H   LIG d   1       1.859  -0.102  -3.989  0.00  0.00     0.062 H 
ATOM     26  H   LIG d   1       3.860   0.633  -5.222  0.00  0.00     0.062 H 
ENDBRANCH  10  16
ENDBRANCH   7  10
ENDBRANCH   4   7
ENDBRANCH   1   4
BRANCH   1  27
ATOM     27  C   LIG d   1       4.576  -1.811  -7.378  0.00  0.00     0.026 C 
ATOM     28  H   LIG d   1       4.403  -1.088  -6.582  0.00  0.00     0.038 H 
BRANCH  27  29
ATOM     29  C   LIG d   1       3.510  -1.641  -8.463  0.00  0.00    -0.018 C 
ATOM     30  H   LIG d   1       3.742  -2.291  -9.306  0.00  0.00     0.032 H 
ATOM     31  H   LIG d   1       2.534  -1.906  -8.057  0.00  0.00     0.032 H 
BRANCH  29  32
ATOM     32  C   LIG d   1       3.489  -0.207  -8.924  0.00  0.00    -0.047 A 
ATOM     33  C   LIG d   1       3.061   0.790  -8.065  0.00  0.00    -0.059 A 
ATOM     34  C   LIG d   1       3.046   2.106  -8.487  0.00  0.00    -0.061 A 
ATOM     35  H   LIG d   1       2.743   0.539  -7.064  0.00  0.00     0.062 H 
ATOM     36  C   LIG d   1       3.450   2.425  -9.769  0.00  0.00    -0.062 A 
ATOM     37  H   LIG d   1       2.717   2.884  -7.815  0.00  0.00     0.062 H 
ATOM     38  C   LIG d   1       3.872   1.430 -10.630  0.00  0.00    -0.061 A 
ATOM     39  H   LIG d   1       3.436   3.454 -10.099  0.00  0.00     0.062 H 
ATOM     40  C   LIG d   1       3.892   0.114 -10.207  0.00  0.00    -0.059 A 
ATOM     41  H   LIG d   1       4.188   1.679 -11.632  0.00  0.00     0.062 H 
ATOM     42  H   LIG d   1       4.221  -0.665 -10.879  0.00  0.00     0.062 H 
ENDBRANCH  29  32
ENDBRANCH  27  29
BRANCH  27  43
ATOM     43  C   LIG d   1       4.502  -3.207  -6.816  0.00  0.00     0.108 A 
ATOM     44  O   LIG d   1       4.971  -3.598  -5.620  0.00  0.00    -0.468 OA
ATOM     45  C   LIG d   1       4.729  -4.909  -5.450  0.00  0.00     0.092 A 
ATOM     46  C   LIG d   1       4.106  -5.371  -6.549  0.00  0.00    -0.024 A 
ATOM     47  H   LIG d   1       4.991  -5.493  -4.581  0.00  0.00     0.103 H 
ATOM     48  C   LIG d   1       3.960  -4.274  -7.430  0.00  0.00    -0.020 A 
ATOM     49  H   LIG d   1       3.780  -6.386  -6.725  0.00  0.00     0.065 H 
ATOM     50  H   LIG d   1       3.502  -4.291  -8.407  0.00  0.00     0.065 H 
ENDBRANCH  27  43
ENDBRANCH   1  27
TORSDOF 9
ENDMDL
MODEL 8
REMARK VINA RESULT:      -6.7      1.650      4.465
REMARK  9 active torsions:
REMARK  status: ('A' for Active; 'I' for Inactive)
REMARK    1  A    between atoms: C_1  and  C_2 
REMARK    2  A    between atoms: C_2  and  C_4 
REMARK    3  A    between atoms: C_2  and  N_10 
REMARK    4  A    between atoms: N_10  and  C_11 
REMARK    5  A    between atoms: C_11  and  C_12 
REMARK    6  A    between atoms: C_12  and  C_13 
REMARK    7  A    between atoms: C_13  and  C_15 
REMARK    8  A    between atoms: C_13  and  C_22 
REMARK    9  A    between atoms: C_15  and  C_16 
ROOT
ATOM      1  C   LIG d   1       4.648  -2.888  -4.694  0.00  0.00    -0.003 C 
ATOM      2  H   LIG d   1       3.699  -2.447  -4.390  0.00  0.00     0.032 H 
ATOM      3  H   LIG d   1       4.556  -3.975  -4.707  0.00  0.00     0.032 H 
ENDROOT
BRANCH   1   4
ATOM      4  C   LIG d   1       5.017  -2.392  -6.093  0.00  0.00    -0.032 C 
ATOM      5  H   LIG d   1       5.281  -3.241  -6.722  0.00  0.00     0.081 H 
ATOM      6  H   LIG d   1       5.868  -1.713  -6.025  0.00  0.00     0.081 H 
BRANCH   4   7
ATOM      7  N   LIG d   1       3.872  -1.685  -6.680  0.00  0.00     0.232 N 
ATOM      8  H   LIG d   1       3.018  -2.024  -6.263  0.00  0.00     0.202 HD
ATOM      9  H   LIG d   1       3.848  -1.849  -7.674  0.00  0.00     0.202 HD
BRANCH   7  10
ATOM     10  C   LIG d   1       4.002  -0.244  -6.424  0.00  0.00     0.000 C 
ATOM     11  H   LIG d   1       4.955  -0.047  -5.933  0.00  0.00     0.090 H 
BRANCH  10  12
ATOM     12  C   LIG d   1       2.858   0.220  -5.520  0.00  0.00    -0.017 C 
ATOM     13  H   LIG d   1       1.977  -0.395  -5.705  0.00  0.00     0.029 H 
ATOM     14  H   LIG d   1       3.156   0.122  -4.476  0.00  0.00     0.029 H 
ATOM     15  H   LIG d   1       2.625   1.263  -5.735  0.00  0.00     0.029 H 
ENDBRANCH  10  12
BRANCH  10  16
ATOM     16  C   LIG d   1       3.945   0.506  -7.730  0.00  0.00    -0.000 A 
ATOM     17  C   LIG d   1       2.884   1.352  -7.997  0.00  0.00    -0.053 A 
ATOM     18  C   LIG d   1       2.834   2.041  -9.193  0.00  0.00    -0.061 A 
ATOM     19  H   LIG d   1       2.097   1.475  -7.268  0.00  0.00     0.062 H 
ATOM     20  C   LIG d   1       3.840   1.879 -10.127  0.00  0.00    -0.062 A 
ATOM     21  H   LIG d   1       2.008   2.705  -9.399  0.00  0.00     0.062 H 
ATOM     22  C   LIG d   1       4.898   1.029  -9.864  0.00  0.00    -0.061 A 
ATOM     23  H   LIG d   1       3.799   2.417 -11.063  0.00  0.00     0.062 H 
ATOM     24  C   LIG d   1       4.950   0.342  -8.665  0.00  0.00    -0.053 A 
ATOM     25  H   LIG d   1       5.684   0.902 -10.593  0.00  0.00     0.062 H 
ATOM     26  H   LIG d   1       5.777  -0.321  -8.458  0.00  0.00     0.062 H 
ENDBRANCH  10  16
ENDBRANCH   7  10
ENDBRANCH   4   7
ENDBRANCH   1   4
BRANCH   1  27
ATOM     27  C   LIG d   1       5.741  -2.481  -3.703  0.00  0.00     0.026 C 
ATOM     28  H   LIG d   1       5.829  -3.241  -2.928  0.00  0.00     0.038 H 
BRANCH  27  29
ATOM     29  C   LIG d   1       7.075  -2.349  -4.442  0.00  0.00    -0.018 C 
ATOM     30  H   LIG d   1       6.895  -2.326  -5.516  0.00  0.00     0.032 H 
ATOM     31  H   LIG d   1       7.570  -1.428  -4.136  0.00  0.00     0.032 H 
BRANCH  29  32
ATOM     32  C   LIG d   1       7.954  -3.526  -4.104  0.00  0.00    -0.047 A 
ATOM     33  C   LIG d   1       7.897  -4.674  -4.875  0.00  0.00    -0.059 A 
ATOM     34  C   LIG d   1       8.706  -5.752  -4.568  0.00  0.00    -0.061 A 
ATOM     35  H   LIG d   1       7.224  -4.725  -5.717  0.00  0.00     0.062 H 
ATOM     36  C   LIG d   1       9.565  -5.686  -3.488  0.00  0.00    -0.062 A 
ATOM     37  H   LIG d   1       8.666  -6.646  -5.173  0.00  0.00     0.062 H 
ATOM     38  C   LIG d   1       9.617  -4.542  -2.714  0.00  0.00    -0.061 A 
ATOM     39  H   LIG d   1      10.195  -6.530  -3.247  0.00  0.00     0.062 H 
ATOM     40  C   LIG d   1       8.812  -3.462  -3.023  0.00  0.00    -0.059 A 
ATOM     41  H   LIG d   1      10.288  -4.491  -1.869  0.00  0.00     0.062 H 
ATOM     42  H   LIG d   1       8.853  -2.567  -2.419  0.00  0.00     0.062 H 
ENDBRANCH  29  32
ENDBRANCH  27  29
BRANCH  27  43
ATOM     43  C   LIG d   1       5.382  -1.160  -3.075  0.00  0.00     0.108 A 
ATOM     44  O   LIG d   1       5.904   0.033  -3.402  0.00  0.00    -0.468 OA
ATOM     45  C   LIG d   1       5.348   0.990  -2.639  0.00  0.00     0.092 A 
ATOM     46  C   LIG d   1       4.466   0.409  -1.806  0.00  0.00    -0.024 A 
ATOM     47  H   LIG d   1       5.573   2.045  -2.685  0.00  0.00     0.103 H 
ATOM     48  C   LIG d   1       4.487  -0.977  -2.086  0.00  0.00    -0.020 A 
ATOM     49  H   LIG d   1       3.857   0.906  -1.065  0.00  0.00     0.065 H 
ATOM     50  H   LIG d   1       3.899  -1.740  -1.601  0.00  0.00     0.065 H 
ENDBRANCH  27  43
ENDBRANCH   1  27
TORSDOF 9
ENDMDL
MODEL 9
REMARK VINA RESULT:      -6.6      2.455      6.508
REMARK  9 active torsions:
REMARK  status: ('A' for Active; 'I' for Inactive)
REMARK    1  A    between atoms: C_1  and  C_2 
REMARK    2  A    between atoms: C_2  and  C_4 
REMARK    3  A    between atoms: C_2  and  N_10 
REMARK    4  A    between atoms: N_10  and  C_11 
REMARK    5  A    between atoms: C_11  and  C_12 
REMARK    6  A    between atoms: C_12  and  C_13 
REMARK    7  A    between atoms: C_13  and  C_15 
REMARK    8  A    between atoms: C_13  and  C_22 
REMARK    9  A    between atoms: C_15  and  C_16 
ROOT
ATOM      1  C   LIG d   1       6.668   0.258  -6.817  0.00  0.00    -0.003 C 
ATOM      2  H   LIG d   1       6.405   1.164  -6.271  0.00  0.00     0.032 H 
ATOM      3  H   LIG d   1       7.392   0.501  -7.596  0.00  0.00     0.032 H 
ENDROOT
BRANCH   1   4
ATOM      4  C   LIG d   1       7.281  -0.758  -5.852  0.00  0.00    -0.032 C 
ATOM      5  H   LIG d   1       8.115  -1.263  -6.337  0.00  0.00     0.081 H 
ATOM      6  H   LIG d   1       6.526  -1.493  -5.571  0.00  0.00     0.081 H 
BRANCH   4   7
ATOM      7  N   LIG d   1       7.761  -0.065  -4.649  0.00  0.00     0.232 N 
ATOM      8  H   LIG d   1       7.369   0.864  -4.618  0.00  0.00     0.202 HD
ATOM      9  H   LIG d   1       8.767  -0.004  -4.675  0.00  0.00     0.202 HD
BRANCH   7  10
ATOM     10  C   LIG d   1       7.345  -0.812  -3.454  0.00  0.00     0.000 C 
ATOM     11  H   LIG d   1       8.026  -0.589  -2.632  0.00  0.00     0.090 H 
BRANCH  10  12
ATOM     12  C   LIG d   1       7.378  -2.312  -3.752  0.00  0.00    -0.017 C 
ATOM     13  H   LIG d   1       8.139  -2.516  -4.506  0.00  0.00     0.029 H 
ATOM     14  H   LIG d   1       7.614  -2.859  -2.839  0.00  0.00     0.029 H 
ATOM     15  H   LIG d   1       6.404  -2.630  -4.125  0.00  0.00     0.029 H 
ENDBRANCH  10  12
BRANCH  10  16
ATOM     16  C   LIG d   1       5.945  -0.406  -3.070  0.00  0.00    -0.000 A 
ATOM     17  C   LIG d   1       5.599   0.932  -3.031  0.00  0.00    -0.053 A 
ATOM     18  C   LIG d   1       4.314   1.304  -2.683  0.00  0.00    -0.061 A 
ATOM     19  H   LIG d   1       6.332   1.686  -3.275  0.00  0.00     0.062 H 
ATOM     20  C   LIG d   1       3.377   0.338  -2.365  0.00  0.00    -0.062 A 
ATOM     21  H   LIG d   1       4.044   2.348  -2.656  0.00  0.00     0.062 H 
ATOM     22  C   LIG d   1       3.725  -1.000  -2.399  0.00  0.00    -0.061 A 
ATOM     23  H   LIG d   1       2.374   0.628  -2.091  0.00  0.00     0.062 H 
ATOM     24  C   LIG d   1       5.009  -1.372  -2.752  0.00  0.00    -0.053 A 
ATOM     25  H   LIG d   1       2.993  -1.755  -2.151  0.00  0.00     0.062 H 
ATOM     26  H   LIG d   1       5.280  -2.417  -2.779  0.00  0.00     0.062 H 
ENDBRANCH  10  16
ENDBRANCH   7  10
ENDBRANCH   4   7
ENDBRANCH   1   4
BRANCH   1  27
ATOM     27  C   LIG d   1       5.412  -0.338  -7.455  0.00  0.00     0.026 C 
ATOM     28  H   LIG d   1       5.700  -1.070  -8.208  0.00  0.00     0.038 H 
BRANCH  27  29
ATOM     29  C   LIG d   1       4.567  -1.021  -6.377  0.00  0.00    -0.018 C 
ATOM     30  H   LIG d   1       5.081  -0.956  -5.418  0.00  0.00     0.032 H 
ATOM     31  H   LIG d   1       3.599  -0.525  -6.305  0.00  0.00     0.032 H 
BRANCH  29  32
ATOM     32  C   LIG d   1       4.364  -2.469  -6.741  0.00  0.00    -0.047 A 
ATOM     33  C   LIG d   1       3.936  -2.808  -8.012  0.00  0.00    -0.059 A 
ATOM     34  C   LIG d   1       3.754  -4.137  -8.349  0.00  0.00    -0.061 A 
ATOM     35  H   LIG d   1       3.748  -2.035  -8.743  0.00  0.00     0.062 H 
ATOM     36  C   LIG d   1       3.992  -5.125  -7.413  0.00  0.00    -0.062 A 
ATOM     37  H   LIG d   1       3.426  -4.402  -9.342  0.00  0.00     0.062 H 
ATOM     38  C   LIG d   1       4.414  -4.786  -6.141  0.00  0.00    -0.061 A 
ATOM     39  H   LIG d   1       3.847  -6.163  -7.675  0.00  0.00     0.062 H 
ATOM     40  C   LIG d   1       4.600  -3.458  -5.806  0.00  0.00    -0.059 A 
ATOM     41  H   LIG d   1       4.599  -5.559  -5.409  0.00  0.00     0.062 H 
ATOM     42  H   LIG d   1       4.930  -3.193  -4.812  0.00  0.00     0.062 H 
ENDBRANCH  29  32
ENDBRANCH  27  29
BRANCH  27  43
ATOM     43  C   LIG d   1       4.609   0.761  -8.101  0.00  0.00     0.108 A 
ATOM     44  O   LIG d   1       5.111   1.828  -8.743  0.00  0.00    -0.468 OA
ATOM     45  C   LIG d   1       4.104   2.595  -9.193  0.00  0.00     0.092 A 
ATOM     46  C   LIG d   1       2.941   2.024  -8.831  0.00  0.00    -0.024 A 
ATOM     47  H   LIG d   1       4.209   3.515  -9.749  0.00  0.00     0.103 H 
ATOM     48  C   LIG d   1       3.266   0.842  -8.127  0.00  0.00    -0.020 A 
ATOM     49  H   LIG d   1       1.948   2.397  -9.038  0.00  0.00     0.065 H 
ATOM     50  H   LIG d   1       2.570   0.140  -7.693  0.00  0.00     0.065 H 
ENDBRANCH  27  43
ENDBRANCH   1  27
TORSDOF 9
ENDMDL
MODEL 10
REMARK VINA RESULT:      -6.3      2.577      5.396
REMARK  9 active torsions:
REMARK  status: ('A' for Active; 'I' for Inactive)
REMARK    1  A    between atoms: C_1  and  C_2 
REMARK    2  A    between atoms: C_2  and  C_4 
REMARK    3  A    between atoms: C_2  and  N_10 
REMARK    4  A    between atoms: N_10  and  C_11 
REMARK    5  A    between atoms: C_11  and  C_12 
REMARK    6  A    between atoms: C_12  and  C_13 
REMARK    7  A    between atoms: C_13  and  C_15 
REMARK    8  A    between atoms: C_13  and  C_22 
REMARK    9  A    between atoms: C_15  and  C_16 
ROOT
ATOM      1  C   LIG d   1       4.311  -1.861  -6.060  0.00  0.00    -0.003 C 
ATOM      2  H   LIG d   1       4.386  -2.200  -7.093  0.00  0.00     0.032 H 
ATOM      3  H   LIG d   1       3.467  -2.354  -5.577  0.00  0.00     0.032 H 
ENDROOT
BRANCH   1   4
ATOM      4  C   LIG d   1       5.600  -2.209  -5.313  0.00  0.00    -0.032 C 
ATOM      5  H   LIG d   1       5.415  -3.047  -4.642  0.00  0.00     0.081 H 
ATOM      6  H   LIG d   1       5.928  -1.345  -4.734  0.00  0.00     0.081 H 
BRANCH   4   7
ATOM      7  N   LIG d   1       6.642  -2.575  -6.280  0.00  0.00     0.232 N 
ATOM      8  H   LIG d   1       6.248  -2.598  -7.208  0.00  0.00     0.202 HD
ATOM      9  H   LIG d   1       7.010  -3.485  -6.050  0.00  0.00     0.202 HD
BRANCH   7  10
ATOM     10  C   LIG d   1       7.725  -1.583  -6.233  0.00  0.00     0.000 C 
ATOM     11  H   LIG d   1       8.680  -2.080  -6.404  0.00  0.00     0.090 H 
BRANCH  10  12
ATOM     12  C   LIG d   1       7.740  -0.908  -4.860  0.00  0.00    -0.017 C 
ATOM     13  H   LIG d   1       8.251  -1.551  -4.144  0.00  0.00     0.029 H 
ATOM     14  H   LIG d   1       8.262   0.046  -4.930  0.00  0.00     0.029 H 
ATOM     15  H   LIG d   1       6.715  -0.738  -4.528  0.00  0.00     0.029 H 
ENDBRANCH  10  12
BRANCH  10  16
ATOM     16  C   LIG d   1       7.501  -0.544  -7.302  0.00  0.00    -0.000 A 
ATOM     17  C   LIG d   1       7.265  -0.935  -8.607  0.00  0.00    -0.053 A 
ATOM     18  C   LIG d   1       7.056   0.017  -9.587  0.00  0.00    -0.061 A 
ATOM     19  H   LIG d   1       7.242  -1.984  -8.860  0.00  0.00     0.062 H 
ATOM     20  C   LIG d   1       7.091   1.361  -9.263  0.00  0.00    -0.062 A 
ATOM     21  H   LIG d   1       6.868  -0.288 -10.604  0.00  0.00     0.062 H 
ATOM     22  C   LIG d   1       7.333   1.752  -7.959  0.00  0.00    -0.061 A 
ATOM     23  H   LIG d   1       6.930   2.105 -10.029  0.00  0.00     0.062 H 
ATOM     24  C   LIG d   1       7.537   0.799  -6.979  0.00  0.00    -0.053 A 
ATOM     25  H   LIG d   1       7.360   2.801  -7.706  0.00  0.00     0.062 H 
ATOM     26  H   LIG d   1       7.725   1.104  -5.960  0.00  0.00     0.062 H 
ENDBRANCH  10  16
ENDBRANCH   7  10
ENDBRANCH   4   7
ENDBRANCH   1   4
BRANCH   1  27
ATOM     27  C   LIG d   1       4.099  -0.346  -6.035  0.00  0.00     0.026 C 
ATOM     28  H   LIG d   1       4.939   0.146  -6.524  0.00  0.00     0.038 H 
BRANCH  27  29
ATOM     29  C   LIG d   1       2.804   0.001  -6.774  0.00  0.00    -0.018 C 
ATOM     30  H   LIG d   1       2.196  -0.897  -6.881  0.00  0.00     0.032 H 
ATOM     31  H   LIG d   1       2.252   0.749  -6.207  0.00  0.00     0.032 H 
BRANCH  29  32
ATOM     32  C   LIG d   1       3.137   0.548  -8.138  0.00  0.00    -0.047 A 
ATOM     33  C   LIG d   1       3.328   1.907  -8.310  0.00  0.00    -0.059 A 
ATOM     34  C   LIG d   1       3.638   2.409  -9.560  0.00  0.00    -0.061 A 
ATOM     35  H   LIG d   1       3.239   2.575  -7.466  0.00  0.00     0.062 H 
ATOM     36  C   LIG d   1       3.748   1.554 -10.640  0.00  0.00    -0.062 A 
ATOM     37  H   LIG d   1       3.793   3.469  -9.693  0.00  0.00     0.062 H 
ATOM     38  C   LIG d   1       3.551   0.196 -10.470  0.00  0.00    -0.061 A 
ATOM     39  H   LIG d   1       3.987   1.946 -11.617  0.00  0.00     0.062 H 
ATOM     40  C   LIG d   1       3.246  -0.306  -9.219  0.00  0.00    -0.059 A 
ATOM     41  H   LIG d   1       3.637  -0.472 -11.314  0.00  0.00     0.062 H 
ATOM     42  H   LIG d   1       3.093  -1.367  -9.086  0.00  0.00     0.062 H 
ENDBRANCH  29  32
ENDBRANCH  27  29
BRANCH  27  43
ATOM     43  C   LIG d   1       4.003   0.124  -4.607  0.00  0.00     0.108 A 
ATOM     44  O   LIG d   1       4.896   0.902  -3.973  0.00  0.00    -0.468 OA
ATOM     45  C   LIG d   1       4.485   1.122  -2.713  0.00  0.00     0.092 A 
ATOM     46  C   LIG d   1       3.322   0.473  -2.527  0.00  0.00    -0.024 A 
ATOM     47  H   LIG d   1       5.002   1.715  -1.974  0.00  0.00     0.103 H 
ATOM     48  C   LIG d   1       3.011  -0.171  -3.747  0.00  0.00    -0.020 A 
ATOM     49  H   LIG d   1       2.736   0.448  -1.619  0.00  0.00     0.065 H 
ATOM     50  H   LIG d   1       2.143  -0.780  -3.950  0.00  0.00     0.065 H 
ENDBRANCH  27  43
ENDBRANCH   1  27
TORSDOF 9
ENDMDL
