MODEL 1
REMARK VINA RESULT:      -5.9      0.000      0.000
REMARK  6 active torsions:
REMARK  status: ('A' for Active; 'I' for Inactive)
REMARK    1  A    between atoms: C_3  and  O_23 
REMARK    2  A    between atoms: C_4  and  O_22 
REMARK    3  A    between atoms: C_6  and  C_7 
REMARK    4  A    between atoms: C_9  and  O_21 
REMARK    5  A    between atoms: C_13  and  O_20 
REMARK    6  A    between atoms: C_15  and  O_19 
ROOT
ATOM      1  C   LIG d   1       3.718   0.030  -7.001  0.00  0.00     0.151 C 
ATOM      2  H   LIG d   1       3.337   1.050  -7.033  0.00  0.00     0.081 H 
ATOM      3  C   LIG d   1       5.072  -0.040  -7.720  0.00  0.00     0.100 C 
ATOM      4  H   LIG d   1       5.410  -1.075  -7.768  0.00  0.00     0.064 H 
ATOM      5  C   LIG d   1       4.891   0.511  -9.137  0.00  0.00     0.009 C 
ATOM      6  C   LIG d   1       3.681  -0.120  -9.777  0.00  0.00     0.038 A 
ATOM      7  C   LIG d   1       3.549  -0.059 -11.160  0.00  0.00     0.127 A 
ATOM      8  C   LIG d   1       2.447  -0.624 -11.781  0.00  0.00     0.022 A 
ATOM      9  C   LIG d   1       1.473  -1.254 -11.022  0.00  0.00     0.124 A 
ATOM     10  C   LIG d   1       1.606  -1.319  -9.644  0.00  0.00     0.022 A 
ATOM     11  C   LIG d   1       2.712  -0.752  -9.019  0.00  0.00     0.132 A 
ATOM     12  O   LIG d   1       2.808  -0.845  -7.666  0.00  0.00    -0.481 OA
ATOM     13  H   LIG d   1       4.755   1.592  -9.091  0.00  0.00     0.034 H 
ATOM     14  H   LIG d   1       5.777   0.282  -9.729  0.00  0.00     0.034 H 
ATOM     15  H   LIG d   1       2.348  -0.574 -12.856  0.00  0.00     0.069 H 
ATOM     16  H   LIG d   1       0.847  -1.810  -9.053  0.00  0.00     0.069 H 
ENDROOT
BRANCH   1  17
ATOM     17  C   LIG d   1       3.883  -0.404  -5.567  0.00  0.00    -0.001 A 
ATOM     18  C   LIG d   1       4.466  -1.624  -5.279  0.00  0.00    -0.051 A 
ATOM     19  C   LIG d   1       4.619  -2.027  -3.964  0.00  0.00    -0.016 A 
ATOM     20  H   LIG d   1       4.807  -2.261  -6.081  0.00  0.00     0.062 H 
ATOM     21  C   LIG d   1       4.187  -1.208  -2.934  0.00  0.00     0.158 A 
ATOM     22  H   LIG d   1       5.075  -2.980  -3.742  0.00  0.00     0.066 H 
ATOM     23  C   LIG d   1       3.600   0.020  -3.224  0.00  0.00     0.159 A 
ATOM     24  C   LIG d   1       3.450   0.418  -4.543  0.00  0.00    -0.010 A 
ATOM     25  H   LIG d   1       2.995   1.370  -4.771  0.00  0.00     0.066 H 
BRANCH  21  26
ATOM     26  O   LIG d   1       4.337  -1.603  -1.641  0.00  0.00    -0.503 OA
ATOM     27  H   LIG d   1       4.864  -2.406  -1.534  0.00  0.00     0.292 HD
ENDBRANCH  21  26
BRANCH  23  28
ATOM     28  O   LIG d   1       3.174   0.828  -2.216  0.00  0.00    -0.503 OA
ATOM     29  H   LIG d   1       2.432   0.469  -1.711  0.00  0.00     0.292 HD
ENDBRANCH  23  28
ENDBRANCH   1  17
BRANCH   3  30
ATOM     30  O   LIG d   1       6.034   0.748  -7.015  0.00  0.00    -0.388 OA
ATOM     31  H   LIG d   1       6.796   1.008  -7.549  0.00  0.00     0.210 HD
ENDBRANCH   3  30
BRANCH   7  32
ATOM     32  O   LIG d   1       4.503   0.559 -11.904  0.00  0.00    -0.506 OA
ATOM     33  H   LIG d   1       4.936   1.297 -11.453  0.00  0.00     0.292 HD
ENDBRANCH   7  32
BRANCH   9  34
ATOM     34  O   LIG d   1       0.390  -1.809 -11.627  0.00  0.00    -0.506 OA
ATOM     35  H   LIG d   1      -0.145  -2.364 -11.044  0.00  0.00     0.292 HD
ENDBRANCH   9  34
TORSDOF 6
ENDMDL
MODEL 2
REMARK VINA RESULT:      -5.7      4.444      5.915
REMARK  6 active torsions:
REMARK  status: ('A' for Active; 'I' for Inactive)
REMARK    1  A    between atoms: C_3  and  O_23 
REMARK    2  A    between atoms: C_4  and  O_22 
REMARK    3  A    between atoms: C_6  and  C_7 
REMARK    4  A    between atoms: C_9  and  O_21 
REMARK    5  A    between atoms: C_13  and  O_20 
REMARK    6  A    between atoms: C_15  and  O_19 
ROOT
ATOM      1  C   LIG d   1       5.435  -2.817  -5.015  0.00  0.00     0.151 C 
ATOM      2  H   LIG d   1       5.374  -2.553  -6.070  0.00  0.00     0.081 H 
ATOM      3  C   LIG d   1       6.904  -3.006  -4.612  0.00  0.00     0.100 C 
ATOM      4  H   LIG d   1       6.961  -3.359  -3.583  0.00  0.00     0.064 H 
ATOM      5  C   LIG d   1       7.528  -4.044  -5.550  0.00  0.00     0.009 C 
ATOM      6  C   LIG d   1       6.627  -5.249  -5.645  0.00  0.00     0.038 A 
ATOM      7  C   LIG d   1       7.156  -6.442  -6.124  0.00  0.00     0.127 A 
ATOM      8  C   LIG d   1       6.356  -7.568  -6.229  0.00  0.00     0.022 A 
ATOM      9  C   LIG d   1       5.022  -7.506  -5.856  0.00  0.00     0.124 A 
ATOM     10  C   LIG d   1       4.495  -6.318  -5.376  0.00  0.00     0.022 A 
ATOM     11  C   LIG d   1       5.297  -5.187  -5.268  0.00  0.00     0.132 A 
ATOM     12  O   LIG d   1       4.743  -4.044  -4.784  0.00  0.00    -0.481 OA
ATOM     13  H   LIG d   1       7.656  -3.607  -6.540  0.00  0.00     0.034 H 
ATOM     14  H   LIG d   1       8.499  -4.347  -5.158  0.00  0.00     0.034 H 
ATOM     15  H   LIG d   1       6.771  -8.493  -6.602  0.00  0.00     0.069 H 
ATOM     16  H   LIG d   1       3.456  -6.270  -5.085  0.00  0.00     0.069 H 
ENDROOT
BRANCH   1  17
ATOM     17  C   LIG d   1       4.818  -1.723  -4.182  0.00  0.00    -0.001 A 
ATOM     18  C   LIG d   1       4.886  -1.785  -2.802  0.00  0.00    -0.051 A 
ATOM     19  C   LIG d   1       4.320  -0.783  -2.034  0.00  0.00    -0.016 A 
ATOM     20  H   LIG d   1       5.384  -2.615  -2.324  0.00  0.00     0.062 H 
ATOM     21  C   LIG d   1       3.686   0.285  -2.647  0.00  0.00     0.158 A 
ATOM     22  H   LIG d   1       4.374  -0.834  -0.957  0.00  0.00     0.066 H 
ATOM     23  C   LIG d   1       3.618   0.347  -4.035  0.00  0.00     0.159 A 
ATOM     24  C   LIG d   1       4.186  -0.659  -4.799  0.00  0.00    -0.010 A 
ATOM     25  H   LIG d   1       4.135  -0.613  -5.877  0.00  0.00     0.066 H 
BRANCH  21  26
ATOM     26  O   LIG d   1       3.130   1.271  -1.892  0.00  0.00    -0.503 OA
ATOM     27  H   LIG d   1       2.960   1.015  -0.975  0.00  0.00     0.292 HD
ENDBRANCH  21  26
BRANCH  23  28
ATOM     28  O   LIG d   1       2.996   1.394  -4.641  0.00  0.00    -0.503 OA
ATOM     29  H   LIG d   1       2.104   1.568  -4.310  0.00  0.00     0.292 HD
ENDBRANCH  23  28
ENDBRANCH   1  17
BRANCH   3  30
ATOM     30  O   LIG d   1       7.601  -1.765  -4.734  0.00  0.00    -0.388 OA
ATOM     31  H   LIG d   1       8.421  -1.723  -4.225  0.00  0.00     0.210 HD
ENDBRANCH   3  30
BRANCH   7  32
ATOM     32  O   LIG d   1       8.463  -6.503  -6.490  0.00  0.00    -0.506 OA
ATOM     33  H   LIG d   1       8.801  -7.404  -6.594  0.00  0.00     0.292 HD
ENDBRANCH   7  32
BRANCH   9  34
ATOM     34  O   LIG d   1       4.234  -8.607  -5.959  0.00  0.00    -0.506 OA
ATOM     35  H   LIG d   1       4.461  -9.185  -6.700  0.00  0.00     0.292 HD
ENDBRANCH   9  34
TORSDOF 6
ENDMDL
MODEL 3
REMARK VINA RESULT:      -5.7      4.916      7.416
REMARK  6 active torsions:
REMARK  status: ('A' for Active; 'I' for Inactive)
REMARK    1  A    between atoms: C_3  and  O_23 
REMARK    2  A    between atoms: C_4  and  O_22 
REMARK    3  A    between atoms: C_6  and  C_7 
REMARK    4  A    between atoms: C_9  and  O_21 
REMARK    5  A    between atoms: C_13  and  O_20 
REMARK    6  A    between atoms: C_15  and  O_19 
ROOT
ATOM      1  C   LIG d   1       6.602  -2.880  -3.995  0.00  0.00     0.151 C 
ATOM      2  H   LIG d   1       6.084  -3.828  -3.852  0.00  0.00     0.081 H 
ATOM      3  C   LIG d   1       6.850  -2.646  -5.491  0.00  0.00     0.100 C 
ATOM      4  H   LIG d   1       7.447  -1.746  -5.629  0.00  0.00     0.064 H 
ATOM      5  C   LIG d   1       7.604  -3.857  -6.047  0.00  0.00     0.009 C 
ATOM      6  C   LIG d   1       8.769  -4.187  -5.148  0.00  0.00     0.038 A 
ATOM      7  C   LIG d   1       9.791  -4.987  -5.645  0.00  0.00     0.127 A 
ATOM      8  C   LIG d   1      10.874  -5.314  -4.845  0.00  0.00     0.022 A 
ATOM      9  C   LIG d   1      10.939  -4.840  -3.543  0.00  0.00     0.124 A 
ATOM     10  C   LIG d   1       9.923  -4.039  -3.048  0.00  0.00     0.022 A 
ATOM     11  C   LIG d   1       8.835  -3.710  -3.850  0.00  0.00     0.132 A 
ATOM     12  O   LIG d   1       7.864  -2.915  -3.329  0.00  0.00    -0.481 OA
ATOM     13  H   LIG d   1       6.931  -4.713  -6.096  0.00  0.00     0.034 H 
ATOM     14  H   LIG d   1       7.971  -3.627  -7.047  0.00  0.00     0.034 H 
ATOM     15  H   LIG d   1      11.666  -5.936  -5.235  0.00  0.00     0.069 H 
ATOM     16  H   LIG d   1       9.975  -3.671  -2.034  0.00  0.00     0.069 H 
ENDROOT
BRANCH   1  17
ATOM     17  C   LIG d   1       5.766  -1.756  -3.438  0.00  0.00    -0.001 A 
ATOM     18  C   LIG d   1       4.524  -2.024  -2.893  0.00  0.00    -0.051 A 
ATOM     19  C   LIG d   1       3.753  -0.996  -2.381  0.00  0.00    -0.016 A 
ATOM     20  H   LIG d   1       4.157  -3.039  -2.863  0.00  0.00     0.062 H 
ATOM     21  C   LIG d   1       4.226   0.306  -2.414  0.00  0.00     0.158 A 
ATOM     22  H   LIG d   1       2.784  -1.208  -1.957  0.00  0.00     0.066 H 
ATOM     23  C   LIG d   1       5.476   0.576  -2.963  0.00  0.00     0.159 A 
ATOM     24  C   LIG d   1       6.243  -0.459  -3.473  0.00  0.00    -0.010 A 
ATOM     25  H   LIG d   1       7.214  -0.252  -3.900  0.00  0.00     0.066 H 
BRANCH  21  26
ATOM     26  O   LIG d   1       3.469   1.318  -1.911  0.00  0.00    -0.503 OA
ATOM     27  H   LIG d   1       3.979   2.097  -1.650  0.00  0.00     0.292 HD
ENDBRANCH  21  26
BRANCH  23  28
ATOM     28  O   LIG d   1       5.945   1.852  -2.997  0.00  0.00    -0.503 OA
ATOM     29  H   LIG d   1       6.464   2.060  -3.786  0.00  0.00     0.292 HD
ENDBRANCH  23  28
ENDBRANCH   1  17
BRANCH   3  30
ATOM     30  O   LIG d   1       5.600  -2.504  -6.170  0.00  0.00    -0.388 OA
ATOM     31  H   LIG d   1       5.618  -1.866  -6.895  0.00  0.00     0.210 HD
ENDBRANCH   3  30
BRANCH   7  32
ATOM     32  O   LIG d   1       9.726  -5.452  -6.920  0.00  0.00    -0.506 OA
ATOM     33  H   LIG d   1       8.850  -5.376  -7.322  0.00  0.00     0.292 HD
ENDBRANCH   7  32
BRANCH   9  34
ATOM     34  O   LIG d   1      11.999  -5.159  -2.755  0.00  0.00    -0.506 OA
ATOM     35  H   LIG d   1      12.840  -4.790  -3.059  0.00  0.00     0.292 HD
ENDBRANCH   9  34
TORSDOF 6
ENDMDL
MODEL 4
REMARK VINA RESULT:      -5.6     11.336     14.137
REMARK  6 active torsions:
REMARK  status: ('A' for Active; 'I' for Inactive)
REMARK    1  A    between atoms: C_3  and  O_23 
REMARK    2  A    between atoms: C_4  and  O_22 
REMARK    3  A    between atoms: C_6  and  C_7 
REMARK    4  A    between atoms: C_9  and  O_21 
REMARK    5  A    between atoms: C_13  and  O_20 
REMARK    6  A    between atoms: C_15  and  O_19 
ROOT
ATOM      1  C   LIG d   1       9.951   8.399  -2.075  0.00  0.00     0.151 C 
ATOM      2  H   LIG d   1       9.536   9.075  -2.821  0.00  0.00     0.081 H 
ATOM      3  C   LIG d   1       9.111   8.465  -0.792  0.00  0.00     0.100 C 
ATOM      4  H   LIG d   1       9.578   7.861  -0.015  0.00  0.00     0.064 H 
ATOM      5  C   LIG d   1       9.043   9.926  -0.339  0.00  0.00     0.009 C 
ATOM      6  C   LIG d   1      10.427  10.526  -0.348  0.00  0.00     0.038 A 
ATOM      7  C   LIG d   1      10.653  11.694   0.372  0.00  0.00     0.127 A 
ATOM      8  C   LIG d   1      11.910  12.275   0.382  0.00  0.00     0.022 A 
ATOM      9  C   LIG d   1      12.948  11.689  -0.328  0.00  0.00     0.124 A 
ATOM     10  C   LIG d   1      12.724  10.524  -1.043  0.00  0.00     0.022 A 
ATOM     11  C   LIG d   1      11.462   9.939  -1.053  0.00  0.00     0.132 A 
ATOM     12  O   LIG d   1      11.287   8.791  -1.760  0.00  0.00    -0.481 OA
ATOM     13  H   LIG d   1       8.401  10.487  -1.017  0.00  0.00     0.034 H 
ATOM     14  H   LIG d   1       8.634   9.973   0.670  0.00  0.00     0.034 H 
ATOM     15  H   LIG d   1      12.083  13.182   0.942  0.00  0.00     0.069 H 
ATOM     16  H   LIG d   1      13.533  10.069  -1.596  0.00  0.00     0.069 H 
ENDROOT
BRANCH   1  17
ATOM     17  C   LIG d   1       9.949   6.990  -2.610  0.00  0.00    -0.001 A 
ATOM     18  C   LIG d   1       9.425   6.728  -3.861  0.00  0.00    -0.051 A 
ATOM     19  C   LIG d   1       9.420   5.436  -4.356  0.00  0.00    -0.016 A 
ATOM     20  H   LIG d   1       9.021   7.534  -4.456  0.00  0.00     0.062 H 
ATOM     21  C   LIG d   1       9.943   4.402  -3.596  0.00  0.00     0.158 A 
ATOM     22  H   LIG d   1       9.010   5.234  -5.334  0.00  0.00     0.066 H 
ATOM     23  C   LIG d   1      10.471   4.666  -2.336  0.00  0.00     0.159 A 
ATOM     24  C   LIG d   1      10.472   5.962  -1.847  0.00  0.00    -0.010 A 
ATOM     25  H   LIG d   1      10.881   6.169  -0.869  0.00  0.00     0.066 H 
BRANCH  21  26
ATOM     26  O   LIG d   1       9.939   3.131  -4.082  0.00  0.00    -0.503 OA
ATOM     27  H   LIG d   1       9.286   2.553  -3.664  0.00  0.00     0.292 HD
ENDBRANCH  21  26
BRANCH  23  28
ATOM     28  O   LIG d   1      10.985   3.654  -1.587  0.00  0.00    -0.503 OA
ATOM     29  H   LIG d   1      11.940   3.713  -1.448  0.00  0.00     0.292 HD
ENDBRANCH  23  28
ENDBRANCH   1  17
BRANCH   3  30
ATOM     30  O   LIG d   1       7.793   7.980  -1.054  0.00  0.00    -0.388 OA
ATOM     31  H   LIG d   1       7.564   7.180  -0.562  0.00  0.00     0.210 HD
ENDBRANCH   3  30
BRANCH   7  32
ATOM     32  O   LIG d   1       9.636  12.267   1.067  0.00  0.00    -0.506 OA
ATOM     33  H   LIG d   1       8.769  12.166   0.651  0.00  0.00     0.292 HD
ENDBRANCH   7  32
BRANCH   9  34
ATOM     34  O   LIG d   1      14.182  12.257  -0.322  0.00  0.00    -0.506 OA
ATOM     35  H   LIG d   1      14.235  13.078   0.186  0.00  0.00     0.292 HD
ENDBRANCH   9  34
TORSDOF 6
ENDMDL
MODEL 5
REMARK VINA RESULT:      -5.5      9.324     10.605
REMARK  6 active torsions:
REMARK  status: ('A' for Active; 'I' for Inactive)
REMARK    1  A    between atoms: C_3  and  O_23 
REMARK    2  A    between atoms: C_4  and  O_22 
REMARK    3  A    between atoms: C_6  and  C_7 
REMARK    4  A    between atoms: C_9  and  O_21 
REMARK    5  A    between atoms: C_13  and  O_20 
REMARK    6  A    between atoms: C_15  and  O_19 
ROOT
ATOM      1  C   LIG d   1       9.964   7.145  -4.350  0.00  0.00     0.151 C 
ATOM      2  H   LIG d   1       8.917   6.915  -4.154  0.00  0.00     0.081 H 
ATOM      3  C   LIG d   1      10.099   8.608  -4.791  0.00  0.00     0.100 C 
ATOM      4  H   LIG d   1      11.131   8.813  -5.075  0.00  0.00     0.064 H 
ATOM      5  C   LIG d   1       9.178   8.834  -5.993  0.00  0.00     0.009 C 
ATOM      6  C   LIG d   1       9.384   7.735  -7.004  0.00  0.00     0.038 A 
ATOM      7  C   LIG d   1       8.946   7.937  -8.308  0.00  0.00     0.127 A 
ATOM      8  C   LIG d   1       9.115   6.947  -9.262  0.00  0.00     0.022 A 
ATOM      9  C   LIG d   1       9.725   5.750  -8.917  0.00  0.00     0.124 A 
ATOM     10  C   LIG d   1      10.166   5.550  -7.619  0.00  0.00     0.022 A 
ATOM     11  C   LIG d   1       9.997   6.543  -6.659  0.00  0.00     0.132 A 
ATOM     12  O   LIG d   1      10.452   6.310  -5.400  0.00  0.00    -0.481 OA
ATOM     13  H   LIG d   1       8.140   8.830  -5.660  0.00  0.00     0.034 H 
ATOM     14  H   LIG d   1       9.409   9.796  -6.449  0.00  0.00     0.034 H 
ATOM     15  H   LIG d   1       8.772   7.107 -10.274  0.00  0.00     0.069 H 
ATOM     16  H   LIG d   1      10.641   4.618  -7.350  0.00  0.00     0.069 H 
ENDROOT
BRANCH   1  17
ATOM     17  C   LIG d   1      10.776   6.915  -3.101  0.00  0.00    -0.001 A 
ATOM     18  C   LIG d   1      12.135   7.165  -3.106  0.00  0.00    -0.051 A 
ATOM     19  C   LIG d   1      12.885   6.955  -1.962  0.00  0.00    -0.016 A 
ATOM     20  H   LIG d   1      12.612   7.530  -4.003  0.00  0.00     0.062 H 
ATOM     21  C   LIG d   1      12.272   6.493  -0.809  0.00  0.00     0.158 A 
ATOM     22  H   LIG d   1      13.946   7.152  -1.969  0.00  0.00     0.066 H 
ATOM     23  C   LIG d   1      10.904   6.240  -0.804  0.00  0.00     0.159 A 
ATOM     24  C   LIG d   1      10.159   6.453  -1.952  0.00  0.00    -0.010 A 
ATOM     25  H   LIG d   1       9.097   6.258  -1.951  0.00  0.00     0.066 H 
BRANCH  21  26
ATOM     26  O   LIG d   1      13.008   6.285   0.317  0.00  0.00    -0.503 OA
ATOM     27  H   LIG d   1      12.479   6.080   1.100  0.00  0.00     0.292 HD
ENDBRANCH  21  26
BRANCH  23  28
ATOM     28  O   LIG d   1      10.298   5.786   0.327  0.00  0.00    -0.503 OA
ATOM     29  H   LIG d   1      10.201   6.456   1.018  0.00  0.00     0.292 HD
ENDBRANCH  23  28
ENDBRANCH   1  17
BRANCH   3  30
ATOM     30  O   LIG d   1       9.714   9.472  -3.720  0.00  0.00    -0.388 OA
ATOM     31  H   LIG d   1       9.919  10.404  -3.873  0.00  0.00     0.210 HD
ENDBRANCH   3  30
BRANCH   7  32
ATOM     32  O   LIG d   1       8.347   9.108  -8.647  0.00  0.00    -0.506 OA
ATOM     33  H   LIG d   1       7.586   9.006  -9.233  0.00  0.00     0.292 HD
ENDBRANCH   7  32
BRANCH   9  34
ATOM     34  O   LIG d   1       9.891   4.777  -9.849  0.00  0.00    -0.506 OA
ATOM     35  H   LIG d   1      10.788   4.725 -10.208  0.00  0.00     0.292 HD
ENDBRANCH   9  34
TORSDOF 6
ENDMDL
MODEL 6
REMARK VINA RESULT:      -5.5      5.265      7.725
REMARK  6 active torsions:
REMARK  status: ('A' for Active; 'I' for Inactive)
REMARK    1  A    between atoms: C_3  and  O_23 
REMARK    2  A    between atoms: C_4  and  O_22 
REMARK    3  A    between atoms: C_6  and  C_7 
REMARK    4  A    between atoms: C_9  and  O_21 
REMARK    5  A    between atoms: C_13  and  O_20 
REMARK    6  A    between atoms: C_15  and  O_19 
ROOT
ATOM      1  C   LIG d   1       8.158   1.168  -4.174  0.00  0.00     0.151 C 
ATOM      2  H   LIG d   1       9.037   0.527  -4.228  0.00  0.00     0.081 H 
ATOM      3  C   LIG d   1       7.796   1.669  -5.579  0.00  0.00     0.100 C 
ATOM      4  H   LIG d   1       6.975   2.381  -5.516  0.00  0.00     0.064 H 
ATOM      5  C   LIG d   1       9.029   2.353  -6.176  0.00  0.00     0.009 C 
ATOM      6  C   LIG d   1       9.609   3.319  -5.175  0.00  0.00     0.038 A 
ATOM      7  C   LIG d   1      10.480   4.305  -5.625  0.00  0.00     0.127 A 
ATOM      8  C   LIG d   1      11.035   5.207  -4.731  0.00  0.00     0.022 A 
ATOM      9  C   LIG d   1      10.721   5.126  -3.383  0.00  0.00     0.124 A 
ATOM     10  C   LIG d   1       9.851   4.146  -2.934  0.00  0.00     0.022 A 
ATOM     11  C   LIG d   1       9.291   3.240  -3.830  0.00  0.00     0.132 A 
ATOM     12  O   LIG d   1       8.436   2.300  -3.350  0.00  0.00    -0.481 OA
ATOM     13  H   LIG d   1       9.776   1.600  -6.428  0.00  0.00     0.034 H 
ATOM     14  H   LIG d   1       8.741   2.894  -7.078  0.00  0.00     0.034 H 
ATOM     15  H   LIG d   1      11.711   5.971  -5.084  0.00  0.00     0.069 H 
ATOM     16  H   LIG d   1       9.606   4.084  -1.884  0.00  0.00     0.069 H 
ENDROOT
BRANCH   1  17
ATOM     17  C   LIG d   1       7.000   0.394  -3.599  0.00  0.00    -0.001 A 
ATOM     18  C   LIG d   1       7.003  -0.988  -3.645  0.00  0.00    -0.051 A 
ATOM     19  C   LIG d   1       5.942  -1.703  -3.118  0.00  0.00    -0.016 A 
ATOM     20  H   LIG d   1       7.837  -1.510  -4.090  0.00  0.00     0.062 H 
ATOM     21  C   LIG d   1       4.875  -1.033  -2.542  0.00  0.00     0.158 A 
ATOM     22  H   LIG d   1       5.947  -2.781  -3.157  0.00  0.00     0.066 H 
ATOM     23  C   LIG d   1       4.872   0.357  -2.496  0.00  0.00     0.159 A 
ATOM     24  C   LIG d   1       5.937   1.067  -3.025  0.00  0.00    -0.010 A 
ATOM     25  H   LIG d   1       5.938   2.147  -2.989  0.00  0.00     0.066 H 
BRANCH  21  26
ATOM     26  O   LIG d   1       3.831  -1.735  -2.024  0.00  0.00    -0.503 OA
ATOM     27  H   LIG d   1       3.025  -1.213  -1.908  0.00  0.00     0.292 HD
ENDBRANCH  21  26
BRANCH  23  28
ATOM     28  O   LIG d   1       3.826   1.018  -1.931  0.00  0.00    -0.503 OA
ATOM     29  H   LIG d   1       3.012   0.986  -2.453  0.00  0.00     0.292 HD
ENDBRANCH  23  28
ENDBRANCH   1  17
BRANCH   3  30
ATOM     30  O   LIG d   1       7.413   0.564  -6.400  0.00  0.00    -0.388 OA
ATOM     31  H   LIG d   1       7.657  -0.298  -6.039  0.00  0.00     0.210 HD
ENDBRANCH   3  30
BRANCH   7  32
ATOM     32  O   LIG d   1      10.788   4.384  -6.945  0.00  0.00    -0.506 OA
ATOM     33  H   LIG d   1      10.352   3.715  -7.491  0.00  0.00     0.292 HD
ENDBRANCH   7  32
BRANCH   9  34
ATOM     34  O   LIG d   1      11.264   6.007  -2.503  0.00  0.00    -0.506 OA
ATOM     35  H   LIG d   1      10.615   6.567  -2.056  0.00  0.00     0.292 HD
ENDBRANCH   9  34
TORSDOF 6
ENDMDL
MODEL 7
REMARK VINA RESULT:      -5.5      4.235      6.861
REMARK  6 active torsions:
REMARK  status: ('A' for Active; 'I' for Inactive)
REMARK    1  A    between atoms: C_3  and  O_23 
REMARK    2  A    between atoms: C_4  and  O_22 
REMARK    3  A    between atoms: C_6  and  C_7 
REMARK    4  A    between atoms: C_9  and  O_21 
REMARK    5  A    between atoms: C_13  and  O_20 
REMARK    6  A    between atoms: C_15  and  O_19 
ROOT
ATOM      1  C   LIG d   1       5.832  -3.329  -4.822  0.00  0.00     0.151 C 
ATOM      2  H   LIG d   1       6.357  -3.699  -3.941  0.00  0.00     0.081 H 
ATOM      3  C   LIG d   1       6.791  -2.499  -5.686  0.00  0.00     0.100 C 
ATOM      4  H   LIG d   1       6.246  -2.054  -6.517  0.00  0.00     0.064 H 
ATOM      5  C   LIG d   1       7.390  -1.395  -4.810  0.00  0.00     0.009 C 
ATOM      6  C   LIG d   1       6.291  -0.698  -4.048  0.00  0.00     0.038 A 
ATOM      7  C   LIG d   1       6.549   0.552  -3.498  0.00  0.00     0.127 A 
ATOM      8  C   LIG d   1       5.564   1.218  -2.787  0.00  0.00     0.022 A 
ATOM      9  C   LIG d   1       4.316   0.636  -2.624  0.00  0.00     0.124 A 
ATOM     10  C   LIG d   1       4.057  -0.608  -3.175  0.00  0.00     0.022 A 
ATOM     11  C   LIG d   1       5.045  -1.278  -3.890  0.00  0.00     0.132 A 
ATOM     12  O   LIG d   1       4.747  -2.493  -4.421  0.00  0.00    -0.481 OA
ATOM     13  H   LIG d   1       8.098  -1.833  -4.107  0.00  0.00     0.034 H 
ATOM     14  H   LIG d   1       7.907  -0.673  -5.443  0.00  0.00     0.034 H 
ATOM     15  H   LIG d   1       5.768   2.190  -2.361  0.00  0.00     0.069 H 
ATOM     16  H   LIG d   1       3.085  -1.061  -3.047  0.00  0.00     0.069 H 
ENDROOT
BRANCH   1  17
ATOM     17  C   LIG d   1       5.306  -4.492  -5.624  0.00  0.00    -0.001 A 
ATOM     18  C   LIG d   1       5.823  -5.759  -5.422  0.00  0.00    -0.051 A 
ATOM     19  C   LIG d   1       5.344  -6.829  -6.156  0.00  0.00    -0.016 A 
ATOM     20  H   LIG d   1       6.599  -5.914  -4.688  0.00  0.00     0.062 H 
ATOM     21  C   LIG d   1       4.344  -6.632  -7.095  0.00  0.00     0.158 A 
ATOM     22  H   LIG d   1       5.749  -7.817  -5.997  0.00  0.00     0.066 H 
ATOM     23  C   LIG d   1       3.824  -5.358  -7.297  0.00  0.00     0.159 A 
ATOM     24  C   LIG d   1       4.308  -4.290  -6.559  0.00  0.00    -0.010 A 
ATOM     25  H   LIG d   1       3.906  -3.300  -6.714  0.00  0.00     0.066 H 
BRANCH  21  26
ATOM     26  O   LIG d   1       3.872  -7.684  -7.817  0.00  0.00    -0.503 OA
ATOM     27  H   LIG d   1       2.947  -7.902  -7.636  0.00  0.00     0.292 HD
ENDBRANCH  21  26
BRANCH  23  28
ATOM     28  O   LIG d   1       2.842  -5.160  -8.218  0.00  0.00    -0.503 OA
ATOM     29  H   LIG d   1       2.065  -5.721  -8.092  0.00  0.00     0.292 HD
ENDBRANCH  23  28
ENDBRANCH   1  17
BRANCH   3  30
ATOM     30  O   LIG d   1       7.835  -3.336  -6.188  0.00  0.00    -0.388 OA
ATOM     31  H   LIG d   1       7.531  -4.018  -6.801  0.00  0.00     0.210 HD
ENDBRANCH   3  30
BRANCH   7  32
ATOM     32  O   LIG d   1       7.772   1.122  -3.657  0.00  0.00    -0.506 OA
ATOM     33  H   LIG d   1       8.302   0.724  -4.360  0.00  0.00     0.292 HD
ENDBRANCH   7  32
BRANCH   9  34
ATOM     34  O   LIG d   1       3.347   1.286  -1.927  0.00  0.00    -0.506 OA
ATOM     35  H   LIG d   1       3.193   0.928  -1.042  0.00  0.00     0.292 HD
ENDBRANCH   9  34
TORSDOF 6
ENDMDL
MODEL 8
REMARK VINA RESULT:      -5.5     10.729     12.884
REMARK  6 active torsions:
REMARK  status: ('A' for Active; 'I' for Inactive)
REMARK    1  A    between atoms: C_3  and  O_23 
REMARK    2  A    between atoms: C_4  and  O_22 
REMARK    3  A    between atoms: C_6  and  C_7 
REMARK    4  A    between atoms: C_9  and  O_21 
REMARK    5  A    between atoms: C_13  and  O_20 
REMARK    6  A    between atoms: C_15  and  O_19 
ROOT
ATOM      1  C   LIG d   1       6.802 -10.118  -1.959  0.00  0.00     0.151 C 
ATOM      2  H   LIG d   1       6.333  -9.694  -1.073  0.00  0.00     0.081 H 
ATOM      3  C   LIG d   1       7.699 -11.297  -1.557  0.00  0.00     0.100 C 
ATOM      4  H   LIG d   1       8.238 -11.663  -2.430  0.00  0.00     0.064 H 
ATOM      5  C   LIG d   1       8.694 -10.803  -0.504  0.00  0.00     0.009 C 
ATOM      6  C   LIG d   1       9.329  -9.517  -0.968  0.00  0.00     0.038 A 
ATOM      7  C   LIG d   1      10.510  -9.099  -0.365  0.00  0.00     0.127 A 
ATOM      8  C   LIG d   1      11.118  -7.920  -0.764  0.00  0.00     0.022 A 
ATOM      9  C   LIG d   1      10.547  -7.153  -1.768  0.00  0.00     0.124 A 
ATOM     10  C   LIG d   1       9.372  -7.569  -2.371  0.00  0.00     0.022 A 
ATOM     11  C   LIG d   1       8.760  -8.754  -1.973  0.00  0.00     0.132 A 
ATOM     12  O   LIG d   1       7.613  -9.131  -2.596  0.00  0.00    -0.481 OA
ATOM     13  H   LIG d   1       8.172 -10.631   0.437  0.00  0.00     0.034 H 
ATOM     14  H   LIG d   1       9.468 -11.557  -0.356  0.00  0.00     0.034 H 
ATOM     15  H   LIG d   1      12.036  -7.599  -0.293  0.00  0.00     0.069 H 
ATOM     16  H   LIG d   1       8.927  -6.971  -3.152  0.00  0.00     0.069 H 
ENDROOT
BRANCH   1  17
ATOM     17  C   LIG d   1       5.738 -10.594  -2.916  0.00  0.00    -0.001 A 
ATOM     18  C   LIG d   1       6.090 -11.362  -4.011  0.00  0.00    -0.051 A 
ATOM     19  C   LIG d   1       5.117 -11.800  -4.892  0.00  0.00    -0.016 A 
ATOM     20  H   LIG d   1       7.124 -11.622  -4.177  0.00  0.00     0.062 H 
ATOM     21  C   LIG d   1       3.789 -11.471  -4.677  0.00  0.00     0.158 A 
ATOM     22  H   LIG d   1       5.394 -12.399  -5.746  0.00  0.00     0.066 H 
ATOM     23  C   LIG d   1       3.436 -10.699  -3.575  0.00  0.00     0.159 A 
ATOM     24  C   LIG d   1       4.414 -10.263  -2.697  0.00  0.00    -0.010 A 
ATOM     25  H   LIG d   1       4.143  -9.663  -1.840  0.00  0.00     0.066 H 
BRANCH  21  26
ATOM     26  O   LIG d   1       2.832 -11.902  -5.543  0.00  0.00    -0.503 OA
ATOM     27  H   LIG d   1       3.073 -12.701  -6.029  0.00  0.00     0.292 HD
ENDBRANCH  21  26
BRANCH  23  28
ATOM     28  O   LIG d   1       2.133 -10.373  -3.360  0.00  0.00    -0.503 OA
ATOM     29  H   LIG d   1       1.969  -9.949  -2.506  0.00  0.00     0.292 HD
ENDBRANCH  23  28
ENDBRANCH   1  17
BRANCH   3  30
ATOM     30  O   LIG d   1       6.898 -12.346  -1.010  0.00  0.00    -0.388 OA
ATOM     31  H   LIG d   1       6.806 -12.310  -0.049  0.00  0.00     0.210 HD
ENDBRANCH   3  30
BRANCH   7  32
ATOM     32  O   LIG d   1      11.070  -9.851   0.618  0.00  0.00    -0.506 OA
ATOM     33  H   LIG d   1      11.854  -9.452   1.020  0.00  0.00     0.292 HD
ENDBRANCH   7  32
BRANCH   9  34
ATOM     34  O   LIG d   1      11.139  -5.994  -2.160  0.00  0.00    -0.506 OA
ATOM     35  H   LIG d   1      11.470  -6.010  -3.068  0.00  0.00     0.292 HD
ENDBRANCH   9  34
TORSDOF 6
ENDMDL
MODEL 9
REMARK VINA RESULT:      -5.4      5.607      7.826
REMARK  6 active torsions:
REMARK  status: ('A' for Active; 'I' for Inactive)
REMARK    1  A    between atoms: C_3  and  O_23 
REMARK    2  A    between atoms: C_4  and  O_22 
REMARK    3  A    between atoms: C_6  and  C_7 
REMARK    4  A    between atoms: C_9  and  O_21 
REMARK    5  A    between atoms: C_13  and  O_20 
REMARK    6  A    between atoms: C_15  and  O_19 
ROOT
ATOM      1  C   LIG d   1       8.372   2.118  -4.467  0.00  0.00     0.151 C 
ATOM      2  H   LIG d   1       7.799   2.377  -5.357  0.00  0.00     0.081 H 
ATOM      3  C   LIG d   1       9.294   0.930  -4.771  0.00  0.00     0.100 C 
ATOM      4  H   LIG d   1       9.798   0.613  -3.860  0.00  0.00     0.064 H 
ATOM      5  C   LIG d   1       8.435  -0.216  -5.313  0.00  0.00     0.009 C 
ATOM      6  C   LIG d   1       7.238  -0.420  -4.419  0.00  0.00     0.038 A 
ATOM      7  C   LIG d   1       6.543  -1.622  -4.497  0.00  0.00     0.127 A 
ATOM      8  C   LIG d   1       5.436  -1.841  -3.694  0.00  0.00     0.022 A 
ATOM      9  C   LIG d   1       5.019  -0.859  -2.808  0.00  0.00     0.124 A 
ATOM     10  C   LIG d   1       5.713   0.337  -2.726  0.00  0.00     0.022 A 
ATOM     11  C   LIG d   1       6.826   0.559  -3.532  0.00  0.00     0.132 A 
ATOM     12  O   LIG d   1       7.483   1.742  -3.414  0.00  0.00    -0.481 OA
ATOM     13  H   LIG d   1       8.098   0.027  -6.320  0.00  0.00     0.034 H 
ATOM     14  H   LIG d   1       9.028  -1.131  -5.339  0.00  0.00     0.034 H 
ATOM     15  H   LIG d   1       4.898  -2.776  -3.758  0.00  0.00     0.069 H 
ATOM     16  H   LIG d   1       5.388   1.101  -2.036  0.00  0.00     0.069 H 
ENDROOT
BRANCH   1  17
ATOM     17  C   LIG d   1       9.198   3.303  -4.034  0.00  0.00    -0.001 A 
ATOM     18  C   LIG d   1       9.231   4.443  -4.815  0.00  0.00    -0.051 A 
ATOM     19  C   LIG d   1       9.988   5.532  -4.422  0.00  0.00    -0.016 A 
ATOM     20  H   LIG d   1       8.663   4.484  -5.732  0.00  0.00     0.062 H 
ATOM     21  C   LIG d   1      10.714   5.481  -3.243  0.00  0.00     0.158 A 
ATOM     22  H   LIG d   1      10.013   6.420  -5.034  0.00  0.00     0.066 H 
ATOM     23  C   LIG d   1      10.680   4.334  -2.457  0.00  0.00     0.159 A 
ATOM     24  C   LIG d   1       9.920   3.247  -2.856  0.00  0.00    -0.010 A 
ATOM     25  H   LIG d   1       9.891   2.355  -2.247  0.00  0.00     0.066 H 
BRANCH  21  26
ATOM     26  O   LIG d   1      11.459   6.552  -2.855  0.00  0.00    -0.503 OA
ATOM     27  H   LIG d   1      11.563   7.227  -3.540  0.00  0.00     0.292 HD
ENDBRANCH  21  26
BRANCH  23  28
ATOM     28  O   LIG d   1      11.391   4.279  -1.298  0.00  0.00    -0.503 OA
ATOM     29  H   LIG d   1      11.091   4.904  -0.623  0.00  0.00     0.292 HD
ENDBRANCH  23  28
ENDBRANCH   1  17
BRANCH   3  30
ATOM     30  O   LIG d   1      10.262   1.311  -5.750  0.00  0.00    -0.388 OA
ATOM     31  H   LIG d   1      10.484   0.610  -6.378  0.00  0.00     0.210 HD
ENDBRANCH   3  30
BRANCH   7  32
ATOM     32  O   LIG d   1       6.951  -2.583  -5.366  0.00  0.00    -0.506 OA
ATOM     33  H   LIG d   1       6.344  -3.333  -5.435  0.00  0.00     0.292 HD
ENDBRANCH   7  32
BRANCH   9  34
ATOM     34  O   LIG d   1       3.933  -1.070  -2.020  0.00  0.00    -0.506 OA
ATOM     35  H   LIG d   1       4.139  -1.149  -1.078  0.00  0.00     0.292 HD
ENDBRANCH   9  34
TORSDOF 6
ENDMDL
MODEL 10
REMARK VINA RESULT:      -5.4      8.016      9.456
REMARK  6 active torsions:
REMARK  status: ('A' for Active; 'I' for Inactive)
REMARK    1  A    between atoms: C_3  and  O_23 
REMARK    2  A    between atoms: C_4  and  O_22 
REMARK    3  A    between atoms: C_6  and  C_7 
REMARK    4  A    between atoms: C_9  and  O_21 
REMARK    5  A    between atoms: C_13  and  O_20 
REMARK    6  A    between atoms: C_15  and  O_19 
ROOT
ATOM      1  C   LIG d   1      10.486   5.399  -5.211  0.00  0.00     0.151 C 
ATOM      2  H   LIG d   1      11.491   5.101  -5.507  0.00  0.00     0.081 H 
ATOM      3  C   LIG d   1       9.497   4.271  -5.532  0.00  0.00     0.100 C 
ATOM      4  H   LIG d   1       8.480   4.602  -5.323  0.00  0.00     0.064 H 
ATOM      5  C   LIG d   1       9.631   3.923  -7.018  0.00  0.00     0.009 C 
ATOM      6  C   LIG d   1       9.602   5.187  -7.839  0.00  0.00     0.038 A 
ATOM      7  C   LIG d   1       9.331   5.093  -9.200  0.00  0.00     0.127 A 
ATOM      8  C   LIG d   1       9.301   6.234  -9.986  0.00  0.00     0.022 A 
ATOM      9  C   LIG d   1       9.542   7.474  -9.414  0.00  0.00     0.124 A 
ATOM     10  C   LIG d   1       9.808   7.569  -8.058  0.00  0.00     0.022 A 
ATOM     11  C   LIG d   1       9.838   6.425  -7.267  0.00  0.00     0.132 A 
ATOM     12  O   LIG d   1      10.094   6.563  -5.940  0.00  0.00    -0.481 OA
ATOM     13  H   LIG d   1      10.574   3.404  -7.185  0.00  0.00     0.034 H 
ATOM     14  H   LIG d   1       8.804   3.278  -7.314  0.00  0.00     0.034 H 
ATOM     15  H   LIG d   1       9.091   6.157 -11.043  0.00  0.00     0.069 H 
ATOM     16  H   LIG d   1       9.995   8.535  -7.613  0.00  0.00     0.069 H 
ENDROOT
BRANCH   1  17
ATOM     17  C   LIG d   1      10.458   5.692  -3.733  0.00  0.00    -0.001 A 
ATOM     18  C   LIG d   1      11.413   5.139  -2.902  0.00  0.00    -0.051 A 
ATOM     19  C   LIG d   1      11.391   5.405  -1.544  0.00  0.00    -0.016 A 
ATOM     20  H   LIG d   1      12.181   4.500  -3.313  0.00  0.00     0.062 H 
ATOM     21  C   LIG d   1      10.410   6.228  -1.017  0.00  0.00     0.158 A 
ATOM     22  H   LIG d   1      12.138   4.971  -0.898  0.00  0.00     0.066 H 
ATOM     23  C   LIG d   1       9.448   6.785  -1.853  0.00  0.00     0.159 A 
ATOM     24  C   LIG d   1       9.476   6.515  -3.212  0.00  0.00    -0.010 A 
ATOM     25  H   LIG d   1       8.731   6.947  -3.864  0.00  0.00     0.066 H 
BRANCH  21  26
ATOM     26  O   LIG d   1      10.387   6.491   0.318  0.00  0.00    -0.503 OA
ATOM     27  H   LIG d   1      10.076   5.752   0.859  0.00  0.00     0.292 HD
ENDBRANCH  21  26
BRANCH  23  28
ATOM     28  O   LIG d   1       8.483   7.594  -1.340  0.00  0.00    -0.503 OA
ATOM     29  H   LIG d   1       8.592   8.529  -1.565  0.00  0.00     0.292 HD
ENDBRANCH  23  28
ENDBRANCH   1  17
BRANCH   3  30
ATOM     30  O   LIG d   1       9.802   3.122  -4.739  0.00  0.00    -0.388 OA
ATOM     31  H   LIG d   1       9.470   3.171  -3.833  0.00  0.00     0.210 HD
ENDBRANCH   3  30
BRANCH   7  32
ATOM     32  O   LIG d   1       9.096   3.878  -9.760  0.00  0.00    -0.506 OA
ATOM     33  H   LIG d   1       8.208   3.781 -10.129  0.00  0.00     0.292 HD
ENDBRANCH   7  32
BRANCH   9  34
ATOM     34  O   LIG d   1       9.515   8.595 -10.182  0.00  0.00    -0.506 OA
ATOM     35  H   LIG d   1       9.417   8.421 -11.128  0.00  0.00     0.292 HD
ENDBRANCH   9  34
TORSDOF 6
ENDMDL
