MODEL 1
REMARK VINA RESULT:      -7.4      0.000      0.000
REMARK  8 active torsions:
REMARK  status: ('A' for Active; 'I' for Inactive)
REMARK    1  A    between atoms: C_7  and  C_11 
REMARK    2  A    between atoms: C_11  and  C_12 
REMARK    3  A    between atoms: C_12  and  C_13 
REMARK       I    between atoms: C_13  and  N_15 
REMARK    4  A    between atoms: C_19  and  C_22 
REMARK       I    between atoms: C_22  and  N_24 
REMARK    5  A    between atoms: N_24  and  C_25 
REMARK    6  A    between atoms: C_25  and  C_26 
REMARK    7  A    between atoms: C_26  and  C_27 
REMARK    8  A    between atoms: C_30  and  O_33 
ROOT
ATOM      1  C   LIG d   1       7.151  -2.836  -5.941  0.00  0.00     0.216 C 
ATOM      2  O   LIG d   1       8.210  -2.443  -6.382  0.00  0.00    -0.276 OA
ATOM      3  N   LIG d   1       6.033  -2.745  -6.689  0.00  0.00    -0.301 N 
ATOM      4  C   LIG d   1       4.743  -3.218  -6.167  0.00  0.00     0.015 C 
ATOM      5  C   LIG d   1       4.139  -4.205  -7.170  0.00  0.00    -0.036 C 
ATOM      6  C   LIG d   1       4.055  -3.542  -8.547  0.00  0.00    -0.039 C 
ATOM      7  C   LIG d   1       5.464  -3.172  -9.025  0.00  0.00     0.051 C 
ATOM      8  H   LIG d   1       6.081  -4.069  -9.068  0.00  0.00     0.041 H 
ATOM      9  C   LIG d   1       6.082  -2.173  -8.041  0.00  0.00     0.026 C 
ATOM     10  H   LIG d   1       4.897  -3.716  -5.210  0.00  0.00     0.046 H 
ATOM     11  H   LIG d   1       4.070  -2.371  -6.037  0.00  0.00     0.046 H 
ATOM     12  H   LIG d   1       4.768  -5.093  -7.230  0.00  0.00     0.028 H 
ATOM     13  H   LIG d   1       3.139  -4.490  -6.842  0.00  0.00     0.028 H 
ATOM     14  H   LIG d   1       3.602  -4.235  -9.256  0.00  0.00     0.027 H 
ATOM     15  H   LIG d   1       3.446  -2.641  -8.480  0.00  0.00     0.027 H 
ATOM     16  H   LIG d   1       5.517  -1.241  -8.063  0.00  0.00     0.047 H 
ATOM     17  H   LIG d   1       7.118  -1.979  -8.319  0.00  0.00     0.047 H 
ENDROOT
BRANCH   1  18
ATOM     18  C   LIG d   1       7.085  -3.427  -4.556  0.00  0.00     0.028 C 
ATOM     19  H   LIG d   1       6.044  -3.607  -4.288  0.00  0.00     0.036 H 
ATOM     20  H   LIG d   1       7.634  -4.367  -4.536  0.00  0.00     0.036 H 
BRANCH  18  21
ATOM     21  C   LIG d   1       7.707  -2.450  -3.555  0.00  0.00    -0.017 C 
ATOM     22  H   LIG d   1       7.697  -2.895  -2.559  0.00  0.00     0.032 H 
ATOM     23  H   LIG d   1       8.735  -2.236  -3.847  0.00  0.00     0.032 H 
BRANCH  21  24
ATOM     24  C   LIG d   1       6.911  -1.171  -3.542  0.00  0.00    -0.022 A 
ATOM     25  C   LIG d   1       5.493  -1.030  -3.206  0.00  0.00     0.003 A 
ATOM     26  C   LIG d   1       5.198   0.340  -3.327  0.00  0.00     0.047 A 
ATOM     27  C   LIG d   1       4.495  -1.925  -2.812  0.00  0.00    -0.052 A 
ATOM     28  C   LIG d   1       3.907   0.786  -3.063  0.00  0.00    -0.038 A 
ATOM     29  N   LIG d   1       6.358   0.972  -3.718  0.00  0.00    -0.360 N 
ATOM     30  C   LIG d   1       2.937  -0.115  -2.682  0.00  0.00    -0.060 A 
ATOM     31  H   LIG d   1       3.666   1.835  -3.156  0.00  0.00     0.064 H 
ATOM     32  C   LIG d   1       3.234  -1.465  -2.558  0.00  0.00    -0.061 A 
ATOM     33  H   LIG d   1       1.935   0.233  -2.477  0.00  0.00     0.062 H 
ATOM     34  H   LIG d   1       2.461  -2.158  -2.257  0.00  0.00     0.062 H 
ATOM     35  C   LIG d   1       7.367   0.056  -3.840  0.00  0.00     0.006 A 
ATOM     36  H   LIG d   1       6.445   1.923  -3.881  0.00  0.00     0.165 HD
ATOM     37  H   LIG d   1       8.380   0.286  -4.134  0.00  0.00     0.081 H 
ATOM     38  H   LIG d   1       4.718  -2.977  -2.713  0.00  0.00     0.062 H 
ENDBRANCH  21  24
ENDBRANCH  18  21
ENDBRANCH   1  18
BRANCH   7  39
ATOM     39  C   LIG d   1       5.387  -2.546 -10.393  0.00  0.00     0.218 C 
ATOM     40  O   LIG d   1       6.310  -1.878 -10.808  0.00  0.00    -0.276 OA
ATOM     41  N   LIG d   1       4.291  -2.729 -11.158  0.00  0.00    -0.315 N 
ATOM     42  H   LIG d   1       3.552  -3.263 -10.827  0.00  0.00     0.149 HD
BRANCH  41  43
ATOM     43  C   LIG d   1       4.216  -2.121 -12.489  0.00  0.00     0.016 C 
ATOM     44  H   LIG d   1       5.127  -1.554 -12.680  0.00  0.00     0.046 H 
ATOM     45  H   LIG d   1       4.111  -2.903 -13.240  0.00  0.00     0.046 H 
BRANCH  43  46
ATOM     46  C   LIG d   1       3.009  -1.184 -12.554  0.00  0.00    -0.012 C 
ATOM     47  H   LIG d   1       3.050  -0.601 -13.474  0.00  0.00     0.033 H 
ATOM     48  H   LIG d   1       2.091  -1.771 -12.537  0.00  0.00     0.033 H 
BRANCH  46  49
ATOM     49  C   LIG d   1       3.031  -0.253 -11.369  0.00  0.00    -0.046 A 
ATOM     50  C   LIG d   1       3.933   0.795 -11.331  0.00  0.00    -0.055 A 
ATOM     51  C   LIG d   1       3.955   1.650 -10.246  0.00  0.00    -0.020 A 
ATOM     52  H   LIG d   1       4.621   0.944 -12.150  0.00  0.00     0.062 H 
ATOM     53  C   LIG d   1       3.071   1.456  -9.194  0.00  0.00     0.117 A 
ATOM     54  H   LIG d   1       4.659   2.467 -10.216  0.00  0.00     0.065 H 
ATOM     55  C   LIG d   1       2.167   0.404  -9.234  0.00  0.00    -0.020 A 
ATOM     56  C   LIG d   1       2.145  -0.444 -10.324  0.00  0.00    -0.055 A 
ATOM     57  H   LIG d   1       1.478   0.252  -8.417  0.00  0.00     0.065 H 
ATOM     58  H   LIG d   1       1.439  -1.260 -10.359  0.00  0.00     0.062 H 
BRANCH  53  59
ATOM     59  O   LIG d   1       3.091   2.295  -8.124  0.00  0.00    -0.507 OA
ATOM     60  H   LIG d   1       2.289   2.264  -7.585  0.00  0.00     0.292 HD
ENDBRANCH  53  59
ENDBRANCH  46  49
ENDBRANCH  43  46
ENDBRANCH  41  43
ENDBRANCH   7  39
TORSDOF 8
ENDMDL
MODEL 2
REMARK VINA RESULT:      -7.3      1.655      7.070
REMARK  8 active torsions:
REMARK  status: ('A' for Active; 'I' for Inactive)
REMARK    1  A    between atoms: C_7  and  C_11 
REMARK    2  A    between atoms: C_11  and  C_12 
REMARK    3  A    between atoms: C_12  and  C_13 
REMARK       I    between atoms: C_13  and  N_15 
REMARK    4  A    between atoms: C_19  and  C_22 
REMARK       I    between atoms: C_22  and  N_24 
REMARK    5  A    between atoms: N_24  and  C_25 
REMARK    6  A    between atoms: C_25  and  C_26 
REMARK    7  A    between atoms: C_26  and  C_27 
REMARK    8  A    between atoms: C_30  and  O_33 
ROOT
ATOM      1  C   LIG d   1       5.209  -2.476 -11.688  0.00  0.00     0.216 C 
ATOM      2  O   LIG d   1       6.153  -1.840 -12.104  0.00  0.00    -0.276 OA
ATOM      3  N   LIG d   1       5.186  -2.891 -10.406  0.00  0.00    -0.301 N 
ATOM      4  C   LIG d   1       4.048  -3.663  -9.888  0.00  0.00     0.015 C 
ATOM      5  C   LIG d   1       3.513  -2.969  -8.632  0.00  0.00    -0.036 C 
ATOM      6  C   LIG d   1       4.655  -2.784  -7.630  0.00  0.00    -0.039 C 
ATOM      7  C   LIG d   1       5.741  -1.895  -8.246  0.00  0.00     0.051 C 
ATOM      8  H   LIG d   1       5.311  -0.931  -8.519  0.00  0.00     0.041 H 
ATOM      9  C   LIG d   1       6.299  -2.578  -9.499  0.00  0.00     0.026 C 
ATOM     10  H   LIG d   1       3.264  -3.707 -10.643  0.00  0.00     0.046 H 
ATOM     11  H   LIG d   1       4.375  -4.671  -9.637  0.00  0.00     0.046 H 
ATOM     12  H   LIG d   1       3.103  -1.995  -8.900  0.00  0.00     0.028 H 
ATOM     13  H   LIG d   1       2.730  -3.581  -8.183  0.00  0.00     0.028 H 
ATOM     14  H   LIG d   1       4.271  -2.313  -6.724  0.00  0.00     0.027 H 
ATOM     15  H   LIG d   1       5.081  -3.756  -7.380  0.00  0.00     0.027 H 
ATOM     16  H   LIG d   1       6.809  -3.499  -9.216  0.00  0.00     0.047 H 
ATOM     17  H   LIG d   1       7.001  -1.910  -9.998  0.00  0.00     0.047 H 
ENDROOT
BRANCH   1  18
ATOM     18  C   LIG d   1       4.059  -2.805 -12.606  0.00  0.00     0.028 C 
ATOM     19  H   LIG d   1       4.442  -3.266 -13.516  0.00  0.00     0.036 H 
ATOM     20  H   LIG d   1       3.380  -3.495 -12.106  0.00  0.00     0.036 H 
BRANCH  18  21
ATOM     21  C   LIG d   1       3.308  -1.520 -12.963  0.00  0.00    -0.017 C 
ATOM     22  H   LIG d   1       4.015  -0.780 -13.341  0.00  0.00     0.032 H 
ATOM     23  H   LIG d   1       2.563  -1.734 -13.729  0.00  0.00     0.032 H 
BRANCH  21  24
ATOM     24  C   LIG d   1       2.626  -0.979 -11.733  0.00  0.00    -0.022 A 
ATOM     25  C   LIG d   1       3.121   0.084 -10.857  0.00  0.00     0.003 A 
ATOM     26  C   LIG d   1       2.149   0.245  -9.852  0.00  0.00     0.047 A 
ATOM     27  C   LIG d   1       4.261   0.891 -10.859  0.00  0.00    -0.052 A 
ATOM     28  C   LIG d   1       2.345   1.202  -8.862  0.00  0.00    -0.038 A 
ATOM     29  N   LIG d   1       1.148  -0.666 -10.105  0.00  0.00    -0.360 N 
ATOM     30  C   LIG d   1       3.480   1.983  -8.879  0.00  0.00    -0.060 A 
ATOM     31  H   LIG d   1       1.609   1.334  -8.082  0.00  0.00     0.064 H 
ATOM     32  C   LIG d   1       4.432   1.825  -9.876  0.00  0.00    -0.061 A 
ATOM     33  H   LIG d   1       3.629   2.725  -8.110  0.00  0.00     0.062 H 
ATOM     34  H   LIG d   1       5.317   2.445  -9.875  0.00  0.00     0.062 H 
ATOM     35  C   LIG d   1       1.449  -1.386 -11.230  0.00  0.00     0.006 A 
ATOM     36  H   LIG d   1       0.350  -0.780  -9.568  0.00  0.00     0.165 HD
ATOM     37  H   LIG d   1       0.832  -2.167 -11.649  0.00  0.00     0.081 H 
ATOM     38  H   LIG d   1       5.007   0.774 -11.631  0.00  0.00     0.062 H 
ENDBRANCH  21  24
ENDBRANCH  18  21
ENDBRANCH   1  18
BRANCH   7  39
ATOM     39  C   LIG d   1       6.852  -1.686  -7.250  0.00  0.00     0.218 C 
ATOM     40  O   LIG d   1       7.884  -1.151  -7.596  0.00  0.00    -0.276 OA
ATOM     41  N   LIG d   1       6.700  -2.095  -5.974  0.00  0.00    -0.315 N 
ATOM     42  H   LIG d   1       5.875  -2.524  -5.698  0.00  0.00     0.149 HD
BRANCH  41  43
ATOM     43  C   LIG d   1       7.781  -1.893  -5.006  0.00  0.00     0.016 C 
ATOM     44  H   LIG d   1       8.629  -2.523  -5.273  0.00  0.00     0.046 H 
ATOM     45  H   LIG d   1       8.088  -0.847  -5.018  0.00  0.00     0.046 H 
BRANCH  43  46
ATOM     46  C   LIG d   1       7.288  -2.266  -3.607  0.00  0.00    -0.012 C 
ATOM     47  H   LIG d   1       6.850  -3.264  -3.630  0.00  0.00     0.033 H 
ATOM     48  H   LIG d   1       8.127  -2.253  -2.910  0.00  0.00     0.033 H 
BRANCH  46  49
ATOM     49  C   LIG d   1       6.248  -1.272  -3.159  0.00  0.00    -0.046 A 
ATOM     50  C   LIG d   1       5.046  -1.717  -2.640  0.00  0.00    -0.055 A 
ATOM     51  C   LIG d   1       4.091  -0.808  -2.229  0.00  0.00    -0.020 A 
ATOM     52  H   LIG d   1       4.855  -2.776  -2.556  0.00  0.00     0.062 H 
ATOM     53  C   LIG d   1       4.338   0.553  -2.337  0.00  0.00     0.117 A 
ATOM     54  H   LIG d   1       3.152  -1.155  -1.824  0.00  0.00     0.065 H 
ATOM     55  C   LIG d   1       5.545   0.998  -2.859  0.00  0.00    -0.020 A 
ATOM     56  C   LIG d   1       6.499   0.084  -3.263  0.00  0.00    -0.055 A 
ATOM     57  H   LIG d   1       5.740   2.056  -2.945  0.00  0.00     0.065 H 
ATOM     58  H   LIG d   1       7.440   0.429  -3.665  0.00  0.00     0.062 H 
BRANCH  53  59
ATOM     59  O   LIG d   1       3.400   1.451  -1.935  0.00  0.00    -0.507 OA
ATOM     60  H   LIG d   1       3.394   2.270  -2.447  0.00  0.00     0.292 HD
ENDBRANCH  53  59
ENDBRANCH  46  49
ENDBRANCH  43  46
ENDBRANCH  41  43
ENDBRANCH   7  39
TORSDOF 8
ENDMDL
MODEL 3
REMARK VINA RESULT:      -7.3      7.365     12.076
REMARK  8 active torsions:
REMARK  status: ('A' for Active; 'I' for Inactive)
REMARK    1  A    between atoms: C_7  and  C_11 
REMARK    2  A    between atoms: C_11  and  C_12 
REMARK    3  A    between atoms: C_12  and  C_13 
REMARK       I    between atoms: C_13  and  N_15 
REMARK    4  A    between atoms: C_19  and  C_22 
REMARK       I    between atoms: C_22  and  N_24 
REMARK    5  A    between atoms: N_24  and  C_25 
REMARK    6  A    between atoms: C_25  and  C_26 
REMARK    7  A    between atoms: C_26  and  C_27 
REMARK    8  A    between atoms: C_30  and  O_33 
ROOT
ATOM      1  C   LIG d   1       8.943  -4.231  -3.279  0.00  0.00     0.216 C 
ATOM      2  O   LIG d   1       9.198  -3.587  -2.283  0.00  0.00    -0.276 OA
ATOM      3  N   LIG d   1       9.401  -5.492  -3.403  0.00  0.00    -0.301 N 
ATOM      4  C   LIG d   1       9.100  -6.283  -4.603  0.00  0.00     0.015 C 
ATOM      5  C   LIG d   1       8.473  -7.612  -4.172  0.00  0.00    -0.036 C 
ATOM      6  C   LIG d   1       9.399  -8.311  -3.174  0.00  0.00    -0.039 C 
ATOM      7  C   LIG d   1       9.570  -7.433  -1.930  0.00  0.00     0.051 C 
ATOM      8  H   LIG d   1       8.595  -7.245  -1.480  0.00  0.00     0.041 H 
ATOM      9  C   LIG d   1      10.210  -6.102  -2.338  0.00  0.00     0.026 C 
ATOM     10  H   LIG d   1       8.401  -5.736  -5.235  0.00  0.00     0.046 H 
ATOM     11  H   LIG d   1      10.021  -6.476  -5.154  0.00  0.00     0.046 H 
ATOM     12  H   LIG d   1       7.507  -7.423  -3.702  0.00  0.00     0.028 H 
ATOM     13  H   LIG d   1       8.332  -8.249  -5.046  0.00  0.00     0.028 H 
ATOM     14  H   LIG d   1       8.966  -9.269  -2.886  0.00  0.00     0.027 H 
ATOM     15  H   LIG d   1      10.372  -8.478  -3.637  0.00  0.00     0.027 H 
ATOM     16  H   LIG d   1      11.221  -6.279  -2.704  0.00  0.00     0.047 H 
ATOM     17  H   LIG d   1      10.245  -5.434  -1.478  0.00  0.00     0.047 H 
ENDROOT
BRANCH   1  18
ATOM     18  C   LIG d   1       8.114  -3.619  -4.380  0.00  0.00     0.028 C 
ATOM     19  H   LIG d   1       8.712  -3.552  -5.289  0.00  0.00     0.036 H 
ATOM     20  H   LIG d   1       7.239  -4.242  -4.563  0.00  0.00     0.036 H 
BRANCH  18  21
ATOM     21  C   LIG d   1       7.665  -2.217  -3.960  0.00  0.00    -0.017 C 
ATOM     22  H   LIG d   1       8.070  -1.986  -2.974  0.00  0.00     0.032 H 
ATOM     23  H   LIG d   1       8.030  -1.487  -4.683  0.00  0.00     0.032 H 
BRANCH  21  24
ATOM     24  C   LIG d   1       6.159  -2.167  -3.910  0.00  0.00    -0.022 A 
ATOM     25  C   LIG d   1       5.342  -1.107  -3.317  0.00  0.00     0.003 A 
ATOM     26  C   LIG d   1       4.003  -1.493  -3.512  0.00  0.00     0.047 A 
ATOM     27  C   LIG d   1       5.633   0.099  -2.675  0.00  0.00    -0.052 A 
ATOM     28  C   LIG d   1       2.982  -0.669  -3.050  0.00  0.00    -0.038 A 
ATOM     29  N   LIG d   1       4.021  -2.704  -4.167  0.00  0.00    -0.360 N 
ATOM     30  C   LIG d   1       3.292   0.513  -2.414  0.00  0.00    -0.060 A 
ATOM     31  H   LIG d   1       1.950  -0.955  -3.189  0.00  0.00     0.064 H 
ATOM     32  C   LIG d   1       4.614   0.892  -2.230  0.00  0.00    -0.061 A 
ATOM     33  H   LIG d   1       2.497   1.152  -2.057  0.00  0.00     0.062 H 
ATOM     34  H   LIG d   1       4.839   1.823  -1.729  0.00  0.00     0.062 H 
ATOM     35  C   LIG d   1       5.314  -3.090  -4.396  0.00  0.00     0.006 A 
ATOM     36  H   LIG d   1       3.235  -3.208  -4.428  0.00  0.00     0.165 HD
ATOM     37  H   LIG d   1       5.610  -4.001  -4.893  0.00  0.00     0.081 H 
ATOM     38  H   LIG d   1       6.659   0.401  -2.527  0.00  0.00     0.062 H 
ENDBRANCH  21  24
ENDBRANCH  18  21
ENDBRANCH   1  18
BRANCH   7  39
ATOM     39  C   LIG d   1      10.458  -8.132  -0.933  0.00  0.00     0.218 C 
ATOM     40  O   LIG d   1      10.713  -9.310  -1.070  0.00  0.00    -0.276 OA
ATOM     41  N   LIG d   1      10.970  -7.449   0.110  0.00  0.00    -0.315 N 
ATOM     42  H   LIG d   1      10.766  -6.507   0.220  0.00  0.00     0.149 HD
BRANCH  41  43
ATOM     43  C   LIG d   1      11.833  -8.129   1.079  0.00  0.00     0.016 C 
ATOM     44  H   LIG d   1      12.119  -9.105   0.688  0.00  0.00     0.046 H 
ATOM     45  H   LIG d   1      12.728  -7.530   1.251  0.00  0.00     0.046 H 
BRANCH  43  46
ATOM     46  C   LIG d   1      11.077  -8.309   2.397  0.00  0.00    -0.012 C 
ATOM     47  H   LIG d   1      11.132  -7.388   2.976  0.00  0.00     0.033 H 
ATOM     48  H   LIG d   1      10.034  -8.546   2.188  0.00  0.00     0.033 H 
BRANCH  46  49
ATOM     49  C   LIG d   1      11.700  -9.434   3.183  0.00  0.00    -0.046 A 
ATOM     50  C   LIG d   1      12.938  -9.259   3.775  0.00  0.00    -0.055 A 
ATOM     51  C   LIG d   1      13.511 -10.289   4.496  0.00  0.00    -0.020 A 
ATOM     52  H   LIG d   1      13.457  -8.318   3.672  0.00  0.00     0.062 H 
ATOM     53  C   LIG d   1      12.843 -11.498   4.627  0.00  0.00     0.117 A 
ATOM     54  H   LIG d   1      14.477 -10.153   4.958  0.00  0.00     0.065 H 
ATOM     55  C   LIG d   1      11.602 -11.671   4.033  0.00  0.00    -0.020 A 
ATOM     56  C   LIG d   1      11.030 -10.636   3.317  0.00  0.00    -0.055 A 
ATOM     57  H   LIG d   1      11.080 -12.610   4.133  0.00  0.00     0.065 H 
ATOM     58  H   LIG d   1      10.062 -10.768   2.858  0.00  0.00     0.062 H 
BRANCH  53  59
ATOM     59  O   LIG d   1      13.405 -12.513   5.336  0.00  0.00    -0.507 OA
ATOM     60  H   LIG d   1      13.253 -12.458   6.289  0.00  0.00     0.292 HD
ENDBRANCH  53  59
ENDBRANCH  46  49
ENDBRANCH  43  46
ENDBRANCH  41  43
ENDBRANCH   7  39
TORSDOF 8
ENDMDL
MODEL 4
REMARK VINA RESULT:      -7.2      5.112      8.584
REMARK  8 active torsions:
REMARK  status: ('A' for Active; 'I' for Inactive)
REMARK    1  A    between atoms: C_7  and  C_11 
REMARK    2  A    between atoms: C_11  and  C_12 
REMARK    3  A    between atoms: C_12  and  C_13 
REMARK       I    between atoms: C_13  and  N_15 
REMARK    4  A    between atoms: C_19  and  C_22 
REMARK       I    between atoms: C_22  and  N_24 
REMARK    5  A    between atoms: N_24  and  C_25 
REMARK    6  A    between atoms: C_25  and  C_26 
REMARK    7  A    between atoms: C_26  and  C_27 
REMARK    8  A    between atoms: C_30  and  O_33 
ROOT
ATOM      1  C   LIG d   1       6.126   0.440  -7.639  0.00  0.00     0.216 C 
ATOM      2  O   LIG d   1       5.747   1.446  -8.200  0.00  0.00    -0.276 OA
ATOM      3  N   LIG d   1       7.254   0.462  -6.902  0.00  0.00    -0.301 N 
ATOM      4  C   LIG d   1       7.724  -0.750  -6.217  0.00  0.00     0.015 C 
ATOM      5  C   LIG d   1       7.933  -0.427  -4.734  0.00  0.00    -0.036 C 
ATOM      6  C   LIG d   1       8.873   0.774  -4.604  0.00  0.00    -0.039 C 
ATOM      7  C   LIG d   1       8.241   1.996  -5.279  0.00  0.00     0.051 C 
ATOM      8  H   LIG d   1       7.278   2.211  -4.815  0.00  0.00     0.041 H 
ATOM      9  C   LIG d   1       8.036   1.698  -6.768  0.00  0.00     0.026 C 
ATOM     10  H   LIG d   1       6.979  -1.539  -6.318  0.00  0.00     0.046 H 
ATOM     11  H   LIG d   1       8.667  -1.075  -6.656  0.00  0.00     0.046 H 
ATOM     12  H   LIG d   1       6.974  -0.190  -4.275  0.00  0.00     0.028 H 
ATOM     13  H   LIG d   1       8.373  -1.290  -4.232  0.00  0.00     0.028 H 
ATOM     14  H   LIG d   1       9.043   0.989  -3.549  0.00  0.00     0.027 H 
ATOM     15  H   LIG d   1       9.824   0.545  -5.086  0.00  0.00     0.027 H 
ATOM     16  H   LIG d   1       9.004   1.573  -7.253  0.00  0.00     0.047 H 
ATOM     17  H   LIG d   1       7.498   2.523  -7.235  0.00  0.00     0.047 H 
ENDROOT
BRANCH   1  18
ATOM     18  C   LIG d   1       5.334  -0.837  -7.767  0.00  0.00     0.028 C 
ATOM     19  H   LIG d   1       5.063  -0.993  -8.811  0.00  0.00     0.036 H 
ATOM     20  H   LIG d   1       5.937  -1.675  -7.418  0.00  0.00     0.036 H 
BRANCH  18  21
ATOM     21  C   LIG d   1       4.063  -0.735  -6.921  0.00  0.00    -0.017 C 
ATOM     22  H   LIG d   1       3.793   0.314  -6.796  0.00  0.00     0.032 H 
ATOM     23  H   LIG d   1       3.250  -1.262  -7.420  0.00  0.00     0.032 H 
BRANCH  21  24
ATOM     24  C   LIG d   1       4.309  -1.355  -5.569  0.00  0.00    -0.022 A 
ATOM     25  C   LIG d   1       4.274  -0.669  -4.276  0.00  0.00     0.003 A 
ATOM     26  C   LIG d   1       4.559  -1.649  -3.308  0.00  0.00     0.047 A 
ATOM     27  C   LIG d   1       4.016   0.646  -3.882  0.00  0.00    -0.052 A 
ATOM     28  C   LIG d   1       4.593  -1.290  -1.964  0.00  0.00    -0.038 A 
ATOM     29  N   LIG d   1       4.761  -2.835  -3.978  0.00  0.00    -0.360 N 
ATOM     30  C   LIG d   1       4.342   0.014  -1.598  0.00  0.00    -0.060 A 
ATOM     31  H   LIG d   1       4.815  -2.031  -1.211  0.00  0.00     0.064 H 
ATOM     32  C   LIG d   1       4.055   0.976  -2.556  0.00  0.00    -0.061 A 
ATOM     33  H   LIG d   1       4.368   0.290  -0.554  0.00  0.00     0.062 H 
ATOM     34  H   LIG d   1       3.860   1.994  -2.252  0.00  0.00     0.062 H 
ATOM     35  C   LIG d   1       4.607  -2.641  -5.323  0.00  0.00     0.006 A 
ATOM     36  H   LIG d   1       4.978  -3.681  -3.558  0.00  0.00     0.165 HD
ATOM     37  H   LIG d   1       4.712  -3.408  -6.076  0.00  0.00     0.081 H 
ATOM     38  H   LIG d   1       3.792   1.400  -4.622  0.00  0.00     0.062 H 
ENDBRANCH  21  24
ENDBRANCH  18  21
ENDBRANCH   1  18
BRANCH   7  39
ATOM     39  C   LIG d   1       9.151   3.187  -5.126  0.00  0.00     0.218 C 
ATOM     40  O   LIG d   1       9.634   3.712  -6.107  0.00  0.00    -0.276 OA
ATOM     41  N   LIG d   1       9.429   3.671  -3.899  0.00  0.00    -0.315 N 
ATOM     42  H   LIG d   1       9.043   3.252  -3.113  0.00  0.00     0.149 HD
BRANCH  41  43
ATOM     43  C   LIG d   1      10.314   4.829  -3.750  0.00  0.00     0.016 C 
ATOM     44  H   LIG d   1      11.114   4.586  -3.051  0.00  0.00     0.046 H 
ATOM     45  H   LIG d   1      10.743   5.085  -4.719  0.00  0.00     0.046 H 
BRANCH  43  46
ATOM     46  C   LIG d   1       9.513   6.017  -3.215  0.00  0.00    -0.012 C 
ATOM     47  H   LIG d   1       9.611   6.859  -3.900  0.00  0.00     0.033 H 
ATOM     48  H   LIG d   1       8.462   5.739  -3.129  0.00  0.00     0.033 H 
BRANCH  46  49
ATOM     49  C   LIG d   1      10.042   6.410  -1.859  0.00  0.00    -0.046 A 
ATOM     50  C   LIG d   1       9.809   7.681  -1.369  0.00  0.00    -0.055 A 
ATOM     51  C   LIG d   1      10.292   8.043  -0.127  0.00  0.00    -0.020 A 
ATOM     52  H   LIG d   1       9.248   8.392  -1.958  0.00  0.00     0.062 H 
ATOM     53  C   LIG d   1      11.012   7.129   0.629  0.00  0.00     0.117 A 
ATOM     54  H   LIG d   1      10.110   9.036   0.256  0.00  0.00     0.065 H 
ATOM     55  C   LIG d   1      11.245   5.854   0.135  0.00  0.00    -0.020 A 
ATOM     56  C   LIG d   1      10.754   5.495  -1.105  0.00  0.00    -0.055 A 
ATOM     57  H   LIG d   1      11.804   5.141   0.722  0.00  0.00     0.065 H 
ATOM     58  H   LIG d   1      10.931   4.501  -1.488  0.00  0.00     0.062 H 
BRANCH  53  59
ATOM     59  O   LIG d   1      11.490   7.483   1.852  0.00  0.00    -0.507 OA
ATOM     60  H   LIG d   1      10.805   7.589   2.526  0.00  0.00     0.292 HD
ENDBRANCH  53  59
ENDBRANCH  46  49
ENDBRANCH  43  46
ENDBRANCH  41  43
ENDBRANCH   7  39
TORSDOF 8
ENDMDL
MODEL 5
REMARK VINA RESULT:      -7.2      6.369     10.122
REMARK  8 active torsions:
REMARK  status: ('A' for Active; 'I' for Inactive)
REMARK    1  A    between atoms: C_7  and  C_11 
REMARK    2  A    between atoms: C_11  and  C_12 
REMARK    3  A    between atoms: C_12  and  C_13 
REMARK       I    between atoms: C_13  and  N_15 
REMARK    4  A    between atoms: C_19  and  C_22 
REMARK       I    between atoms: C_22  and  N_24 
REMARK    5  A    between atoms: N_24  and  C_25 
REMARK    6  A    between atoms: C_25  and  C_26 
REMARK    7  A    between atoms: C_26  and  C_27 
REMARK    8  A    between atoms: C_30  and  O_33 
ROOT
ATOM      1  C   LIG d   1       8.307   1.513  -5.032  0.00  0.00     0.216 C 
ATOM      2  O   LIG d   1       7.364   2.167  -4.639  0.00  0.00    -0.276 OA
ATOM      3  N   LIG d   1       9.564   1.959  -4.840  0.00  0.00    -0.301 N 
ATOM      4  C   LIG d   1      10.716   1.177  -5.311  0.00  0.00     0.015 C 
ATOM      5  C   LIG d   1      11.677   0.962  -4.137  0.00  0.00    -0.036 C 
ATOM      6  C   LIG d   1      12.043   2.316  -3.526  0.00  0.00    -0.039 C 
ATOM      7  C   LIG d   1      10.778   2.999  -2.994  0.00  0.00     0.051 C 
ATOM      8  H   LIG d   1      10.305   2.359  -2.250  0.00  0.00     0.041 H 
ATOM      9  C   LIG d   1       9.809   3.236  -4.156  0.00  0.00     0.026 C 
ATOM     10  H   LIG d   1      10.374   0.213  -5.686  0.00  0.00     0.046 H 
ATOM     11  H   LIG d   1      11.227   1.721  -6.105  0.00  0.00     0.046 H 
ATOM     12  H   LIG d   1      11.195   0.340  -3.383  0.00  0.00     0.028 H 
ATOM     13  H   LIG d   1      12.580   0.466  -4.493  0.00  0.00     0.028 H 
ATOM     14  H   LIG d   1      12.747   2.166  -2.707  0.00  0.00     0.027 H 
ATOM     15  H   LIG d   1      12.503   2.946  -4.288  0.00  0.00     0.027 H 
ATOM     16  H   LIG d   1      10.245   3.948  -4.857  0.00  0.00     0.047 H 
ATOM     17  H   LIG d   1       8.868   3.632  -3.773  0.00  0.00     0.047 H 
ENDROOT
BRANCH   1  18
ATOM     18  C   LIG d   1       8.073   0.200  -5.734  0.00  0.00     0.028 C 
ATOM     19  H   LIG d   1       7.221   0.296  -6.408  0.00  0.00     0.036 H 
ATOM     20  H   LIG d   1       8.960  -0.069  -6.306  0.00  0.00     0.036 H 
BRANCH  18  21
ATOM     21  C   LIG d   1       7.782  -0.888  -4.698  0.00  0.00    -0.017 C 
ATOM     22  H   LIG d   1       8.318  -1.799  -4.969  0.00  0.00     0.032 H 
ATOM     23  H   LIG d   1       8.111  -0.552  -3.715  0.00  0.00     0.032 H 
BRANCH  21  24
ATOM     24  C   LIG d   1       6.302  -1.168  -4.666  0.00  0.00    -0.022 A 
ATOM     25  C   LIG d   1       5.324  -0.580  -3.749  0.00  0.00     0.003 A 
ATOM     26  C   LIG d   1       4.079  -1.135  -4.099  0.00  0.00     0.047 A 
ATOM     27  C   LIG d   1       5.404   0.350  -2.710  0.00  0.00    -0.052 A 
ATOM     28  C   LIG d   1       2.942  -0.757  -3.393  0.00  0.00    -0.038 A 
ATOM     29  N   LIG d   1       4.301  -2.002  -5.146  0.00  0.00    -0.360 N 
ATOM     30  C   LIG d   1       3.045   0.157  -2.368  0.00  0.00    -0.060 A 
ATOM     31  H   LIG d   1       1.980  -1.178  -3.649  0.00  0.00     0.064 H 
ATOM     32  C   LIG d   1       4.273   0.707  -2.030  0.00  0.00    -0.061 A 
ATOM     33  H   LIG d   1       2.160   0.450  -1.822  0.00  0.00     0.062 H 
ATOM     34  H   LIG d   1       4.337   1.423  -1.223  0.00  0.00     0.062 H 
ATOM     35  C   LIG d   1       5.631  -2.007  -5.470  0.00  0.00     0.006 A 
ATOM     36  H   LIG d   1       3.617  -2.527  -5.588  0.00  0.00     0.165 HD
ATOM     37  H   LIG d   1       6.074  -2.600  -6.256  0.00  0.00     0.081 H 
ATOM     38  H   LIG d   1       6.357   0.782  -2.441  0.00  0.00     0.062 H 
ENDBRANCH  21  24
ENDBRANCH  18  21
ENDBRANCH   1  18
BRANCH   7  39
ATOM     39  C   LIG d   1      11.141   4.319  -2.365  0.00  0.00     0.218 C 
ATOM     40  O   LIG d   1      10.919   5.354  -2.957  0.00  0.00    -0.276 OA
ATOM     41  N   LIG d   1      11.713   4.351  -1.145  0.00  0.00    -0.315 N 
ATOM     42  H   LIG d   1      11.891   3.523  -0.671  0.00  0.00     0.149 HD
BRANCH  41  43
ATOM     43  C   LIG d   1      12.066   5.634  -0.533  0.00  0.00     0.016 C 
ATOM     44  H   LIG d   1      13.001   5.529   0.017  0.00  0.00     0.046 H 
ATOM     45  H   LIG d   1      12.187   6.387  -1.313  0.00  0.00     0.046 H 
BRANCH  43  46
ATOM     46  C   LIG d   1      10.955   6.065   0.426  0.00  0.00    -0.012 C 
ATOM     47  H   LIG d   1      10.067   5.459   0.249  0.00  0.00     0.033 H 
ATOM     48  H   LIG d   1      11.289   5.929   1.455  0.00  0.00     0.033 H 
BRANCH  46  49
ATOM     49  C   LIG d   1      10.625   7.517   0.193  0.00  0.00    -0.046 A 
ATOM     50  C   LIG d   1      11.254   8.496   0.940  0.00  0.00    -0.055 A 
ATOM     51  C   LIG d   1      10.953   9.828   0.729  0.00  0.00    -0.020 A 
ATOM     52  H   LIG d   1      11.979   8.219   1.690  0.00  0.00     0.062 H 
ATOM     53  C   LIG d   1      10.020  10.182  -0.235  0.00  0.00     0.117 A 
ATOM     54  H   LIG d   1      11.443  10.592   1.312  0.00  0.00     0.065 H 
ATOM     55  C   LIG d   1       9.390   9.198  -0.984  0.00  0.00    -0.020 A 
ATOM     56  C   LIG d   1       9.699   7.869  -0.772  0.00  0.00    -0.055 A 
ATOM     57  H   LIG d   1       8.664   9.471  -1.734  0.00  0.00     0.065 H 
ATOM     58  H   LIG d   1       9.213   7.102  -1.358  0.00  0.00     0.062 H 
BRANCH  53  59
ATOM     59  O   LIG d   1       9.721  11.492  -0.445  0.00  0.00    -0.507 OA
ATOM     60  H   LIG d   1      10.173  11.881  -1.206  0.00  0.00     0.292 HD
ENDBRANCH  53  59
ENDBRANCH  46  49
ENDBRANCH  43  46
ENDBRANCH  41  43
ENDBRANCH   7  39
TORSDOF 8
ENDMDL
MODEL 6
REMARK VINA RESULT:      -7.2      4.604      6.792
REMARK  8 active torsions:
REMARK  status: ('A' for Active; 'I' for Inactive)
REMARK    1  A    between atoms: C_7  and  C_11 
REMARK    2  A    between atoms: C_11  and  C_12 
REMARK    3  A    between atoms: C_12  and  C_13 
REMARK       I    between atoms: C_13  and  N_15 
REMARK    4  A    between atoms: C_19  and  C_22 
REMARK       I    between atoms: C_22  and  N_24 
REMARK    5  A    between atoms: N_24  and  C_25 
REMARK    6  A    between atoms: C_25  and  C_26 
REMARK    7  A    between atoms: C_26  and  C_27 
REMARK    8  A    between atoms: C_30  and  O_33 
ROOT
ATOM      1  C   LIG d   1       7.983  -2.249  -5.598  0.00  0.00     0.216 C 
ATOM      2  O   LIG d   1       8.462  -2.411  -6.701  0.00  0.00    -0.276 OA
ATOM      3  N   LIG d   1       8.177  -1.088  -4.942  0.00  0.00    -0.301 N 
ATOM      4  C   LIG d   1       7.603  -0.878  -3.606  0.00  0.00     0.015 C 
ATOM      5  C   LIG d   1       6.785   0.416  -3.619  0.00  0.00    -0.036 C 
ATOM      6  C   LIG d   1       7.664   1.567  -4.113  0.00  0.00    -0.039 C 
ATOM      7  C   LIG d   1       8.132   1.278  -5.544  0.00  0.00     0.051 C 
ATOM      8  H   LIG d   1       7.265   1.153  -6.193  0.00  0.00     0.041 H 
ATOM      9  C   LIG d   1       8.965  -0.007  -5.550  0.00  0.00     0.026 C 
ATOM     10  H   LIG d   1       6.957  -1.717  -3.351  0.00  0.00     0.046 H 
ATOM     11  H   LIG d   1       8.406  -0.795  -2.873  0.00  0.00     0.046 H 
ATOM     12  H   LIG d   1       5.930   0.299  -4.285  0.00  0.00     0.028 H 
ATOM     13  H   LIG d   1       6.432   0.634  -2.610  0.00  0.00     0.028 H 
ATOM     14  H   LIG d   1       7.090   2.494  -4.100  0.00  0.00     0.027 H 
ATOM     15  H   LIG d   1       8.532   1.668  -3.461  0.00  0.00     0.027 H 
ATOM     16  H   LIG d   1       9.879   0.146  -4.976  0.00  0.00     0.047 H 
ATOM     17  H   LIG d   1       9.220  -0.274  -6.576  0.00  0.00     0.047 H 
ENDROOT
BRANCH   1  18
ATOM     18  C   LIG d   1       7.171  -3.348  -4.961  0.00  0.00     0.028 C 
ATOM     19  H   LIG d   1       7.780  -4.249  -4.884  0.00  0.00     0.036 H 
ATOM     20  H   LIG d   1       6.855  -3.035  -3.967  0.00  0.00     0.036 H 
BRANCH  18  21
ATOM     21  C   LIG d   1       5.940  -3.637  -5.822  0.00  0.00    -0.017 C 
ATOM     22  H   LIG d   1       6.249  -3.796  -6.856  0.00  0.00     0.032 H 
ATOM     23  H   LIG d   1       5.438  -4.530  -5.452  0.00  0.00     0.032 H 
BRANCH  21  24
ATOM     24  C   LIG d   1       4.995  -2.464  -5.756  0.00  0.00    -0.022 A 
ATOM     25  C   LIG d   1       4.309  -1.964  -4.563  0.00  0.00     0.003 A 
ATOM     26  C   LIG d   1       3.545  -0.862  -4.987  0.00  0.00     0.047 A 
ATOM     27  C   LIG d   1       4.299  -2.344  -3.219  0.00  0.00    -0.052 A 
ATOM     28  C   LIG d   1       2.775  -0.169  -4.059  0.00  0.00    -0.038 A 
ATOM     29  N   LIG d   1       3.753  -0.720  -6.341  0.00  0.00    -0.360 N 
ATOM     30  C   LIG d   1       2.775  -0.563  -2.739  0.00  0.00    -0.060 A 
ATOM     31  H   LIG d   1       2.180   0.677  -4.371  0.00  0.00     0.064 H 
ATOM     32  C   LIG d   1       3.535  -1.647  -2.324  0.00  0.00    -0.061 A 
ATOM     33  H   LIG d   1       2.177  -0.023  -2.020  0.00  0.00     0.062 H 
ATOM     34  H   LIG d   1       3.524  -1.944  -1.285  0.00  0.00     0.062 H 
ATOM     35  C   LIG d   1       4.620  -1.683  -6.781  0.00  0.00     0.006 A 
ATOM     36  H   LIG d   1       3.346  -0.039  -6.898  0.00  0.00     0.165 HD
ATOM     37  H   LIG d   1       4.952  -1.798  -7.802  0.00  0.00     0.081 H 
ATOM     38  H   LIG d   1       4.888  -3.186  -2.888  0.00  0.00     0.062 H 
ENDBRANCH  21  24
ENDBRANCH  18  21
ENDBRANCH   1  18
BRANCH   7  39
ATOM     39  C   LIG d   1       8.974   2.424  -6.044  0.00  0.00     0.218 C 
ATOM     40  O   LIG d   1       8.848   2.817  -7.184  0.00  0.00    -0.276 OA
ATOM     41  N   LIG d   1       9.866   3.015  -5.223  0.00  0.00    -0.315 N 
ATOM     42  H   LIG d   1       9.966   2.701  -4.310  0.00  0.00     0.149 HD
BRANCH  41  43
ATOM     43  C   LIG d   1      10.684   4.128  -5.709  0.00  0.00     0.016 C 
ATOM     44  H   LIG d   1      11.735   3.921  -5.509  0.00  0.00     0.046 H 
ATOM     45  H   LIG d   1      10.535   4.248  -6.782  0.00  0.00     0.046 H 
BRANCH  43  46
ATOM     46  C   LIG d   1      10.272   5.415  -4.990  0.00  0.00    -0.012 C 
ATOM     47  H   LIG d   1       9.444   5.204  -4.313  0.00  0.00     0.033 H 
ATOM     48  H   LIG d   1      11.118   5.800  -4.420  0.00  0.00     0.033 H 
BRANCH  46  49
ATOM     49  C   LIG d   1       9.841   6.441  -6.005  0.00  0.00    -0.046 A 
ATOM     50  C   LIG d   1       9.834   6.122  -7.350  0.00  0.00    -0.055 A 
ATOM     51  C   LIG d   1       9.439   7.061  -8.283  0.00  0.00    -0.020 A 
ATOM     52  H   LIG d   1      10.138   5.137  -7.672  0.00  0.00     0.062 H 
ATOM     53  C   LIG d   1       9.049   8.327  -7.868  0.00  0.00     0.117 A 
ATOM     54  H   LIG d   1       9.434   6.812  -9.333  0.00  0.00     0.065 H 
ATOM     55  C   LIG d   1       9.057   8.646  -6.518  0.00  0.00    -0.020 A 
ATOM     56  C   LIG d   1       9.447   7.701  -5.589  0.00  0.00    -0.055 A 
ATOM     57  H   LIG d   1       8.754   9.629  -6.192  0.00  0.00     0.065 H 
ATOM     58  H   LIG d   1       9.449   7.946  -4.538  0.00  0.00     0.062 H 
BRANCH  53  59
ATOM     59  O   LIG d   1       8.661   9.254  -8.784  0.00  0.00    -0.507 OA
ATOM     60  H   LIG d   1       9.248   9.321  -9.549  0.00  0.00     0.292 HD
ENDBRANCH  53  59
ENDBRANCH  46  49
ENDBRANCH  43  46
ENDBRANCH  41  43
ENDBRANCH   7  39
TORSDOF 8
ENDMDL
MODEL 7
REMARK VINA RESULT:      -7.2      4.087      4.912
REMARK  8 active torsions:
REMARK  status: ('A' for Active; 'I' for Inactive)
REMARK    1  A    between atoms: C_7  and  C_11 
REMARK    2  A    between atoms: C_11  and  C_12 
REMARK    3  A    between atoms: C_12  and  C_13 
REMARK       I    between atoms: C_13  and  N_15 
REMARK    4  A    between atoms: C_19  and  C_22 
REMARK       I    between atoms: C_22  and  N_24 
REMARK    5  A    between atoms: N_24  and  C_25 
REMARK    6  A    between atoms: C_25  and  C_26 
REMARK    7  A    between atoms: C_26  and  C_27 
REMARK    8  A    between atoms: C_30  and  O_33 
ROOT
ATOM      1  C   LIG d   1       6.490  -1.965  -7.419  0.00  0.00     0.216 C 
ATOM      2  O   LIG d   1       6.824  -3.055  -7.832  0.00  0.00    -0.276 OA
ATOM      3  N   LIG d   1       5.424  -1.338  -7.955  0.00  0.00    -0.301 N 
ATOM      4  C   LIG d   1       5.007  -0.017  -7.465  0.00  0.00     0.015 C 
ATOM      5  C   LIG d   1       3.525  -0.079  -7.082  0.00  0.00    -0.036 C 
ATOM      6  C   LIG d   1       2.714  -0.591  -8.275  0.00  0.00    -0.039 C 
ATOM      7  C   LIG d   1       3.177  -2.006  -8.641  0.00  0.00     0.051 C 
ATOM      8  H   LIG d   1       3.051  -2.664  -7.781  0.00  0.00     0.041 H 
ATOM      9  C   LIG d   1       4.656  -1.963  -9.040  0.00  0.00     0.026 C 
ATOM     10  H   LIG d   1       5.600   0.251  -6.591  0.00  0.00     0.046 H 
ATOM     11  H   LIG d   1       5.151   0.726  -8.249  0.00  0.00     0.046 H 
ATOM     12  H   LIG d   1       3.396  -0.754  -6.237  0.00  0.00     0.028 H 
ATOM     13  H   LIG d   1       3.179   0.918  -6.807  0.00  0.00     0.028 H 
ATOM     14  H   LIG d   1       1.656  -0.612  -8.012  0.00  0.00     0.027 H 
ATOM     15  H   LIG d   1       2.864   0.072  -9.128  0.00  0.00     0.027 H 
ATOM     16  H   LIG d   1       4.771  -1.379  -9.953  0.00  0.00     0.047 H 
ATOM     17  H   LIG d   1       5.019  -2.978  -9.207  0.00  0.00     0.047 H 
ENDROOT
BRANCH   1  18
ATOM     18  C   LIG d   1       7.267  -1.310  -6.306  0.00  0.00     0.028 C 
ATOM     19  H   LIG d   1       8.320  -1.252  -6.584  0.00  0.00     0.036 H 
ATOM     20  H   LIG d   1       6.880  -0.306  -6.135  0.00  0.00     0.036 H 
BRANCH  18  21
ATOM     21  C   LIG d   1       7.123  -2.138  -5.028  0.00  0.00    -0.017 C 
ATOM     22  H   LIG d   1       7.281  -3.193  -5.259  0.00  0.00     0.032 H 
ATOM     23  H   LIG d   1       7.863  -1.812  -4.297  0.00  0.00     0.032 H 
BRANCH  21  24
ATOM     24  C   LIG d   1       5.739  -1.951  -4.462  0.00  0.00    -0.022 A 
ATOM     25  C   LIG d   1       5.253  -0.789  -3.715  0.00  0.00     0.003 A 
ATOM     26  C   LIG d   1       3.909  -1.064  -3.399  0.00  0.00     0.047 A 
ATOM     27  C   LIG d   1       5.827   0.421  -3.320  0.00  0.00    -0.052 A 
ATOM     28  C   LIG d   1       3.172  -0.127  -2.684  0.00  0.00    -0.038 A 
ATOM     29  N   LIG d   1       3.617  -2.308  -3.914  0.00  0.00    -0.360 N 
ATOM     30  C   LIG d   1       3.760   1.058  -2.299  0.00  0.00    -0.060 A 
ATOM     31  H   LIG d   1       2.140  -0.326  -2.431  0.00  0.00     0.064 H 
ATOM     32  C   LIG d   1       5.084   1.327  -2.618  0.00  0.00    -0.061 A 
ATOM     33  H   LIG d   1       3.186   1.785  -1.744  0.00  0.00     0.062 H 
ATOM     34  H   LIG d   1       5.530   2.261  -2.309  0.00  0.00     0.062 H 
ATOM     35  C   LIG d   1       4.719  -2.820  -4.544  0.00  0.00     0.006 A 
ATOM     36  H   LIG d   1       2.760  -2.753  -3.841  0.00  0.00     0.165 HD
ATOM     37  H   LIG d   1       4.762  -3.782  -5.033  0.00  0.00     0.081 H 
ATOM     38  H   LIG d   1       6.857   0.638  -3.564  0.00  0.00     0.062 H 
ENDBRANCH  21  24
ENDBRANCH  18  21
ENDBRANCH   1  18
BRANCH   7  39
ATOM     39  C   LIG d   1       2.359  -2.524  -9.796  0.00  0.00     0.218 C 
ATOM     40  O   LIG d   1       2.133  -1.808 -10.748  0.00  0.00    -0.276 OA
ATOM     41  N   LIG d   1       1.879  -3.783  -9.771  0.00  0.00    -0.315 N 
ATOM     42  H   LIG d   1       2.060  -4.356  -9.009  0.00  0.00     0.149 HD
BRANCH  41  43
ATOM     43  C   LIG d   1       1.084  -4.287 -10.893  0.00  0.00     0.016 C 
ATOM     44  H   LIG d   1       0.300  -3.569 -11.134  0.00  0.00     0.046 H 
ATOM     45  H   LIG d   1       1.728  -4.426 -11.762  0.00  0.00     0.046 H 
BRANCH  43  46
ATOM     46  C   LIG d   1       0.450  -5.625 -10.509  0.00  0.00    -0.012 C 
ATOM     47  H   LIG d   1       0.689  -6.371 -11.267  0.00  0.00     0.033 H 
ATOM     48  H   LIG d   1       0.840  -5.949  -9.544  0.00  0.00     0.033 H 
BRANCH  46  49
ATOM     49  C   LIG d   1      -1.046  -5.464 -10.418  0.00  0.00    -0.046 A 
ATOM     50  C   LIG d   1      -1.720  -4.726 -11.374  0.00  0.00    -0.055 A 
ATOM     51  C   LIG d   1      -3.091  -4.578 -11.292  0.00  0.00    -0.020 A 
ATOM     52  H   LIG d   1      -1.175  -4.266 -12.184  0.00  0.00     0.062 H 
ATOM     53  C   LIG d   1      -3.791  -5.169 -10.250  0.00  0.00     0.117 A 
ATOM     54  H   LIG d   1      -3.618  -4.002 -12.038  0.00  0.00     0.065 H 
ATOM     55  C   LIG d   1      -3.112  -5.909  -9.293  0.00  0.00    -0.020 A 
ATOM     56  C   LIG d   1      -1.743  -6.059  -9.382  0.00  0.00    -0.055 A 
ATOM     57  H   LIG d   1      -3.654  -6.370  -8.481  0.00  0.00     0.065 H 
ATOM     58  H   LIG d   1      -1.213  -6.639  -8.640  0.00  0.00     0.062 H 
BRANCH  53  59
ATOM     59  O   LIG d   1      -5.140  -5.024 -10.167  0.00  0.00    -0.507 OA
ATOM     60  H   LIG d   1      -5.448  -4.693  -9.312  0.00  0.00     0.292 HD
ENDBRANCH  53  59
ENDBRANCH  46  49
ENDBRANCH  43  46
ENDBRANCH  41  43
ENDBRANCH   7  39
TORSDOF 8
ENDMDL
MODEL 8
REMARK VINA RESULT:      -7.1      4.951      8.248
REMARK  8 active torsions:
REMARK  status: ('A' for Active; 'I' for Inactive)
REMARK    1  A    between atoms: C_7  and  C_11 
REMARK    2  A    between atoms: C_11  and  C_12 
REMARK    3  A    between atoms: C_12  and  C_13 
REMARK       I    between atoms: C_13  and  N_15 
REMARK    4  A    between atoms: C_19  and  C_22 
REMARK       I    between atoms: C_22  and  N_24 
REMARK    5  A    between atoms: N_24  and  C_25 
REMARK    6  A    between atoms: C_25  and  C_26 
REMARK    7  A    between atoms: C_26  and  C_27 
REMARK    8  A    between atoms: C_30  and  O_33 
ROOT
ATOM      1  C   LIG d   1       7.872  -4.238  -4.965  0.00  0.00     0.216 C 
ATOM      2  O   LIG d   1       8.562  -5.093  -4.451  0.00  0.00    -0.276 OA
ATOM      3  N   LIG d   1       6.831  -4.589  -5.745  0.00  0.00    -0.301 N 
ATOM      4  C   LIG d   1       5.986  -3.564  -6.373  0.00  0.00     0.015 C 
ATOM      5  C   LIG d   1       4.524  -3.840  -6.010  0.00  0.00    -0.036 C 
ATOM      6  C   LIG d   1       4.167  -5.275  -6.401  0.00  0.00    -0.039 C 
ATOM      7  C   LIG d   1       5.050  -6.256  -5.622  0.00  0.00     0.051 C 
ATOM      8  H   LIG d   1       4.907  -6.103  -4.552  0.00  0.00     0.041 H 
ATOM      9  C   LIG d   1       6.518  -6.005  -5.982  0.00  0.00     0.026 C 
ATOM     10  H   LIG d   1       6.275  -2.579  -6.007  0.00  0.00     0.046 H 
ATOM     11  H   LIG d   1       6.107  -3.605  -7.456  0.00  0.00     0.046 H 
ATOM     12  H   LIG d   1       4.386  -3.709  -4.936  0.00  0.00     0.028 H 
ATOM     13  H   LIG d   1       3.878  -3.144  -6.546  0.00  0.00     0.028 H 
ATOM     14  H   LIG d   1       3.119  -5.465  -6.166  0.00  0.00     0.027 H 
ATOM     15  H   LIG d   1       4.329  -5.412  -7.470  0.00  0.00     0.027 H 
ATOM     16  H   LIG d   1       6.683  -6.245  -7.033  0.00  0.00     0.047 H 
ATOM     17  H   LIG d   1       7.160  -6.630  -5.361  0.00  0.00     0.047 H 
ENDROOT
BRANCH   1  18
ATOM     18  C   LIG d   1       8.180  -2.780  -4.731  0.00  0.00     0.028 C 
ATOM     19  H   LIG d   1       9.255  -2.619  -4.817  0.00  0.00     0.036 H 
ATOM     20  H   LIG d   1       7.660  -2.176  -5.473  0.00  0.00     0.036 H 
BRANCH  18  21
ATOM     21  C   LIG d   1       7.715  -2.380  -3.329  0.00  0.00    -0.017 C 
ATOM     22  H   LIG d   1       7.120  -3.188  -2.900  0.00  0.00     0.032 H 
ATOM     23  H   LIG d   1       8.584  -2.193  -2.697  0.00  0.00     0.032 H 
BRANCH  21  24
ATOM     24  C   LIG d   1       6.877  -1.131  -3.416  0.00  0.00    -0.022 A 
ATOM     25  C   LIG d   1       5.437  -1.028  -3.172  0.00  0.00     0.003 A 
ATOM     26  C   LIG d   1       5.105   0.325  -3.367  0.00  0.00     0.047 A 
ATOM     27  C   LIG d   1       4.448  -1.942  -2.802  0.00  0.00    -0.052 A 
ATOM     28  C   LIG d   1       3.786   0.734  -3.200  0.00  0.00    -0.038 A 
ATOM     29  N   LIG d   1       6.265   0.982  -3.714  0.00  0.00    -0.360 N 
ATOM     30  C   LIG d   1       2.825  -0.185  -2.840  0.00  0.00    -0.060 A 
ATOM     31  H   LIG d   1       3.516   1.769  -3.351  0.00  0.00     0.064 H 
ATOM     32  C   LIG d   1       3.159  -1.517  -2.643  0.00  0.00    -0.061 A 
ATOM     33  H   LIG d   1       1.802   0.135  -2.710  0.00  0.00     0.062 H 
ATOM     34  H   LIG d   1       2.393  -2.226  -2.361  0.00  0.00     0.062 H 
ATOM     35  C   LIG d   1       7.310   0.099  -3.737  0.00  0.00     0.006 A 
ATOM     36  H   LIG d   1       6.330   1.929  -3.911  0.00  0.00     0.165 HD
ATOM     37  H   LIG d   1       8.330   0.354  -3.979  0.00  0.00     0.081 H 
ATOM     38  H   LIG d   1       4.700  -2.980  -2.646  0.00  0.00     0.062 H 
ENDBRANCH  21  24
ENDBRANCH  18  21
ENDBRANCH   1  18
BRANCH   7  39
ATOM     39  C   LIG d   1       4.679  -7.671  -5.983  0.00  0.00     0.218 C 
ATOM     40  O   LIG d   1       4.060  -7.894  -7.001  0.00  0.00    -0.276 OA
ATOM     41  N   LIG d   1       5.035  -8.689  -5.174  0.00  0.00    -0.315 N 
ATOM     42  H   LIG d   1       5.531  -8.511  -4.359  0.00  0.00     0.149 HD
BRANCH  41  43
ATOM     43  C   LIG d   1       4.674 -10.065  -5.525  0.00  0.00     0.016 C 
ATOM     44  H   LIG d   1       3.873 -10.052  -6.264  0.00  0.00     0.046 H 
ATOM     45  H   LIG d   1       5.544 -10.574  -5.941  0.00  0.00     0.046 H 
BRANCH  43  46
ATOM     46  C   LIG d   1       4.201 -10.803  -4.272  0.00  0.00    -0.012 C 
ATOM     47  H   LIG d   1       3.477 -10.187  -3.739  0.00  0.00     0.033 H 
ATOM     48  H   LIG d   1       3.733 -11.745  -4.560  0.00  0.00     0.033 H 
BRANCH  46  49
ATOM     49  C   LIG d   1       5.380 -11.081  -3.377  0.00  0.00    -0.046 A 
ATOM     50  C   LIG d   1       5.396 -10.590  -2.084  0.00  0.00    -0.055 A 
ATOM     51  C   LIG d   1       6.476 -10.843  -1.261  0.00  0.00    -0.020 A 
ATOM     52  H   LIG d   1       4.563 -10.009  -1.718  0.00  0.00     0.062 H 
ATOM     53  C   LIG d   1       7.546 -11.590  -1.733  0.00  0.00     0.117 A 
ATOM     54  H   LIG d   1       6.488 -10.461  -0.251  0.00  0.00     0.065 H 
ATOM     55  C   LIG d   1       7.528 -12.081  -3.030  0.00  0.00    -0.020 A 
ATOM     56  C   LIG d   1       6.443 -11.830  -3.847  0.00  0.00    -0.055 A 
ATOM     57  H   LIG d   1       8.359 -12.662  -3.400  0.00  0.00     0.065 H 
ATOM     58  H   LIG d   1       6.426 -12.215  -4.856  0.00  0.00     0.062 H 
BRANCH  53  59
ATOM     59  O   LIG d   1       8.611 -11.840  -0.925  0.00  0.00    -0.507 OA
ATOM     60  H   LIG d   1       8.376 -12.243  -0.078  0.00  0.00     0.292 HD
ENDBRANCH  53  59
ENDBRANCH  46  49
ENDBRANCH  43  46
ENDBRANCH  41  43
ENDBRANCH   7  39
TORSDOF 8
ENDMDL
MODEL 9
REMARK VINA RESULT:      -7.1      5.133      8.514
REMARK  8 active torsions:
REMARK  status: ('A' for Active; 'I' for Inactive)
REMARK    1  A    between atoms: C_7  and  C_11 
REMARK    2  A    between atoms: C_11  and  C_12 
REMARK    3  A    between atoms: C_12  and  C_13 
REMARK       I    between atoms: C_13  and  N_15 
REMARK    4  A    between atoms: C_19  and  C_22 
REMARK       I    between atoms: C_22  and  N_24 
REMARK    5  A    between atoms: N_24  and  C_25 
REMARK    6  A    between atoms: C_25  and  C_26 
REMARK    7  A    between atoms: C_26  and  C_27 
REMARK    8  A    between atoms: C_30  and  O_33 
ROOT
ATOM      1  C   LIG d   1       7.998  -1.000  -6.686  0.00  0.00     0.216 C 
ATOM      2  O   LIG d   1       8.374  -0.656  -7.786  0.00  0.00    -0.276 OA
ATOM      3  N   LIG d   1       8.285  -0.245  -5.607  0.00  0.00    -0.301 N 
ATOM      4  C   LIG d   1       7.834  -0.650  -4.268  0.00  0.00     0.015 C 
ATOM      5  C   LIG d   1       7.060   0.511  -3.637  0.00  0.00    -0.036 C 
ATOM      6  C   LIG d   1       7.931   1.770  -3.654  0.00  0.00    -0.039 C 
ATOM      7  C   LIG d   1       8.265   2.144  -5.102  0.00  0.00     0.051 C 
ATOM      8  H   LIG d   1       7.342   2.310  -5.658  0.00  0.00     0.041 H 
ATOM      9  C   LIG d   1       9.052   1.000  -5.748  0.00  0.00     0.026 C 
ATOM     10  H   LIG d   1       7.185  -1.521  -4.350  0.00  0.00     0.046 H 
ATOM     11  H   LIG d   1       8.699  -0.891  -3.650  0.00  0.00     0.046 H 
ATOM     12  H   LIG d   1       6.148   0.692  -4.206  0.00  0.00     0.028 H 
ATOM     13  H   LIG d   1       6.802   0.260  -2.608  0.00  0.00     0.028 H 
ATOM     14  H   LIG d   1       7.390   2.592  -3.182  0.00  0.00     0.027 H 
ATOM     15  H   LIG d   1       8.854   1.581  -3.106  0.00  0.00     0.027 H 
ATOM     16  H   LIG d   1      10.016   0.893  -5.251  0.00  0.00     0.047 H 
ATOM     17  H   LIG d   1       9.209   1.215  -6.805  0.00  0.00     0.047 H 
ENDROOT
BRANCH   1  18
ATOM     18  C   LIG d   1       7.208  -2.274  -6.525  0.00  0.00     0.028 C 
ATOM     19  H   LIG d   1       7.779  -3.108  -6.933  0.00  0.00     0.036 H 
ATOM     20  H   LIG d   1       7.013  -2.449  -5.467  0.00  0.00     0.036 H 
BRANCH  18  21
ATOM     21  C   LIG d   1       5.880  -2.149  -7.275  0.00  0.00    -0.017 C 
ATOM     22  H   LIG d   1       6.059  -1.709  -8.258  0.00  0.00     0.032 H 
ATOM     23  H   LIG d   1       5.436  -3.137  -7.395  0.00  0.00     0.032 H 
BRANCH  21  24
ATOM     24  C   LIG d   1       4.943  -1.267  -6.493  0.00  0.00    -0.022 A 
ATOM     25  C   LIG d   1       4.455  -1.502  -5.132  0.00  0.00     0.003 A 
ATOM     26  C   LIG d   1       3.616  -0.416  -4.826  0.00  0.00     0.047 A 
ATOM     27  C   LIG d   1       4.671  -2.505  -4.184  0.00  0.00    -0.052 A 
ATOM     28  C   LIG d   1       2.999  -0.360  -3.580  0.00  0.00    -0.038 A 
ATOM     29  N   LIG d   1       3.596   0.406  -5.931  0.00  0.00    -0.360 N 
ATOM     30  C   LIG d   1       3.222  -1.363  -2.662  0.00  0.00    -0.060 A 
ATOM     31  H   LIG d   1       2.349   0.466  -3.334  0.00  0.00     0.064 H 
ATOM     32  C   LIG d   1       4.055  -2.429  -2.966  0.00  0.00    -0.061 A 
ATOM     33  H   LIG d   1       2.742  -1.318  -1.695  0.00  0.00     0.062 H 
ATOM     34  H   LIG d   1       4.219  -3.207  -2.234  0.00  0.00     0.062 H 
ATOM     35  C   LIG d   1       4.393  -0.116  -6.913  0.00  0.00     0.006 A 
ATOM     36  H   LIG d   1       3.094   1.232  -6.001  0.00  0.00     0.165 HD
ATOM     37  H   LIG d   1       4.554   0.330  -7.883  0.00  0.00     0.081 H 
ATOM     38  H   LIG d   1       5.319  -3.338  -4.413  0.00  0.00     0.062 H 
ENDBRANCH  21  24
ENDBRANCH  18  21
ENDBRANCH   1  18
BRANCH   7  39
ATOM     39  C   LIG d   1       9.097   3.401  -5.122  0.00  0.00     0.218 C 
ATOM     40  O   LIG d   1       9.429   3.891  -6.180  0.00  0.00    -0.276 OA
ATOM     41  N   LIG d   1       9.473   3.980  -3.964  0.00  0.00    -0.315 N 
ATOM     42  H   LIG d   1       9.207   3.587  -3.117  0.00  0.00     0.149 HD
BRANCH  41  43
ATOM     43  C   LIG d   1      10.282   5.201  -3.984  0.00  0.00     0.016 C 
ATOM     44  H   LIG d   1      11.193   5.041  -3.408  0.00  0.00     0.046 H 
ATOM     45  H   LIG d   1      10.541   5.448  -5.013  0.00  0.00     0.046 H 
BRANCH  43  46
ATOM     46  C   LIG d   1       9.484   6.351  -3.367  0.00  0.00    -0.012 C 
ATOM     47  H   LIG d   1       9.589   7.240  -3.989  0.00  0.00     0.033 H 
ATOM     48  H   LIG d   1       8.431   6.073  -3.307  0.00  0.00     0.033 H 
BRANCH  46  49
ATOM     49  C   LIG d   1      10.007   6.641  -1.985  0.00  0.00    -0.046 A 
ATOM     50  C   LIG d   1       9.908   7.918  -1.463  0.00  0.00    -0.055 A 
ATOM     51  C   LIG d   1      10.387   8.186  -0.195  0.00  0.00    -0.020 A 
ATOM     52  H   LIG d   1       9.456   8.705  -2.047  0.00  0.00     0.062 H 
ATOM     53  C   LIG d   1      10.969   7.173   0.555  0.00  0.00     0.117 A 
ATOM     54  H   LIG d   1      10.310   9.183   0.213  0.00  0.00     0.065 H 
ATOM     55  C   LIG d   1      11.067   5.893   0.029  0.00  0.00    -0.020 A 
ATOM     56  C   LIG d   1      10.581   5.629  -1.237  0.00  0.00    -0.055 A 
ATOM     57  H   LIG d   1      11.518   5.103   0.610  0.00  0.00     0.065 H 
ATOM     58  H   LIG d   1      10.653   4.632  -1.645  0.00  0.00     0.062 H 
BRANCH  53  59
ATOM     59  O   LIG d   1      11.442   7.435   1.802  0.00  0.00    -0.507 OA
ATOM     60  H   LIG d   1      10.927   8.093   2.288  0.00  0.00     0.292 HD
ENDBRANCH  53  59
ENDBRANCH  46  49
ENDBRANCH  43  46
ENDBRANCH  41  43
ENDBRANCH   7  39
TORSDOF 8
ENDMDL
MODEL 10
REMARK VINA RESULT:      -7.0      4.708      7.417
REMARK  8 active torsions:
REMARK  status: ('A' for Active; 'I' for Inactive)
REMARK    1  A    between atoms: C_7  and  C_11 
REMARK    2  A    between atoms: C_11  and  C_12 
REMARK    3  A    between atoms: C_12  and  C_13 
REMARK       I    between atoms: C_13  and  N_15 
REMARK    4  A    between atoms: C_19  and  C_22 
REMARK       I    between atoms: C_22  and  N_24 
REMARK    5  A    between atoms: N_24  and  C_25 
REMARK    6  A    between atoms: C_25  and  C_26 
REMARK    7  A    between atoms: C_26  and  C_27 
REMARK    8  A    between atoms: C_30  and  O_33 
ROOT
ATOM      1  C   LIG d   1       8.811   2.102  -4.039  0.00  0.00     0.216 C 
ATOM      2  O   LIG d   1       7.837   2.511  -3.443  0.00  0.00    -0.276 OA
ATOM      3  N   LIG d   1       8.839   0.835  -4.498  0.00  0.00    -0.301 N 
ATOM      4  C   LIG d   1      10.012   0.326  -5.221  0.00  0.00     0.015 C 
ATOM      5  C   LIG d   1       9.550  -0.253  -6.562  0.00  0.00    -0.036 C 
ATOM      6  C   LIG d   1       8.460  -1.299  -6.315  0.00  0.00    -0.039 C 
ATOM      7  C   LIG d   1       7.257  -0.637  -5.636  0.00  0.00     0.051 C 
ATOM      8  H   LIG d   1       6.879   0.167  -6.267  0.00  0.00     0.041 H 
ATOM      9  C   LIG d   1       7.695  -0.063  -4.285  0.00  0.00     0.026 C 
ATOM     10  H   LIG d   1      10.714   1.140  -5.396  0.00  0.00     0.046 H 
ATOM     11  H   LIG d   1      10.493  -0.456  -4.633  0.00  0.00     0.046 H 
ATOM     12  H   LIG d   1       9.152   0.547  -7.186  0.00  0.00     0.028 H 
ATOM     13  H   LIG d   1      10.396  -0.720  -7.067  0.00  0.00     0.028 H 
ATOM     14  H   LIG d   1       8.148  -1.730  -7.267  0.00  0.00     0.027 H 
ATOM     15  H   LIG d   1       8.852  -2.087  -5.671  0.00  0.00     0.027 H 
ATOM     16  H   LIG d   1       7.987  -0.875  -3.620  0.00  0.00     0.047 H 
ATOM     17  H   LIG d   1       6.871   0.495  -3.839  0.00  0.00     0.047 H 
ENDROOT
BRANCH   1  18
ATOM     18  C   LIG d   1       9.993   3.011  -4.266  0.00  0.00     0.028 C 
ATOM     19  H   LIG d   1      10.758   2.476  -4.829  0.00  0.00     0.036 H 
ATOM     20  H   LIG d   1       9.673   3.888  -4.827  0.00  0.00     0.036 H 
BRANCH  18  21
ATOM     21  C   LIG d   1      10.565   3.449  -2.916  0.00  0.00    -0.017 C 
ATOM     22  H   LIG d   1      10.150   2.823  -2.125  0.00  0.00     0.032 H 
ATOM     23  H   LIG d   1      11.650   3.344  -2.930  0.00  0.00     0.032 H 
BRANCH  21  24
ATOM     24  C   LIG d   1      10.202   4.889  -2.661  0.00  0.00    -0.022 A 
ATOM     25  C   LIG d   1      10.514   5.667  -1.460  0.00  0.00     0.003 A 
ATOM     26  C   LIG d   1       9.980   6.951  -1.679  0.00  0.00     0.047 A 
ATOM     27  C   LIG d   1      11.192   5.388  -0.272  0.00  0.00    -0.052 A 
ATOM     28  C   LIG d   1      10.126   7.925  -0.698  0.00  0.00    -0.038 A 
ATOM     29  N   LIG d   1       9.383   6.936  -2.920  0.00  0.00    -0.360 N 
ATOM     30  C   LIG d   1      10.793   7.627   0.470  0.00  0.00    -0.060 A 
ATOM     31  H   LIG d   1       9.718   8.914  -0.851  0.00  0.00     0.064 H 
ATOM     32  C   LIG d   1      11.323   6.361   0.678  0.00  0.00    -0.061 A 
ATOM     33  H   LIG d   1      10.905   8.385   1.230  0.00  0.00     0.062 H 
ATOM     34  H   LIG d   1      11.843   6.143   1.600  0.00  0.00     0.062 H 
ATOM     35  C   LIG d   1       9.525   5.700  -3.490  0.00  0.00     0.006 A 
ATOM     36  H   LIG d   1       8.930   7.689  -3.328  0.00  0.00     0.165 HD
ATOM     37  H   LIG d   1       9.148   5.419  -4.461  0.00  0.00     0.081 H 
ATOM     38  H   LIG d   1      11.606   4.405  -0.102  0.00  0.00     0.062 H 
ENDBRANCH  21  24
ENDBRANCH  18  21
ENDBRANCH   1  18
BRANCH   7  39
ATOM     39  C   LIG d   1       6.171  -1.659  -5.419  0.00  0.00     0.218 C 
ATOM     40  O   LIG d   1       5.471  -2.006  -6.346  0.00  0.00    -0.276 OA
ATOM     41  N   LIG d   1       5.977  -2.188  -4.194  0.00  0.00    -0.315 N 
ATOM     42  H   LIG d   1       6.537  -1.910  -3.452  0.00  0.00     0.149 HD
BRANCH  41  43
ATOM     43  C   LIG d   1       4.921  -3.181  -3.983  0.00  0.00     0.016 C 
ATOM     44  H   LIG d   1       4.357  -3.312  -4.906  0.00  0.00     0.046 H 
ATOM     45  H   LIG d   1       5.369  -4.132  -3.693  0.00  0.00     0.046 H 
BRANCH  43  46
ATOM     46  C   LIG d   1       3.982  -2.700  -2.875  0.00  0.00    -0.012 C 
ATOM     47  H   LIG d   1       3.020  -3.204  -2.970  0.00  0.00     0.033 H 
ATOM     48  H   LIG d   1       4.419  -2.930  -1.903  0.00  0.00     0.033 H 
BRANCH  46  49
ATOM     49  C   LIG d   1       3.783  -1.212  -2.997  0.00  0.00    -0.046 A 
ATOM     50  C   LIG d   1       3.036  -0.698  -4.041  0.00  0.00    -0.055 A 
ATOM     51  C   LIG d   1       2.852   0.666  -4.155  0.00  0.00    -0.020 A 
ATOM     52  H   LIG d   1       2.597  -1.364  -4.768  0.00  0.00     0.062 H 
ATOM     53  C   LIG d   1       3.417   1.522  -3.219  0.00  0.00     0.117 A 
ATOM     54  H   LIG d   1       2.269   1.068  -4.970  0.00  0.00     0.065 H 
ATOM     55  C   LIG d   1       4.166   1.004  -2.173  0.00  0.00    -0.020 A 
ATOM     56  C   LIG d   1       4.342  -0.361  -2.060  0.00  0.00    -0.055 A 
ATOM     57  H   LIG d   1       4.607   1.667  -1.443  0.00  0.00     0.065 H 
ATOM     58  H   LIG d   1       4.921  -0.765  -1.243  0.00  0.00     0.062 H 
BRANCH  53  59
ATOM     59  O   LIG d   1       3.238   2.865  -3.329  0.00  0.00    -0.507 OA
ATOM     60  H   LIG d   1       3.157   3.321  -2.480  0.00  0.00     0.292 HD
ENDBRANCH  53  59
ENDBRANCH  46  49
ENDBRANCH  43  46
ENDBRANCH  41  43
ENDBRANCH   7  39
TORSDOF 8
ENDMDL
