MODEL 1
REMARK VINA RESULT:      -6.4      0.000      0.000
REMARK  6 active torsions:
REMARK  status: ('A' for Active; 'I' for Inactive)
REMARK    1  A    between atoms: C_3  and  O_21 
REMARK    2  A    between atoms: C_4  and  O_20 
REMARK    3  A    between atoms: C_6  and  C_7 
REMARK    4  A    between atoms: C_7  and  C_8 
REMARK    5  A    between atoms: C_12  and  O_19 
REMARK    6  A    between atoms: C_13  and  O_18 
ROOT
ATOM      1  C   LIG d   1       3.687   0.290  -7.989  0.00  0.00     0.008 C 
ATOM      2  H   LIG d   1       4.460  -0.379  -7.611  0.00  0.00     0.091 H 
ATOM      3  C   LIG d   1       3.077  -0.304  -9.230  0.00  0.00     0.007 A 
ATOM      4  C   LIG d   1       2.164  -1.339  -9.085  0.00  0.00    -0.008 A 
ATOM      5  C   LIG d   1       1.579  -1.919 -10.197  0.00  0.00     0.159 A 
ATOM      6  C   LIG d   1       1.911  -1.460 -11.469  0.00  0.00     0.159 A 
ATOM      7  C   LIG d   1       2.821  -0.429 -11.609  0.00  0.00    -0.013 A 
ATOM      8  C   LIG d   1       3.402   0.151 -10.491  0.00  0.00    -0.030 A 
ATOM      9  C   LIG d   1       4.384   1.276 -10.696  0.00  0.00     0.013 C 
ATOM     10  C   LIG d   1       5.205   1.491  -9.424  0.00  0.00    -0.029 C 
ATOM     11  H   LIG d   1       1.907  -1.694  -8.098  0.00  0.00     0.066 H 
ATOM     12  H   LIG d   1       3.080  -0.072 -12.595  0.00  0.00     0.066 H 
ATOM     13  H   LIG d   1       3.842   2.191 -10.935  0.00  0.00     0.036 H 
ATOM     14  H   LIG d   1       5.053   1.027 -11.520  0.00  0.00     0.036 H 
ATOM     15  H   LIG d   1       5.785   2.410  -9.513  0.00  0.00     0.082 H 
ATOM     16  H   LIG d   1       5.878   0.648  -9.272  0.00  0.00     0.082 H 
ATOM     17  N   LIG d   1       4.280   1.602  -8.281  0.00  0.00     0.233 N 
ATOM     18  H   LIG d   1       4.794   1.935  -7.457  0.00  0.00     0.202 HD
ATOM     19  H   LIG d   1       3.534   2.270  -8.511  0.00  0.00     0.202 HD
ENDROOT
BRANCH   1  20
ATOM     20  C   LIG d   1       2.601   0.458  -6.923  0.00  0.00     0.020 C 
ATOM     21  H   LIG d   1       1.696  -0.058  -7.243  0.00  0.00     0.037 H 
ATOM     22  H   LIG d   1       2.387   1.518  -6.787  0.00  0.00     0.037 H 
BRANCH  20  23
ATOM     23  C   LIG d   1       3.080  -0.129  -5.620  0.00  0.00    -0.038 A 
ATOM     24  C   LIG d   1       2.358   0.086  -4.461  0.00  0.00    -0.055 A 
ATOM     25  C   LIG d   1       2.797  -0.446  -3.262  0.00  0.00    -0.016 A 
ATOM     26  H   LIG d   1       1.454   0.674  -4.491  0.00  0.00     0.062 H 
ATOM     27  C   LIG d   1       3.958  -1.201  -3.223  0.00  0.00     0.158 A 
ATOM     28  H   LIG d   1       2.234  -0.273  -2.357  0.00  0.00     0.066 H 
ATOM     29  C   LIG d   1       4.680  -1.422  -4.391  0.00  0.00     0.159 A 
ATOM     30  C   LIG d   1       4.236  -0.886  -5.589  0.00  0.00    -0.013 A 
ATOM     31  H   LIG d   1       4.795  -1.057  -6.497  0.00  0.00     0.066 H 
BRANCH  27  32
ATOM     32  O   LIG d   1       4.390  -1.724  -2.044  0.00  0.00    -0.503 OA
ATOM     33  H   LIG d   1       4.767  -2.610  -2.122  0.00  0.00     0.292 HD
ENDBRANCH  27  32
BRANCH  29  34
ATOM     34  O   LIG d   1       5.820  -2.163  -4.357  0.00  0.00    -0.503 OA
ATOM     35  H   LIG d   1       6.175  -2.378  -5.231  0.00  0.00     0.292 HD
ENDBRANCH  29  34
ENDBRANCH  20  23
ENDBRANCH   1  20
BRANCH   5  36
ATOM     36  O   LIG d   1       0.684  -2.931 -10.049  0.00  0.00    -0.503 OA
ATOM     37  H   LIG d   1       0.207  -3.156 -10.859  0.00  0.00     0.292 HD
ENDBRANCH   5  36
BRANCH   6  38
ATOM     38  O   LIG d   1       1.343  -2.025 -12.569  0.00  0.00    -0.503 OA
ATOM     39  H   LIG d   1       0.479  -1.657 -12.798  0.00  0.00     0.292 HD
ENDBRANCH   6  38
TORSDOF 6
ENDMDL
MODEL 2
REMARK VINA RESULT:      -6.0      4.760      6.798
REMARK  6 active torsions:
REMARK  status: ('A' for Active; 'I' for Inactive)
REMARK    1  A    between atoms: C_3  and  O_21 
REMARK    2  A    between atoms: C_4  and  O_20 
REMARK    3  A    between atoms: C_6  and  C_7 
REMARK    4  A    between atoms: C_7  and  C_8 
REMARK    5  A    between atoms: C_12  and  O_19 
REMARK    6  A    between atoms: C_13  and  O_18 
ROOT
ATOM      1  C   LIG d   1       4.854  -3.385  -5.040  0.00  0.00     0.008 C 
ATOM      2  H   LIG d   1       4.787  -2.471  -5.631  0.00  0.00     0.091 H 
ATOM      3  C   LIG d   1       6.273  -3.887  -5.059  0.00  0.00     0.007 A 
ATOM      4  C   LIG d   1       7.208  -3.252  -4.253  0.00  0.00    -0.008 A 
ATOM      5  C   LIG d   1       8.525  -3.676  -4.239  0.00  0.00     0.159 A 
ATOM      6  C   LIG d   1       8.913  -4.747  -5.040  0.00  0.00     0.159 A 
ATOM      7  C   LIG d   1       7.979  -5.377  -5.841  0.00  0.00    -0.013 A 
ATOM      8  C   LIG d   1       6.659  -4.949  -5.849  0.00  0.00    -0.030 A 
ATOM      9  C   LIG d   1       5.677  -5.673  -6.735  0.00  0.00     0.013 C 
ATOM     10  C   LIG d   1       4.419  -4.824  -6.923  0.00  0.00    -0.029 C 
ATOM     11  H   LIG d   1       6.906  -2.422  -3.632  0.00  0.00     0.066 H 
ATOM     12  H   LIG d   1       8.278  -6.208  -6.463  0.00  0.00     0.066 H 
ATOM     13  H   LIG d   1       5.406  -6.623  -6.274  0.00  0.00     0.036 H 
ATOM     14  H   LIG d   1       6.135  -5.861  -7.706  0.00  0.00     0.036 H 
ATOM     15  H   LIG d   1       3.647  -5.418  -7.413  0.00  0.00     0.082 H 
ATOM     16  H   LIG d   1       4.651  -3.951  -7.532  0.00  0.00     0.082 H 
ATOM     17  N   LIG d   1       3.942  -4.392  -5.596  0.00  0.00     0.233 N 
ATOM     18  H   LIG d   1       3.002  -3.988  -5.687  0.00  0.00     0.202 HD
ATOM     19  H   LIG d   1       3.905  -5.204  -4.967  0.00  0.00     0.202 HD
ENDROOT
BRANCH   1  20
ATOM     20  C   LIG d   1       4.445  -3.082  -3.597  0.00  0.00     0.020 C 
ATOM     21  H   LIG d   1       5.252  -3.369  -2.922  0.00  0.00     0.037 H 
ATOM     22  H   LIG d   1       3.546  -3.646  -3.348  0.00  0.00     0.037 H 
BRANCH  20  23
ATOM     23  C   LIG d   1       4.168  -1.607  -3.450  0.00  0.00    -0.038 A 
ATOM     24  C   LIG d   1       4.498  -0.958  -2.276  0.00  0.00    -0.055 A 
ATOM     25  C   LIG d   1       4.241   0.394  -2.135  0.00  0.00    -0.016 A 
ATOM     26  H   LIG d   1       4.953  -1.507  -1.465  0.00  0.00     0.062 H 
ATOM     27  C   LIG d   1       3.658   1.100  -3.175  0.00  0.00     0.158 A 
ATOM     28  H   LIG d   1       4.496   0.899  -1.215  0.00  0.00     0.066 H 
ATOM     29  C   LIG d   1       3.332   0.446  -4.359  0.00  0.00     0.159 A 
ATOM     30  C   LIG d   1       3.592  -0.908  -4.494  0.00  0.00    -0.013 A 
ATOM     31  H   LIG d   1       3.340  -1.417  -5.412  0.00  0.00     0.066 H 
BRANCH  27  32
ATOM     32  O   LIG d   1       3.405   2.430  -3.037  0.00  0.00    -0.503 OA
ATOM     33  H   LIG d   1       2.778   2.779  -3.684  0.00  0.00     0.292 HD
ENDBRANCH  27  32
BRANCH  29  34
ATOM     34  O   LIG d   1       2.761   1.136  -5.383  0.00  0.00    -0.503 OA
ATOM     35  H   LIG d   1       2.393   1.992  -5.123  0.00  0.00     0.292 HD
ENDBRANCH  29  34
ENDBRANCH  20  23
ENDBRANCH   1  20
BRANCH   5  36
ATOM     36  O   LIG d   1       9.436  -3.051  -3.448  0.00  0.00    -0.503 OA
ATOM     37  H   LIG d   1       9.549  -2.111  -3.645  0.00  0.00     0.292 HD
ENDBRANCH   5  36
BRANCH   6  38
ATOM     38  O   LIG d   1      10.206  -5.170  -5.035  0.00  0.00    -0.503 OA
ATOM     39  H   LIG d   1      10.307  -6.121  -4.896  0.00  0.00     0.292 HD
ENDBRANCH   6  38
TORSDOF 6
ENDMDL
MODEL 3
REMARK VINA RESULT:      -5.9      4.702      6.105
REMARK  6 active torsions:
REMARK  status: ('A' for Active; 'I' for Inactive)
REMARK    1  A    between atoms: C_3  and  O_21 
REMARK    2  A    between atoms: C_4  and  O_20 
REMARK    3  A    between atoms: C_6  and  C_7 
REMARK    4  A    between atoms: C_7  and  C_8 
REMARK    5  A    between atoms: C_12  and  O_19 
REMARK    6  A    between atoms: C_13  and  O_18 
ROOT
ATOM      1  C   LIG d   1       6.984  -2.952  -4.488  0.00  0.00     0.008 C 
ATOM      2  H   LIG d   1       6.658  -2.842  -3.454  0.00  0.00     0.091 H 
ATOM      3  C   LIG d   1       6.358  -4.187  -5.079  0.00  0.00     0.007 A 
ATOM      4  C   LIG d   1       5.027  -4.131  -5.466  0.00  0.00    -0.008 A 
ATOM      5  C   LIG d   1       4.407  -5.241  -6.011  0.00  0.00     0.159 A 
ATOM      6  C   LIG d   1       5.125  -6.423  -6.170  0.00  0.00     0.159 A 
ATOM      7  C   LIG d   1       6.451  -6.475  -5.784  0.00  0.00    -0.013 A 
ATOM      8  C   LIG d   1       7.069  -5.357  -5.241  0.00  0.00    -0.030 A 
ATOM      9  C   LIG d   1       8.518  -5.464  -4.840  0.00  0.00     0.013 C 
ATOM     10  C   LIG d   1       8.889  -4.310  -3.908  0.00  0.00    -0.029 C 
ATOM     11  H   LIG d   1       4.470  -3.214  -5.341  0.00  0.00     0.066 H 
ATOM     12  H   LIG d   1       7.011  -7.391  -5.908  0.00  0.00     0.066 H 
ATOM     13  H   LIG d   1       9.144  -5.422  -5.732  0.00  0.00     0.036 H 
ATOM     14  H   LIG d   1       8.684  -6.411  -4.328  0.00  0.00     0.036 H 
ATOM     15  H   LIG d   1       9.969  -4.288  -3.763  0.00  0.00     0.082 H 
ATOM     16  H   LIG d   1       8.393  -4.439  -2.946  0.00  0.00     0.082 H 
ATOM     17  N   LIG d   1       8.449  -3.046  -4.528  0.00  0.00     0.233 N 
ATOM     18  H   LIG d   1       8.856  -2.255  -4.014  0.00  0.00     0.202 HD
ATOM     19  H   LIG d   1       8.766  -3.018  -5.505  0.00  0.00     0.202 HD
ENDROOT
BRANCH   1  20
ATOM     20  C   LIG d   1       6.539  -1.727  -5.290  0.00  0.00     0.020 C 
ATOM     21  H   LIG d   1       5.984  -2.052  -6.171  0.00  0.00     0.037 H 
ATOM     22  H   LIG d   1       7.415  -1.160  -5.603  0.00  0.00     0.037 H 
BRANCH  20  23
ATOM     23  C   LIG d   1       5.657  -0.857  -4.433  0.00  0.00    -0.038 A 
ATOM     24  C   LIG d   1       6.108  -0.421  -3.201  0.00  0.00    -0.055 A 
ATOM     25  C   LIG d   1       5.299   0.373  -2.408  0.00  0.00    -0.016 A 
ATOM     26  H   LIG d   1       7.090  -0.704  -2.856  0.00  0.00     0.062 H 
ATOM     27  C   LIG d   1       4.038   0.738  -2.850  0.00  0.00     0.158 A 
ATOM     28  H   LIG d   1       5.651   0.710  -1.444  0.00  0.00     0.066 H 
ATOM     29  C   LIG d   1       3.588   0.303  -4.093  0.00  0.00     0.159 A 
ATOM     30  C   LIG d   1       4.402  -0.492  -4.883  0.00  0.00    -0.013 A 
ATOM     31  H   LIG d   1       4.054  -0.830  -5.848  0.00  0.00     0.066 H 
BRANCH  27  32
ATOM     32  O   LIG d   1       3.242   1.518  -2.071  0.00  0.00    -0.503 OA
ATOM     33  H   LIG d   1       2.332   1.592  -2.388  0.00  0.00     0.292 HD
ENDBRANCH  27  32
BRANCH  29  34
ATOM     34  O   LIG d   1       2.350   0.659  -4.532  0.00  0.00    -0.503 OA
ATOM     35  H   LIG d   1       2.054   0.168  -5.311  0.00  0.00     0.292 HD
ENDBRANCH  29  34
ENDBRANCH  20  23
ENDBRANCH   1  20
BRANCH   5  36
ATOM     36  O   LIG d   1       3.102  -5.179  -6.388  0.00  0.00    -0.503 OA
ATOM     37  H   LIG d   1       2.936  -5.504  -7.284  0.00  0.00     0.292 HD
ENDBRANCH   5  36
BRANCH   6  38
ATOM     38  O   LIG d   1       4.525  -7.521  -6.703  0.00  0.00    -0.503 OA
ATOM     39  H   LIG d   1       5.070  -8.318  -6.677  0.00  0.00     0.292 HD
ENDBRANCH   6  38
TORSDOF 6
ENDMDL
MODEL 4
REMARK VINA RESULT:      -5.9     10.016     12.946
REMARK  6 active torsions:
REMARK  status: ('A' for Active; 'I' for Inactive)
REMARK    1  A    between atoms: C_3  and  O_21 
REMARK    2  A    between atoms: C_4  and  O_20 
REMARK    3  A    between atoms: C_6  and  C_7 
REMARK    4  A    between atoms: C_7  and  C_8 
REMARK    5  A    between atoms: C_12  and  O_19 
REMARK    6  A    between atoms: C_13  and  O_18 
ROOT
ATOM      1  C   LIG d   1      10.144   8.592  -3.995  0.00  0.00     0.008 C 
ATOM      2  H   LIG d   1       9.129   8.503  -4.384  0.00  0.00     0.091 H 
ATOM      3  C   LIG d   1      10.260   7.800  -2.719  0.00  0.00     0.007 A 
ATOM      4  C   LIG d   1      10.374   6.420  -2.808  0.00  0.00    -0.008 A 
ATOM      5  C   LIG d   1      10.481   5.650  -1.663  0.00  0.00     0.159 A 
ATOM      6  C   LIG d   1      10.471   6.266  -0.415  0.00  0.00     0.159 A 
ATOM      7  C   LIG d   1      10.357   7.641  -0.331  0.00  0.00    -0.013 A 
ATOM      8  C   LIG d   1      10.254   8.409  -1.482  0.00  0.00    -0.030 A 
ATOM      9  C   LIG d   1      10.137   9.904  -1.337  0.00  0.00     0.013 C 
ATOM     10  C   LIG d   1       9.626  10.518  -2.642  0.00  0.00    -0.029 C 
ATOM     11  H   LIG d   1      10.382   5.943  -3.777  0.00  0.00     0.066 H 
ATOM     12  H   LIG d   1      10.349   8.121   0.637  0.00  0.00     0.066 H 
ATOM     13  H   LIG d   1      11.116  10.323  -1.101  0.00  0.00     0.036 H 
ATOM     14  H   LIG d   1       9.441  10.137  -0.531  0.00  0.00     0.036 H 
ATOM     15  H   LIG d   1       9.710  11.603  -2.594  0.00  0.00     0.082 H 
ATOM     16  H   LIG d   1       8.584  10.238  -2.797  0.00  0.00     0.082 H 
ATOM     17  N   LIG d   1      10.450  10.008  -3.754  0.00  0.00     0.233 N 
ATOM     18  H   LIG d   1      10.249  10.550  -4.603  0.00  0.00     0.202 HD
ATOM     19  H   LIG d   1      11.444  10.106  -3.514  0.00  0.00     0.202 HD
ENDROOT
BRANCH   1  20
ATOM     20  C   LIG d   1      11.129   8.036  -5.025  0.00  0.00     0.020 C 
ATOM     21  H   LIG d   1      11.608   7.142  -4.625  0.00  0.00     0.037 H 
ATOM     22  H   LIG d   1      11.888   8.786  -5.245  0.00  0.00     0.037 H 
BRANCH  20  23
ATOM     23  C   LIG d   1      10.389   7.685  -6.291  0.00  0.00    -0.038 A 
ATOM     24  C   LIG d   1      10.453   6.398  -6.792  0.00  0.00    -0.055 A 
ATOM     25  C   LIG d   1       9.781   6.074  -7.957  0.00  0.00    -0.016 A 
ATOM     26  H   LIG d   1      11.033   5.648  -6.278  0.00  0.00     0.062 H 
ATOM     27  C   LIG d   1       9.036   7.036  -8.618  0.00  0.00     0.158 A 
ATOM     28  H   LIG d   1       9.835   5.069  -8.349  0.00  0.00     0.066 H 
ATOM     29  C   LIG d   1       8.967   8.329  -8.109  0.00  0.00     0.159 A 
ATOM     30  C   LIG d   1       9.642   8.648  -6.942  0.00  0.00    -0.013 A 
ATOM     31  H   LIG d   1       9.590   9.651  -6.545  0.00  0.00     0.066 H 
BRANCH  27  32
ATOM     32  O   LIG d   1       8.374   6.717  -9.763  0.00  0.00    -0.503 OA
ATOM     33  H   LIG d   1       8.888   6.176 -10.376  0.00  0.00     0.292 HD
ENDBRANCH  27  32
BRANCH  29  34
ATOM     34  O   LIG d   1       8.235   9.278  -8.754  0.00  0.00    -0.503 OA
ATOM     35  H   LIG d   1       8.719   9.737  -9.454  0.00  0.00     0.292 HD
ENDBRANCH  29  34
ENDBRANCH  20  23
ENDBRANCH   1  20
BRANCH   5  36
ATOM     36  O   LIG d   1      10.593   4.299  -1.757  0.00  0.00    -0.503 OA
ATOM     37  H   LIG d   1      10.155   3.817  -1.042  0.00  0.00     0.292 HD
ENDBRANCH   5  36
BRANCH   6  38
ATOM     38  O   LIG d   1      10.573   5.518   0.716  0.00  0.00    -0.503 OA
ATOM     39  H   LIG d   1      10.406   6.012   1.530  0.00  0.00     0.292 HD
ENDBRANCH   6  38
TORSDOF 6
ENDMDL
MODEL 5
REMARK VINA RESULT:      -5.8      6.235      8.155
REMARK  6 active torsions:
REMARK  status: ('A' for Active; 'I' for Inactive)
REMARK    1  A    between atoms: C_3  and  O_21 
REMARK    2  A    between atoms: C_4  and  O_20 
REMARK    3  A    between atoms: C_6  and  C_7 
REMARK    4  A    between atoms: C_7  and  C_8 
REMARK    5  A    between atoms: C_12  and  O_19 
REMARK    6  A    between atoms: C_13  and  O_18 
ROOT
ATOM      1  C   LIG d   1       8.079  -2.394  -4.542  0.00  0.00     0.008 C 
ATOM      2  H   LIG d   1       8.227  -1.432  -4.052  0.00  0.00     0.091 H 
ATOM      3  C   LIG d   1       9.139  -3.358  -4.079  0.00  0.00     0.007 A 
ATOM      4  C   LIG d   1       9.002  -3.934  -2.824  0.00  0.00    -0.008 A 
ATOM      5  C   LIG d   1       9.952  -4.823  -2.353  0.00  0.00     0.159 A 
ATOM      6  C   LIG d   1      11.052  -5.140  -3.145  0.00  0.00     0.159 A 
ATOM      7  C   LIG d   1      11.185  -4.564  -4.394  0.00  0.00    -0.013 A 
ATOM      8  C   LIG d   1      10.227  -3.675  -4.863  0.00  0.00    -0.030 A 
ATOM      9  C   LIG d   1      10.414  -3.078  -6.234  0.00  0.00     0.013 C 
ATOM     10  C   LIG d   1       9.519  -1.849  -6.396  0.00  0.00    -0.029 C 
ATOM     11  H   LIG d   1       8.148  -3.687  -2.210  0.00  0.00     0.066 H 
ATOM     12  H   LIG d   1      12.037  -4.809  -5.011  0.00  0.00     0.066 H 
ATOM     13  H   LIG d   1      10.151  -3.819  -6.990  0.00  0.00     0.036 H 
ATOM     14  H   LIG d   1      11.457  -2.787  -6.364  0.00  0.00     0.036 H 
ATOM     15  H   LIG d   1       9.523  -1.528  -7.438  0.00  0.00     0.082 H 
ATOM     16  H   LIG d   1       9.884  -1.042  -5.762  0.00  0.00     0.082 H 
ATOM     17  N   LIG d   1       8.147  -2.213  -5.998  0.00  0.00     0.233 N 
ATOM     18  H   LIG d   1       7.501  -1.465  -6.280  0.00  0.00     0.202 HD
ATOM     19  H   LIG d   1       7.878  -3.089  -6.464  0.00  0.00     0.202 HD
ENDROOT
BRANCH   1  20
ATOM     20  C   LIG d   1       6.700  -2.942  -4.170  0.00  0.00     0.020 C 
ATOM     21  H   LIG d   1       6.814  -3.760  -3.457  0.00  0.00     0.037 H 
ATOM     22  H   LIG d   1       6.201  -3.310  -5.066  0.00  0.00     0.037 H 
BRANCH  20  23
ATOM     23  C   LIG d   1       5.873  -1.846  -3.548  0.00  0.00    -0.038 A 
ATOM     24  C   LIG d   1       4.663  -2.149  -2.953  0.00  0.00    -0.055 A 
ATOM     25  C   LIG d   1       3.899  -1.144  -2.387  0.00  0.00    -0.016 A 
ATOM     26  H   LIG d   1       4.312  -3.169  -2.935  0.00  0.00     0.062 H 
ATOM     27  C   LIG d   1       4.348   0.165  -2.410  0.00  0.00     0.158 A 
ATOM     28  H   LIG d   1       2.951  -1.382  -1.926  0.00  0.00     0.066 H 
ATOM     29  C   LIG d   1       5.569   0.468  -3.004  0.00  0.00     0.159 A 
ATOM     30  C   LIG d   1       6.331  -0.542  -3.569  0.00  0.00    -0.013 A 
ATOM     31  H   LIG d   1       7.279  -0.309  -4.030  0.00  0.00     0.066 H 
BRANCH  27  32
ATOM     32  O   LIG d   1       3.597   1.153  -1.853  0.00  0.00    -0.503 OA
ATOM     33  H   LIG d   1       2.645   1.042  -1.979  0.00  0.00     0.292 HD
ENDBRANCH  27  32
BRANCH  29  34
ATOM     34  O   LIG d   1       6.016   1.753  -3.028  0.00  0.00    -0.503 OA
ATOM     35  H   LIG d   1       6.736   1.907  -3.655  0.00  0.00     0.292 HD
ENDBRANCH  29  34
ENDBRANCH  20  23
ENDBRANCH   1  20
BRANCH   5  36
ATOM     36  O   LIG d   1       9.812  -5.385  -1.123  0.00  0.00    -0.503 OA
ATOM     37  H   LIG d   1       9.459  -4.783  -0.454  0.00  0.00     0.292 HD
ENDBRANCH   5  36
BRANCH   6  38
ATOM     38  O   LIG d   1      11.993  -6.011  -2.691  0.00  0.00    -0.503 OA
ATOM     39  H   LIG d   1      11.821  -6.346  -1.801  0.00  0.00     0.292 HD
ENDBRANCH   6  38
TORSDOF 6
ENDMDL
MODEL 6
REMARK VINA RESULT:      -5.7      2.319      6.956
REMARK  6 active torsions:
REMARK  status: ('A' for Active; 'I' for Inactive)
REMARK    1  A    between atoms: C_3  and  O_21 
REMARK    2  A    between atoms: C_4  and  O_20 
REMARK    3  A    between atoms: C_6  and  C_7 
REMARK    4  A    between atoms: C_7  and  C_8 
REMARK    5  A    between atoms: C_12  and  O_19 
REMARK    6  A    between atoms: C_13  and  O_18 
ROOT
ATOM      1  C   LIG d   1       3.538  -0.513  -5.715  0.00  0.00     0.008 C 
ATOM      2  H   LIG d   1       3.482  -1.589  -5.884  0.00  0.00     0.091 H 
ATOM      3  C   LIG d   1       4.885  -0.169  -5.137  0.00  0.00     0.007 A 
ATOM      4  C   LIG d   1       5.977  -0.130  -5.991  0.00  0.00    -0.008 A 
ATOM      5  C   LIG d   1       7.236   0.179  -5.505  0.00  0.00     0.159 A 
ATOM      6  C   LIG d   1       7.405   0.451  -4.150  0.00  0.00     0.159 A 
ATOM      7  C   LIG d   1       6.314   0.410  -3.303  0.00  0.00    -0.013 A 
ATOM      8  C   LIG d   1       5.053   0.103  -3.795  0.00  0.00    -0.030 A 
ATOM      9  C   LIG d   1       3.894   0.078  -2.832  0.00  0.00     0.013 C 
ATOM     10  C   LIG d   1       2.712  -0.666  -3.456  0.00  0.00    -0.029 C 
ATOM     11  H   LIG d   1       5.846  -0.341  -7.042  0.00  0.00     0.066 H 
ATOM     12  H   LIG d   1       6.442   0.621  -2.252  0.00  0.00     0.066 H 
ATOM     13  H   LIG d   1       3.595   1.100  -2.599  0.00  0.00     0.036 H 
ATOM     14  H   LIG d   1       4.197  -0.427  -1.915  0.00  0.00     0.036 H 
ATOM     15  H   LIG d   1       1.826  -0.531  -2.835  0.00  0.00     0.082 H 
ATOM     16  H   LIG d   1       2.945  -1.727  -3.535  0.00  0.00     0.082 H 
ATOM     17  N   LIG d   1       2.463  -0.109  -4.798  0.00  0.00     0.233 N 
ATOM     18  H   LIG d   1       1.565  -0.459  -5.151  0.00  0.00     0.202 HD
ATOM     19  H   LIG d   1       2.432   0.916  -4.741  0.00  0.00     0.202 HD
ENDROOT
BRANCH   1  20
ATOM     20  C   LIG d   1       3.359   0.216  -7.048  0.00  0.00     0.020 C 
ATOM     21  H   LIG d   1       4.297   0.696  -7.328  0.00  0.00     0.037 H 
ATOM     22  H   LIG d   1       2.580   0.971  -6.947  0.00  0.00     0.037 H 
BRANCH  20  23
ATOM     23  C   LIG d   1       2.964  -0.774  -8.114  0.00  0.00    -0.038 A 
ATOM     24  C   LIG d   1       3.592  -2.003  -8.180  0.00  0.00    -0.055 A 
ATOM     25  C   LIG d   1       3.237  -2.912  -9.160  0.00  0.00    -0.016 A 
ATOM     26  H   LIG d   1       4.364  -2.252  -7.468  0.00  0.00     0.062 H 
ATOM     27  C   LIG d   1       2.246  -2.593 -10.074  0.00  0.00     0.158 A 
ATOM     28  H   LIG d   1       3.732  -3.871  -9.212  0.00  0.00     0.066 H 
ATOM     29  C   LIG d   1       1.610  -1.358 -10.003  0.00  0.00     0.159 A 
ATOM     30  C   LIG d   1       1.970  -0.452  -9.019  0.00  0.00    -0.013 A 
ATOM     31  H   LIG d   1       1.477   0.508  -8.962  0.00  0.00     0.066 H 
BRANCH  27  32
ATOM     32  O   LIG d   1       1.896  -3.487 -11.038  0.00  0.00    -0.503 OA
ATOM     33  H   LIG d   1       1.047  -3.298 -11.459  0.00  0.00     0.292 HD
ENDBRANCH  27  32
BRANCH  29  34
ATOM     34  O   LIG d   1       0.635  -1.041 -10.898  0.00  0.00    -0.503 OA
ATOM     35  H   LIG d   1       0.371  -1.776 -11.468  0.00  0.00     0.292 HD
ENDBRANCH  29  34
ENDBRANCH  20  23
ENDBRANCH   1  20
BRANCH   5  36
ATOM     36  O   LIG d   1       8.303   0.217  -6.347  0.00  0.00    -0.503 OA
ATOM     37  H   LIG d   1       8.632   1.108  -6.526  0.00  0.00     0.292 HD
ENDBRANCH   5  36
BRANCH   6  38
ATOM     38  O   LIG d   1       8.638   0.753  -3.663  0.00  0.00    -0.503 OA
ATOM     39  H   LIG d   1       9.173   1.297  -4.256  0.00  0.00     0.292 HD
ENDBRANCH   6  38
TORSDOF 6
ENDMDL
MODEL 7
REMARK VINA RESULT:      -5.7      1.966      6.760
REMARK  6 active torsions:
REMARK  status: ('A' for Active; 'I' for Inactive)
REMARK    1  A    between atoms: C_3  and  O_21 
REMARK    2  A    between atoms: C_4  and  O_20 
REMARK    3  A    between atoms: C_6  and  C_7 
REMARK    4  A    between atoms: C_7  and  C_8 
REMARK    5  A    between atoms: C_12  and  O_19 
REMARK    6  A    between atoms: C_13  and  O_18 
ROOT
ATOM      1  C   LIG d   1       3.824  -0.571  -5.839  0.00  0.00     0.008 C 
ATOM      2  H   LIG d   1       3.046  -1.333  -5.892  0.00  0.00     0.091 H 
ATOM      3  C   LIG d   1       4.995  -1.109  -5.061  0.00  0.00     0.007 A 
ATOM      4  C   LIG d   1       5.855  -1.996  -5.694  0.00  0.00    -0.008 A 
ATOM      5  C   LIG d   1       6.944  -2.519  -5.019  0.00  0.00     0.159 A 
ATOM      6  C   LIG d   1       7.176  -2.153  -3.696  0.00  0.00     0.159 A 
ATOM      7  C   LIG d   1       6.317  -1.270  -3.070  0.00  0.00    -0.013 A 
ATOM      8  C   LIG d   1       5.229  -0.745  -3.752  0.00  0.00    -0.030 A 
ATOM      9  C   LIG d   1       4.325   0.219  -3.026  0.00  0.00     0.013 C 
ATOM     10  C   LIG d   1       2.997   0.353  -3.772  0.00  0.00    -0.029 C 
ATOM     11  H   LIG d   1       5.674  -2.279  -6.720  0.00  0.00     0.066 H 
ATOM     12  H   LIG d   1       6.496  -0.984  -2.044  0.00  0.00     0.066 H 
ATOM     13  H   LIG d   1       4.808   1.195  -2.970  0.00  0.00     0.036 H 
ATOM     14  H   LIG d   1       4.138  -0.149  -2.017  0.00  0.00     0.036 H 
ATOM     15  H   LIG d   1       2.420   1.175  -3.348  0.00  0.00     0.082 H 
ATOM     16  H   LIG d   1       2.431  -0.574  -3.686  0.00  0.00     0.082 H 
ATOM     17  N   LIG d   1       3.282   0.631  -5.192  0.00  0.00     0.233 N 
ATOM     18  H   LIG d   1       2.415   0.912  -5.665  0.00  0.00     0.202 HD
ATOM     19  H   LIG d   1       3.969   1.392  -5.258  0.00  0.00     0.202 HD
ENDROOT
BRANCH   1  20
ATOM     20  C   LIG d   1       4.278  -0.215  -7.256  0.00  0.00     0.020 C 
ATOM     21  H   LIG d   1       5.282  -0.606  -7.424  0.00  0.00     0.037 H 
ATOM     22  H   LIG d   1       4.286   0.868  -7.373  0.00  0.00     0.037 H 
BRANCH  20  23
ATOM     23  C   LIG d   1       3.329  -0.822  -8.257  0.00  0.00    -0.038 A 
ATOM     24  C   LIG d   1       2.346  -0.041  -8.835  0.00  0.00    -0.055 A 
ATOM     25  C   LIG d   1       1.468  -0.595  -9.749  0.00  0.00    -0.016 A 
ATOM     26  H   LIG d   1       2.260   1.002  -8.569  0.00  0.00     0.062 H 
ATOM     27  C   LIG d   1       1.578  -1.932 -10.092  0.00  0.00     0.158 A 
ATOM     28  H   LIG d   1       0.699   0.016 -10.197  0.00  0.00     0.066 H 
ATOM     29  C   LIG d   1       2.571  -2.716  -9.514  0.00  0.00     0.159 A 
ATOM     30  C   LIG d   1       3.447  -2.156  -8.598  0.00  0.00    -0.013 A 
ATOM     31  H   LIG d   1       4.219  -2.762  -8.149  0.00  0.00     0.066 H 
BRANCH  27  32
ATOM     32  O   LIG d   1       0.715  -2.478 -10.991  0.00  0.00    -0.503 OA
ATOM     33  H   LIG d   1       0.064  -3.075 -10.599  0.00  0.00     0.292 HD
ENDBRANCH  27  32
BRANCH  29  34
ATOM     34  O   LIG d   1       2.683  -4.030  -9.847  0.00  0.00    -0.503 OA
ATOM     35  H   LIG d   1       3.467  -4.463  -9.482  0.00  0.00     0.292 HD
ENDBRANCH  29  34
ENDBRANCH  20  23
ENDBRANCH   1  20
BRANCH   5  36
ATOM     36  O   LIG d   1       7.782  -3.387  -5.645  0.00  0.00    -0.503 OA
ATOM     37  H   LIG d   1       8.632  -3.504  -5.198  0.00  0.00     0.292 HD
ENDBRANCH   5  36
BRANCH   6  38
ATOM     38  O   LIG d   1       8.242  -2.664  -3.024  0.00  0.00    -0.503 OA
ATOM     39  H   LIG d   1       8.531  -2.123  -2.277  0.00  0.00     0.292 HD
ENDBRANCH   6  38
TORSDOF 6
ENDMDL
MODEL 8
REMARK VINA RESULT:      -5.7      9.920     12.514
REMARK  6 active torsions:
REMARK  status: ('A' for Active; 'I' for Inactive)
REMARK    1  A    between atoms: C_3  and  O_21 
REMARK    2  A    between atoms: C_4  and  O_20 
REMARK    3  A    between atoms: C_6  and  C_7 
REMARK    4  A    between atoms: C_7  and  C_8 
REMARK    5  A    between atoms: C_12  and  O_19 
REMARK    6  A    between atoms: C_13  and  O_18 
ROOT
ATOM      1  C   LIG d   1      11.094   5.812  -4.970  0.00  0.00     0.008 C 
ATOM      2  H   LIG d   1      11.560   6.721  -5.351  0.00  0.00     0.091 H 
ATOM      3  C   LIG d   1      10.912   5.932  -3.480  0.00  0.00     0.007 A 
ATOM      4  C   LIG d   1       9.868   6.712  -3.005  0.00  0.00    -0.008 A 
ATOM      5  C   LIG d   1       9.663   6.855  -1.644  0.00  0.00     0.159 A 
ATOM      6  C   LIG d   1      10.512   6.212  -0.748  0.00  0.00     0.159 A 
ATOM      7  C   LIG d   1      11.551   5.436  -1.225  0.00  0.00    -0.013 A 
ATOM      8  C   LIG d   1      11.750   5.293  -2.591  0.00  0.00    -0.030 A 
ATOM      9  C   LIG d   1      12.894   4.432  -3.062  0.00  0.00     0.013 C 
ATOM     10  C   LIG d   1      13.201   4.727  -4.531  0.00  0.00    -0.029 C 
ATOM     11  H   LIG d   1       9.209   7.211  -3.701  0.00  0.00     0.066 H 
ATOM     12  H   LIG d   1      12.210   4.936  -0.532  0.00  0.00     0.066 H 
ATOM     13  H   LIG d   1      12.624   3.381  -2.954  0.00  0.00     0.036 H 
ATOM     14  H   LIG d   1      13.777   4.641  -2.459  0.00  0.00     0.036 H 
ATOM     15  H   LIG d   1      13.902   3.986  -4.915  0.00  0.00     0.082 H 
ATOM     16  H   LIG d   1      13.633   5.723  -4.624  0.00  0.00     0.082 H 
ATOM     17  N   LIG d   1      11.942   4.657  -5.296  0.00  0.00     0.233 N 
ATOM     18  H   LIG d   1      12.153   4.662  -6.301  0.00  0.00     0.202 HD
ATOM     19  H   LIG d   1      11.445   3.791  -5.056  0.00  0.00     0.202 HD
ENDROOT
BRANCH   1  20
ATOM     20  C   LIG d   1       9.726   5.631  -5.633  0.00  0.00     0.020 C 
ATOM     21  H   LIG d   1       8.946   5.976  -4.955  0.00  0.00     0.037 H 
ATOM     22  H   LIG d   1       9.569   4.577  -5.860  0.00  0.00     0.037 H 
BRANCH  20  23
ATOM     23  C   LIG d   1       9.675   6.433  -6.908  0.00  0.00    -0.038 A 
ATOM     24  C   LIG d   1       9.865   5.806  -8.125  0.00  0.00    -0.055 A 
ATOM     25  C   LIG d   1       9.825   6.539  -9.297  0.00  0.00    -0.016 A 
ATOM     26  H   LIG d   1      10.051   4.743  -8.160  0.00  0.00     0.062 H 
ATOM     27  C   LIG d   1       9.586   7.903  -9.253  0.00  0.00     0.158 A 
ATOM     28  H   LIG d   1       9.978   6.048 -10.246  0.00  0.00     0.066 H 
ATOM     29  C   LIG d   1       9.389   8.532  -8.028  0.00  0.00     0.159 A 
ATOM     30  C   LIG d   1       9.430   7.792  -6.858  0.00  0.00    -0.013 A 
ATOM     31  H   LIG d   1       9.277   8.279  -5.906  0.00  0.00     0.066 H 
BRANCH  27  32
ATOM     32  O   LIG d   1       9.546   8.625 -10.405  0.00  0.00    -0.503 OA
ATOM     33  H   LIG d   1       8.876   9.320 -10.410  0.00  0.00     0.292 HD
ENDBRANCH  27  32
BRANCH  29  34
ATOM     34  O   LIG d   1       9.153   9.871  -7.980  0.00  0.00    -0.503 OA
ATOM     35  H   LIG d   1       8.975  10.207  -7.090  0.00  0.00     0.292 HD
ENDBRANCH  29  34
ENDBRANCH  20  23
ENDBRANCH   1  20
BRANCH   5  36
ATOM     36  O   LIG d   1       8.637   7.620  -1.184  0.00  0.00    -0.503 OA
ATOM     37  H   LIG d   1       7.762   7.308  -1.453  0.00  0.00     0.292 HD
ENDBRANCH   5  36
BRANCH   6  38
ATOM     38  O   LIG d   1      10.320   6.348   0.592  0.00  0.00    -0.503 OA
ATOM     39  H   LIG d   1      10.658   5.608   1.115  0.00  0.00     0.292 HD
ENDBRANCH   6  38
TORSDOF 6
ENDMDL
MODEL 9
REMARK VINA RESULT:      -5.6      4.315      7.182
REMARK  6 active torsions:
REMARK  status: ('A' for Active; 'I' for Inactive)
REMARK    1  A    between atoms: C_3  and  O_21 
REMARK    2  A    between atoms: C_4  and  O_20 
REMARK    3  A    between atoms: C_6  and  C_7 
REMARK    4  A    between atoms: C_7  and  C_8 
REMARK    5  A    between atoms: C_12  and  O_19 
REMARK    6  A    between atoms: C_13  and  O_18 
ROOT
ATOM      1  C   LIG d   1       4.796  -2.145  -4.702  0.00  0.00     0.008 C 
ATOM      2  H   LIG d   1       5.281  -3.063  -4.367  0.00  0.00     0.091 H 
ATOM      3  C   LIG d   1       5.665  -0.966  -4.354  0.00  0.00     0.007 A 
ATOM      4  C   LIG d   1       6.776  -0.711  -5.145  0.00  0.00    -0.008 A 
ATOM      5  C   LIG d   1       7.607   0.359  -4.863  0.00  0.00     0.159 A 
ATOM      6  C   LIG d   1       7.324   1.184  -3.777  0.00  0.00     0.159 A 
ATOM      7  C   LIG d   1       6.216   0.926  -2.992  0.00  0.00    -0.013 A 
ATOM      8  C   LIG d   1       5.385  -0.147  -3.281  0.00  0.00    -0.030 A 
ATOM      9  C   LIG d   1       4.186  -0.382  -2.399  0.00  0.00     0.013 C 
ATOM     10  C   LIG d   1       3.653  -1.800  -2.609  0.00  0.00    -0.029 C 
ATOM     11  H   LIG d   1       6.995  -1.352  -5.987  0.00  0.00     0.066 H 
ATOM     12  H   LIG d   1       5.994   1.565  -2.150  0.00  0.00     0.066 H 
ATOM     13  H   LIG d   1       3.406   0.337  -2.648  0.00  0.00     0.036 H 
ATOM     14  H   LIG d   1       4.473  -0.254  -1.355  0.00  0.00     0.036 H 
ATOM     15  H   LIG d   1       2.691  -1.907  -2.107  0.00  0.00     0.082 H 
ATOM     16  H   LIG d   1       4.359  -2.523  -2.203  0.00  0.00     0.082 H 
ATOM     17  N   LIG d   1       3.482  -2.027  -4.056  0.00  0.00     0.233 N 
ATOM     18  H   LIG d   1       2.950  -2.893  -4.204  0.00  0.00     0.202 HD
ATOM     19  H   LIG d   1       2.970  -1.238  -4.466  0.00  0.00     0.202 HD
ENDROOT
BRANCH   1  20
ATOM     20  C   LIG d   1       4.604  -2.202  -6.219  0.00  0.00     0.020 C 
ATOM     21  H   LIG d   1       5.485  -1.790  -6.712  0.00  0.00     0.037 H 
ATOM     22  H   LIG d   1       3.727  -1.618  -6.496  0.00  0.00     0.037 H 
BRANCH  20  23
ATOM     23  C   LIG d   1       4.411  -3.633  -6.649  0.00  0.00    -0.038 A 
ATOM     24  C   LIG d   1       4.017  -3.917  -7.944  0.00  0.00    -0.055 A 
ATOM     25  C   LIG d   1       3.833  -5.229  -8.341  0.00  0.00    -0.016 A 
ATOM     26  H   LIG d   1       3.849  -3.113  -8.643  0.00  0.00     0.062 H 
ATOM     27  C   LIG d   1       4.050  -6.261  -7.443  0.00  0.00     0.158 A 
ATOM     28  H   LIG d   1       3.522  -5.448  -9.351  0.00  0.00     0.066 H 
ATOM     29  C   LIG d   1       4.452  -5.975  -6.143  0.00  0.00     0.159 A 
ATOM     30  C   LIG d   1       4.635  -4.659  -5.751  0.00  0.00    -0.013 A 
ATOM     31  H   LIG d   1       4.947  -4.435  -4.741  0.00  0.00     0.066 H 
BRANCH  27  32
ATOM     32  O   LIG d   1       3.869  -7.552  -7.834  0.00  0.00    -0.503 OA
ATOM     33  H   LIG d   1       3.926  -7.685  -8.789  0.00  0.00     0.292 HD
ENDBRANCH  27  32
BRANCH  29  34
ATOM     34  O   LIG d   1       4.667  -6.986  -5.258  0.00  0.00    -0.503 OA
ATOM     35  H   LIG d   1       4.465  -7.865  -5.608  0.00  0.00     0.292 HD
ENDBRANCH  29  34
ENDBRANCH  20  23
ENDBRANCH   1  20
BRANCH   5  36
ATOM     36  O   LIG d   1       8.694   0.605  -5.641  0.00  0.00    -0.503 OA
ATOM     37  H   LIG d   1       9.153  -0.193  -5.938  0.00  0.00     0.292 HD
ENDBRANCH   5  36
BRANCH   6  38
ATOM     38  O   LIG d   1       8.135   2.237  -3.490  0.00  0.00    -0.503 OA
ATOM     39  H   LIG d   1       9.060   1.995  -3.354  0.00  0.00     0.292 HD
ENDBRANCH   6  38
TORSDOF 6
ENDMDL
MODEL 10
REMARK VINA RESULT:      -5.6      5.196      7.893
REMARK  6 active torsions:
REMARK  status: ('A' for Active; 'I' for Inactive)
REMARK    1  A    between atoms: C_3  and  O_21 
REMARK    2  A    between atoms: C_4  and  O_20 
REMARK    3  A    between atoms: C_6  and  C_7 
REMARK    4  A    between atoms: C_7  and  C_8 
REMARK    5  A    between atoms: C_12  and  O_19 
REMARK    6  A    between atoms: C_13  and  O_18 
ROOT
ATOM      1  C   LIG d   1       7.740   1.611  -4.973  0.00  0.00     0.008 C 
ATOM      2  H   LIG d   1       6.825   2.203  -4.973  0.00  0.00     0.091 H 
ATOM      3  C   LIG d   1       8.920   2.518  -4.741  0.00  0.00     0.007 A 
ATOM      4  C   LIG d   1       9.163   2.964  -3.450  0.00  0.00    -0.008 A 
ATOM      5  C   LIG d   1      10.234   3.801  -3.188  0.00  0.00     0.159 A 
ATOM      6  C   LIG d   1      11.069   4.198  -4.228  0.00  0.00     0.159 A 
ATOM      7  C   LIG d   1      10.823   3.751  -5.512  0.00  0.00    -0.013 A 
ATOM      8  C   LIG d   1       9.750   2.909  -5.769  0.00  0.00    -0.030 A 
ATOM      9  C   LIG d   1       9.528   2.444  -7.186  0.00  0.00     0.013 C 
ATOM     10  C   LIG d   1       8.110   1.892  -7.338  0.00  0.00    -0.029 C 
ATOM     11  H   LIG d   1       8.514   2.656  -2.644  0.00  0.00     0.066 H 
ATOM     12  H   LIG d   1      11.471   4.057  -6.321  0.00  0.00     0.066 H 
ATOM     13  H   LIG d   1      10.248   1.662  -7.428  0.00  0.00     0.036 H 
ATOM     14  H   LIG d   1       9.665   3.283  -7.868  0.00  0.00     0.036 H 
ATOM     15  H   LIG d   1       8.010   1.399  -8.305  0.00  0.00     0.082 H 
ATOM     16  H   LIG d   1       7.388   2.705  -7.266  0.00  0.00     0.082 H 
ATOM     17  N   LIG d   1       7.869   0.915  -6.260  0.00  0.00     0.233 N 
ATOM     18  H   LIG d   1       7.003   0.398  -6.456  0.00  0.00     0.202 HD
ATOM     19  H   LIG d   1       8.656   0.257  -6.214  0.00  0.00     0.202 HD
ENDROOT
BRANCH   1  20
ATOM     20  C   LIG d   1       7.670   0.576  -3.849  0.00  0.00     0.020 C 
ATOM     21  H   LIG d   1       8.128   0.986  -2.948  0.00  0.00     0.037 H 
ATOM     22  H   LIG d   1       8.204  -0.325  -4.150  0.00  0.00     0.037 H 
BRANCH  20  23
ATOM     23  C   LIG d   1       6.229   0.234  -3.568  0.00  0.00    -0.038 A 
ATOM     24  C   LIG d   1       5.468   1.063  -2.766  0.00  0.00    -0.055 A 
ATOM     25  C   LIG d   1       4.147   0.750  -2.501  0.00  0.00    -0.016 A 
ATOM     26  H   LIG d   1       5.906   1.953  -2.342  0.00  0.00     0.062 H 
ATOM     27  C   LIG d   1       3.582  -0.391  -3.046  0.00  0.00     0.158 A 
ATOM     28  H   LIG d   1       3.555   1.397  -1.871  0.00  0.00     0.066 H 
ATOM     29  C   LIG d   1       4.348  -1.222  -3.858  0.00  0.00     0.159 A 
ATOM     30  C   LIG d   1       5.670  -0.904  -4.120  0.00  0.00    -0.013 A 
ATOM     31  H   LIG d   1       6.266  -1.547  -4.750  0.00  0.00     0.066 H 
BRANCH  27  32
ATOM     32  O   LIG d   1       2.283  -0.700  -2.785  0.00  0.00    -0.503 OA
ATOM     33  H   LIG d   1       2.029  -1.592  -3.056  0.00  0.00     0.292 HD
ENDBRANCH  27  32
BRANCH  29  34
ATOM     34  O   LIG d   1       3.798  -2.344  -4.396  0.00  0.00    -0.503 OA
ATOM     35  H   LIG d   1       3.643  -3.052  -3.755  0.00  0.00     0.292 HD
ENDBRANCH  29  34
ENDBRANCH  20  23
ENDBRANCH   1  20
BRANCH   5  36
ATOM     36  O   LIG d   1      10.468   4.235  -1.921  0.00  0.00    -0.503 OA
ATOM     37  H   LIG d   1       9.950   3.774  -1.246  0.00  0.00     0.292 HD
ENDBRANCH   5  36
BRANCH   6  38
ATOM     38  O   LIG d   1      12.123   5.022  -3.981  0.00  0.00    -0.503 OA
ATOM     39  H   LIG d   1      12.975   4.670  -4.273  0.00  0.00     0.292 HD
ENDBRANCH   6  38
TORSDOF 6
ENDMDL
