MODEL 1
REMARK VINA RESULT:      -6.0      0.000      0.000
REMARK  14 active torsions:
REMARK  status: ('A' for Active; 'I' for Inactive)
REMARK    1  A    between atoms: C_1  and  C_2 
REMARK    2  A    between atoms: C_2  and  C_4 
REMARK    3  A    between atoms: C_8  and  C_40 
REMARK    4  A    between atoms: C_17  and  C_39 
REMARK    5  A    between atoms: C_20  and  O_35 
REMARK    6  A    between atoms: C_22  and  C_33 
REMARK    7  A    between atoms: C_22  and  C_34 
REMARK    8  A    between atoms: C_27  and  C_32 
REMARK    9  A    between atoms: C_28  and  C_31 
REMARK   10  A    between atoms: O_35  and  C_36 
REMARK   11  A    between atoms: C_36  and  C_38 
REMARK   12  A    between atoms: C_40  and  O_41 
REMARK   13  A    between atoms: O_41  and  C_42 
REMARK   14  A    between atoms: C_42  and  C_44 
ROOT
ATOM      1  C   LIG d   1       3.964   0.262  -4.518  0.00  0.00     0.021 C 
ATOM      2  H   LIG d   1       4.832   0.907  -4.421  0.00  0.00     0.038 H 
ATOM      3  C   LIG d   1       2.896   0.912  -5.437  0.00  0.00    -0.043 C 
ATOM      4  C   LIG d   1       2.684  -0.085  -6.612  0.00  0.00    -0.043 C 
ATOM      5  C   LIG d   1       4.064  -0.761  -6.699  0.00  0.00     0.009 C 
ATOM      6  C   LIG d   1       4.336  -1.052  -5.201  0.00  0.00    -0.019 C 
ATOM      7  H   LIG d   1       3.633  -1.815  -4.851  0.00  0.00     0.032 H 
ATOM      8  C   LIG d   1       5.757  -1.542  -5.051  0.00  0.00    -0.031 C 
ATOM      9  H   LIG d   1       6.435  -0.773  -5.439  0.00  0.00     0.031 H 
ATOM     10  C   LIG d   1       6.125  -1.761  -3.584  0.00  0.00    -0.049 C 
ATOM     11  C   LIG d   1       7.566  -2.269  -3.465  0.00  0.00    -0.049 C 
ATOM     12  C   LIG d   1       7.733  -3.545  -4.283  0.00  0.00    -0.029 C 
ATOM     13  H   LIG d   1       7.010  -4.281  -3.863  0.00  0.00     0.031 H 
ATOM     14  C   LIG d   1       9.100  -4.195  -4.050  0.00  0.00    -0.025 C 
ATOM     15  C   LIG d   1       9.168  -4.623  -2.571  0.00  0.00    -0.044 C 
ATOM     16  C   LIG d   1      10.487  -5.343  -2.312  0.00  0.00    -0.015 C 
ATOM     17  C   LIG d   1      10.581  -6.612  -3.147  0.00  0.00     0.108 C 
ATOM     18  H   LIG d   1       9.823  -7.325  -2.803  0.00  0.00     0.074 H 
ATOM     19  C   LIG d   1      10.371  -6.352  -4.637  0.00  0.00     0.005 C 
ATOM     20  C   LIG d   1       9.185  -5.454  -4.903  0.00  0.00    -0.027 C 
ATOM     21  H   LIG d   1       8.276  -6.057  -4.635  0.00  0.00     0.031 H 
ATOM     22  C   LIG d   1       9.014  -5.106  -6.380  0.00  0.00    -0.049 C 
ATOM     23  C   LIG d   1       7.584  -4.575  -6.573  0.00  0.00    -0.047 C 
ATOM     24  C   LIG d   1       7.384  -3.308  -5.743  0.00  0.00    -0.023 C 
ATOM     25  C   LIG d   1       5.918  -2.848  -5.840  0.00  0.00    -0.023 C 
ATOM     26  C   LIG d   1       5.504  -2.688  -7.298  0.00  0.00    -0.046 C 
ATOM     27  C   LIG d   1       4.103  -2.076  -7.446  0.00  0.00    -0.043 C 
ATOM     28  H   LIG d   1       1.964   1.045  -4.889  0.00  0.00     0.027 H 
ATOM     29  H   LIG d   1       3.252   1.869  -5.810  0.00  0.00     0.027 H 
ATOM     30  H   LIG d   1       1.914  -0.813  -6.372  0.00  0.00     0.027 H 
ATOM     31  H   LIG d   1       2.459   0.445  -7.535  0.00  0.00     0.027 H 
ATOM     32  H   LIG d   1       6.061  -0.801  -3.057  0.00  0.00     0.027 H 
ATOM     33  H   LIG d   1       5.445  -2.460  -3.109  0.00  0.00     0.027 H 
ATOM     34  H   LIG d   1       8.246  -1.490  -3.798  0.00  0.00     0.027 H 
ATOM     35  H   LIG d   1       7.770  -2.484  -2.412  0.00  0.00     0.027 H 
ATOM     36  H   LIG d   1       9.103  -3.737  -1.942  0.00  0.00     0.027 H 
ATOM     37  H   LIG d   1       8.333  -5.288  -2.358  0.00  0.00     0.027 H 
ATOM     38  H   LIG d   1      11.337  -4.694  -2.503  0.00  0.00     0.030 H 
ATOM     39  H   LIG d   1      10.524  -5.622  -1.247  0.00  0.00     0.030 H 
ATOM     40  H   LIG d   1       9.736  -4.368  -6.700  0.00  0.00     0.027 H 
ATOM     41  H   LIG d   1       9.126  -6.000  -6.996  0.00  0.00     0.027 H 
ATOM     42  H   LIG d   1       7.438  -4.346  -7.630  0.00  0.00     0.027 H 
ATOM     43  H   LIG d   1       6.888  -5.353  -6.270  0.00  0.00     0.027 H 
ATOM     44  H   LIG d   1       6.220  -2.093  -7.852  0.00  0.00     0.027 H 
ATOM     45  H   LIG d   1       5.482  -3.690  -7.753  0.00  0.00     0.027 H 
ATOM     46  H   LIG d   1       3.346  -2.755  -7.053  0.00  0.00     0.027 H 
ATOM     47  H   LIG d   1       3.896  -1.899  -8.507  0.00  0.00     0.027 H 
ENDROOT
BRANCH   5  48
ATOM     48  C   LIG d   1       5.066   0.232  -7.288  0.00  0.00     0.098 C 
ATOM     49  H   LIG d   1       5.006   1.175  -6.746  0.00  0.00     0.070 H 
ATOM     50  H   LIG d   1       6.075  -0.173  -7.201  0.00  0.00     0.070 H 
BRANCH  48  51
ATOM     51  O   LIG d   1       4.761   0.455  -8.667  0.00  0.00    -0.464 OA
BRANCH  51  52
ATOM     52  C   LIG d   1       4.807   1.723  -9.104  0.00  0.00     0.304 C 
ATOM     53  O   LIG d   1       5.861   2.210  -9.437  0.00  0.00    -0.251 OA
BRANCH  52  54
ATOM     54  C   LIG d   1       3.543   2.540  -9.179  0.00  0.00     0.033 C 
ATOM     55  H   LIG d   1       3.076   2.399 -10.154  0.00  0.00     0.034 H 
ATOM     56  H   LIG d   1       2.856   2.218  -8.397  0.00  0.00     0.034 H 
ATOM     57  H   LIG d   1       3.784   3.595  -9.041  0.00  0.00     0.034 H 
ENDBRANCH  52  54
ENDBRANCH  51  52
ENDBRANCH  48  51
ENDBRANCH   5  48
BRANCH   1  58
ATOM     58  C   LIG d   1       3.356  -0.009  -3.163  0.00  0.00     0.134 C 
ATOM     59  O   LIG d   1       2.419  -0.765  -3.062  0.00  0.00    -0.297 OA
BRANCH  58  60
ATOM     60  C   LIG d   1       3.918   0.663  -1.937  0.00  0.00    -0.006 C 
ATOM     61  H   LIG d   1       3.109   0.880  -1.239  0.00  0.00     0.031 H 
ATOM     62  H   LIG d   1       4.642   0.003  -1.460  0.00  0.00     0.031 H 
ATOM     63  H   LIG d   1       4.408   1.593  -2.225  0.00  0.00     0.031 H 
ENDBRANCH  58  60
ENDBRANCH   1  58
BRANCH  25  64
ATOM     64  C   LIG d   1       5.013  -3.928  -5.233  0.00  0.00    -0.059 C 
ATOM     65  H   LIG d   1       4.103  -3.467  -4.850  0.00  0.00     0.024 H 
ATOM     66  H   LIG d   1       4.756  -4.659  -6.000  0.00  0.00     0.024 H 
ATOM     67  H   LIG d   1       5.539  -4.427  -4.419  0.00  0.00     0.024 H 
ENDBRANCH  25  64
BRANCH  24  68
ATOM     68  C   LIG d   1       8.253  -2.200  -6.362  0.00  0.00    -0.059 C 
ATOM     69  H   LIG d   1       9.099  -1.995  -5.707  0.00  0.00     0.024 H 
ATOM     70  H   LIG d   1       8.616  -2.525  -7.336  0.00  0.00     0.024 H 
ATOM     71  H   LIG d   1       7.657  -1.295  -6.480  0.00  0.00     0.024 H 
ENDBRANCH  24  68
BRANCH  14  72
ATOM     72  C   LIG d   1      10.236  -3.215  -4.304  0.00  0.00    -0.059 C 
ATOM     73  H   LIG d   1      11.059  -3.427  -3.622  0.00  0.00     0.024 H 
ATOM     74  H   LIG d   1      10.581  -3.317  -5.333  0.00  0.00     0.024 H 
ATOM     75  H   LIG d   1       9.882  -2.197  -4.140  0.00  0.00     0.024 H 
ENDBRANCH  14  72
BRANCH  19  76
ATOM     76  C   LIG d   1      11.664  -5.830  -5.264  0.00  0.00    -0.056 C 
ATOM     77  H   LIG d   1      11.446  -4.944  -5.861  0.00  0.00     0.024 H 
ATOM     78  H   LIG d   1      12.372  -5.571  -4.476  0.00  0.00     0.024 H 
ATOM     79  H   LIG d   1      12.096  -6.602  -5.902  0.00  0.00     0.024 H 
ENDBRANCH  19  76
BRANCH  19  80
ATOM     80  C   LIG d   1      10.085  -7.732  -5.281  0.00  0.00    -0.056 C 
ATOM     81  H   LIG d   1       9.887  -7.602  -6.345  0.00  0.00     0.024 H 
ATOM     82  H   LIG d   1      10.950  -8.381  -5.148  0.00  0.00     0.024 H 
ATOM     83  H   LIG d   1       9.216  -8.183  -4.803  0.00  0.00     0.024 H 
ENDBRANCH  19  80
BRANCH  17  84
ATOM     84  O   LIG d   1      11.871  -7.207  -2.957  0.00  0.00    -0.461 OA
BRANCH  84  85
ATOM     85  C   LIG d   1      12.015  -8.028  -1.904  0.00  0.00     0.304 C 
ATOM     86  O   LIG d   1      13.007  -7.960  -1.216  0.00  0.00    -0.251 OA
BRANCH  85  87
ATOM     87  C   LIG d   1      10.940  -9.034  -1.579  0.00  0.00     0.033 C 
ATOM     88  H   LIG d   1      11.356 -10.040  -1.633  0.00  0.00     0.034 H 
ATOM     89  H   LIG d   1      10.562  -8.850  -0.574  0.00  0.00     0.034 H 
ATOM     90  H   LIG d   1      10.126  -8.939  -2.298  0.00  0.00     0.034 H 
ENDBRANCH  85  87
ENDBRANCH  84  85
ENDBRANCH  17  84
TORSDOF 14
ENDMDL
MODEL 2
REMARK VINA RESULT:      -5.3      4.638      9.228
REMARK  14 active torsions:
REMARK  status: ('A' for Active; 'I' for Inactive)
REMARK    1  A    between atoms: C_1  and  C_2 
REMARK    2  A    between atoms: C_2  and  C_4 
REMARK    3  A    between atoms: C_8  and  C_40 
REMARK    4  A    between atoms: C_17  and  C_39 
REMARK    5  A    between atoms: C_20  and  O_35 
REMARK    6  A    between atoms: C_22  and  C_33 
REMARK    7  A    between atoms: C_22  and  C_34 
REMARK    8  A    between atoms: C_27  and  C_32 
REMARK    9  A    between atoms: C_28  and  C_31 
REMARK   10  A    between atoms: O_35  and  C_36 
REMARK   11  A    between atoms: C_36  and  C_38 
REMARK   12  A    between atoms: C_40  and  O_41 
REMARK   13  A    between atoms: O_41  and  C_42 
REMARK   14  A    between atoms: C_42  and  C_44 
ROOT
ATOM      1  C   LIG d   1       7.886   1.122  -5.611  0.00  0.00     0.021 C 
ATOM      2  H   LIG d   1       7.273   2.002  -5.778  0.00  0.00     0.038 H 
ATOM      3  C   LIG d   1       8.189   0.942  -4.100  0.00  0.00    -0.043 C 
ATOM      4  C   LIG d   1       7.616  -0.451  -3.714  0.00  0.00    -0.043 C 
ATOM      5  C   LIG d   1       6.451  -0.595  -4.710  0.00  0.00     0.009 C 
ATOM      6  C   LIG d   1       7.140  -0.146  -6.024  0.00  0.00    -0.019 C 
ATOM      7  H   LIG d   1       7.892  -0.891  -6.307  0.00  0.00     0.032 H 
ATOM      8  C   LIG d   1       6.093  -0.022  -7.105  0.00  0.00    -0.031 C 
ATOM      9  H   LIG d   1       5.339   0.704  -6.781  0.00  0.00     0.031 H 
ATOM     10  C   LIG d   1       6.689   0.508  -8.408  0.00  0.00    -0.049 C 
ATOM     11  C   LIG d   1       5.606   0.611  -9.488  0.00  0.00    -0.049 C 
ATOM     12  C   LIG d   1       4.943  -0.748  -9.686  0.00  0.00    -0.029 C 
ATOM     13  H   LIG d   1       5.753  -1.448  -9.992  0.00  0.00     0.031 H 
ATOM     14  C   LIG d   1       3.984  -0.745 -10.880  0.00  0.00    -0.025 C 
ATOM     15  C   LIG d   1       4.821  -0.488 -12.149  0.00  0.00    -0.044 C 
ATOM     16  C   LIG d   1       3.915  -0.551 -13.373  0.00  0.00    -0.015 C 
ATOM     17  C   LIG d   1       3.299  -1.935 -13.518  0.00  0.00     0.108 C 
ATOM     18  H   LIG d   1       4.090  -2.659 -13.743  0.00  0.00     0.074 H 
ATOM     19  C   LIG d   1       2.564  -2.386 -12.258  0.00  0.00     0.005 C 
ATOM     20  C   LIG d   1       3.365  -2.131 -11.003  0.00  0.00    -0.027 C 
ATOM     21  H   LIG d   1       4.233  -2.842 -11.041  0.00  0.00     0.031 H 
ATOM     22  C   LIG d   1       2.610  -2.489  -9.725  0.00  0.00    -0.049 C 
ATOM     23  C   LIG d   1       3.640  -2.599  -8.588  0.00  0.00    -0.047 C 
ATOM     24  C   LIG d   1       4.336  -1.253  -8.386  0.00  0.00    -0.023 C 
ATOM     25  C   LIG d   1       5.451  -1.396  -7.334  0.00  0.00    -0.023 C 
ATOM     26  C   LIG d   1       4.895  -1.990  -6.045  0.00  0.00    -0.046 C 
ATOM     27  C   LIG d   1       5.931  -2.002  -4.911  0.00  0.00    -0.043 C 
ATOM     28  H   LIG d   1       9.265   0.962  -3.930  0.00  0.00     0.027 H 
ATOM     29  H   LIG d   1       7.705   1.726  -3.522  0.00  0.00     0.027 H 
ATOM     30  H   LIG d   1       8.353  -1.234  -3.870  0.00  0.00     0.027 H 
ATOM     31  H   LIG d   1       7.246  -0.450  -2.691  0.00  0.00     0.027 H 
ATOM     32  H   LIG d   1       7.086   1.516  -8.231  0.00  0.00     0.027 H 
ATOM     33  H   LIG d   1       7.500  -0.124  -8.755  0.00  0.00     0.027 H 
ATOM     34  H   LIG d   1       4.885   1.369  -9.197  0.00  0.00     0.027 H 
ATOM     35  H   LIG d   1       6.081   0.922 -10.424  0.00  0.00     0.027 H 
ATOM     36  H   LIG d   1       5.278   0.497 -12.080  0.00  0.00     0.027 H 
ATOM     37  H   LIG d   1       5.595  -1.250 -12.220  0.00  0.00     0.027 H 
ATOM     38  H   LIG d   1       3.141   0.211 -13.334  0.00  0.00     0.030 H 
ATOM     39  H   LIG d   1       4.526  -0.345 -14.267  0.00  0.00     0.030 H 
ATOM     40  H   LIG d   1       1.861  -1.746  -9.484  0.00  0.00     0.027 H 
ATOM     41  H   LIG d   1       2.123  -3.459  -9.831  0.00  0.00     0.027 H 
ATOM     42  H   LIG d   1       3.118  -2.879  -7.671  0.00  0.00     0.027 H 
ATOM     43  H   LIG d   1       4.356  -3.373  -8.851  0.00  0.00     0.027 H 
ATOM     44  H   LIG d   1       4.005  -1.465  -5.718  0.00  0.00     0.027 H 
ATOM     45  H   LIG d   1       4.610  -3.032  -6.250  0.00  0.00     0.027 H 
ATOM     46  H   LIG d   1       6.753  -2.676  -5.152  0.00  0.00     0.027 H 
ATOM     47  H   LIG d   1       5.453  -2.349  -3.989  0.00  0.00     0.027 H 
ENDROOT
BRANCH   5  48
ATOM     48  C   LIG d   1       5.323   0.350  -4.295  0.00  0.00     0.098 C 
ATOM     49  H   LIG d   1       5.658   1.382  -4.395  0.00  0.00     0.070 H 
ATOM     50  H   LIG d   1       4.456   0.186  -4.935  0.00  0.00     0.070 H 
BRANCH  48  51
ATOM     51  O   LIG d   1       4.965   0.094  -2.935  0.00  0.00    -0.464 OA
BRANCH  51  52
ATOM     52  C   LIG d   1       3.675   0.259  -2.603  0.00  0.00     0.304 C 
ATOM     53  O   LIG d   1       3.328   1.245  -1.997  0.00  0.00    -0.251 OA
BRANCH  52  54
ATOM     54  C   LIG d   1       2.659  -0.785  -2.985  0.00  0.00     0.033 C 
ATOM     55  H   LIG d   1       2.230  -1.222  -2.083  0.00  0.00     0.034 H 
ATOM     56  H   LIG d   1       1.869  -0.324  -3.577  0.00  0.00     0.034 H 
ATOM     57  H   LIG d   1       3.144  -1.567  -3.572  0.00  0.00     0.034 H 
ENDBRANCH  52  54
ENDBRANCH  51  52
ENDBRANCH  48  51
ENDBRANCH   5  48
BRANCH   1  58
ATOM     58  C   LIG d   1       9.186   1.232  -6.370  0.00  0.00     0.134 C 
ATOM     59  O   LIG d   1       9.585   2.315  -6.728  0.00  0.00    -0.297 OA
BRANCH  58  60
ATOM     60  C   LIG d   1       9.984  -0.007  -6.681  0.00  0.00    -0.006 C 
ATOM     61  H   LIG d   1      10.738   0.226  -7.433  0.00  0.00     0.031 H 
ATOM     62  H   LIG d   1      10.473  -0.362  -5.775  0.00  0.00     0.031 H 
ATOM     63  H   LIG d   1       9.319  -0.782  -7.062  0.00  0.00     0.031 H 
ENDBRANCH  58  60
ENDBRANCH   1  58
BRANCH  25  64
ATOM     64  C   LIG d   1       6.511  -2.376  -7.857  0.00  0.00    -0.059 C 
ATOM     65  H   LIG d   1       6.044  -3.084  -8.542  0.00  0.00     0.024 H 
ATOM     66  H   LIG d   1       7.290  -1.822  -8.381  0.00  0.00     0.024 H 
ATOM     67  H   LIG d   1       6.951  -2.916  -7.019  0.00  0.00     0.024 H 
ENDBRANCH  25  64
BRANCH  24  68
ATOM     68  C   LIG d   1       3.300  -0.267  -7.823  0.00  0.00    -0.059 C 
ATOM     69  H   LIG d   1       2.304  -0.704  -7.900  0.00  0.00     0.024 H 
ATOM     70  H   LIG d   1       3.526  -0.060  -6.777  0.00  0.00     0.024 H 
ATOM     71  H   LIG d   1       3.334   0.661  -8.392  0.00  0.00     0.024 H 
ENDBRANCH  24  68
BRANCH  14  72
ATOM     72  C   LIG d   1       2.954   0.370 -10.768  0.00  0.00    -0.059 C 
ATOM     73  H   LIG d   1       2.068  -0.004 -10.256  0.00  0.00     0.024 H 
ATOM     74  H   LIG d   1       3.378   1.200 -10.203  0.00  0.00     0.024 H 
ATOM     75  H   LIG d   1       2.681   0.713 -11.766  0.00  0.00     0.024 H 
ENDBRANCH  14  72
BRANCH  19  76
ATOM     76  C   LIG d   1       1.171  -1.759 -12.212  0.00  0.00    -0.056 C 
ATOM     77  H   LIG d   1       1.159  -0.854 -12.820  0.00  0.00     0.024 H 
ATOM     78  H   LIG d   1       0.439  -2.467 -12.602  0.00  0.00     0.024 H 
ATOM     79  H   LIG d   1       0.919  -1.507 -11.181  0.00  0.00     0.024 H 
ENDBRANCH  19  76
BRANCH  19  80
ATOM     80  C   LIG d   1       2.363  -3.916 -12.399  0.00  0.00    -0.056 C 
ATOM     81  H   LIG d   1       1.577  -4.243 -11.718  0.00  0.00     0.024 H 
ATOM     82  H   LIG d   1       2.077  -4.152 -13.424  0.00  0.00     0.024 H 
ATOM     83  H   LIG d   1       3.292  -4.429 -12.153  0.00  0.00     0.024 H 
ENDBRANCH  19  80
BRANCH  17  84
ATOM     84  O   LIG d   1       2.376  -1.928 -14.616  0.00  0.00    -0.461 OA
BRANCH  84  85
ATOM     85  C   LIG d   1       2.894  -2.047 -15.849  0.00  0.00     0.304 C 
ATOM     86  O   LIG d   1       2.558  -1.283 -16.722  0.00  0.00    -0.251 OA
BRANCH  85  87
ATOM     87  C   LIG d   1       3.896  -3.135 -16.144  0.00  0.00     0.033 C 
ATOM     88  H   LIG d   1       3.897  -3.348 -17.213  0.00  0.00     0.034 H 
ATOM     89  H   LIG d   1       4.889  -2.806 -15.838  0.00  0.00     0.034 H 
ATOM     90  H   LIG d   1       3.626  -4.036 -15.594  0.00  0.00     0.034 H 
ENDBRANCH  85  87
ENDBRANCH  84  85
ENDBRANCH  17  84
TORSDOF 14
ENDMDL
MODEL 3
REMARK VINA RESULT:      -5.3      5.231      8.798
REMARK  14 active torsions:
REMARK  status: ('A' for Active; 'I' for Inactive)
REMARK    1  A    between atoms: C_1  and  C_2 
REMARK    2  A    between atoms: C_2  and  C_4 
REMARK    3  A    between atoms: C_8  and  C_40 
REMARK    4  A    between atoms: C_17  and  C_39 
REMARK    5  A    between atoms: C_20  and  O_35 
REMARK    6  A    between atoms: C_22  and  C_33 
REMARK    7  A    between atoms: C_22  and  C_34 
REMARK    8  A    between atoms: C_27  and  C_32 
REMARK    9  A    between atoms: C_28  and  C_31 
REMARK   10  A    between atoms: O_35  and  C_36 
REMARK   11  A    between atoms: C_36  and  C_38 
REMARK   12  A    between atoms: C_40  and  O_41 
REMARK   13  A    between atoms: O_41  and  C_42 
REMARK   14  A    between atoms: C_42  and  C_44 
ROOT
ATOM      1  C   LIG d   1       0.321  -2.005 -13.974  0.00  0.00     0.021 C 
ATOM      2  H   LIG d   1       0.673  -0.991 -14.135  0.00  0.00     0.038 H 
ATOM      3  C   LIG d   1       0.364  -2.818 -15.295  0.00  0.00    -0.043 C 
ATOM      4  C   LIG d   1       1.304  -4.026 -15.020  0.00  0.00    -0.043 C 
ATOM      5  C   LIG d   1       2.257  -3.444 -13.961  0.00  0.00     0.009 C 
ATOM      6  C   LIG d   1       1.244  -2.753 -13.013  0.00  0.00    -0.019 C 
ATOM      7  H   LIG d   1       0.644  -3.519 -12.510  0.00  0.00     0.032 H 
ATOM      8  C   LIG d   1       2.007  -1.936 -11.997  0.00  0.00    -0.031 C 
ATOM      9  H   LIG d   1       2.623  -1.203 -12.529  0.00  0.00     0.031 H 
ATOM     10  C   LIG d   1       1.067  -1.151 -11.084  0.00  0.00    -0.049 C 
ATOM     11  C   LIG d   1       1.870  -0.344 -10.058  0.00  0.00    -0.049 C 
ATOM     12  C   LIG d   1       2.777  -1.276  -9.262  0.00  0.00    -0.029 C 
ATOM     13  H   LIG d   1       2.105  -2.010  -8.762  0.00  0.00     0.031 H 
ATOM     14  C   LIG d   1       3.462  -0.549  -8.101  0.00  0.00    -0.025 C 
ATOM     15  C   LIG d   1       2.361  -0.086  -7.126  0.00  0.00    -0.044 C 
ATOM     16  C   LIG d   1       3.006   0.579  -5.915  0.00  0.00    -0.015 C 
ATOM     17  C   LIG d   1       3.882  -0.410  -5.160  0.00  0.00     0.108 C 
ATOM     18  H   LIG d   1       3.250  -1.190  -4.722  0.00  0.00     0.074 H 
ATOM     19  C   LIG d   1       4.929  -1.070  -6.055  0.00  0.00     0.005 C 
ATOM     20  C   LIG d   1       4.347  -1.547  -7.365  0.00  0.00    -0.027 C 
ATOM     21  H   LIG d   1       3.674  -2.408  -7.108  0.00  0.00     0.031 H 
ATOM     22  C   LIG d   1       5.394  -2.126  -8.313  0.00  0.00    -0.049 C 
ATOM     23  C   LIG d   1       4.655  -2.945  -9.383  0.00  0.00    -0.047 C 
ATOM     24  C   LIG d   1       3.721  -2.036 -10.180  0.00  0.00    -0.023 C 
ATOM     25  C   LIG d   1       2.891  -2.877 -11.167  0.00  0.00    -0.023 C 
ATOM     26  C   LIG d   1       3.805  -3.725 -12.045  0.00  0.00    -0.046 C 
ATOM     27  C   LIG d   1       3.037  -4.459 -13.154  0.00  0.00    -0.043 C 
ATOM     28  H   LIG d   1      -0.635  -3.173 -15.546  0.00  0.00     0.027 H 
ATOM     29  H   LIG d   1       0.757  -2.205 -16.102  0.00  0.00     0.027 H 
ATOM     30  H   LIG d   1       0.749  -4.869 -14.616  0.00  0.00     0.027 H 
ATOM     31  H   LIG d   1       1.852  -4.303 -15.918  0.00  0.00     0.027 H 
ATOM     32  H   LIG d   1       0.492  -0.443 -11.695  0.00  0.00     0.027 H 
ATOM     33  H   LIG d   1       0.372  -1.810 -10.575  0.00  0.00     0.027 H 
ATOM     34  H   LIG d   1       2.441   0.422 -10.576  0.00  0.00     0.027 H 
ATOM     35  H   LIG d   1       1.166   0.146  -9.378  0.00  0.00     0.027 H 
ATOM     36  H   LIG d   1       1.712   0.624  -7.634  0.00  0.00     0.027 H 
ATOM     37  H   LIG d   1       1.784  -0.953  -6.811  0.00  0.00     0.027 H 
ATOM     38  H   LIG d   1       3.577   1.457  -6.202  0.00  0.00     0.030 H 
ATOM     39  H   LIG d   1       2.203   0.920  -5.241  0.00  0.00     0.030 H 
ATOM     40  H   LIG d   1       5.985  -1.347  -8.776  0.00  0.00     0.027 H 
ATOM     41  H   LIG d   1       6.061  -2.801  -7.775  0.00  0.00     0.027 H 
ATOM     42  H   LIG d   1       5.393  -3.387 -10.055  0.00  0.00     0.027 H 
ATOM     43  H   LIG d   1       4.098  -3.734  -8.884  0.00  0.00     0.027 H 
ATOM     44  H   LIG d   1       4.597  -3.130 -12.485  0.00  0.00     0.027 H 
ATOM     45  H   LIG d   1       4.277  -4.484 -11.404  0.00  0.00     0.027 H 
ATOM     46  H   LIG d   1       2.361  -5.199 -12.724  0.00  0.00     0.027 H 
ATOM     47  H   LIG d   1       3.749  -4.975 -13.806  0.00  0.00     0.027 H 
ENDROOT
BRANCH   5  48
ATOM     48  C   LIG d   1       3.196  -2.444 -14.635  0.00  0.00     0.098 C 
ATOM     49  H   LIG d   1       2.631  -1.564 -14.942  0.00  0.00     0.070 H 
ATOM     50  H   LIG d   1       3.977  -2.149 -13.934  0.00  0.00     0.070 H 
BRANCH  48  51
ATOM     51  O   LIG d   1       3.794  -3.051 -15.783  0.00  0.00    -0.464 OA
BRANCH  51  52
ATOM     52  C   LIG d   1       3.940  -2.282 -16.873  0.00  0.00     0.304 C 
ATOM     53  O   LIG d   1       4.660  -2.640 -17.774  0.00  0.00    -0.251 OA
BRANCH  52  54
ATOM     54  C   LIG d   1       3.207  -0.969 -16.973  0.00  0.00     0.033 C 
ATOM     55  H   LIG d   1       2.820  -0.844 -17.985  0.00  0.00     0.034 H 
ATOM     56  H   LIG d   1       2.379  -0.961 -16.265  0.00  0.00     0.034 H 
ATOM     57  H   LIG d   1       3.891  -0.152 -16.742  0.00  0.00     0.034 H 
ENDBRANCH  52  54
ENDBRANCH  51  52
ENDBRANCH  48  51
ENDBRANCH   5  48
BRANCH   1  58
ATOM     58  C   LIG d   1      -1.090  -1.995 -13.439  0.00  0.00     0.134 C 
ATOM     59  O   LIG d   1      -1.702  -0.956 -13.370  0.00  0.00    -0.297 OA
BRANCH  58  60
ATOM     60  C   LIG d   1      -1.735  -3.281 -12.992  0.00  0.00    -0.006 C 
ATOM     61  H   LIG d   1      -2.810  -3.133 -12.891  0.00  0.00     0.031 H 
ATOM     62  H   LIG d   1      -1.543  -4.060 -13.729  0.00  0.00     0.031 H 
ATOM     63  H   LIG d   1      -1.319  -3.582 -12.030  0.00  0.00     0.031 H 
ENDBRANCH  58  60
ENDBRANCH   1  58
BRANCH  25  64
ATOM     64  C   LIG d   1       2.004  -3.848 -10.376  0.00  0.00    -0.059 C 
ATOM     65  H   LIG d   1       1.079  -4.024 -10.924  0.00  0.00     0.024 H 
ATOM     66  H   LIG d   1       2.532  -4.791 -10.238  0.00  0.00     0.024 H 
ATOM     67  H   LIG d   1       1.773  -3.416  -9.402  0.00  0.00     0.024 H 
ENDBRANCH  25  64
BRANCH  24  68
ATOM     68  C   LIG d   1       4.592  -1.081 -11.013  0.00  0.00    -0.059 C 
ATOM     69  H   LIG d   1       4.816  -0.190 -10.427  0.00  0.00     0.024 H 
ATOM     70  H   LIG d   1       5.521  -1.582 -11.285  0.00  0.00     0.024 H 
ATOM     71  H   LIG d   1       4.056  -0.796 -11.918  0.00  0.00     0.024 H 
ENDBRANCH  24  68
BRANCH  14  72
ATOM     72  C   LIG d   1       4.211   0.686  -8.578  0.00  0.00    -0.059 C 
ATOM     73  H   LIG d   1       5.028   0.386  -9.233  0.00  0.00     0.024 H 
ATOM     74  H   LIG d   1       3.528   1.337  -9.125  0.00  0.00     0.024 H 
ATOM     75  H   LIG d   1       4.612   1.223  -7.718  0.00  0.00     0.024 H 
ENDBRANCH  14  72
BRANCH  19  76
ATOM     76  C   LIG d   1       6.123  -0.135  -6.241  0.00  0.00    -0.056 C 
ATOM     77  H   LIG d   1       7.005  -0.574  -5.773  0.00  0.00     0.024 H 
ATOM     78  H   LIG d   1       6.311   0.009  -7.305  0.00  0.00     0.024 H 
ATOM     79  H   LIG d   1       5.907   0.828  -5.777  0.00  0.00     0.024 H 
ENDBRANCH  19  76
BRANCH  19  80
ATOM     80  C   LIG d   1       5.444  -2.308  -5.278  0.00  0.00    -0.056 C 
ATOM     81  H   LIG d   1       6.129  -1.985  -4.493  0.00  0.00     0.024 H 
ATOM     82  H   LIG d   1       4.600  -2.832  -4.830  0.00  0.00     0.024 H 
ATOM     83  H   LIG d   1       5.965  -2.976  -5.962  0.00  0.00     0.024 H 
ENDBRANCH  19  80
BRANCH  17  84
ATOM     84  O   LIG d   1       4.551   0.273  -4.091  0.00  0.00    -0.461 OA
BRANCH  84  85
ATOM     85  C   LIG d   1       4.053   0.106  -2.855  0.00  0.00     0.304 C 
ATOM     86  O   LIG d   1       3.214  -0.738  -2.651  0.00  0.00    -0.251 OA
BRANCH  85  87
ATOM     87  C   LIG d   1       4.542   0.972  -1.722  0.00  0.00     0.033 C 
ATOM     88  H   LIG d   1       5.558   1.305  -1.931  0.00  0.00     0.034 H 
ATOM     89  H   LIG d   1       3.889   1.839  -1.620  0.00  0.00     0.034 H 
ATOM     90  H   LIG d   1       4.531   0.398  -0.795  0.00  0.00     0.034 H 
ENDBRANCH  85  87
ENDBRANCH  84  85
ENDBRANCH  17  84
TORSDOF 14
ENDMDL
MODEL 4
REMARK VINA RESULT:      -5.3      3.923      8.441
REMARK  14 active torsions:
REMARK  status: ('A' for Active; 'I' for Inactive)
REMARK    1  A    between atoms: C_1  and  C_2 
REMARK    2  A    between atoms: C_2  and  C_4 
REMARK    3  A    between atoms: C_8  and  C_40 
REMARK    4  A    between atoms: C_17  and  C_39 
REMARK    5  A    between atoms: C_20  and  O_35 
REMARK    6  A    between atoms: C_22  and  C_33 
REMARK    7  A    between atoms: C_22  and  C_34 
REMARK    8  A    between atoms: C_27  and  C_32 
REMARK    9  A    between atoms: C_28  and  C_31 
REMARK   10  A    between atoms: O_35  and  C_36 
REMARK   11  A    between atoms: C_36  and  C_38 
REMARK   12  A    between atoms: C_40  and  O_41 
REMARK   13  A    between atoms: O_41  and  C_42 
REMARK   14  A    between atoms: C_42  and  C_44 
ROOT
ATOM      1  C   LIG d   1       5.315 -10.087  -6.269  0.00  0.00     0.021 C 
ATOM      2  H   LIG d   1       4.542  -9.740  -6.948  0.00  0.00     0.038 H 
ATOM      3  C   LIG d   1       6.036 -11.334  -6.847  0.00  0.00    -0.043 C 
ATOM      4  C   LIG d   1       7.535 -10.940  -6.968  0.00  0.00    -0.043 C 
ATOM      5  C   LIG d   1       7.440  -9.420  -7.194  0.00  0.00     0.009 C 
ATOM      6  C   LIG d   1       6.408  -9.032  -6.106  0.00  0.00    -0.019 C 
ATOM      7  H   LIG d   1       6.858  -9.176  -5.117  0.00  0.00     0.032 H 
ATOM      8  C   LIG d   1       6.019  -7.585  -6.297  0.00  0.00    -0.031 C 
ATOM      9  H   LIG d   1       5.603  -7.465  -7.304  0.00  0.00     0.031 H 
ATOM     10  C   LIG d   1       4.932  -7.159  -5.312  0.00  0.00    -0.049 C 
ATOM     11  C   LIG d   1       4.568  -5.685  -5.523  0.00  0.00    -0.049 C 
ATOM     12  C   LIG d   1       5.817  -4.820  -5.388  0.00  0.00    -0.029 C 
ATOM     13  H   LIG d   1       6.209  -4.997  -4.361  0.00  0.00     0.031 H 
ATOM     14  C   LIG d   1       5.480  -3.327  -5.406  0.00  0.00    -0.025 C 
ATOM     15  C   LIG d   1       4.618  -3.029  -4.163  0.00  0.00    -0.044 C 
ATOM     16  C   LIG d   1       4.320  -1.535  -4.100  0.00  0.00    -0.015 C 
ATOM     17  C   LIG d   1       5.606  -0.735  -3.952  0.00  0.00     0.108 C 
ATOM     18  H   LIG d   1       6.055  -0.952  -2.976  0.00  0.00     0.074 H 
ATOM     19  C   LIG d   1       6.626  -1.054  -5.043  0.00  0.00     0.005 C 
ATOM     20  C   LIG d   1       6.777  -2.540  -5.272  0.00  0.00    -0.027 C 
ATOM     21  H   LIG d   1       7.277  -2.944  -4.352  0.00  0.00     0.031 H 
ATOM     22  C   LIG d   1       7.722  -2.878  -6.422  0.00  0.00    -0.049 C 
ATOM     23  C   LIG d   1       8.123  -4.355  -6.281  0.00  0.00    -0.047 C 
ATOM     24  C   LIG d   1       6.883  -5.242  -6.388  0.00  0.00    -0.023 C 
ATOM     25  C   LIG d   1       7.267  -6.709  -6.123  0.00  0.00    -0.023 C 
ATOM     26  C   LIG d   1       8.400  -7.139  -7.047  0.00  0.00    -0.046 C 
ATOM     27  C   LIG d   1       8.710  -8.639  -6.936  0.00  0.00    -0.043 C 
ATOM     28  H   LIG d   1       5.926 -12.177  -6.165  0.00  0.00     0.027 H 
ATOM     29  H   LIG d   1       5.628 -11.586  -7.823  0.00  0.00     0.027 H 
ATOM     30  H   LIG d   1       8.072 -11.159  -6.049  0.00  0.00     0.027 H 
ATOM     31  H   LIG d   1       7.996 -11.426  -7.825  0.00  0.00     0.027 H 
ATOM     32  H   LIG d   1       4.032  -7.758  -5.499  0.00  0.00     0.027 H 
ATOM     33  H   LIG d   1       5.245  -7.321  -4.286  0.00  0.00     0.027 H 
ATOM     34  H   LIG d   1       4.105  -5.569  -6.499  0.00  0.00     0.027 H 
ATOM     35  H   LIG d   1       3.843  -5.396  -4.755  0.00  0.00     0.027 H 
ATOM     36  H   LIG d   1       3.686  -3.587  -4.235  0.00  0.00     0.027 H 
ATOM     37  H   LIG d   1       5.164  -3.337  -3.274  0.00  0.00     0.027 H 
ATOM     38  H   LIG d   1       3.761  -1.205  -4.971  0.00  0.00     0.030 H 
ATOM     39  H   LIG d   1       3.688  -1.346  -3.218  0.00  0.00     0.030 H 
ATOM     40  H   LIG d   1       7.257  -2.704  -7.383  0.00  0.00     0.027 H 
ATOM     41  H   LIG d   1       8.631  -2.277  -6.357  0.00  0.00     0.027 H 
ATOM     42  H   LIG d   1       8.819  -4.606  -7.083  0.00  0.00     0.027 H 
ATOM     43  H   LIG d   1       8.613  -4.485  -5.319  0.00  0.00     0.027 H 
ATOM     44  H   LIG d   1       8.187  -6.888  -8.080  0.00  0.00     0.027 H 
ATOM     45  H   LIG d   1       9.304  -6.587  -6.751  0.00  0.00     0.027 H 
ATOM     46  H   LIG d   1       9.103  -8.876  -5.947  0.00  0.00     0.027 H 
ATOM     47  H   LIG d   1       9.463  -8.909  -7.684  0.00  0.00     0.027 H 
ENDROOT
BRANCH   5  48
ATOM     48  C   LIG d   1       6.917  -9.161  -8.608  0.00  0.00     0.098 C 
ATOM     49  H   LIG d   1       5.975  -9.690  -8.750  0.00  0.00     0.070 H 
ATOM     50  H   LIG d   1       6.758  -8.092  -8.747  0.00  0.00     0.070 H 
BRANCH  48  51
ATOM     51  O   LIG d   1       7.875  -9.626  -9.562  0.00  0.00    -0.464 OA
BRANCH  51  52
ATOM     52  C   LIG d   1       8.112  -8.837 -10.622  0.00  0.00     0.304 C 
ATOM     53  O   LIG d   1       8.793  -9.240 -11.535  0.00  0.00    -0.251 OA
BRANCH  52  54
ATOM     54  C   LIG d   1       7.529  -7.449 -10.673  0.00  0.00     0.033 C 
ATOM     55  H   LIG d   1       6.442  -7.512 -10.720  0.00  0.00     0.034 H 
ATOM     56  H   LIG d   1       7.822  -6.898  -9.780  0.00  0.00     0.034 H 
ATOM     57  H   LIG d   1       7.901  -6.931 -11.558  0.00  0.00     0.034 H 
ENDBRANCH  52  54
ENDBRANCH  51  52
ENDBRANCH  48  51
ENDBRANCH   5  48
BRANCH   1  58
ATOM     58  C   LIG d   1       4.720 -10.433  -4.926  0.00  0.00     0.134 C 
ATOM     59  O   LIG d   1       3.543 -10.691  -4.836  0.00  0.00    -0.297 OA
BRANCH  58  60
ATOM     60  C   LIG d   1       5.593 -10.456  -3.698  0.00  0.00    -0.006 C 
ATOM     61  H   LIG d   1       6.325 -11.259  -3.789  0.00  0.00     0.031 H 
ATOM     62  H   LIG d   1       6.109  -9.502  -3.602  0.00  0.00     0.031 H 
ATOM     63  H   LIG d   1       4.976 -10.627  -2.816  0.00  0.00     0.031 H 
ENDBRANCH  58  60
ENDBRANCH   1  58
BRANCH  25  64
ATOM     64  C   LIG d   1       7.788  -6.839  -4.686  0.00  0.00    -0.059 C 
ATOM     65  H   LIG d   1       8.522  -7.643  -4.636  0.00  0.00     0.024 H 
ATOM     66  H   LIG d   1       8.253  -5.901  -4.382  0.00  0.00     0.024 H 
ATOM     67  H   LIG d   1       6.956  -7.064  -4.017  0.00  0.00     0.024 H 
ENDBRANCH  25  64
BRANCH  24  68
ATOM     68  C   LIG d   1       6.369  -5.158  -7.835  0.00  0.00    -0.059 C 
ATOM     69  H   LIG d   1       6.039  -4.141  -8.044  0.00  0.00     0.024 H 
ATOM     70  H   LIG d   1       7.170  -5.429  -8.521  0.00  0.00     0.024 H 
ATOM     71  H   LIG d   1       5.532  -5.845  -7.964  0.00  0.00     0.024 H 
ENDBRANCH  24  68
BRANCH  14  72
ATOM     72  C   LIG d   1       4.668  -2.951  -6.637  0.00  0.00    -0.059 C 
ATOM     73  H   LIG d   1       4.041  -3.792  -6.930  0.00  0.00     0.024 H 
ATOM     74  H   LIG d   1       4.039  -2.091  -6.407  0.00  0.00     0.024 H 
ATOM     75  H   LIG d   1       5.344  -2.698  -7.454  0.00  0.00     0.024 H 
ENDBRANCH  14  72
BRANCH  19  76
ATOM     76  C   LIG d   1       6.283  -0.288  -6.320  0.00  0.00    -0.056 C 
ATOM     77  H   LIG d   1       5.684  -0.922  -6.975  0.00  0.00     0.024 H 
ATOM     78  H   LIG d   1       5.716   0.609  -6.066  0.00  0.00     0.024 H 
ATOM     79  H   LIG d   1       7.203  -0.003  -6.832  0.00  0.00     0.024 H 
ENDBRANCH  19  76
BRANCH  19  80
ATOM     80  C   LIG d   1       7.984  -0.504  -4.540  0.00  0.00    -0.056 C 
ATOM     81  H   LIG d   1       8.146  -0.822  -3.510  0.00  0.00     0.024 H 
ATOM     82  H   LIG d   1       8.787  -0.888  -5.169  0.00  0.00     0.024 H 
ATOM     83  H   LIG d   1       7.976   0.585  -4.586  0.00  0.00     0.024 H 
ENDBRANCH  19  80
BRANCH  17  84
ATOM     84  O   LIG d   1       5.299   0.665  -3.999  0.00  0.00    -0.461 OA
BRANCH  84  85
ATOM     85  C   LIG d   1       4.462   1.138  -3.062  0.00  0.00     0.304 C 
ATOM     86  O   LIG d   1       3.543   1.855  -3.379  0.00  0.00    -0.251 OA
BRANCH  85  87
ATOM     87  C   LIG d   1       4.668   0.773  -1.614  0.00  0.00     0.033 C 
ATOM     88  H   LIG d   1       3.758   0.322  -1.219  0.00  0.00     0.034 H 
ATOM     89  H   LIG d   1       5.491   0.063  -1.531  0.00  0.00     0.034 H 
ATOM     90  H   LIG d   1       4.904   1.672  -1.044  0.00  0.00     0.034 H 
ENDBRANCH  85  87
ENDBRANCH  84  85
ENDBRANCH  17  84
TORSDOF 14
ENDMDL
MODEL 5
REMARK VINA RESULT:      -5.2      8.992     11.378
REMARK  14 active torsions:
REMARK  status: ('A' for Active; 'I' for Inactive)
REMARK    1  A    between atoms: C_1  and  C_2 
REMARK    2  A    between atoms: C_2  and  C_4 
REMARK    3  A    between atoms: C_8  and  C_40 
REMARK    4  A    between atoms: C_17  and  C_39 
REMARK    5  A    between atoms: C_20  and  O_35 
REMARK    6  A    between atoms: C_22  and  C_33 
REMARK    7  A    between atoms: C_22  and  C_34 
REMARK    8  A    between atoms: C_27  and  C_32 
REMARK    9  A    between atoms: C_28  and  C_31 
REMARK   10  A    between atoms: O_35  and  C_36 
REMARK   11  A    between atoms: C_36  and  C_38 
REMARK   12  A    between atoms: C_40  and  O_41 
REMARK   13  A    between atoms: O_41  and  C_42 
REMARK   14  A    between atoms: C_42  and  C_44 
ROOT
ATOM      1  C   LIG d   1       9.742  10.039  -2.382  0.00  0.00     0.021 C 
ATOM      2  H   LIG d   1       8.814   9.572  -2.065  0.00  0.00     0.038 H 
ATOM      3  C   LIG d   1      10.299  10.966  -1.270  0.00  0.00    -0.043 C 
ATOM      4  C   LIG d   1      11.710  10.411  -0.922  0.00  0.00    -0.043 C 
ATOM      5  C   LIG d   1      11.542   8.914  -1.237  0.00  0.00     0.009 C 
ATOM      6  C   LIG d   1      10.827   8.988  -2.610  0.00  0.00    -0.019 C 
ATOM      7  H   LIG d   1      11.523   9.391  -3.355  0.00  0.00     0.032 H 
ATOM      8  C   LIG d   1      10.386   7.599  -3.005  0.00  0.00    -0.031 C 
ATOM      9  H   LIG d   1       9.720   7.209  -2.227  0.00  0.00     0.031 H 
ATOM     10  C   LIG d   1       9.590   7.610  -4.309  0.00  0.00    -0.049 C 
ATOM     11  C   LIG d   1       9.168   6.186  -4.689  0.00  0.00    -0.049 C 
ATOM     12  C   LIG d   1      10.399   5.291  -4.790  0.00  0.00    -0.029 C 
ATOM     13  H   LIG d   1      11.048   5.742  -5.574  0.00  0.00     0.031 H 
ATOM     14  C   LIG d   1      10.052   3.908  -5.346  0.00  0.00    -0.025 C 
ATOM     15  C   LIG d   1       9.543   4.099  -6.789  0.00  0.00    -0.044 C 
ATOM     16  C   LIG d   1       9.256   2.736  -7.409  0.00  0.00    -0.015 C 
ATOM     17  C   LIG d   1      10.527   1.903  -7.492  0.00  0.00     0.108 C 
ATOM     18  H   LIG d   1      11.218   2.371  -8.202  0.00  0.00     0.074 H 
ATOM     19  C   LIG d   1      11.228   1.764  -6.142  0.00  0.00     0.005 C 
ATOM     20  C   LIG d   1      11.330   3.081  -5.409  0.00  0.00    -0.027 C 
ATOM     21  H   LIG d   1      12.059   3.704  -5.994  0.00  0.00     0.031 H 
ATOM     22  C   LIG d   1      11.945   2.949  -4.018  0.00  0.00    -0.049 C 
ATOM     23  C   LIG d   1      12.384   4.350  -3.564  0.00  0.00    -0.047 C 
ATOM     24  C   LIG d   1      11.169   5.274  -3.479  0.00  0.00    -0.023 C 
ATOM     25  C   LIG d   1      11.626   6.706  -3.146  0.00  0.00    -0.023 C 
ATOM     26  C   LIG d   1      12.482   6.713  -1.884  0.00  0.00    -0.046 C 
ATOM     27  C   LIG d   1      12.827   8.135  -1.419  0.00  0.00    -0.043 C 
ATOM     28  H   LIG d   1      10.381  11.986  -1.642  0.00  0.00     0.027 H 
ATOM     29  H   LIG d   1       9.652  10.937  -0.396  0.00  0.00     0.027 H 
ATOM     30  H   LIG d   1      12.471  10.855  -1.558  0.00  0.00     0.027 H 
ATOM     31  H   LIG d   1      11.935  10.558   0.132  0.00  0.00     0.027 H 
ATOM     32  H   LIG d   1       8.680   8.204  -4.162  0.00  0.00     0.027 H 
ATOM     33  H   LIG d   1      10.164   8.054  -5.116  0.00  0.00     0.027 H 
ATOM     34  H   LIG d   1       8.464   5.815  -3.950  0.00  0.00     0.027 H 
ATOM     35  H   LIG d   1       8.666   6.223  -5.661  0.00  0.00     0.027 H 
ATOM     36  H   LIG d   1       8.631   4.693  -6.767  0.00  0.00     0.027 H 
ATOM     37  H   LIG d   1      10.307   4.616  -7.365  0.00  0.00     0.027 H 
ATOM     38  H   LIG d   1       8.484   2.204  -6.858  0.00  0.00     0.030 H 
ATOM     39  H   LIG d   1       8.875   2.895  -8.430  0.00  0.00     0.030 H 
ATOM     40  H   LIG d   1      11.241   2.528  -3.311  0.00  0.00     0.027 H 
ATOM     41  H   LIG d   1      12.831   2.314  -4.053  0.00  0.00     0.027 H 
ATOM     42  H   LIG d   1      12.849   4.268  -2.580  0.00  0.00     0.027 H 
ATOM     43  H   LIG d   1      13.111   4.728  -4.280  0.00  0.00     0.027 H 
ATOM     44  H   LIG d   1      12.003   6.173  -1.077  0.00  0.00     0.027 H 
ATOM     45  H   LIG d   1      13.426   6.198  -2.116  0.00  0.00     0.027 H 
ATOM     46  H   LIG d   1      13.468   8.631  -2.148  0.00  0.00     0.027 H 
ATOM     47  H   LIG d   1      13.360   8.083  -0.464  0.00  0.00     0.027 H 
ENDROOT
BRANCH   5  48
ATOM     48  C   LIG d   1      10.664   8.276  -0.160  0.00  0.00     0.098 C 
ATOM     49  H   LIG d   1       9.711   8.803  -0.108  0.00  0.00     0.070 H 
ATOM     50  H   LIG d   1      10.488   7.229  -0.407  0.00  0.00     0.070 H 
BRANCH  48  51
ATOM     51  O   LIG d   1      11.325   8.361   1.105  0.00  0.00    -0.464 OA
BRANCH  51  52
ATOM     52  C   LIG d   1      11.276   7.275   1.892  0.00  0.00     0.304 C 
ATOM     53  O   LIG d   1      11.418   7.387   3.087  0.00  0.00    -0.251 OA
BRANCH  52  54
ATOM     54  C   LIG d   1      11.043   5.915   1.286  0.00  0.00     0.033 C 
ATOM     55  H   LIG d   1      11.780   5.212   1.676  0.00  0.00     0.034 H 
ATOM     56  H   LIG d   1      10.042   5.570   1.542  0.00  0.00     0.034 H 
ATOM     57  H   LIG d   1      11.140   5.979   0.202  0.00  0.00     0.034 H 
ENDBRANCH  52  54
ENDBRANCH  51  52
ENDBRANCH  48  51
ENDBRANCH   5  48
BRANCH   1  58
ATOM     58  C   LIG d   1       9.523  10.844  -3.640  0.00  0.00     0.134 C 
ATOM     59  O   LIG d   1       8.421  11.258  -3.907  0.00  0.00    -0.297 OA
BRANCH  58  60
ATOM     60  C   LIG d   1      10.681  11.131  -4.561  0.00  0.00    -0.006 C 
ATOM     61  H   LIG d   1      11.156  12.066  -4.266  0.00  0.00     0.031 H 
ATOM     62  H   LIG d   1      11.405  10.319  -4.498  0.00  0.00     0.031 H 
ATOM     63  H   LIG d   1      10.318  11.216  -5.585  0.00  0.00     0.031 H 
ENDBRANCH  58  60
ENDBRANCH   1  58
BRANCH  25  64
ATOM     64  C   LIG d   1      12.507   7.229  -4.288  0.00  0.00    -0.059 C 
ATOM     65  H   LIG d   1      13.535   7.323  -3.940  0.00  0.00     0.024 H 
ATOM     66  H   LIG d   1      12.468   6.533  -5.125  0.00  0.00     0.024 H 
ATOM     67  H   LIG d   1      12.142   8.205  -4.610  0.00  0.00     0.024 H 
ENDBRANCH  25  64
BRANCH  24  68
ATOM     68  C   LIG d   1      10.293   4.790  -2.312  0.00  0.00    -0.059 C 
ATOM     69  H   LIG d   1       9.608   4.020  -2.668  0.00  0.00     0.024 H 
ATOM     70  H   LIG d   1      10.927   4.378  -1.528  0.00  0.00     0.024 H 
ATOM     71  H   LIG d   1       9.722   5.628  -1.914  0.00  0.00     0.024 H 
ENDBRANCH  24  68
BRANCH  14  72
ATOM     72  C   LIG d   1       8.942   3.244  -4.545  0.00  0.00    -0.059 C 
ATOM     73  H   LIG d   1       9.350   2.402  -3.986  0.00  0.00     0.024 H 
ATOM     74  H   LIG d   1       8.512   3.967  -3.851  0.00  0.00     0.024 H 
ATOM     75  H   LIG d   1       8.167   2.888  -5.224  0.00  0.00     0.024 H 
ENDBRANCH  14  72
BRANCH  19  76
ATOM     76  C   LIG d   1      10.553   0.673  -5.312  0.00  0.00    -0.056 C 
ATOM     77  H   LIG d   1      10.377  -0.204  -5.937  0.00  0.00     0.024 H 
ATOM     78  H   LIG d   1      11.199   0.399  -4.477  0.00  0.00     0.024 H 
ATOM     79  H   LIG d   1       9.602   1.043  -4.929  0.00  0.00     0.024 H 
ENDBRANCH  19  76
BRANCH  19  80
ATOM     80  C   LIG d   1      12.665   1.271  -6.450  0.00  0.00    -0.056 C 
ATOM     81  H   LIG d   1      12.781   1.142  -7.527  0.00  0.00     0.024 H 
ATOM     82  H   LIG d   1      13.385   2.007  -6.092  0.00  0.00     0.024 H 
ATOM     83  H   LIG d   1      12.838   0.319  -5.950  0.00  0.00     0.024 H 
ENDBRANCH  19  80
BRANCH  17  84
ATOM     84  O   LIG d   1      10.202   0.595  -7.983  0.00  0.00    -0.461 OA
BRANCH  84  85
ATOM     85  C   LIG d   1      10.303   0.398  -9.307  0.00  0.00     0.304 C 
ATOM     86  O   LIG d   1       9.527  -0.337  -9.869  0.00  0.00    -0.251 OA
BRANCH  85  87
ATOM     87  C   LIG d   1      11.385   1.096 -10.093  0.00  0.00     0.033 C 
ATOM     88  H   LIG d   1      12.204   0.401 -10.278  0.00  0.00     0.034 H 
ATOM     89  H   LIG d   1      10.979   1.440 -11.043  0.00  0.00     0.034 H 
ATOM     90  H   LIG d   1      11.754   1.949  -9.524  0.00  0.00     0.034 H 
ENDBRANCH  85  87
ENDBRANCH  84  85
ENDBRANCH  17  84
TORSDOF 14
ENDMDL
MODEL 6
REMARK VINA RESULT:      -5.2      2.883      5.157
REMARK  14 active torsions:
REMARK  status: ('A' for Active; 'I' for Inactive)
REMARK    1  A    between atoms: C_1  and  C_2 
REMARK    2  A    between atoms: C_2  and  C_4 
REMARK    3  A    between atoms: C_8  and  C_40 
REMARK    4  A    between atoms: C_17  and  C_39 
REMARK    5  A    between atoms: C_20  and  O_35 
REMARK    6  A    between atoms: C_22  and  C_33 
REMARK    7  A    between atoms: C_22  and  C_34 
REMARK    8  A    between atoms: C_27  and  C_32 
REMARK    9  A    between atoms: C_28  and  C_31 
REMARK   10  A    between atoms: O_35  and  C_36 
REMARK   11  A    between atoms: C_36  and  C_38 
REMARK   12  A    between atoms: C_40  and  O_41 
REMARK   13  A    between atoms: O_41  and  C_42 
REMARK   14  A    between atoms: C_42  and  C_44 
ROOT
ATOM      1  C   LIG d   1       2.365  -0.965  -9.164  0.00  0.00     0.021 C 
ATOM      2  H   LIG d   1       1.616  -1.504  -8.592  0.00  0.00     0.038 H 
ATOM      3  C   LIG d   1       2.144   0.567  -9.052  0.00  0.00    -0.043 C 
ATOM      4  C   LIG d   1       3.453   1.141  -8.439  0.00  0.00    -0.043 C 
ATOM      5  C   LIG d   1       3.947  -0.046  -7.593  0.00  0.00     0.009 C 
ATOM      6  C   LIG d   1       3.762  -1.211  -8.597  0.00  0.00    -0.019 C 
ATOM      7  H   LIG d   1       4.475  -1.092  -9.420  0.00  0.00     0.032 H 
ATOM      8  C   LIG d   1       4.006  -2.517  -7.878  0.00  0.00    -0.031 C 
ATOM      9  H   LIG d   1       3.301  -2.593  -7.042  0.00  0.00     0.031 H 
ATOM     10  C   LIG d   1       3.749  -3.717  -8.788  0.00  0.00    -0.049 C 
ATOM     11  C   LIG d   1       4.017  -5.025  -8.034  0.00  0.00    -0.049 C 
ATOM     12  C   LIG d   1       5.442  -5.027  -7.492  0.00  0.00    -0.029 C 
ATOM     13  H   LIG d   1       6.112  -4.925  -8.375  0.00  0.00     0.031 H 
ATOM     14  C   LIG d   1       5.821  -6.383  -6.892  0.00  0.00    -0.025 C 
ATOM     15  C   LIG d   1       5.797  -7.420  -8.032  0.00  0.00    -0.044 C 
ATOM     16  C   LIG d   1       6.242  -8.775  -7.493  0.00  0.00    -0.015 C 
ATOM     17  C   LIG d   1       7.674  -8.709  -6.983  0.00  0.00     0.108 C 
ATOM     18  H   LIG d   1       8.349  -8.531  -7.828  0.00  0.00     0.074 H 
ATOM     19  C   LIG d   1       7.879  -7.604  -5.949  0.00  0.00     0.005 C 
ATOM     20  C   LIG d   1       7.250  -6.296  -6.372  0.00  0.00    -0.027 C 
ATOM     21  H   LIG d   1       7.861  -5.928  -7.240  0.00  0.00     0.031 H 
ATOM     22  C   LIG d   1       7.363  -5.204  -5.312  0.00  0.00    -0.049 C 
ATOM     23  C   LIG d   1       7.093  -3.855  -5.998  0.00  0.00    -0.047 C 
ATOM     24  C   LIG d   1       5.677  -3.838  -6.572  0.00  0.00    -0.023 C 
ATOM     25  C   LIG d   1       5.451  -2.538  -7.365  0.00  0.00    -0.023 C 
ATOM     26  C   LIG d   1       5.769  -1.324  -6.499  0.00  0.00    -0.046 C 
ATOM     27  C   LIG d   1       5.405  -0.001  -7.190  0.00  0.00    -0.043 C 
ATOM     28  H   LIG d   1       1.978   0.993 -10.041  0.00  0.00     0.027 H 
ATOM     29  H   LIG d   1       1.296   0.779  -8.405  0.00  0.00     0.027 H 
ATOM     30  H   LIG d   1       4.173   1.385  -9.215  0.00  0.00     0.027 H 
ATOM     31  H   LIG d   1       3.241   2.000  -7.806  0.00  0.00     0.027 H 
ATOM     32  H   LIG d   1       2.695  -3.712  -9.090  0.00  0.00     0.027 H 
ATOM     33  H   LIG d   1       4.363  -3.672  -9.681  0.00  0.00     0.027 H 
ATOM     34  H   LIG d   1       3.286  -5.132  -7.238  0.00  0.00     0.027 H 
ATOM     35  H   LIG d   1       3.895  -5.857  -8.735  0.00  0.00     0.027 H 
ATOM     36  H   LIG d   1       4.784  -7.494  -8.423  0.00  0.00     0.027 H 
ATOM     37  H   LIG d   1       6.473  -7.093  -8.820  0.00  0.00     0.027 H 
ATOM     38  H   LIG d   1       5.573  -9.132  -6.715  0.00  0.00     0.030 H 
ATOM     39  H   LIG d   1       6.199  -9.506  -8.317  0.00  0.00     0.030 H 
ATOM     40  H   LIG d   1       6.662  -5.362  -4.503  0.00  0.00     0.027 H 
ATOM     41  H   LIG d   1       8.374  -5.176  -4.901  0.00  0.00     0.027 H 
ATOM     42  H   LIG d   1       7.195  -3.061  -5.256  0.00  0.00     0.027 H 
ATOM     43  H   LIG d   1       7.833  -3.718  -6.782  0.00  0.00     0.027 H 
ATOM     44  H   LIG d   1       5.271  -1.380  -5.539  0.00  0.00     0.027 H 
ATOM     45  H   LIG d   1       6.853  -1.318  -6.313  0.00  0.00     0.027 H 
ATOM     46  H   LIG d   1       6.033   0.157  -8.067  0.00  0.00     0.027 H 
ATOM     47  H   LIG d   1       5.565   0.827  -6.492  0.00  0.00     0.027 H 
ENDROOT
BRANCH   5  48
ATOM     48  C   LIG d   1       3.046  -0.189  -6.366  0.00  0.00     0.098 C 
ATOM     49  H   LIG d   1       2.011  -0.311  -6.686  0.00  0.00     0.070 H 
ATOM     50  H   LIG d   1       3.353  -1.061  -5.788  0.00  0.00     0.070 H 
BRANCH  48  51
ATOM     51  O   LIG d   1       3.158   0.982  -5.553  0.00  0.00    -0.464 OA
BRANCH  51  52
ATOM     52  C   LIG d   1       3.149   0.804  -4.223  0.00  0.00     0.304 C 
ATOM     53  O   LIG d   1       3.455   1.714  -3.489  0.00  0.00    -0.251 OA
BRANCH  52  54
ATOM     54  C   LIG d   1       2.757  -0.531  -3.644  0.00  0.00     0.033 C 
ATOM     55  H   LIG d   1       3.377  -1.313  -4.082  0.00  0.00     0.034 H 
ATOM     56  H   LIG d   1       2.902  -0.515  -2.564  0.00  0.00     0.034 H 
ATOM     57  H   LIG d   1       1.708  -0.730  -3.868  0.00  0.00     0.034 H 
ENDBRANCH  52  54
ENDBRANCH  51  52
ENDBRANCH  48  51
ENDBRANCH   5  48
BRANCH   1  58
ATOM     58  C   LIG d   1       2.312  -1.371 -10.616  0.00  0.00     0.134 C 
ATOM     59  O   LIG d   1       1.443  -2.115 -11.004  0.00  0.00    -0.297 OA
BRANCH  58  60
ATOM     60  C   LIG d   1       3.345  -0.850 -11.582  0.00  0.00    -0.006 C 
ATOM     61  H   LIG d   1       3.407   0.235 -11.496  0.00  0.00     0.031 H 
ATOM     62  H   LIG d   1       4.314  -1.289 -11.350  0.00  0.00     0.031 H 
ATOM     63  H   LIG d   1       3.059  -1.117 -12.599  0.00  0.00     0.031 H 
ENDBRANCH  58  60
ENDBRANCH   1  58
BRANCH  25  64
ATOM     64  C   LIG d   1       6.419  -2.503  -8.556  0.00  0.00    -0.059 C 
ATOM     65  H   LIG d   1       6.746  -1.478  -8.729  0.00  0.00     0.024 H 
ATOM     66  H   LIG d   1       7.283  -3.131  -8.340  0.00  0.00     0.024 H 
ATOM     67  H   LIG d   1       5.912  -2.879  -9.446  0.00  0.00     0.024 H 
ENDBRANCH  25  64
BRANCH  24  68
ATOM     68  C   LIG d   1       4.692  -3.831  -5.392  0.00  0.00    -0.059 C 
ATOM     69  H   LIG d   1       5.105  -4.416  -4.571  0.00  0.00     0.024 H 
ATOM     70  H   LIG d   1       4.528  -2.805  -5.062  0.00  0.00     0.024 H 
ATOM     71  H   LIG d   1       3.744  -4.266  -5.707  0.00  0.00     0.024 H 
ENDBRANCH  24  68
BRANCH  14  72
ATOM     72  C   LIG d   1       4.820  -6.828  -5.836  0.00  0.00    -0.059 C 
ATOM     73  H   LIG d   1       4.239  -7.669  -6.217  0.00  0.00     0.024 H 
ATOM     74  H   LIG d   1       5.353  -7.133  -4.936  0.00  0.00     0.024 H 
ATOM     75  H   LIG d   1       4.150  -6.001  -5.599  0.00  0.00     0.024 H 
ENDBRANCH  14  72
BRANCH  19  76
ATOM     76  C   LIG d   1       7.399  -8.076  -4.577  0.00  0.00    -0.056 C 
ATOM     77  H   LIG d   1       6.661  -8.869  -4.702  0.00  0.00     0.024 H 
ATOM     78  H   LIG d   1       8.247  -8.457  -4.006  0.00  0.00     0.024 H 
ATOM     79  H   LIG d   1       6.948  -7.240  -4.042  0.00  0.00     0.024 H 
ENDBRANCH  19  76
BRANCH  19  80
ATOM     80  C   LIG d   1       9.410  -7.390  -5.841  0.00  0.00    -0.056 C 
ATOM     81  H   LIG d   1       9.918  -8.036  -6.558  0.00  0.00     0.024 H 
ATOM     82  H   LIG d   1       9.647  -6.349  -6.058  0.00  0.00     0.024 H 
ATOM     83  H   LIG d   1       9.741  -7.636  -4.833  0.00  0.00     0.024 H 
ENDBRANCH  19  80
BRANCH  17  84
ATOM     84  O   LIG d   1       8.023  -9.968  -6.392  0.00  0.00    -0.461 OA
BRANCH  84  85
ATOM     85  C   LIG d   1       8.576 -10.888  -7.199  0.00  0.00     0.304 C 
ATOM     86  O   LIG d   1       7.992 -11.921  -7.426  0.00  0.00    -0.251 OA
BRANCH  85  87
ATOM     87  C   LIG d   1       9.926 -10.632  -7.820  0.00  0.00     0.033 C 
ATOM     88  H   LIG d   1      10.474  -9.911  -7.215  0.00  0.00     0.034 H 
ATOM     89  H   LIG d   1      10.485 -11.566  -7.869  0.00  0.00     0.034 H 
ATOM     90  H   LIG d   1       9.792 -10.235  -8.827  0.00  0.00     0.034 H 
ENDBRANCH  85  87
ENDBRANCH  84  85
ENDBRANCH  17  84
TORSDOF 14
ENDMDL
MODEL 7
REMARK VINA RESULT:      -5.1      7.685      9.890
REMARK  14 active torsions:
REMARK  status: ('A' for Active; 'I' for Inactive)
REMARK    1  A    between atoms: C_1  and  C_2 
REMARK    2  A    between atoms: C_2  and  C_4 
REMARK    3  A    between atoms: C_8  and  C_40 
REMARK    4  A    between atoms: C_17  and  C_39 
REMARK    5  A    between atoms: C_20  and  O_35 
REMARK    6  A    between atoms: C_22  and  C_33 
REMARK    7  A    between atoms: C_22  and  C_34 
REMARK    8  A    between atoms: C_27  and  C_32 
REMARK    9  A    between atoms: C_28  and  C_31 
REMARK   10  A    between atoms: O_35  and  C_36 
REMARK   11  A    between atoms: C_36  and  C_38 
REMARK   12  A    between atoms: C_40  and  O_41 
REMARK   13  A    between atoms: O_41  and  C_42 
REMARK   14  A    between atoms: C_42  and  C_44 
ROOT
ATOM      1  C   LIG d   1      11.942   6.660  -1.257  0.00  0.00     0.021 C 
ATOM      2  H   LIG d   1      12.563   5.786  -1.081  0.00  0.00     0.038 H 
ATOM      3  C   LIG d   1      12.797   7.954  -1.238  0.00  0.00    -0.043 C 
ATOM      4  C   LIG d   1      12.604   8.612  -2.634  0.00  0.00    -0.043 C 
ATOM      5  C   LIG d   1      12.342   7.383  -3.523  0.00  0.00     0.009 C 
ATOM      6  C   LIG d   1      11.320   6.611  -2.652  0.00  0.00    -0.019 C 
ATOM      7  H   LIG d   1      10.382   7.177  -2.613  0.00  0.00     0.032 H 
ATOM      8  C   LIG d   1      11.084   5.252  -3.266  0.00  0.00    -0.031 C 
ATOM      9  H   LIG d   1      12.042   4.722  -3.323  0.00  0.00     0.031 H 
ATOM     10  C   LIG d   1      10.153   4.398  -2.407  0.00  0.00    -0.049 C 
ATOM     11  C   LIG d   1       9.924   3.031  -3.062  0.00  0.00    -0.049 C 
ATOM     12  C   LIG d   1       9.371   3.220  -4.471  0.00  0.00    -0.029 C 
ATOM     13  H   LIG d   1       8.415   3.779  -4.357  0.00  0.00     0.031 H 
ATOM     14  C   LIG d   1       8.951   1.889  -5.100  0.00  0.00    -0.025 C 
ATOM     15  C   LIG d   1       7.791   1.320  -4.258  0.00  0.00    -0.044 C 
ATOM     16  C   LIG d   1       7.291   0.028  -4.893  0.00  0.00    -0.015 C 
ATOM     17  C   LIG d   1       6.741   0.291  -6.288  0.00  0.00     0.108 C 
ATOM     18  H   LIG d   1       5.839   0.908  -6.208  0.00  0.00     0.074 H 
ATOM     19  C   LIG d   1       7.746   1.003  -7.191  0.00  0.00     0.005 C 
ATOM     20  C   LIG d   1       8.418   2.166  -6.499  0.00  0.00    -0.027 C 
ATOM     21  H   LIG d   1       7.621   2.947  -6.365  0.00  0.00     0.031 H 
ATOM     22  C   LIG d   1       9.492   2.834  -7.353  0.00  0.00    -0.049 C 
ATOM     23  C   LIG d   1       9.784   4.215  -6.744  0.00  0.00    -0.047 C 
ATOM     24  C   LIG d   1      10.317   4.053  -5.321  0.00  0.00    -0.023 C 
ATOM     25  C   LIG d   1      10.490   5.437  -4.669  0.00  0.00    -0.023 C 
ATOM     26  C   LIG d   1      11.360   6.334  -5.543  0.00  0.00    -0.046 C 
ATOM     27  C   LIG d   1      11.697   7.668  -4.862  0.00  0.00    -0.043 C 
ATOM     28  H   LIG d   1      12.439   8.626  -0.458  0.00  0.00     0.027 H 
ATOM     29  H   LIG d   1      13.844   7.713  -1.072  0.00  0.00     0.027 H 
ATOM     30  H   LIG d   1      11.745   9.278  -2.637  0.00  0.00     0.027 H 
ATOM     31  H   LIG d   1      13.509   9.126  -2.949  0.00  0.00     0.027 H 
ATOM     32  H   LIG d   1      10.629   4.229  -1.432  0.00  0.00     0.027 H 
ATOM     33  H   LIG d   1       9.203   4.895  -2.244  0.00  0.00     0.027 H 
ATOM     34  H   LIG d   1      10.860   2.480  -3.071  0.00  0.00     0.027 H 
ATOM     35  H   LIG d   1       9.198   2.477  -2.459  0.00  0.00     0.027 H 
ATOM     36  H   LIG d   1       8.150   1.120  -3.250  0.00  0.00     0.027 H 
ATOM     37  H   LIG d   1       6.988   2.054  -4.225  0.00  0.00     0.027 H 
ATOM     38  H   LIG d   1       8.071  -0.727  -4.925  0.00  0.00     0.030 H 
ATOM     39  H   LIG d   1       6.477  -0.372  -4.267  0.00  0.00     0.030 H 
ATOM     40  H   LIG d   1      10.396   2.241  -7.390  0.00  0.00     0.027 H 
ATOM     41  H   LIG d   1       9.129   2.986  -8.371  0.00  0.00     0.027 H 
ATOM     42  H   LIG d   1      10.533   4.716  -7.359  0.00  0.00     0.027 H 
ATOM     43  H   LIG d   1       8.862   4.792  -6.751  0.00  0.00     0.027 H 
ATOM     44  H   LIG d   1      12.276   5.834  -5.837  0.00  0.00     0.027 H 
ATOM     45  H   LIG d   1      10.795   6.559  -6.460  0.00  0.00     0.027 H 
ATOM     46  H   LIG d   1      10.795   8.265  -4.725  0.00  0.00     0.027 H 
ATOM     47  H   LIG d   1      12.395   8.229  -5.491  0.00  0.00     0.027 H 
ENDROOT
BRANCH   5  48
ATOM     48  C   LIG d   1      13.651   6.612  -3.701  0.00  0.00     0.098 C 
ATOM     49  H   LIG d   1      14.058   6.356  -2.723  0.00  0.00     0.070 H 
ATOM     50  H   LIG d   1      13.462   5.699  -4.267  0.00  0.00     0.070 H 
BRANCH  48  51
ATOM     51  O   LIG d   1      14.589   7.424  -4.411  0.00  0.00    -0.464 OA
BRANCH  51  52
ATOM     52  C   LIG d   1      15.287   6.833  -5.393  0.00  0.00     0.304 C 
ATOM     53  O   LIG d   1      16.159   7.441  -5.966  0.00  0.00    -0.251 OA
BRANCH  52  54
ATOM     54  C   LIG d   1      14.981   5.410  -5.783  0.00  0.00     0.033 C 
ATOM     55  H   LIG d   1      15.176   5.275  -6.847  0.00  0.00     0.034 H 
ATOM     56  H   LIG d   1      15.613   4.732  -5.210  0.00  0.00     0.034 H 
ATOM     57  H   LIG d   1      13.932   5.193  -5.576  0.00  0.00     0.034 H 
ENDBRANCH  52  54
ENDBRANCH  51  52
ENDBRANCH  48  51
ENDBRANCH   5  48
BRANCH   1  58
ATOM     58  C   LIG d   1      10.862   6.759  -0.208  0.00  0.00     0.134 C 
ATOM     59  O   LIG d   1       9.853   7.383  -0.437  0.00  0.00    -0.297 OA
BRANCH  58  60
ATOM     60  C   LIG d   1      11.043   6.081   1.125  0.00  0.00    -0.006 C 
ATOM     61  H   LIG d   1      11.764   6.639   1.722  0.00  0.00     0.031 H 
ATOM     62  H   LIG d   1      10.088   6.047   1.648  0.00  0.00     0.031 H 
ATOM     63  H   LIG d   1      11.408   5.066   0.971  0.00  0.00     0.031 H 
ENDBRANCH  58  60
ENDBRANCH   1  58
BRANCH  25  64
ATOM     64  C   LIG d   1       9.118   6.115  -4.559  0.00  0.00    -0.059 C 
ATOM     65  H   LIG d   1       8.820   6.165  -3.512  0.00  0.00     0.024 H 
ATOM     66  H   LIG d   1       9.177   7.123  -4.969  0.00  0.00     0.024 H 
ATOM     67  H   LIG d   1       8.382   5.538  -5.119  0.00  0.00     0.024 H 
ENDBRANCH  25  64
BRANCH  24  68
ATOM     68  C   LIG d   1      11.712   3.413  -5.412  0.00  0.00    -0.059 C 
ATOM     69  H   LIG d   1      11.609   2.352  -5.641  0.00  0.00     0.024 H 
ATOM     70  H   LIG d   1      12.285   3.902  -6.199  0.00  0.00     0.024 H 
ATOM     71  H   LIG d   1      12.229   3.530  -4.460  0.00  0.00     0.024 H 
ENDBRANCH  24  68
BRANCH  14  72
ATOM     72  C   LIG d   1      10.085   0.875  -5.075  0.00  0.00    -0.059 C 
ATOM     73  H   LIG d   1      10.946   1.279  -5.608  0.00  0.00     0.024 H 
ATOM     74  H   LIG d   1      10.363   0.666  -4.042  0.00  0.00     0.024 H 
ATOM     75  H   LIG d   1       9.759  -0.047  -5.556  0.00  0.00     0.024 H 
ENDBRANCH  14  72
BRANCH  19  76
ATOM     76  C   LIG d   1       8.742  -0.005  -7.762  0.00  0.00    -0.056 C 
ATOM     77  H   LIG d   1       9.495   0.521  -8.350  0.00  0.00     0.024 H 
ATOM     78  H   LIG d   1       9.228  -0.539  -6.945  0.00  0.00     0.024 H 
ATOM     79  H   LIG d   1       8.216  -0.717  -8.398  0.00  0.00     0.024 H 
ENDBRANCH  19  76
BRANCH  19  80
ATOM     80  C   LIG d   1       6.933   1.559  -8.388  0.00  0.00    -0.056 C 
ATOM     81  H   LIG d   1       7.617   1.970  -9.131  0.00  0.00     0.024 H 
ATOM     82  H   LIG d   1       6.351   0.753  -8.837  0.00  0.00     0.024 H 
ATOM     83  H   LIG d   1       6.261   2.342  -8.040  0.00  0.00     0.024 H 
ENDBRANCH  19  80
BRANCH  17  84
ATOM     84  O   LIG d   1       6.375  -0.956  -6.894  0.00  0.00    -0.461 OA
BRANCH  84  85
ATOM     85  C   LIG d   1       5.129  -1.402  -6.668  0.00  0.00     0.304 C 
ATOM     86  O   LIG d   1       4.946  -2.555  -6.359  0.00  0.00    -0.251 OA
BRANCH  85  87
ATOM     87  C   LIG d   1       3.957  -0.462  -6.800  0.00  0.00     0.033 C 
ATOM     88  H   LIG d   1       3.355  -0.502  -5.892  0.00  0.00     0.034 H 
ATOM     89  H   LIG d   1       4.321   0.553  -6.950  0.00  0.00     0.034 H 
ATOM     90  H   LIG d   1       3.347  -0.760  -7.653  0.00  0.00     0.034 H 
ENDBRANCH  85  87
ENDBRANCH  84  85
ENDBRANCH  17  84
TORSDOF 14
ENDMDL
MODEL 8
REMARK VINA RESULT:      -5.1      3.374      9.297
REMARK  14 active torsions:
REMARK  status: ('A' for Active; 'I' for Inactive)
REMARK    1  A    between atoms: C_1  and  C_2 
REMARK    2  A    between atoms: C_2  and  C_4 
REMARK    3  A    between atoms: C_8  and  C_40 
REMARK    4  A    between atoms: C_17  and  C_39 
REMARK    5  A    between atoms: C_20  and  O_35 
REMARK    6  A    between atoms: C_22  and  C_33 
REMARK    7  A    between atoms: C_22  and  C_34 
REMARK    8  A    between atoms: C_27  and  C_32 
REMARK    9  A    between atoms: C_28  and  C_31 
REMARK   10  A    between atoms: O_35  and  C_36 
REMARK   11  A    between atoms: C_36  and  C_38 
REMARK   12  A    between atoms: C_40  and  O_41 
REMARK   13  A    between atoms: O_41  and  C_42 
REMARK   14  A    between atoms: C_42  and  C_44 
ROOT
ATOM      1  C   LIG d   1       8.299  -8.363  -4.068  0.00  0.00     0.021 C 
ATOM      2  H   LIG d   1       7.807  -7.958  -3.189  0.00  0.00     0.038 H 
ATOM      3  C   LIG d   1       8.219  -9.912  -4.078  0.00  0.00    -0.043 C 
ATOM      4  C   LIG d   1       7.474 -10.291  -5.390  0.00  0.00    -0.043 C 
ATOM      5  C   LIG d   1       6.574  -9.060  -5.602  0.00  0.00     0.009 C 
ATOM      6  C   LIG d   1       7.586  -7.916  -5.343  0.00  0.00    -0.019 C 
ATOM      7  H   LIG d   1       8.330  -7.906  -6.148  0.00  0.00     0.032 H 
ATOM      8  C   LIG d   1       6.839  -6.604  -5.305  0.00  0.00    -0.031 C 
ATOM      9  H   LIG d   1       6.082  -6.655  -4.514  0.00  0.00     0.031 H 
ATOM     10  C   LIG d   1       7.765  -5.438  -4.961  0.00  0.00    -0.049 C 
ATOM     11  C   LIG d   1       6.980  -4.121  -4.942  0.00  0.00    -0.049 C 
ATOM     12  C   LIG d   1       6.290  -3.912  -6.285  0.00  0.00    -0.029 C 
ATOM     13  H   LIG d   1       7.098  -3.889  -7.050  0.00  0.00     0.031 H 
ATOM     14  C   LIG d   1       5.647  -2.526  -6.384  0.00  0.00    -0.025 C 
ATOM     15  C   LIG d   1       6.778  -1.481  -6.317  0.00  0.00    -0.044 C 
ATOM     16  C   LIG d   1       6.188  -0.085  -6.487  0.00  0.00    -0.015 C 
ATOM     17  C   LIG d   1       5.529   0.059  -7.851  0.00  0.00     0.108 C 
ATOM     18  H   LIG d   1       6.298   0.005  -8.630  0.00  0.00     0.074 H 
ATOM     19  C   LIG d   1       4.484  -1.023  -8.117  0.00  0.00     0.005 C 
ATOM     20  C   LIG d   1       4.979  -2.402  -7.747  0.00  0.00    -0.027 C 
ATOM     21  H   LIG d   1       5.779  -2.653  -8.494  0.00  0.00     0.031 H 
ATOM     22  C   LIG d   1       3.918  -3.487  -7.918  0.00  0.00    -0.049 C 
ATOM     23  C   LIG d   1       4.636  -4.846  -7.934  0.00  0.00    -0.047 C 
ATOM     24  C   LIG d   1       5.357  -5.069  -6.605  0.00  0.00    -0.023 C 
ATOM     25  C   LIG d   1       6.176  -6.371  -6.669  0.00  0.00    -0.023 C 
ATOM     26  C   LIG d   1       5.288  -7.540  -7.079  0.00  0.00    -0.046 C 
ATOM     27  C   LIG d   1       6.020  -8.888  -7.000  0.00  0.00    -0.043 C 
ATOM     28  H   LIG d   1       9.222 -10.337  -4.084  0.00  0.00     0.027 H 
ATOM     29  H   LIG d   1       7.667 -10.267  -3.211  0.00  0.00     0.027 H 
ATOM     30  H   LIG d   1       8.171 -10.404  -6.216  0.00  0.00     0.027 H 
ATOM     31  H   LIG d   1       6.872 -11.186  -5.250  0.00  0.00     0.027 H 
ATOM     32  H   LIG d   1       8.177  -5.600  -3.957  0.00  0.00     0.027 H 
ATOM     33  H   LIG d   1       8.588  -5.369  -5.663  0.00  0.00     0.027 H 
ATOM     34  H   LIG d   1       6.265  -4.145  -4.124  0.00  0.00     0.027 H 
ATOM     35  H   LIG d   1       7.685  -3.303  -4.765  0.00  0.00     0.027 H 
ATOM     36  H   LIG d   1       7.273  -1.556  -5.351  0.00  0.00     0.027 H 
ATOM     37  H   LIG d   1       7.491  -1.683  -7.114  0.00  0.00     0.027 H 
ATOM     38  H   LIG d   1       5.482   0.147  -5.694  0.00  0.00     0.030 H 
ATOM     39  H   LIG d   1       7.008   0.647  -6.416  0.00  0.00     0.030 H 
ATOM     40  H   LIG d   1       3.187  -3.457  -7.121  0.00  0.00     0.027 H 
ATOM     41  H   LIG d   1       3.403  -3.368  -8.873  0.00  0.00     0.027 H 
ATOM     42  H   LIG d   1       3.892  -5.631  -8.081  0.00  0.00     0.027 H 
ATOM     43  H   LIG d   1       5.338  -4.851  -8.764  0.00  0.00     0.027 H 
ATOM     44  H   LIG d   1       4.385  -7.582  -6.482  0.00  0.00     0.027 H 
ATOM     45  H   LIG d   1       4.987  -7.383  -8.126  0.00  0.00     0.027 H 
ATOM     46  H   LIG d   1       6.826  -8.929  -7.732  0.00  0.00     0.027 H 
ATOM     47  H   LIG d   1       5.313  -9.697  -7.214  0.00  0.00     0.027 H 
ENDROOT
BRANCH   5  48
ATOM     48  C   LIG d   1       5.449  -9.085  -4.567  0.00  0.00     0.098 C 
ATOM     49  H   LIG d   1       5.852  -9.377  -3.598  0.00  0.00     0.070 H 
ATOM     50  H   LIG d   1       5.003  -8.093  -4.492  0.00  0.00     0.070 H 
BRANCH  48  51
ATOM     51  O   LIG d   1       4.451 -10.025  -4.972  0.00  0.00    -0.464 OA
BRANCH  51  52
ATOM     52  C   LIG d   1       3.878 -10.759  -4.005  0.00  0.00     0.304 C 
ATOM     53  O   LIG d   1       2.793 -11.258  -4.187  0.00  0.00    -0.251 OA
BRANCH  52  54
ATOM     54  C   LIG d   1       4.588 -10.960  -2.691  0.00  0.00     0.033 C 
ATOM     55  H   LIG d   1       5.287 -10.140  -2.526  0.00  0.00     0.034 H 
ATOM     56  H   LIG d   1       3.857 -10.983  -1.883  0.00  0.00     0.034 H 
ATOM     57  H   LIG d   1       5.134 -11.904  -2.714  0.00  0.00     0.034 H 
ENDBRANCH  52  54
ENDBRANCH  51  52
ENDBRANCH  48  51
ENDBRANCH   5  48
BRANCH   1  58
ATOM     58  C   LIG d   1       9.747  -7.938  -4.104  0.00  0.00     0.134 C 
ATOM     59  O   LIG d   1      10.410  -8.139  -5.093  0.00  0.00    -0.297 OA
BRANCH  58  60
ATOM     60  C   LIG d   1      10.364  -7.264  -2.906  0.00  0.00    -0.006 C 
ATOM     61  H   LIG d   1      10.213  -7.885  -2.022  0.00  0.00     0.031 H 
ATOM     62  H   LIG d   1      11.431  -7.127  -3.075  0.00  0.00     0.031 H 
ATOM     63  H   LIG d   1       9.893  -6.294  -2.751  0.00  0.00     0.031 H 
ENDBRANCH  58  60
ENDBRANCH   1  58
BRANCH  25  64
ATOM     64  C   LIG d   1       7.258  -6.230  -7.748  0.00  0.00    -0.059 C 
ATOM     65  H   LIG d   1       7.716  -5.244  -7.677  0.00  0.00     0.024 H 
ATOM     66  H   LIG d   1       8.019  -6.997  -7.601  0.00  0.00     0.024 H 
ATOM     67  H   LIG d   1       6.806  -6.352  -8.732  0.00  0.00     0.024 H 
ENDBRANCH  25  64
BRANCH  24  68
ATOM     68  C   LIG d   1       4.287  -5.254  -5.516  0.00  0.00    -0.059 C 
ATOM     69  H   LIG d   1       4.554  -4.661  -4.642  0.00  0.00     0.024 H 
ATOM     70  H   LIG d   1       3.320  -4.926  -5.897  0.00  0.00     0.024 H 
ATOM     71  H   LIG d   1       4.230  -6.306  -5.238  0.00  0.00     0.024 H 
ENDBRANCH  24  68
BRANCH  14  72
ATOM     72  C   LIG d   1       4.700  -2.264  -5.221  0.00  0.00    -0.059 C 
ATOM     73  H   LIG d   1       4.704  -3.121  -4.549  0.00  0.00     0.024 H 
ATOM     74  H   LIG d   1       5.027  -1.376  -4.680  0.00  0.00     0.024 H 
ATOM     75  H   LIG d   1       3.691  -2.105  -5.603  0.00  0.00     0.024 H 
ENDBRANCH  14  72
BRANCH  19  76
ATOM     76  C   LIG d   1       3.168  -0.660  -7.430  0.00  0.00    -0.056 C 
ATOM     77  H   LIG d   1       2.353  -1.223  -7.885  0.00  0.00     0.024 H 
ATOM     78  H   LIG d   1       3.231  -0.906  -6.370  0.00  0.00     0.024 H 
ATOM     79  H   LIG d   1       2.981   0.408  -7.545  0.00  0.00     0.024 H 
ENDBRANCH  19  76
BRANCH  19  80
ATOM     80  C   LIG d   1       4.216  -1.000  -9.643  0.00  0.00    -0.056 C 
ATOM     81  H   LIG d   1       3.760  -1.943  -9.946  0.00  0.00     0.024 H 
ATOM     82  H   LIG d   1       3.542  -0.177  -9.881  0.00  0.00     0.024 H 
ATOM     83  H   LIG d   1       5.157  -0.865 -10.176  0.00  0.00     0.024 H 
ENDBRANCH  19  80
BRANCH  17  84
ATOM     84  O   LIG d   1       4.898   1.344  -7.937  0.00  0.00    -0.461 OA
BRANCH  84  85
ATOM     85  C   LIG d   1       5.096   2.047  -9.063  0.00  0.00     0.304 C 
ATOM     86  O   LIG d   1       6.221   2.284  -9.437  0.00  0.00    -0.251 OA
BRANCH  85  87
ATOM     87  C   LIG d   1       3.917   2.540  -9.863  0.00  0.00     0.033 C 
ATOM     88  H   LIG d   1       4.086   3.575 -10.159  0.00  0.00     0.034 H 
ATOM     89  H   LIG d   1       3.797   1.922 -10.752  0.00  0.00     0.034 H 
ATOM     90  H   LIG d   1       3.015   2.479  -9.253  0.00  0.00     0.034 H 
ENDBRANCH  85  87
ENDBRANCH  84  85
ENDBRANCH  17  84
TORSDOF 14
ENDMDL
MODEL 9
REMARK VINA RESULT:      -5.0      5.884      7.589
REMARK  14 active torsions:
REMARK  status: ('A' for Active; 'I' for Inactive)
REMARK    1  A    between atoms: C_1  and  C_2 
REMARK    2  A    between atoms: C_2  and  C_4 
REMARK    3  A    between atoms: C_8  and  C_40 
REMARK    4  A    between atoms: C_17  and  C_39 
REMARK    5  A    between atoms: C_20  and  O_35 
REMARK    6  A    between atoms: C_22  and  C_33 
REMARK    7  A    between atoms: C_22  and  C_34 
REMARK    8  A    between atoms: C_27  and  C_32 
REMARK    9  A    between atoms: C_28  and  C_31 
REMARK   10  A    between atoms: O_35  and  C_36 
REMARK   11  A    between atoms: C_36  and  C_38 
REMARK   12  A    between atoms: C_40  and  O_41 
REMARK   13  A    between atoms: O_41  and  C_42 
REMARK   14  A    between atoms: C_42  and  C_44 
ROOT
ATOM      1  C   LIG d   1       5.404  -0.463  -5.547  0.00  0.00     0.021 C 
ATOM      2  H   LIG d   1       4.943   0.519  -5.520  0.00  0.00     0.038 H 
ATOM      3  C   LIG d   1       4.735  -1.355  -6.625  0.00  0.00    -0.043 C 
ATOM      4  C   LIG d   1       5.869  -1.752  -7.612  0.00  0.00    -0.043 C 
ATOM      5  C   LIG d   1       6.815  -0.544  -7.501  0.00  0.00     0.009 C 
ATOM      6  C   LIG d   1       6.871  -0.363  -5.963  0.00  0.00    -0.019 C 
ATOM      7  H   LIG d   1       7.397  -1.217  -5.521  0.00  0.00     0.032 H 
ATOM      8  C   LIG d   1       7.602   0.920  -5.649  0.00  0.00    -0.031 C 
ATOM      9  H   LIG d   1       7.074   1.751  -6.131  0.00  0.00     0.031 H 
ATOM     10  C   LIG d   1       7.615   1.210  -4.149  0.00  0.00    -0.049 C 
ATOM     11  C   LIG d   1       8.374   2.510  -3.862  0.00  0.00    -0.049 C 
ATOM     12  C   LIG d   1       9.787   2.419  -4.428  0.00  0.00    -0.029 C 
ATOM     13  H   LIG d   1      10.268   1.551  -3.923  0.00  0.00     0.031 H 
ATOM     14  C   LIG d   1      10.646   3.615  -4.008  0.00  0.00    -0.025 C 
ATOM     15  C   LIG d   1      10.795   3.567  -2.474  0.00  0.00    -0.044 C 
ATOM     16  C   LIG d   1      11.707   4.701  -2.019  0.00  0.00    -0.015 C 
ATOM     17  C   LIG d   1      13.101   4.541  -2.607  0.00  0.00     0.108 C 
ATOM     18  H   LIG d   1      13.569   3.644  -2.184  0.00  0.00     0.074 H 
ATOM     19  C   LIG d   1      13.087   4.415  -4.129  0.00  0.00     0.005 C 
ATOM     20  C   LIG d   1      12.032   3.448  -4.616  0.00  0.00    -0.027 C 
ATOM     21  H   LIG d   1      12.377   2.429  -4.295  0.00  0.00     0.031 H 
ATOM     22  C   LIG d   1      11.938   3.378  -6.138  0.00  0.00    -0.049 C 
ATOM     23  C   LIG d   1      11.173   2.095  -6.502  0.00  0.00    -0.047 C 
ATOM     24  C   LIG d   1       9.759   2.152  -5.924  0.00  0.00    -0.023 C 
ATOM     25  C   LIG d   1       9.037   0.816  -6.182  0.00  0.00    -0.023 C 
ATOM     26  C   LIG d   1       9.072   0.469  -7.666  0.00  0.00    -0.046 C 
ATOM     27  C   LIG d   1       8.227  -0.769  -7.998  0.00  0.00    -0.043 C 
ATOM     28  H   LIG d   1       4.315  -2.248  -6.162  0.00  0.00     0.027 H 
ATOM     29  H   LIG d   1       3.956  -0.800  -7.143  0.00  0.00     0.027 H 
ATOM     30  H   LIG d   1       6.368  -2.662  -7.289  0.00  0.00     0.027 H 
ATOM     31  H   LIG d   1       5.486  -1.846  -8.626  0.00  0.00     0.027 H 
ATOM     32  H   LIG d   1       6.580   1.340  -3.806  0.00  0.00     0.027 H 
ATOM     33  H   LIG d   1       8.060   0.391  -3.594  0.00  0.00     0.027 H 
ATOM     34  H   LIG d   1       7.825   3.344  -4.291  0.00  0.00     0.027 H 
ATOM     35  H   LIG d   1       8.425   2.647  -2.777  0.00  0.00     0.027 H 
ATOM     36  H   LIG d   1       9.812   3.679  -2.018  0.00  0.00     0.027 H 
ATOM     37  H   LIG d   1      11.225   2.608  -2.193  0.00  0.00     0.027 H 
ATOM     38  H   LIG d   1      11.292   5.672  -2.276  0.00  0.00     0.030 H 
ATOM     39  H   LIG d   1      11.784   4.662  -0.920  0.00  0.00     0.030 H 
ATOM     40  H   LIG d   1      11.435   4.245  -6.545  0.00  0.00     0.027 H 
ATOM     41  H   LIG d   1      12.935   3.310  -6.577  0.00  0.00     0.027 H 
ATOM     42  H   LIG d   1      11.120   2.017  -7.589  0.00  0.00     0.027 H 
ATOM     43  H   LIG d   1      11.723   1.246  -6.103  0.00  0.00     0.027 H 
ATOM     44  H   LIG d   1       8.749   1.304  -8.277  0.00  0.00     0.027 H 
ATOM     45  H   LIG d   1      10.115   0.245  -7.935  0.00  0.00     0.027 H 
ATOM     46  H   LIG d   1       8.652  -1.658  -7.532  0.00  0.00     0.027 H 
ATOM     47  H   LIG d   1       8.212  -0.917  -9.083  0.00  0.00     0.027 H 
ENDROOT
BRANCH   5  48
ATOM     48  C   LIG d   1       6.174   0.654  -8.202  0.00  0.00     0.098 C 
ATOM     49  H   LIG d   1       5.286   0.965  -7.653  0.00  0.00     0.070 H 
ATOM     50  H   LIG d   1       6.886   1.479  -8.239  0.00  0.00     0.070 H 
BRANCH  48  51
ATOM     51  O   LIG d   1       5.806   0.286  -9.534  0.00  0.00    -0.464 OA
BRANCH  51  52
ATOM     52  C   LIG d   1       4.862   1.027 -10.132  0.00  0.00     0.304 C 
ATOM     53  O   LIG d   1       4.450   0.716 -11.225  0.00  0.00    -0.251 OA
BRANCH  52  54
ATOM     54  C   LIG d   1       4.314   2.250  -9.443  0.00  0.00     0.033 C 
ATOM     55  H   LIG d   1       3.234   2.297  -9.589  0.00  0.00     0.034 H 
ATOM     56  H   LIG d   1       4.534   2.195  -8.377  0.00  0.00     0.034 H 
ATOM     57  H   LIG d   1       4.777   3.143  -9.865  0.00  0.00     0.034 H 
ENDBRANCH  52  54
ENDBRANCH  51  52
ENDBRANCH  48  51
ENDBRANCH   5  48
BRANCH   1  58
ATOM     58  C   LIG d   1       5.290  -1.136  -4.200  0.00  0.00     0.134 C 
ATOM     59  O   LIG d   1       4.445  -0.776  -3.416  0.00  0.00    -0.297 OA
BRANCH  58  60
ATOM     60  C   LIG d   1       6.228  -2.257  -3.837  0.00  0.00    -0.006 C 
ATOM     61  H   LIG d   1       6.318  -2.944  -4.679  0.00  0.00     0.031 H 
ATOM     62  H   LIG d   1       7.208  -1.847  -3.596  0.00  0.00     0.031 H 
ATOM     63  H   LIG d   1       5.836  -2.794  -2.972  0.00  0.00     0.031 H 
ENDBRANCH  58  60
ENDBRANCH   1  58
BRANCH  25  64
ATOM     64  C   LIG d   1       9.779  -0.305  -5.442  0.00  0.00    -0.059 C 
ATOM     65  H   LIG d   1      10.794   0.019  -5.215  0.00  0.00     0.024 H 
ATOM     66  H   LIG d   1       9.254  -0.538  -4.516  0.00  0.00     0.024 H 
ATOM     67  H   LIG d   1       9.814  -1.194  -6.072  0.00  0.00     0.024 H 
ENDBRANCH  25  64
BRANCH  24  68
ATOM     68  C   LIG d   1       8.986   3.243  -6.682  0.00  0.00    -0.059 C 
ATOM     69  H   LIG d   1       9.133   4.202  -6.186  0.00  0.00     0.024 H 
ATOM     70  H   LIG d   1       9.353   3.304  -7.706  0.00  0.00     0.024 H 
ATOM     71  H   LIG d   1       7.925   2.997  -6.691  0.00  0.00     0.024 H 
ENDBRANCH  24  68
BRANCH  14  72
ATOM     72  C   LIG d   1       9.982   4.936  -4.370  0.00  0.00    -0.059 C 
ATOM     73  H   LIG d   1       9.907   5.020  -5.454  0.00  0.00     0.024 H 
ATOM     74  H   LIG d   1       8.984   4.973  -3.933  0.00  0.00     0.024 H 
ATOM     75  H   LIG d   1      10.579   5.761  -3.981  0.00  0.00     0.024 H 
ENDBRANCH  14  72
BRANCH  19  76
ATOM     76  C   LIG d   1      12.964   5.798  -4.767  0.00  0.00    -0.056 C 
ATOM     77  H   LIG d   1      13.954   6.249  -4.849  0.00  0.00     0.024 H 
ATOM     78  H   LIG d   1      12.525   5.703  -5.761  0.00  0.00     0.024 H 
ATOM     79  H   LIG d   1      12.327   6.430  -4.147  0.00  0.00     0.024 H 
ENDBRANCH  19  76
BRANCH  19  80
ATOM     80  C   LIG d   1      14.475   3.856  -4.530  0.00  0.00    -0.056 C 
ATOM     81  H   LIG d   1      14.519   3.736  -5.613  0.00  0.00     0.024 H 
ATOM     82  H   LIG d   1      15.252   4.550  -4.209  0.00  0.00     0.024 H 
ATOM     83  H   LIG d   1      14.630   2.890  -4.052  0.00  0.00     0.024 H 
ENDBRANCH  19  80
BRANCH  17  84
ATOM     84  O   LIG d   1      13.900   5.674  -2.243  0.00  0.00    -0.461 OA
BRANCH  84  85
ATOM     85  C   LIG d   1      14.587   5.592  -1.092  0.00  0.00     0.304 C 
ATOM     86  O   LIG d   1      14.297   6.307  -0.163  0.00  0.00    -0.251 OA
BRANCH  85  87
ATOM     87  C   LIG d   1      15.721   4.607  -0.959  0.00  0.00     0.033 C 
ATOM     88  H   LIG d   1      16.642   5.142  -0.732  0.00  0.00     0.034 H 
ATOM     89  H   LIG d   1      15.500   3.905  -0.155  0.00  0.00     0.034 H 
ATOM     90  H   LIG d   1      15.839   4.061  -1.896  0.00  0.00     0.034 H 
ENDBRANCH  85  87
ENDBRANCH  84  85
ENDBRANCH  17  84
TORSDOF 14
ENDMDL
