MODEL 1
REMARK VINA RESULT:      -5.5      0.000      0.000
REMARK  3 active torsions:
REMARK  status: ('A' for Active; 'I' for Inactive)
REMARK    1  A    between atoms: C_3  and  N_10 
REMARK    2  A    between atoms: C_5  and  N_7 
REMARK    3  A    between atoms: N_10  and  C_11 
ROOT
ATOM      1  C   LIG d   1       4.289   0.075  -1.756  0.00  0.00    -0.054 A 
ATOM      2  C   LIG d   1       4.444  -1.273  -2.016  0.00  0.00    -0.040 A 
ATOM      3  C   LIG d   1       4.056  -1.792  -3.244  0.00  0.00     0.039 A 
ATOM      4  C   LIG d   1       3.512  -0.952  -4.208  0.00  0.00     0.037 A 
ATOM      5  C   LIG d   1       3.355   0.394  -3.941  0.00  0.00     0.275 A 
ATOM      6  C   LIG d   1       3.748   0.908  -2.718  0.00  0.00     0.016 A 
ATOM      7  H   LIG d   1       4.591   0.479  -0.801  0.00  0.00     0.062 H 
ATOM      8  H   LIG d   1       4.867  -1.923  -1.263  0.00  0.00     0.064 H 
ATOM      9  H   LIG d   1       3.210  -1.352  -5.164  0.00  0.00     0.070 H 
ATOM     10  H   LIG d   1       3.626   1.962  -2.513  0.00  0.00     0.069 H 
ENDROOT
BRANCH   3  11
ATOM     11  N   LIG d   1       4.211  -3.156  -3.509  0.00  0.00    -0.297 N 
ATOM     12  H   LIG d   1       3.880  -3.813  -2.877  0.00  0.00     0.154 HD
BRANCH  11  13
ATOM     13  C   LIG d   1       4.819  -3.557  -4.642  0.00  0.00     0.132 C 
ATOM     14  S   LIG d   1       6.505  -3.327  -4.837  0.00  0.00    -0.019 SA
ATOM     15  N   LIG d   1       4.102  -4.140  -5.623  0.00  0.00    -0.340 N 
ATOM     16  H   LIG d   1       3.147  -4.271  -5.512  0.00  0.00     0.144 HD
ATOM     17  H   LIG d   1       4.539  -4.429  -6.439  0.00  0.00     0.144 HD
ENDBRANCH  11  13
ENDBRANCH   3  11
BRANCH   5  18
ATOM     18  N   LIG d   1       2.770   1.288  -4.965  0.00  0.00     0.080 N 
ATOM     19  O   LIG d   1       2.312   2.368  -4.640  0.00  0.00     0.041 OA
ATOM     20  O   LIG d   1       2.748   0.943  -6.133  0.00  0.00    -0.576 OA
ENDBRANCH   5  18
TORSDOF 3
ENDMDL
MODEL 2
REMARK VINA RESULT:      -5.3      1.666      2.061
REMARK  3 active torsions:
REMARK  status: ('A' for Active; 'I' for Inactive)
REMARK    1  A    between atoms: C_3  and  N_10 
REMARK    2  A    between atoms: C_5  and  N_7 
REMARK    3  A    between atoms: N_10  and  C_11 
ROOT
ATOM      1  C   LIG d   1       3.857  -2.080  -2.344  0.00  0.00    -0.054 A 
ATOM      2  C   LIG d   1       4.397  -2.834  -3.368  0.00  0.00    -0.040 A 
ATOM      3  C   LIG d   1       4.557  -2.277  -4.630  0.00  0.00     0.039 A 
ATOM      4  C   LIG d   1       4.172  -0.961  -4.858  0.00  0.00     0.037 A 
ATOM      5  C   LIG d   1       3.628  -0.214  -3.832  0.00  0.00     0.275 A 
ATOM      6  C   LIG d   1       3.475  -0.771  -2.575  0.00  0.00     0.016 A 
ATOM      7  H   LIG d   1       3.732  -2.512  -1.362  0.00  0.00     0.062 H 
ATOM      8  H   LIG d   1       4.694  -3.856  -3.186  0.00  0.00     0.064 H 
ATOM      9  H   LIG d   1       4.297  -0.525  -5.838  0.00  0.00     0.070 H 
ATOM     10  H   LIG d   1       3.052  -0.183  -1.774  0.00  0.00     0.069 H 
ENDROOT
BRANCH   3  11
ATOM     11  N   LIG d   1       5.103  -3.038  -5.667  0.00  0.00    -0.297 N 
ATOM     12  H   LIG d   1       6.060  -3.196  -5.701  0.00  0.00     0.154 HD
BRANCH  11  13
ATOM     13  C   LIG d   1       4.301  -3.552  -6.621  0.00  0.00     0.132 C 
ATOM     14  S   LIG d   1       4.244  -2.830  -8.173  0.00  0.00    -0.019 SA
ATOM     15  N   LIG d   1       3.544  -4.634  -6.354  0.00  0.00    -0.340 N 
ATOM     16  H   LIG d   1       3.576  -5.043  -5.474  0.00  0.00     0.144 HD
ATOM     17  H   LIG d   1       2.967  -5.005  -7.039  0.00  0.00     0.144 HD
ENDBRANCH  11  13
ENDBRANCH   3  11
BRANCH   5  18
ATOM     18  N   LIG d   1       3.213   1.185  -4.077  0.00  0.00     0.080 N 
ATOM     19  O   LIG d   1       2.521   1.455  -5.043  0.00  0.00     0.041 OA
ATOM     20  O   LIG d   1       3.562   2.067  -3.313  0.00  0.00    -0.576 OA
ENDBRANCH   5  18
TORSDOF 3
ENDMDL
MODEL 3
REMARK VINA RESULT:      -5.1      2.053      2.292
REMARK  3 active torsions:
REMARK  status: ('A' for Active; 'I' for Inactive)
REMARK    1  A    between atoms: C_3  and  N_10 
REMARK    2  A    between atoms: C_5  and  N_7 
REMARK    3  A    between atoms: N_10  and  C_11 
ROOT
ATOM      1  C   LIG d   1       3.572  -1.704  -2.394  0.00  0.00    -0.054 A 
ATOM      2  C   LIG d   1       4.948  -1.813  -2.436  0.00  0.00    -0.040 A 
ATOM      3  C   LIG d   1       5.668  -1.136  -3.412  0.00  0.00     0.039 A 
ATOM      4  C   LIG d   1       5.001  -0.350  -4.343  0.00  0.00     0.037 A 
ATOM      5  C   LIG d   1       3.624  -0.248  -4.299  0.00  0.00     0.275 A 
ATOM      6  C   LIG d   1       2.910  -0.920  -3.323  0.00  0.00     0.016 A 
ATOM      7  H   LIG d   1       3.011  -2.229  -1.636  0.00  0.00     0.062 H 
ATOM      8  H   LIG d   1       5.463  -2.426  -1.711  0.00  0.00     0.064 H 
ATOM      9  H   LIG d   1       5.558   0.178  -5.102  0.00  0.00     0.070 H 
ATOM     10  H   LIG d   1       1.834  -0.836  -3.289  0.00  0.00     0.069 H 
ENDROOT
BRANCH   3  11
ATOM     11  N   LIG d   1       7.061  -1.246  -3.457  0.00  0.00    -0.297 N 
ATOM     12  H   LIG d   1       7.615  -0.473  -3.266  0.00  0.00     0.154 HD
BRANCH  11  13
ATOM     13  C   LIG d   1       7.635  -2.426  -3.763  0.00  0.00     0.132 C 
ATOM     14  S   LIG d   1       7.173  -3.259  -5.186  0.00  0.00    -0.019 SA
ATOM     15  N   LIG d   1       8.573  -2.952  -2.951  0.00  0.00    -0.340 N 
ATOM     16  H   LIG d   1       8.836  -2.480  -2.145  0.00  0.00     0.144 HD
ATOM     17  H   LIG d   1       8.987  -3.801  -3.171  0.00  0.00     0.144 HD
ENDBRANCH  11  13
ENDBRANCH   3  11
BRANCH   5  18
ATOM     18  N   LIG d   1       2.913   0.584  -5.295  0.00  0.00     0.080 N 
ATOM     19  O   LIG d   1       2.536   1.703  -4.995  0.00  0.00     0.041 OA
ATOM     20  O   LIG d   1       2.705   0.151  -6.413  0.00  0.00    -0.576 OA
ENDBRANCH   5  18
TORSDOF 3
ENDMDL
MODEL 4
REMARK VINA RESULT:      -5.0      2.634      2.995
REMARK  3 active torsions:
REMARK  status: ('A' for Active; 'I' for Inactive)
REMARK    1  A    between atoms: C_3  and  N_10 
REMARK    2  A    between atoms: C_5  and  N_7 
REMARK    3  A    between atoms: N_10  and  C_11 
ROOT
ATOM      1  C   LIG d   1       3.905  -2.392  -2.443  0.00  0.00    -0.054 A 
ATOM      2  C   LIG d   1       4.304  -2.875  -3.674  0.00  0.00    -0.040 A 
ATOM      3  C   LIG d   1       5.061  -2.075  -4.520  0.00  0.00     0.039 A 
ATOM      4  C   LIG d   1       5.415  -0.791  -4.123  0.00  0.00     0.037 A 
ATOM      5  C   LIG d   1       5.010  -0.313  -2.893  0.00  0.00     0.275 A 
ATOM      6  C   LIG d   1       4.259  -1.114  -2.051  0.00  0.00     0.016 A 
ATOM      7  H   LIG d   1       3.316  -3.013  -1.784  0.00  0.00     0.062 H 
ATOM      8  H   LIG d   1       4.026  -3.873  -3.979  0.00  0.00     0.064 H 
ATOM      9  H   LIG d   1       6.005  -0.168  -4.778  0.00  0.00     0.070 H 
ATOM     10  H   LIG d   1       3.946  -0.738  -1.088  0.00  0.00     0.069 H 
ENDROOT
BRANCH   3  11
ATOM     11  N   LIG d   1       5.465  -2.560  -5.767  0.00  0.00    -0.297 N 
ATOM     12  H   LIG d   1       6.409  -2.686  -5.955  0.00  0.00     0.154 HD
BRANCH  11  13
ATOM     13  C   LIG d   1       4.545  -2.854  -6.707  0.00  0.00     0.132 C 
ATOM     14  S   LIG d   1       4.280  -4.482  -7.167  0.00  0.00    -0.019 SA
ATOM     15  N   LIG d   1       3.833  -1.866  -7.285  0.00  0.00    -0.340 N 
ATOM     16  H   LIG d   1       3.983  -0.944  -7.023  0.00  0.00     0.144 HD
ATOM     17  H   LIG d   1       3.170  -2.077  -7.961  0.00  0.00     0.144 HD
ENDBRANCH  11  13
ENDBRANCH   3  11
BRANCH   5  18
ATOM     18  N   LIG d   1       5.382   1.057  -2.473  0.00  0.00     0.080 N 
ATOM     19  O   LIG d   1       6.160   1.709  -3.146  0.00  0.00     0.041 OA
ATOM     20  O   LIG d   1       4.911   1.531  -1.456  0.00  0.00    -0.576 OA
ENDBRANCH   5  18
TORSDOF 3
ENDMDL
MODEL 5
REMARK VINA RESULT:      -5.0      3.742      4.689
REMARK  3 active torsions:
REMARK  status: ('A' for Active; 'I' for Inactive)
REMARK    1  A    between atoms: C_3  and  N_10 
REMARK    2  A    between atoms: C_5  and  N_7 
REMARK    3  A    between atoms: N_10  and  C_11 
ROOT
ATOM      1  C   LIG d   1       4.442  -0.013  -1.711  0.00  0.00    -0.054 A 
ATOM      2  C   LIG d   1       5.186   1.001  -2.281  0.00  0.00    -0.040 A 
ATOM      3  C   LIG d   1       5.954   0.748  -3.409  0.00  0.00     0.039 A 
ATOM      4  C   LIG d   1       5.971  -0.527  -3.962  0.00  0.00     0.037 A 
ATOM      5  C   LIG d   1       5.229  -1.539  -3.385  0.00  0.00     0.275 A 
ATOM      6  C   LIG d   1       4.461  -1.282  -2.263  0.00  0.00     0.016 A 
ATOM      7  H   LIG d   1       3.844   0.182  -0.833  0.00  0.00     0.062 H 
ATOM      8  H   LIG d   1       5.170   1.990  -1.848  0.00  0.00     0.064 H 
ATOM      9  H   LIG d   1       6.566  -0.727  -4.840  0.00  0.00     0.070 H 
ATOM     10  H   LIG d   1       3.880  -2.074  -1.816  0.00  0.00     0.069 H 
ENDROOT
BRANCH   3  11
ATOM     11  N   LIG d   1       6.708   1.773  -3.988  0.00  0.00    -0.297 N 
ATOM     12  H   LIG d   1       6.358   2.677  -4.014  0.00  0.00     0.154 HD
BRANCH  11  13
ATOM     13  C   LIG d   1       7.922   1.505  -4.509  0.00  0.00     0.132 C 
ATOM     14  S   LIG d   1       8.131   1.446  -6.207  0.00  0.00    -0.019 SA
ATOM     15  N   LIG d   1       8.972   1.285  -3.693  0.00  0.00    -0.340 N 
ATOM     16  H   LIG d   1       8.854   1.320  -2.731  0.00  0.00     0.144 HD
ATOM     17  H   LIG d   1       9.846   1.093  -4.067  0.00  0.00     0.144 HD
ENDBRANCH  11  13
ENDBRANCH   3  11
BRANCH   5  18
ATOM     18  N   LIG d   1       5.252  -2.898  -3.969  0.00  0.00     0.080 N 
ATOM     19  O   LIG d   1       6.286  -3.343  -4.434  0.00  0.00     0.041 OA
ATOM     20  O   LIG d   1       4.238  -3.572  -3.985  0.00  0.00    -0.576 OA
ENDBRANCH   5  18
TORSDOF 3
ENDMDL
MODEL 6
REMARK VINA RESULT:      -4.9      2.563      2.698
REMARK  3 active torsions:
REMARK  status: ('A' for Active; 'I' for Inactive)
REMARK    1  A    between atoms: C_3  and  N_10 
REMARK    2  A    between atoms: C_5  and  N_7 
REMARK    3  A    between atoms: N_10  and  C_11 
ROOT
ATOM      1  C   LIG d   1       4.267  -0.044  -1.816  0.00  0.00    -0.054 A 
ATOM      2  C   LIG d   1       3.874  -1.214  -2.435  0.00  0.00    -0.040 A 
ATOM      3  C   LIG d   1       4.489  -1.616  -3.613  0.00  0.00     0.039 A 
ATOM      4  C   LIG d   1       5.499  -0.839  -4.165  0.00  0.00     0.037 A 
ATOM      5  C   LIG d   1       5.885   0.333  -3.544  0.00  0.00     0.275 A 
ATOM      6  C   LIG d   1       5.273   0.728  -2.368  0.00  0.00     0.016 A 
ATOM      7  H   LIG d   1       3.790   0.270  -0.900  0.00  0.00     0.062 H 
ATOM      8  H   LIG d   1       3.088  -1.815  -2.002  0.00  0.00     0.064 H 
ATOM      9  H   LIG d   1       5.981  -1.150  -5.080  0.00  0.00     0.070 H 
ATOM     10  H   LIG d   1       5.580   1.644  -1.883  0.00  0.00     0.069 H 
ENDROOT
BRANCH   3  11
ATOM     11  N   LIG d   1       4.092  -2.800  -4.242  0.00  0.00    -0.297 N 
ATOM     12  H   LIG d   1       3.384  -3.340  -3.856  0.00  0.00     0.154 HD
BRANCH  11  13
ATOM     13  C   LIG d   1       4.693  -3.192  -5.382  0.00  0.00     0.132 C 
ATOM     14  S   LIG d   1       6.141  -4.105  -5.319  0.00  0.00    -0.019 SA
ATOM     15  N   LIG d   1       4.155  -2.866  -6.575  0.00  0.00    -0.340 N 
ATOM     16  H   LIG d   1       3.335  -2.349  -6.611  0.00  0.00     0.144 HD
ATOM     17  H   LIG d   1       4.587  -3.147  -7.396  0.00  0.00     0.144 HD
ENDBRANCH  11  13
ENDBRANCH   3  11
BRANCH   5  18
ATOM     18  N   LIG d   1       6.957   1.164  -4.136  0.00  0.00     0.080 N 
ATOM     19  O   LIG d   1       7.151   1.142  -5.338  0.00  0.00     0.041 OA
ATOM     20  O   LIG d   1       7.645   1.870  -3.421  0.00  0.00    -0.576 OA
ENDBRANCH   5  18
TORSDOF 3
ENDMDL
MODEL 7
REMARK VINA RESULT:      -4.8      3.349      4.312
REMARK  3 active torsions:
REMARK  status: ('A' for Active; 'I' for Inactive)
REMARK    1  A    between atoms: C_3  and  N_10 
REMARK    2  A    between atoms: C_5  and  N_7 
REMARK    3  A    between atoms: N_10  and  C_11 
ROOT
ATOM      1  C   LIG d   1       2.866  -1.016  -2.937  0.00  0.00    -0.054 A 
ATOM      2  C   LIG d   1       2.602  -0.202  -4.021  0.00  0.00    -0.040 A 
ATOM      3  C   LIG d   1       3.514  -0.120  -5.065  0.00  0.00     0.039 A 
ATOM      4  C   LIG d   1       4.689  -0.860  -5.016  0.00  0.00     0.037 A 
ATOM      5  C   LIG d   1       4.949  -1.669  -3.927  0.00  0.00     0.275 A 
ATOM      6  C   LIG d   1       4.037  -1.751  -2.891  0.00  0.00     0.016 A 
ATOM      7  H   LIG d   1       2.158  -1.081  -2.124  0.00  0.00     0.062 H 
ATOM      8  H   LIG d   1       1.687   0.372  -4.055  0.00  0.00     0.064 H 
ATOM      9  H   LIG d   1       5.399  -0.800  -5.827  0.00  0.00     0.070 H 
ATOM     10  H   LIG d   1       4.242  -2.387  -2.042  0.00  0.00     0.069 H 
ENDROOT
BRANCH   3  11
ATOM     11  N   LIG d   1       3.249   0.704  -6.163  0.00  0.00    -0.297 N 
ATOM     12  H   LIG d   1       2.982   1.626  -6.024  0.00  0.00     0.154 HD
BRANCH  11  13
ATOM     13  C   LIG d   1       3.365   0.217  -7.414  0.00  0.00     0.132 C 
ATOM     14  S   LIG d   1       4.669   0.712  -8.408  0.00  0.00    -0.019 SA
ATOM     15  N   LIG d   1       2.456  -0.660  -7.884  0.00  0.00    -0.340 N 
ATOM     16  H   LIG d   1       1.718  -0.941  -7.321  0.00  0.00     0.144 HD
ATOM     17  H   LIG d   1       2.539  -1.011  -8.785  0.00  0.00     0.144 HD
ENDBRANCH  11  13
ENDBRANCH   3  11
BRANCH   5  18
ATOM     18  N   LIG d   1       6.204  -2.452  -3.872  0.00  0.00     0.080 N 
ATOM     19  O   LIG d   1       7.125  -2.076  -3.169  0.00  0.00     0.041 OA
ATOM     20  O   LIG d   1       6.315  -3.471  -4.528  0.00  0.00    -0.576 OA
ENDBRANCH   5  18
TORSDOF 3
ENDMDL
MODEL 8
REMARK VINA RESULT:      -4.7      2.687      3.598
REMARK  3 active torsions:
REMARK  status: ('A' for Active; 'I' for Inactive)
REMARK    1  A    between atoms: C_3  and  N_10 
REMARK    2  A    between atoms: C_5  and  N_7 
REMARK    3  A    between atoms: N_10  and  C_11 
ROOT
ATOM      1  C   LIG d   1       5.064  -2.453  -3.546  0.00  0.00    -0.054 A 
ATOM      2  C   LIG d   1       4.638  -2.297  -4.851  0.00  0.00    -0.040 A 
ATOM      3  C   LIG d   1       4.043  -1.107  -5.248  0.00  0.00     0.039 A 
ATOM      4  C   LIG d   1       3.880  -0.076  -4.332  0.00  0.00     0.037 A 
ATOM      5  C   LIG d   1       4.303  -0.240  -3.027  0.00  0.00     0.275 A 
ATOM      6  C   LIG d   1       4.899  -1.425  -2.636  0.00  0.00     0.016 A 
ATOM      7  H   LIG d   1       5.526  -3.378  -3.235  0.00  0.00     0.062 H 
ATOM      8  H   LIG d   1       4.767  -3.101  -5.560  0.00  0.00     0.064 H 
ATOM      9  H   LIG d   1       3.419   0.851  -4.639  0.00  0.00     0.070 H 
ATOM     10  H   LIG d   1       5.232  -1.549  -1.615  0.00  0.00     0.069 H 
ENDROOT
BRANCH   3  11
ATOM     11  N   LIG d   1       3.611  -0.947  -6.568  0.00  0.00    -0.297 N 
ATOM     12  H   LIG d   1       2.917  -1.524  -6.925  0.00  0.00     0.154 HD
BRANCH  11  13
ATOM     13  C   LIG d   1       4.157   0.009  -7.345  0.00  0.00     0.132 C 
ATOM     14  S   LIG d   1       5.778  -0.143  -7.878  0.00  0.00    -0.019 SA
ATOM     15  N   LIG d   1       3.429   1.084  -7.704  0.00  0.00    -0.340 N 
ATOM     16  H   LIG d   1       2.510   1.170  -7.403  0.00  0.00     0.144 HD
ATOM     17  H   LIG d   1       3.821   1.772  -8.264  0.00  0.00     0.144 HD
ENDBRANCH  11  13
ENDBRANCH   3  11
BRANCH   5  18
ATOM     18  N   LIG d   1       4.123   0.856  -2.049  0.00  0.00     0.080 N 
ATOM     19  O   LIG d   1       3.160   1.598  -2.137  0.00  0.00     0.041 OA
ATOM     20  O   LIG d   1       4.936   1.016  -1.157  0.00  0.00    -0.576 OA
ENDBRANCH   5  18
TORSDOF 3
ENDMDL
MODEL 9
REMARK VINA RESULT:      -4.6      3.091      3.575
REMARK  3 active torsions:
REMARK  status: ('A' for Active; 'I' for Inactive)
REMARK    1  A    between atoms: C_3  and  N_10 
REMARK    2  A    between atoms: C_5  and  N_7 
REMARK    3  A    between atoms: N_10  and  C_11 
ROOT
ATOM      1  C   LIG d   1       4.317  -2.510  -3.405  0.00  0.00    -0.054 A 
ATOM      2  C   LIG d   1       5.498  -2.972  -3.952  0.00  0.00    -0.040 A 
ATOM      3  C   LIG d   1       6.619  -2.153  -3.978  0.00  0.00     0.039 A 
ATOM      4  C   LIG d   1       6.548  -0.869  -3.451  0.00  0.00     0.037 A 
ATOM      5  C   LIG d   1       5.364  -0.410  -2.909  0.00  0.00     0.275 A 
ATOM      6  C   LIG d   1       4.251  -1.231  -2.881  0.00  0.00     0.016 A 
ATOM      7  H   LIG d   1       3.445  -3.146  -3.384  0.00  0.00     0.062 H 
ATOM      8  H   LIG d   1       5.548  -3.971  -4.361  0.00  0.00     0.064 H 
ATOM      9  H   LIG d   1       7.419  -0.230  -3.468  0.00  0.00     0.070 H 
ATOM     10  H   LIG d   1       3.326  -0.870  -2.454  0.00  0.00     0.069 H 
ENDROOT
BRANCH   3  11
ATOM     11  N   LIG d   1       7.815  -2.619  -4.532  0.00  0.00    -0.297 N 
ATOM     12  H   LIG d   1       8.164  -2.214  -5.342  0.00  0.00     0.154 HD
BRANCH  11  13
ATOM     13  C   LIG d   1       8.483  -3.629  -3.941  0.00  0.00     0.132 C 
ATOM     14  S   LIG d   1       8.587  -5.154  -4.714  0.00  0.00    -0.019 SA
ATOM     15  N   LIG d   1       9.070  -3.440  -2.743  0.00  0.00    -0.340 N 
ATOM     16  H   LIG d   1       9.011  -2.576  -2.306  0.00  0.00     0.144 HD
ATOM     17  H   LIG d   1       9.551  -4.167  -2.317  0.00  0.00     0.144 HD
ENDBRANCH  11  13
ENDBRANCH   3  11
BRANCH   5  18
ATOM     18  N   LIG d   1       5.287   0.959  -2.353  0.00  0.00     0.080 N 
ATOM     19  O   LIG d   1       4.769   1.147  -1.267  0.00  0.00     0.041 OA
ATOM     20  O   LIG d   1       5.742   1.898  -2.981  0.00  0.00    -0.576 OA
ENDBRANCH   5  18
TORSDOF 3
ENDMDL
