MODEL 1
REMARK VINA RESULT:      -6.9      0.000      0.000
REMARK  10 active torsions:
REMARK  status: ('A' for Active; 'I' for Inactive)
REMARK    1  A    between atoms: C_1  and  N_2 
REMARK    2  A    between atoms: N_2  and  C_3 
REMARK    3  A    between atoms: N_2  and  C_4 
REMARK    4  A    between atoms: C_7  and  C_10 
REMARK    5  A    between atoms: C_10  and  N_11 
REMARK    6  A    between atoms: N_11  and  C_12 
REMARK    7  A    between atoms: C_22  and  N_24 
REMARK    8  A    between atoms: C_25  and  C_29 
REMARK    9  A    between atoms: C_33  and  C_35 
REMARK   10  A    between atoms: C_35  and  N_36 
ROOT
ATOM      1  C   LIG d   1      10.363   2.922  -5.709  0.00  0.00     0.031 C 
ATOM      2  H   LIG d   1      10.514   2.906  -6.788  0.00  0.00     0.090 H 
ATOM      3  C   LIG d   1      11.199   1.814  -5.029  0.00  0.00     0.093 C 
ATOM      4  O   LIG d   1      10.291   0.700  -4.889  0.00  0.00    -0.366 OA
ATOM      5  C   LIG d   1       9.037   1.285  -4.486  0.00  0.00     0.115 C 
ATOM      6  H   LIG d   1       8.995   1.495  -3.417  0.00  0.00     0.065 H 
ATOM      7  C   LIG d   1       8.899   2.563  -5.362  0.00  0.00     0.131 C 
ATOM      8  H   LIG d   1       8.388   3.372  -4.840  0.00  0.00     0.068 H 
ATOM      9  O   LIG d   1       8.228   2.171  -6.562  0.00  0.00    -0.366 OA
ATOM     10  C   LIG d   1       7.598   0.900  -6.408  0.00  0.00     0.073 C 
ATOM     11  C   LIG d   1       7.876   0.387  -4.961  0.00  0.00     0.108 C 
ATOM     12  H   LIG d   1       8.181  -0.659  -4.967  0.00  0.00     0.060 H 
ATOM     13  H   LIG d   1      12.045   1.538  -5.659  0.00  0.00     0.062 H 
ATOM     14  H   LIG d   1      11.546   2.148  -4.051  0.00  0.00     0.062 H 
ATOM     15  H   LIG d   1       6.523   1.001  -6.563  0.00  0.00     0.058 H 
ATOM     16  H   LIG d   1       8.008   0.195  -7.131  0.00  0.00     0.058 H 
ENDROOT
BRANCH  11  17
ATOM     17  N   LIG d   1       6.700   0.577  -4.109  0.00  0.00    -0.217 N 
ATOM     18  N   LIG d   1       6.464   1.622  -3.199  0.00  0.00    -0.043 NA
ATOM     19  N   LIG d   1       5.311   1.400  -2.667  0.00  0.00    -0.023 NA
ATOM     20  N   LIG d   1       4.799   0.322  -3.141  0.00  0.00    -0.108 NA
ATOM     21  C   LIG d   1       5.607  -0.221  -4.026  0.00  0.00     0.182 A 
BRANCH  21  22
ATOM     22  C   LIG d   1       5.367  -1.467  -4.787  0.00  0.00     0.021 A 
ATOM     23  C   LIG d   1       4.800  -1.412  -6.061  0.00  0.00    -0.043 A 
ATOM     24  C   LIG d   1       4.583  -2.578  -6.768  0.00  0.00    -0.002 A 
ATOM     25  H   LIG d   1       4.535  -0.460  -6.494  0.00  0.00     0.063 H 
ATOM     26  C   LIG d   1       4.917  -3.800  -6.212  0.00  0.00    -0.053 A 
ATOM     27  C   LIG d   1       5.475  -3.861  -4.947  0.00  0.00    -0.061 A 
ATOM     28  H   LIG d   1       4.743  -4.709  -6.767  0.00  0.00     0.062 H 
ATOM     29  C   LIG d   1       5.702  -2.703  -4.232  0.00  0.00    -0.051 A 
ATOM     30  H   LIG d   1       5.735  -4.818  -4.518  0.00  0.00     0.062 H 
ATOM     31  H   LIG d   1       6.138  -2.753  -3.245  0.00  0.00     0.062 H 
BRANCH  24  32
ATOM     32  C   LIG d   1       3.977  -2.519  -8.146  0.00  0.00    -0.006 C 
ATOM     33  H   LIG d   1       4.630  -3.032  -8.852  0.00  0.00     0.087 H 
ATOM     34  H   LIG d   1       3.001  -3.006  -8.134  0.00  0.00     0.087 H 
BRANCH  32  35
ATOM     35  N   LIG d   1       3.821  -1.117  -8.553  0.00  0.00     0.238 N 
ATOM     36  C   LIG d   1       2.389  -0.794  -8.731  0.00  0.00    -0.031 C 
ATOM     37  C   LIG d   1       2.292   0.193  -9.909  0.00  0.00    -0.008 C 
ATOM     38  H   LIG d   1       1.829  -1.700  -8.959  0.00  0.00     0.081 H 
ATOM     39  H   LIG d   1       1.998  -0.331  -7.825  0.00  0.00     0.081 H 
ATOM     40  C   LIG d   1       3.746   0.380 -10.401  0.00  0.00    -0.008 C 
ATOM     41  H   LIG d   1       1.882   1.146  -9.572  0.00  0.00     0.032 H 
ATOM     42  H   LIG d   1       1.675  -0.226 -10.704  0.00  0.00     0.032 H 
ATOM     43  C   LIG d   1       4.454  -0.895  -9.878  0.00  0.00    -0.031 C 
ATOM     44  H   LIG d   1       4.189   1.274  -9.964  0.00  0.00     0.032 H 
ATOM     45  H   LIG d   1       3.783   0.423 -11.489  0.00  0.00     0.032 H 
ATOM     46  H   LIG d   1       5.526  -0.723  -9.770  0.00  0.00     0.081 H 
ATOM     47  H   LIG d   1       4.265  -1.740 -10.541  0.00  0.00     0.081 H 
ATOM     48  H   LIG d   1       4.233  -0.506  -7.864  0.00  0.00     0.204 HD
ENDBRANCH  32  35
ENDBRANCH  24  32
ENDBRANCH  21  22
ENDBRANCH  11  17
BRANCH   1  49
ATOM     49  N   LIG d   1      10.713   4.240  -5.162  0.00  0.00     0.236 N 
ATOM     50  H   LIG d   1      11.025   4.841  -5.909  0.00  0.00     0.202 HD
ATOM     51  H   LIG d   1      11.452   4.136  -4.483  0.00  0.00     0.202 HD
BRANCH  49  52
ATOM     52  C   LIG d   1       9.535   4.830  -4.515  0.00  0.00    -0.007 C 
ATOM     53  H   LIG d   1       8.754   4.076  -4.425  0.00  0.00     0.087 H 
ATOM     54  H   LIG d   1       9.168   5.662  -5.117  0.00  0.00     0.087 H 
BRANCH  52  55
ATOM     55  C   LIG d   1       9.912   5.330  -3.145  0.00  0.00    -0.003 A 
ATOM     56  C   LIG d   1      10.704   4.553  -2.320  0.00  0.00    -0.052 A 
ATOM     57  C   LIG d   1      11.052   5.008  -1.064  0.00  0.00    -0.040 A 
ATOM     58  H   LIG d   1      11.051   3.588  -2.659  0.00  0.00     0.062 H 
ATOM     59  C   LIG d   1      10.605   6.250  -0.628  0.00  0.00     0.029 A 
ATOM     60  H   LIG d   1      11.671   4.401  -0.420  0.00  0.00     0.064 H 
ATOM     61  C   LIG d   1       9.805   7.026  -1.457  0.00  0.00    -0.040 A 
ATOM     62  C   LIG d   1       9.465   6.566  -2.714  0.00  0.00    -0.052 A 
ATOM     63  H   LIG d   1       9.452   7.990  -1.119  0.00  0.00     0.064 H 
ATOM     64  H   LIG d   1       8.847   7.172  -3.361  0.00  0.00     0.062 H 
BRANCH  59  65
ATOM     65  N   LIG d   1      10.955   6.714   0.642  0.00  0.00    -0.336 N 
BRANCH  65  66
ATOM     66  C   LIG d   1      10.998   5.786   1.774  0.00  0.00     0.000 C 
ATOM     67  H   LIG d   1      11.950   5.255   1.774  0.00  0.00     0.043 H 
ATOM     68  H   LIG d   1      10.893   6.343   2.705  0.00  0.00     0.043 H 
ATOM     69  H   LIG d   1      10.182   5.067   1.687  0.00  0.00     0.043 H 
ENDBRANCH  65  66
BRANCH  65  70
ATOM     70  C   LIG d   1      11.279   8.128   0.842  0.00  0.00     0.000 C 
ATOM     71  H   LIG d   1      11.779   8.516  -0.046  0.00  0.00     0.043 H 
ATOM     72  H   LIG d   1      10.361   8.690   1.017  0.00  0.00     0.043 H 
ATOM     73  H   LIG d   1      11.938   8.232   1.704  0.00  0.00     0.043 H 
ENDBRANCH  65  70
ENDBRANCH  59  65
ENDBRANCH  52  55
ENDBRANCH  49  52
ENDBRANCH   1  49
TORSDOF 10
ENDMDL
MODEL 2
REMARK VINA RESULT:      -6.9      1.866      3.897
REMARK  10 active torsions:
REMARK  status: ('A' for Active; 'I' for Inactive)
REMARK    1  A    between atoms: C_1  and  N_2 
REMARK    2  A    between atoms: N_2  and  C_3 
REMARK    3  A    between atoms: N_2  and  C_4 
REMARK    4  A    between atoms: C_7  and  C_10 
REMARK    5  A    between atoms: C_10  and  N_11 
REMARK    6  A    between atoms: N_11  and  C_12 
REMARK    7  A    between atoms: C_22  and  N_24 
REMARK    8  A    between atoms: C_25  and  C_29 
REMARK    9  A    between atoms: C_33  and  C_35 
REMARK   10  A    between atoms: C_35  and  N_36 
ROOT
ATOM      1  C   LIG d   1       9.579   2.193  -5.552  0.00  0.00     0.031 C 
ATOM      2  H   LIG d   1      10.574   2.428  -5.927  0.00  0.00     0.090 H 
ATOM      3  C   LIG d   1       9.461   0.685  -5.238  0.00  0.00     0.093 C 
ATOM      4  O   LIG d   1       8.877   0.106  -6.425  0.00  0.00    -0.366 OA
ATOM      5  C   LIG d   1       7.863   1.042  -6.841  0.00  0.00     0.115 C 
ATOM      6  H   LIG d   1       6.932   0.925  -6.286  0.00  0.00     0.065 H 
ATOM      7  C   LIG d   1       8.515   2.440  -6.646  0.00  0.00     0.131 C 
ATOM      8  H   LIG d   1       7.790   3.200  -6.353  0.00  0.00     0.068 H 
ATOM      9  O   LIG d   1       9.183   2.760  -7.869  0.00  0.00    -0.366 OA
ATOM     10  C   LIG d   1       8.736   1.920  -8.933  0.00  0.00     0.073 C 
ATOM     11  C   LIG d   1       7.664   0.938  -8.366  0.00  0.00     0.108 C 
ATOM     12  H   LIG d   1       7.846  -0.081  -8.706  0.00  0.00     0.060 H 
ATOM     13  H   LIG d   1      10.448   0.259  -5.052  0.00  0.00     0.062 H 
ATOM     14  H   LIG d   1       8.811   0.526  -4.378  0.00  0.00     0.062 H 
ATOM     15  H   LIG d   1       8.297   2.529  -9.723  0.00  0.00     0.058 H 
ATOM     16  H   LIG d   1       9.577   1.352  -9.332  0.00  0.00     0.058 H 
ENDROOT
BRANCH  11  17
ATOM     17  N   LIG d   1       6.316   1.373  -8.738  0.00  0.00    -0.217 N 
ATOM     18  N   LIG d   1       5.958   2.540  -9.437  0.00  0.00    -0.043 NA
ATOM     19  N   LIG d   1       4.674   2.527  -9.551  0.00  0.00    -0.023 NA
ATOM     20  N   LIG d   1       4.185   1.480  -8.990  0.00  0.00    -0.108 NA
ATOM     21  C   LIG d   1       5.146   0.741  -8.478  0.00  0.00     0.182 A 
BRANCH  21  22
ATOM     22  C   LIG d   1       4.979  -0.540  -7.755  0.00  0.00     0.021 A 
ATOM     23  C   LIG d   1       4.730  -0.542  -6.382  0.00  0.00    -0.043 A 
ATOM     24  C   LIG d   1       4.570  -1.739  -5.715  0.00  0.00    -0.002 A 
ATOM     25  H   LIG d   1       4.657   0.391  -5.845  0.00  0.00     0.063 H 
ATOM     26  C   LIG d   1       4.668  -2.936  -6.402  0.00  0.00    -0.053 A 
ATOM     27  C   LIG d   1       4.920  -2.940  -7.763  0.00  0.00    -0.061 A 
ATOM     28  H   LIG d   1       4.546  -3.870  -5.875  0.00  0.00     0.062 H 
ATOM     29  C   LIG d   1       5.076  -1.750  -8.442  0.00  0.00    -0.051 A 
ATOM     30  H   LIG d   1       4.995  -3.878  -8.294  0.00  0.00     0.062 H 
ATOM     31  H   LIG d   1       5.273  -1.756  -9.504  0.00  0.00     0.062 H 
BRANCH  24  32
ATOM     32  C   LIG d   1       4.294  -1.743  -4.233  0.00  0.00    -0.006 C 
ATOM     33  H   LIG d   1       3.270  -2.071  -4.056  0.00  0.00     0.087 H 
ATOM     34  H   LIG d   1       4.985  -2.425  -3.737  0.00  0.00     0.087 H 
BRANCH  32  35
ATOM     35  N   LIG d   1       4.474  -0.388  -3.698  0.00  0.00     0.238 N 
ATOM     36  C   LIG d   1       5.237  -0.436  -2.432  0.00  0.00    -0.031 C 
ATOM     37  C   LIG d   1       4.668   0.665  -1.519  0.00  0.00    -0.008 C 
ATOM     38  H   LIG d   1       5.113  -1.411  -1.961  0.00  0.00     0.081 H 
ATOM     39  H   LIG d   1       6.293  -0.248  -2.628  0.00  0.00     0.081 H 
ATOM     40  C   LIG d   1       3.523   1.312  -2.332  0.00  0.00    -0.008 C 
ATOM     41  H   LIG d   1       5.436   1.405  -1.294  0.00  0.00     0.032 H 
ATOM     42  H   LIG d   1       4.278   0.230  -0.599  0.00  0.00     0.032 H 
ATOM     43  C   LIG d   1       3.158   0.207  -3.355  0.00  0.00    -0.031 C 
ATOM     44  H   LIG d   1       3.872   2.210  -2.842  0.00  0.00     0.032 H 
ATOM     45  H   LIG d   1       2.673   1.539  -1.689  0.00  0.00     0.032 H 
ATOM     46  H   LIG d   1       2.689   0.641  -4.239  0.00  0.00     0.081 H 
ATOM     47  H   LIG d   1       2.506  -0.538  -2.900  0.00  0.00     0.081 H 
ATOM     48  H   LIG d   1       4.954   0.192  -4.371  0.00  0.00     0.204 HD
ENDBRANCH  32  35
ENDBRANCH  24  32
ENDBRANCH  21  22
ENDBRANCH  11  17
BRANCH   1  49
ATOM     49  N   LIG d   1       9.281   2.992  -4.354  0.00  0.00     0.236 N 
ATOM     50  H   LIG d   1       9.793   2.621  -3.568  0.00  0.00     0.202 HD
ATOM     51  H   LIG d   1       8.292   2.952  -4.161  0.00  0.00     0.202 HD
BRANCH  49  52
ATOM     52  C   LIG d   1       9.679   4.386  -4.584  0.00  0.00    -0.007 C 
ATOM     53  H   LIG d   1       8.862   4.923  -5.065  0.00  0.00     0.087 H 
ATOM     54  H   LIG d   1      10.558   4.412  -5.228  0.00  0.00     0.087 H 
BRANCH  52  55
ATOM     55  C   LIG d   1      10.003   5.040  -3.266  0.00  0.00    -0.003 A 
ATOM     56  C   LIG d   1      10.760   4.364  -2.327  0.00  0.00    -0.052 A 
ATOM     57  C   LIG d   1      11.059   4.960  -1.118  0.00  0.00    -0.040 A 
ATOM     58  H   LIG d   1      11.118   3.367  -2.540  0.00  0.00     0.062 H 
ATOM     59  C   LIG d   1      10.599   6.242  -0.845  0.00  0.00     0.029 A 
ATOM     60  H   LIG d   1      11.652   4.431  -0.386  0.00  0.00     0.064 H 
ATOM     61  C   LIG d   1       9.833   6.916  -1.788  0.00  0.00    -0.040 A 
ATOM     62  C   LIG d   1       9.543   6.316  -2.997  0.00  0.00    -0.052 A 
ATOM     63  H   LIG d   1       9.470   7.912  -1.577  0.00  0.00     0.064 H 
ATOM     64  H   LIG d   1       8.952   6.843  -3.733  0.00  0.00     0.062 H 
BRANCH  59  65
ATOM     65  N   LIG d   1      10.899   6.848   0.377  0.00  0.00    -0.336 N 
BRANCH  65  66
ATOM     66  C   LIG d   1      11.070   8.300   0.451  0.00  0.00     0.000 C 
ATOM     67  H   LIG d   1      12.133   8.542   0.443  0.00  0.00     0.043 H 
ATOM     68  H   LIG d   1      10.586   8.768  -0.405  0.00  0.00     0.043 H 
ATOM     69  H   LIG d   1      10.619   8.673   1.372  0.00  0.00     0.043 H 
ENDBRANCH  65  66
BRANCH  65  70
ATOM     70  C   LIG d   1      11.043   6.031   1.584  0.00  0.00     0.000 C 
ATOM     71  H   LIG d   1      12.091   5.766   1.722  0.00  0.00     0.043 H 
ATOM     72  H   LIG d   1      10.694   6.596   2.449  0.00  0.00     0.043 H 
ATOM     73  H   LIG d   1      10.450   5.122   1.481  0.00  0.00     0.043 H 
ENDBRANCH  65  70
ENDBRANCH  59  65
ENDBRANCH  52  55
ENDBRANCH  49  52
ENDBRANCH   1  49
TORSDOF 10
ENDMDL
MODEL 3
REMARK VINA RESULT:      -6.8      6.544     10.398
REMARK  10 active torsions:
REMARK  status: ('A' for Active; 'I' for Inactive)
REMARK    1  A    between atoms: C_1  and  N_2 
REMARK    2  A    between atoms: N_2  and  C_3 
REMARK    3  A    between atoms: N_2  and  C_4 
REMARK    4  A    between atoms: C_7  and  C_10 
REMARK    5  A    between atoms: C_10  and  N_11 
REMARK    6  A    between atoms: N_11  and  C_12 
REMARK    7  A    between atoms: C_22  and  N_24 
REMARK    8  A    between atoms: C_25  and  C_29 
REMARK    9  A    between atoms: C_33  and  C_35 
REMARK   10  A    between atoms: C_35  and  N_36 
ROOT
ATOM      1  C   LIG d   1       7.500  -6.260  -6.582  0.00  0.00     0.031 C 
ATOM      2  H   LIG d   1       7.753  -6.470  -7.621  0.00  0.00     0.090 H 
ATOM      3  C   LIG d   1       8.703  -6.563  -5.661  0.00  0.00     0.093 C 
ATOM      4  O   LIG d   1       8.475  -7.907  -5.185  0.00  0.00    -0.366 OA
ATOM      5  C   LIG d   1       7.063  -7.972  -4.906  0.00  0.00     0.115 C 
ATOM      6  H   LIG d   1       6.807  -7.550  -3.934  0.00  0.00     0.065 H 
ATOM      7  C   LIG d   1       6.392  -7.220  -6.090  0.00  0.00     0.131 C 
ATOM      8  H   LIG d   1       5.490  -6.689  -5.788  0.00  0.00     0.068 H 
ATOM      9  O   LIG d   1       6.143  -8.191  -7.109  0.00  0.00    -0.366 OA
ATOM     10  C   LIG d   1       6.231  -9.517  -6.588  0.00  0.00     0.073 C 
ATOM     11  C   LIG d   1       6.574  -9.426  -5.069  0.00  0.00     0.108 C 
ATOM     12  H   LIG d   1       7.365 -10.126  -4.803  0.00  0.00     0.060 H 
ATOM     13  H   LIG d   1       9.635  -6.513  -6.226  0.00  0.00     0.062 H 
ATOM     14  H   LIG d   1       8.727  -5.862  -4.826  0.00  0.00     0.062 H 
ATOM     15  H   LIG d   1       5.276 -10.028  -6.720  0.00  0.00     0.058 H 
ATOM     16  H   LIG d   1       7.016 -10.066  -7.109  0.00  0.00     0.058 H 
ENDROOT
BRANCH  11  17
ATOM     17  N   LIG d   1       5.381  -9.660  -4.254  0.00  0.00    -0.217 N 
ATOM     18  N   LIG d   1       4.041  -9.444  -4.620  0.00  0.00    -0.043 NA
ATOM     19  N   LIG d   1       3.318  -9.784  -3.607  0.00  0.00    -0.023 NA
ATOM     20  N   LIG d   1       4.062 -10.184  -2.640  0.00  0.00    -0.108 NA
ATOM     21  C   LIG d   1       5.331 -10.128  -2.982  0.00  0.00     0.182 A 
BRANCH  21  22
ATOM     22  C   LIG d   1       6.487 -10.506  -2.138  0.00  0.00     0.021 A 
ATOM     23  C   LIG d   1       7.527  -9.601  -1.929  0.00  0.00    -0.043 A 
ATOM     24  C   LIG d   1       8.600  -9.957  -1.136  0.00  0.00    -0.002 A 
ATOM     25  H   LIG d   1       7.492  -8.622  -2.382  0.00  0.00     0.063 H 
ATOM     26  C   LIG d   1       8.649 -11.213  -0.558  0.00  0.00    -0.053 A 
ATOM     27  C   LIG d   1       7.622 -12.117  -0.766  0.00  0.00    -0.061 A 
ATOM     28  H   LIG d   1       9.491 -11.489   0.058  0.00  0.00     0.062 H 
ATOM     29  C   LIG d   1       6.542 -11.771  -1.552  0.00  0.00    -0.051 A 
ATOM     30  H   LIG d   1       7.666 -13.097  -0.312  0.00  0.00     0.062 H 
ATOM     31  H   LIG d   1       5.742 -12.478  -1.713  0.00  0.00     0.062 H 
BRANCH  24  32
ATOM     32  C   LIG d   1       9.721  -8.978  -0.904  0.00  0.00    -0.006 C 
ATOM     33  H   LIG d   1       9.525  -8.410   0.004  0.00  0.00     0.087 H 
ATOM     34  H   LIG d   1      10.661  -9.521  -0.796  0.00  0.00     0.087 H 
BRANCH  32  35
ATOM     35  N   LIG d   1       9.814  -8.059  -2.046  0.00  0.00     0.238 N 
ATOM     36  C   LIG d   1      11.063  -8.305  -2.798  0.00  0.00    -0.031 C 
ATOM     37  C   LIG d   1      11.561  -6.939  -3.305  0.00  0.00    -0.008 C 
ATOM     38  H   LIG d   1      11.809  -8.753  -2.143  0.00  0.00     0.081 H 
ATOM     39  H   LIG d   1      10.863  -8.964  -3.643  0.00  0.00     0.081 H 
ATOM     40  C   LIG d   1      10.539  -5.912  -2.767  0.00  0.00    -0.008 C 
ATOM     41  H   LIG d   1      11.577  -6.922  -4.395  0.00  0.00     0.032 H 
ATOM     42  H   LIG d   1      12.554  -6.727  -2.908  0.00  0.00     0.032 H 
ATOM     43  C   LIG d   1       9.897  -6.656  -1.569  0.00  0.00    -0.031 C 
ATOM     44  H   LIG d   1       9.789  -5.681  -3.523  0.00  0.00     0.032 H 
ATOM     45  H   LIG d   1      11.042  -5.004  -2.433  0.00  0.00     0.032 H 
ATOM     46  H   LIG d   1       8.903  -6.260  -1.357  0.00  0.00     0.081 H 
ATOM     47  H   LIG d   1      10.535  -6.586  -0.687  0.00  0.00     0.081 H 
ATOM     48  H   LIG d   1       9.015  -8.175  -2.651  0.00  0.00     0.204 HD
ENDBRANCH  32  35
ENDBRANCH  24  32
ENDBRANCH  21  22
ENDBRANCH  11  17
BRANCH   1  49
ATOM     49  N   LIG d   1       7.075  -4.862  -6.429  0.00  0.00     0.236 N 
ATOM     50  H   LIG d   1       6.071  -4.825  -6.335  0.00  0.00     0.202 HD
ATOM     51  H   LIG d   1       7.357  -4.334  -7.241  0.00  0.00     0.202 HD
BRANCH  49  52
ATOM     52  C   LIG d   1       7.702  -4.288  -5.232  0.00  0.00    -0.007 C 
ATOM     53  H   LIG d   1       8.609  -3.755  -5.516  0.00  0.00     0.087 H 
ATOM     54  H   LIG d   1       7.953  -5.086  -4.534  0.00  0.00     0.087 H 
BRANCH  52  55
ATOM     55  C   LIG d   1       6.742  -3.330  -4.573  0.00  0.00    -0.003 A 
ATOM     56  C   LIG d   1       7.224  -2.314  -3.768  0.00  0.00    -0.052 A 
ATOM     57  C   LIG d   1       6.348  -1.435  -3.164  0.00  0.00    -0.040 A 
ATOM     58  H   LIG d   1       8.288  -2.209  -3.612  0.00  0.00     0.062 H 
ATOM     59  C   LIG d   1       4.980  -1.571  -3.365  0.00  0.00     0.029 A 
ATOM     60  H   LIG d   1       6.725  -0.641  -2.535  0.00  0.00     0.064 H 
ATOM     61  C   LIG d   1       4.499  -2.596  -4.170  0.00  0.00    -0.040 A 
ATOM     62  C   LIG d   1       5.381  -3.468  -4.776  0.00  0.00    -0.052 A 
ATOM     63  H   LIG d   1       3.435  -2.707  -4.326  0.00  0.00     0.064 H 
ATOM     64  H   LIG d   1       5.008  -4.262  -5.406  0.00  0.00     0.062 H 
BRANCH  59  65
ATOM     65  N   LIG d   1       4.091  -0.683  -2.756  0.00  0.00    -0.336 N 
BRANCH  65  66
ATOM     66  C   LIG d   1       2.666  -0.729  -3.089  0.00  0.00     0.000 C 
ATOM     67  H   LIG d   1       2.534  -0.535  -4.153  0.00  0.00     0.043 H 
ATOM     68  H   LIG d   1       2.268  -1.715  -2.848  0.00  0.00     0.043 H 
ATOM     69  H   LIG d   1       2.133   0.028  -2.512  0.00  0.00     0.043 H 
ENDBRANCH  65  66
BRANCH  65  70
ATOM     70  C   LIG d   1       4.584   0.294  -1.782  0.00  0.00     0.000 C 
ATOM     71  H   LIG d   1       5.247  -0.201  -1.073  0.00  0.00     0.043 H 
ATOM     72  H   LIG d   1       5.132   1.081  -2.303  0.00  0.00     0.043 H 
ATOM     73  H   LIG d   1       3.742   0.732  -1.247  0.00  0.00     0.043 H 
ENDBRANCH  65  70
ENDBRANCH  59  65
ENDBRANCH  52  55
ENDBRANCH  49  52
ENDBRANCH   1  49
TORSDOF 10
ENDMDL
MODEL 4
REMARK VINA RESULT:      -6.6      2.096      2.867
REMARK  10 active torsions:
REMARK  status: ('A' for Active; 'I' for Inactive)
REMARK    1  A    between atoms: C_1  and  N_2 
REMARK    2  A    between atoms: N_2  and  C_3 
REMARK    3  A    between atoms: N_2  and  C_4 
REMARK    4  A    between atoms: C_7  and  C_10 
REMARK    5  A    between atoms: C_10  and  N_11 
REMARK    6  A    between atoms: N_11  and  C_12 
REMARK    7  A    between atoms: C_22  and  N_24 
REMARK    8  A    between atoms: C_25  and  C_29 
REMARK    9  A    between atoms: C_33  and  C_35 
REMARK   10  A    between atoms: C_35  and  N_36 
ROOT
ATOM      1  C   LIG d   1      10.169   3.332  -4.801  0.00  0.00     0.031 C 
ATOM      2  H   LIG d   1       9.725   4.160  -4.249  0.00  0.00     0.090 H 
ATOM      3  C   LIG d   1       9.781   3.408  -6.294  0.00  0.00     0.093 C 
ATOM      4  O   LIG d   1       8.628   2.547  -6.421  0.00  0.00    -0.366 OA
ATOM      5  C   LIG d   1       8.926   1.398  -5.604  0.00  0.00     0.115 C 
ATOM      6  H   LIG d   1       9.562   0.674  -6.114  0.00  0.00     0.065 H 
ATOM      7  C   LIG d   1       9.580   1.984  -4.321  0.00  0.00     0.131 C 
ATOM      8  H   LIG d   1      10.342   1.326  -3.905  0.00  0.00     0.068 H 
ATOM      9  O   LIG d   1       8.520   2.251  -3.400  0.00  0.00    -0.366 OA
ATOM     10  C   LIG d   1       7.324   1.574  -3.784  0.00  0.00     0.073 C 
ATOM     11  C   LIG d   1       7.610   0.776  -5.094  0.00  0.00     0.108 C 
ATOM     12  H   LIG d   1       6.813   0.919  -5.823  0.00  0.00     0.060 H 
ATOM     13  H   LIG d   1       9.523   4.432  -6.567  0.00  0.00     0.062 H 
ATOM     14  H   LIG d   1      10.598   3.043  -6.917  0.00  0.00     0.062 H 
ATOM     15  H   LIG d   1       7.019   0.887  -2.994  0.00  0.00     0.058 H 
ATOM     16  H   LIG d   1       6.531   2.300  -3.964  0.00  0.00     0.058 H 
ENDROOT
BRANCH  11  17
ATOM     17  N   LIG d   1       7.794  -0.647  -4.803  0.00  0.00    -0.217 N 
ATOM     18  N   LIG d   1       8.972  -1.401  -4.940  0.00  0.00    -0.043 NA
ATOM     19  N   LIG d   1       8.690  -2.605  -4.574  0.00  0.00    -0.023 NA
ATOM     20  N   LIG d   1       7.456  -2.690  -4.227  0.00  0.00    -0.108 NA
ATOM     21  C   LIG d   1       6.863  -1.522  -4.349  0.00  0.00     0.182 A 
BRANCH  21  22
ATOM     22  C   LIG d   1       5.446  -1.220  -4.046  0.00  0.00     0.021 A 
ATOM     23  C   LIG d   1       4.651  -0.568  -4.989  0.00  0.00    -0.043 A 
ATOM     24  C   LIG d   1       3.329  -0.294  -4.703  0.00  0.00    -0.002 A 
ATOM     25  H   LIG d   1       5.068  -0.282  -5.943  0.00  0.00     0.063 H 
ATOM     26  C   LIG d   1       2.794  -0.656  -3.479  0.00  0.00    -0.053 A 
ATOM     27  C   LIG d   1       3.579  -1.298  -2.537  0.00  0.00    -0.061 A 
ATOM     28  H   LIG d   1       1.760  -0.437  -3.258  0.00  0.00     0.062 H 
ATOM     29  C   LIG d   1       4.900  -1.583  -2.814  0.00  0.00    -0.051 A 
ATOM     30  H   LIG d   1       3.156  -1.578  -1.584  0.00  0.00     0.062 H 
ATOM     31  H   LIG d   1       5.511  -2.084  -2.078  0.00  0.00     0.062 H 
BRANCH  24  32
ATOM     32  C   LIG d   1       2.468   0.404  -5.723  0.00  0.00    -0.006 C 
ATOM     33  H   LIG d   1       1.553  -0.167  -5.877  0.00  0.00     0.087 H 
ATOM     34  H   LIG d   1       2.217   1.403  -5.364  0.00  0.00     0.087 H 
BRANCH  32  35
ATOM     35  N   LIG d   1       3.199   0.509  -6.992  0.00  0.00     0.238 N 
ATOM     36  C   LIG d   1       2.936   1.819  -7.626  0.00  0.00    -0.031 C 
ATOM     37  C   LIG d   1       2.898   1.585  -9.147  0.00  0.00    -0.008 C 
ATOM     38  H   LIG d   1       1.977   2.210  -7.286  0.00  0.00     0.081 H 
ATOM     39  H   LIG d   1       3.734   2.519  -7.377  0.00  0.00     0.081 H 
ATOM     40  C   LIG d   1       3.124   0.066  -9.328  0.00  0.00    -0.008 C 
ATOM     41  H   LIG d   1       3.695   2.146  -9.636  0.00  0.00     0.032 H 
ATOM     42  H   LIG d   1       1.928   1.874  -9.551  0.00  0.00     0.032 H 
ATOM     43  C   LIG d   1       2.708  -0.512  -7.952  0.00  0.00    -0.031 C 
ATOM     44  H   LIG d   1       4.173  -0.146  -9.534  0.00  0.00     0.032 H 
ATOM     45  H   LIG d   1       2.488  -0.327 -10.120  0.00  0.00     0.032 H 
ATOM     46  H   LIG d   1       3.194  -1.472  -7.775  0.00  0.00     0.081 H 
ATOM     47  H   LIG d   1       1.624  -0.611  -7.888  0.00  0.00     0.081 H 
ATOM     48  H   LIG d   1       4.189   0.392  -6.834  0.00  0.00     0.204 HD
ENDBRANCH  32  35
ENDBRANCH  24  32
ENDBRANCH  21  22
ENDBRANCH  11  17
BRANCH   1  49
ATOM     49  N   LIG d   1      11.631   3.338  -4.648  0.00  0.00     0.236 N 
ATOM     50  H   LIG d   1      12.031   4.013  -5.283  0.00  0.00     0.202 HD
ATOM     51  H   LIG d   1      11.995   2.421  -4.859  0.00  0.00     0.202 HD
BRANCH  49  52
ATOM     52  C   LIG d   1      11.977   3.698  -3.267  0.00  0.00    -0.007 C 
ATOM     53  H   LIG d   1      13.061   3.708  -3.156  0.00  0.00     0.087 H 
ATOM     54  H   LIG d   1      11.549   2.966  -2.583  0.00  0.00     0.087 H 
BRANCH  52  55
ATOM     55  C   LIG d   1      11.426   5.064  -2.951  0.00  0.00    -0.003 A 
ATOM     56  C   LIG d   1      10.478   5.213  -1.956  0.00  0.00    -0.052 A 
ATOM     57  C   LIG d   1       9.971   6.464  -1.663  0.00  0.00    -0.040 A 
ATOM     58  H   LIG d   1      10.133   4.349  -1.407  0.00  0.00     0.062 H 
ATOM     59  C   LIG d   1      10.416   7.574  -2.370  0.00  0.00     0.029 A 
ATOM     60  H   LIG d   1       9.231   6.579  -0.885  0.00  0.00     0.064 H 
ATOM     61  C   LIG d   1      11.365   7.420  -3.373  0.00  0.00    -0.040 A 
ATOM     62  C   LIG d   1      11.871   6.168  -3.656  0.00  0.00    -0.052 A 
ATOM     63  H   LIG d   1      11.709   8.282  -3.927  0.00  0.00     0.064 H 
ATOM     64  H   LIG d   1      12.612   6.048  -4.433  0.00  0.00     0.062 H 
BRANCH  59  65
ATOM     65  N   LIG d   1       9.906   8.841  -2.076  0.00  0.00    -0.336 N 
BRANCH  65  66
ATOM     66  C   LIG d   1       9.119   9.049  -0.859  0.00  0.00     0.000 C 
ATOM     67  H   LIG d   1       9.229  10.082  -0.527  0.00  0.00     0.043 H 
ATOM     68  H   LIG d   1       8.069   8.845  -1.066  0.00  0.00     0.043 H 
ATOM     69  H   LIG d   1       9.473   8.376  -0.077  0.00  0.00     0.043 H 
ENDBRANCH  65  66
BRANCH  65  70
ATOM     70  C   LIG d   1      10.158   9.961  -2.986  0.00  0.00     0.000 C 
ATOM     71  H   LIG d   1      10.462   9.578  -3.960  0.00  0.00     0.043 H 
ATOM     72  H   LIG d   1       9.247  10.551  -3.096  0.00  0.00     0.043 H 
ATOM     73  H   LIG d   1      10.950  10.589  -2.579  0.00  0.00     0.043 H 
ENDBRANCH  65  70
ENDBRANCH  59  65
ENDBRANCH  52  55
ENDBRANCH  49  52
ENDBRANCH   1  49
TORSDOF 10
ENDMDL
MODEL 5
REMARK VINA RESULT:      -6.6      2.288      4.097
REMARK  10 active torsions:
REMARK  status: ('A' for Active; 'I' for Inactive)
REMARK    1  A    between atoms: C_1  and  N_2 
REMARK    2  A    between atoms: N_2  and  C_3 
REMARK    3  A    between atoms: N_2  and  C_4 
REMARK    4  A    between atoms: C_7  and  C_10 
REMARK    5  A    between atoms: C_10  and  N_11 
REMARK    6  A    between atoms: N_11  and  C_12 
REMARK    7  A    between atoms: C_22  and  N_24 
REMARK    8  A    between atoms: C_25  and  C_29 
REMARK    9  A    between atoms: C_33  and  C_35 
REMARK   10  A    between atoms: C_35  and  N_36 
ROOT
ATOM      1  C   LIG d   1      10.261   3.147  -5.793  0.00  0.00     0.031 C 
ATOM      2  H   LIG d   1      10.333   3.142  -6.880  0.00  0.00     0.090 H 
ATOM      3  C   LIG d   1      11.237   2.116  -5.182  0.00  0.00     0.093 C 
ATOM      4  O   LIG d   1      10.440   0.929  -4.980  0.00  0.00    -0.366 OA
ATOM      5  C   LIG d   1       9.174   1.405  -4.484  0.00  0.00     0.115 C 
ATOM      6  H   LIG d   1       9.194   1.613  -3.414  0.00  0.00     0.065 H 
ATOM      7  C   LIG d   1       8.863   2.665  -5.341  0.00  0.00     0.131 C 
ATOM      8  H   LIG d   1       8.325   3.428  -4.779  0.00  0.00     0.068 H 
ATOM      9  O   LIG d   1       8.141   2.216  -6.490  0.00  0.00    -0.366 OA
ATOM     10  C   LIG d   1       7.635   0.896  -6.295  0.00  0.00     0.073 C 
ATOM     11  C   LIG d   1       8.063   0.411  -4.876  0.00  0.00     0.108 C 
ATOM     12  H   LIG d   1       8.454  -0.605  -4.909  0.00  0.00     0.060 H 
ATOM     13  H   LIG d   1      12.055   1.913  -5.874  0.00  0.00     0.062 H 
ATOM     14  H   LIG d   1      11.625   2.480  -4.231  0.00  0.00     0.062 H 
ATOM     15  H   LIG d   1       6.547   0.904  -6.370  0.00  0.00     0.058 H 
ATOM     16  H   LIG d   1       8.049   0.227  -7.050  0.00  0.00     0.058 H 
ENDROOT
BRANCH  11  17
ATOM     17  N   LIG d   1       6.941   0.500  -3.939  0.00  0.00    -0.217 N 
ATOM     18  N   LIG d   1       6.535   1.624  -3.197  0.00  0.00    -0.043 NA
ATOM     19  N   LIG d   1       5.508   1.264  -2.506  0.00  0.00    -0.023 NA
ATOM     20  N   LIG d   1       5.228   0.030  -2.729  0.00  0.00    -0.108 NA
ATOM     21  C   LIG d   1       6.073  -0.484  -3.596  0.00  0.00     0.182 A 
BRANCH  21  22
ATOM     22  C   LIG d   1       6.075  -1.875  -4.103  0.00  0.00     0.021 A 
ATOM     23  C   LIG d   1       7.276  -2.573  -4.229  0.00  0.00    -0.043 A 
ATOM     24  C   LIG d   1       7.271  -3.871  -4.697  0.00  0.00    -0.002 A 
ATOM     25  H   LIG d   1       8.208  -2.100  -3.956  0.00  0.00     0.063 H 
ATOM     26  C   LIG d   1       6.079  -4.477  -5.052  0.00  0.00    -0.053 A 
ATOM     27  C   LIG d   1       4.884  -3.788  -4.934  0.00  0.00    -0.061 A 
ATOM     28  H   LIG d   1       6.080  -5.491  -5.421  0.00  0.00     0.062 H 
ATOM     29  C   LIG d   1       4.876  -2.491  -4.462  0.00  0.00    -0.051 A 
ATOM     30  H   LIG d   1       3.957  -4.266  -5.212  0.00  0.00     0.062 H 
ATOM     31  H   LIG d   1       3.943  -1.955  -4.371  0.00  0.00     0.062 H 
BRANCH  24  32
ATOM     32  C   LIG d   1       8.567  -4.629  -4.828  0.00  0.00    -0.006 C 
ATOM     33  H   LIG d   1       8.542  -5.504  -4.180  0.00  0.00     0.087 H 
ATOM     34  H   LIG d   1       8.700  -4.946  -5.862  0.00  0.00     0.087 H 
BRANCH  32  35
ATOM     35  N   LIG d   1       9.684  -3.760  -4.434  0.00  0.00     0.238 N 
ATOM     36  C   LIG d   1      10.649  -3.634  -5.547  0.00  0.00    -0.031 C 
ATOM     37  C   LIG d   1      12.054  -3.560  -4.921  0.00  0.00    -0.008 C 
ATOM     38  H   LIG d   1      10.579  -4.503  -6.201  0.00  0.00     0.081 H 
ATOM     39  H   LIG d   1      10.446  -2.724  -6.112  0.00  0.00     0.081 H 
ATOM     40  C   LIG d   1      11.824  -3.684  -3.397  0.00  0.00    -0.008 C 
ATOM     41  H   LIG d   1      12.523  -2.605  -5.156  0.00  0.00     0.032 H 
ATOM     42  H   LIG d   1      12.671  -4.384  -5.278  0.00  0.00     0.032 H 
ATOM     43  C   LIG d   1      10.438  -4.372  -3.311  0.00  0.00    -0.031 C 
ATOM     44  H   LIG d   1      11.795  -2.700  -2.930  0.00  0.00     0.032 H 
ATOM     45  H   LIG d   1      12.593  -4.306  -2.940  0.00  0.00     0.032 H 
ATOM     46  H   LIG d   1       9.957  -4.152  -2.358  0.00  0.00     0.081 H 
ATOM     47  H   LIG d   1      10.534  -5.449  -3.454  0.00  0.00     0.081 H 
ATOM     48  H   LIG d   1       9.340  -2.850  -4.167  0.00  0.00     0.204 HD
ENDBRANCH  32  35
ENDBRANCH  24  32
ENDBRANCH  21  22
ENDBRANCH  11  17
BRANCH   1  49
ATOM     49  N   LIG d   1      10.538   4.491  -5.267  0.00  0.00     0.236 N 
ATOM     50  H   LIG d   1      10.735   5.117  -6.033  0.00  0.00     0.202 HD
ATOM     51  H   LIG d   1      11.335   4.453  -4.650  0.00  0.00     0.202 HD
BRANCH  49  52
ATOM     52  C   LIG d   1       9.367   4.976  -4.525  0.00  0.00    -0.007 C 
ATOM     53  H   LIG d   1       8.636   4.174  -4.434  0.00  0.00     0.087 H 
ATOM     54  H   LIG d   1       8.921   5.815  -5.059  0.00  0.00     0.087 H 
BRANCH  52  55
ATOM     55  C   LIG d   1       9.794   5.425  -3.152  0.00  0.00    -0.003 A 
ATOM     56  C   LIG d   1       9.376   6.649  -2.664  0.00  0.00    -0.052 A 
ATOM     57  C   LIG d   1       9.765   7.064  -1.405  0.00  0.00    -0.040 A 
ATOM     58  H   LIG d   1       8.744   7.283  -3.269  0.00  0.00     0.062 H 
ATOM     59  C   LIG d   1      10.577   6.248  -0.628  0.00  0.00     0.029 A 
ATOM     60  H   LIG d   1       9.437   8.020  -1.025  0.00  0.00     0.064 H 
ATOM     61  C   LIG d   1      11.000   5.021  -1.123  0.00  0.00    -0.040 A 
ATOM     62  C   LIG d   1      10.603   4.611  -2.380  0.00  0.00    -0.052 A 
ATOM     63  H   LIG d   1      11.636   4.386  -0.522  0.00  0.00     0.064 H 
ATOM     64  H   LIG d   1      10.928   3.654  -2.763  0.00  0.00     0.062 H 
BRANCH  59  65
ATOM     65  N   LIG d   1      10.972   6.663   0.645  0.00  0.00    -0.336 N 
BRANCH  65  66
ATOM     66  C   LIG d   1      11.384   8.051   0.868  0.00  0.00     0.000 C 
ATOM     67  H   LIG d   1      11.116   8.654   0.000  0.00  0.00     0.043 H 
ATOM     68  H   LIG d   1      10.881   8.442   1.751  0.00  0.00     0.043 H 
ATOM     69  H   LIG d   1      12.464   8.090   1.018  0.00  0.00     0.043 H 
ENDBRANCH  65  66
BRANCH  65  70
ATOM     70  C   LIG d   1      10.975   5.712   1.759  0.00  0.00     0.000 C 
ATOM     71  H   LIG d   1      11.156   4.707   1.379  0.00  0.00     0.043 H 
ATOM     72  H   LIG d   1      11.761   5.981   2.465  0.00  0.00     0.043 H 
ATOM     73  H   LIG d   1      10.009   5.739   2.264  0.00  0.00     0.043 H 
ENDBRANCH  65  70
ENDBRANCH  59  65
ENDBRANCH  52  55
ENDBRANCH  49  52
ENDBRANCH   1  49
TORSDOF 10
ENDMDL
MODEL 6
REMARK VINA RESULT:      -6.5      3.192     10.652
REMARK  10 active torsions:
REMARK  status: ('A' for Active; 'I' for Inactive)
REMARK    1  A    between atoms: C_1  and  N_2 
REMARK    2  A    between atoms: N_2  and  C_3 
REMARK    3  A    between atoms: N_2  and  C_4 
REMARK    4  A    between atoms: C_7  and  C_10 
REMARK    5  A    between atoms: C_10  and  N_11 
REMARK    6  A    between atoms: N_11  and  C_12 
REMARK    7  A    between atoms: C_22  and  N_24 
REMARK    8  A    between atoms: C_25  and  C_29 
REMARK    9  A    between atoms: C_33  and  C_35 
REMARK   10  A    between atoms: C_35  and  N_36 
ROOT
ATOM      1  C   LIG d   1      10.368   3.501  -3.670  0.00  0.00     0.031 C 
ATOM      2  H   LIG d   1      11.189   3.261  -4.346  0.00  0.00     0.090 H 
ATOM      3  C   LIG d   1       9.533   4.674  -4.229  0.00  0.00     0.093 C 
ATOM      4  O   LIG d   1      10.073   5.850  -3.588  0.00  0.00    -0.366 OA
ATOM      5  C   LIG d   1      10.312   5.458  -2.222  0.00  0.00     0.115 C 
ATOM      6  H   LIG d   1       9.410   5.499  -1.610  0.00  0.00     0.065 H 
ATOM      7  C   LIG d   1      10.913   4.027  -2.322  0.00  0.00     0.131 C 
ATOM      8  H   LIG d   1      10.622   3.394  -1.484  0.00  0.00     0.068 H 
ATOM      9  O   LIG d   1      12.330   4.180  -2.431  0.00  0.00    -0.366 OA
ATOM     10  C   LIG d   1      12.736   5.493  -2.045  0.00  0.00     0.073 C 
ATOM     11  C   LIG d   1      11.464   6.301  -1.640  0.00  0.00     0.108 C 
ATOM     12  H   LIG d   1      11.472   7.295  -2.086  0.00  0.00     0.060 H 
ATOM     13  H   LIG d   1       9.652   4.742  -5.311  0.00  0.00     0.062 H 
ATOM     14  H   LIG d   1       8.482   4.548  -3.969  0.00  0.00     0.062 H 
ATOM     15  H   LIG d   1      13.420   5.433  -1.198  0.00  0.00     0.058 H 
ATOM     16  H   LIG d   1      13.232   5.986  -2.882  0.00  0.00     0.058 H 
ENDROOT
BRANCH  11  17
ATOM     17  N   LIG d   1      11.350   6.390  -0.183  0.00  0.00    -0.217 N 
ATOM     18  N   LIG d   1      11.335   5.328   0.738  0.00  0.00    -0.043 NA
ATOM     19  N   LIG d   1      11.223   5.853   1.911  0.00  0.00    -0.023 NA
ATOM     20  N   LIG d   1      11.157   7.133   1.824  0.00  0.00    -0.108 NA
ATOM     21  C   LIG d   1      11.230   7.513   0.566  0.00  0.00     0.182 A 
BRANCH  21  22
ATOM     22  C   LIG d   1      11.189   8.905   0.065  0.00  0.00     0.021 A 
ATOM     23  C   LIG d   1      10.297   9.260  -0.946  0.00  0.00    -0.043 A 
ATOM     24  C   LIG d   1      10.260  10.561  -1.406  0.00  0.00    -0.002 A 
ATOM     25  H   LIG d   1       9.633   8.519  -1.366  0.00  0.00     0.063 H 
ATOM     26  C   LIG d   1      11.113  11.510  -0.872  0.00  0.00    -0.053 A 
ATOM     27  C   LIG d   1      12.005  11.163   0.128  0.00  0.00    -0.061 A 
ATOM     28  H   LIG d   1      11.084  12.526  -1.237  0.00  0.00     0.062 H 
ATOM     29  C   LIG d   1      12.047   9.868   0.600  0.00  0.00    -0.051 A 
ATOM     30  H   LIG d   1      12.669  11.909   0.541  0.00  0.00     0.062 H 
ATOM     31  H   LIG d   1      12.743   9.599   1.380  0.00  0.00     0.062 H 
BRANCH  24  32
ATOM     32  C   LIG d   1       9.292  10.947  -2.494  0.00  0.00    -0.006 C 
ATOM     33  H   LIG d   1       8.553  10.156  -2.620  0.00  0.00     0.087 H 
ATOM     34  H   LIG d   1       8.788  11.875  -2.219  0.00  0.00     0.087 H 
BRANCH  32  35
ATOM     35  N   LIG d   1      10.022  11.140  -3.753  0.00  0.00     0.238 N 
ATOM     36  C   LIG d   1       9.453  12.281  -4.503  0.00  0.00    -0.031 C 
ATOM     37  C   LIG d   1       9.540  11.926  -5.999  0.00  0.00    -0.008 C 
ATOM     38  H   LIG d   1       8.412  12.432  -4.217  0.00  0.00     0.081 H 
ATOM     39  H   LIG d   1      10.031  13.183  -4.301  0.00  0.00     0.081 H 
ATOM     40  C   LIG d   1      10.161  10.511  -6.043  0.00  0.00    -0.008 C 
ATOM     41  H   LIG d   1      10.183  12.637  -6.520  0.00  0.00     0.032 H 
ATOM     42  H   LIG d   1       8.546  11.917  -6.445  0.00  0.00     0.032 H 
ATOM     43  C   LIG d   1       9.854   9.954  -4.630  0.00  0.00    -0.031 C 
ATOM     44  H   LIG d   1      11.236  10.566  -6.210  0.00  0.00     0.032 H 
ATOM     45  H   LIG d   1       9.681   9.903  -6.810  0.00  0.00     0.032 H 
ATOM     46  H   LIG d   1      10.564   9.172  -4.362  0.00  0.00     0.081 H 
ATOM     47  H   LIG d   1       8.831   9.579  -4.578  0.00  0.00     0.081 H 
ATOM     48  H   LIG d   1      11.001  11.300  -3.567  0.00  0.00     0.204 HD
ENDBRANCH  32  35
ENDBRANCH  24  32
ENDBRANCH  21  22
ENDBRANCH  11  17
BRANCH   1  49
ATOM     49  N   LIG d   1       9.519   2.321  -3.457  0.00  0.00     0.236 N 
ATOM     50  H   LIG d   1       9.448   2.133  -2.468  0.00  0.00     0.202 HD
ATOM     51  H   LIG d   1       9.926   1.524  -3.923  0.00  0.00     0.202 HD
BRANCH  49  52
ATOM     52  C   LIG d   1       8.180   2.576  -4.005  0.00  0.00    -0.007 C 
ATOM     53  H   LIG d   1       8.264   2.845  -5.057  0.00  0.00     0.087 H 
ATOM     54  H   LIG d   1       7.713   3.393  -3.457  0.00  0.00     0.087 H 
BRANCH  52  55
ATOM     55  C   LIG d   1       7.338   1.334  -3.869  0.00  0.00    -0.003 A 
ATOM     56  C   LIG d   1       6.140   1.385  -3.180  0.00  0.00    -0.052 A 
ATOM     57  C   LIG d   1       5.365   0.249  -3.054  0.00  0.00    -0.040 A 
ATOM     58  H   LIG d   1       5.810   2.314  -2.739  0.00  0.00     0.062 H 
ATOM     59  C   LIG d   1       5.789  -0.947  -3.621  0.00  0.00     0.029 A 
ATOM     60  H   LIG d   1       4.428   0.289  -2.516  0.00  0.00     0.064 H 
ATOM     61  C   LIG d   1       6.996  -0.995  -4.307  0.00  0.00    -0.040 A 
ATOM     62  C   LIG d   1       7.763   0.146  -4.434  0.00  0.00    -0.052 A 
ATOM     63  H   LIG d   1       7.331  -1.924  -4.745  0.00  0.00     0.064 H 
ATOM     64  H   LIG d   1       8.699   0.109  -4.972  0.00  0.00     0.062 H 
BRANCH  59  65
ATOM     65  N   LIG d   1       5.008  -2.097  -3.495  0.00  0.00    -0.336 N 
BRANCH  65  66
ATOM     66  C   LIG d   1       5.243  -3.242  -4.377  0.00  0.00     0.000 C 
ATOM     67  H   LIG d   1       6.040  -3.002  -5.081  0.00  0.00     0.043 H 
ATOM     68  H   LIG d   1       5.533  -4.107  -3.781  0.00  0.00     0.043 H 
ATOM     69  H   LIG d   1       4.329  -3.471  -4.928  0.00  0.00     0.043 H 
ENDBRANCH  65  66
BRANCH  65  70
ATOM     70  C   LIG d   1       3.953  -2.159  -2.480  0.00  0.00     0.000 C 
ATOM     71  H   LIG d   1       3.137  -2.784  -2.842  0.00  0.00     0.043 H 
ATOM     72  H   LIG d   1       4.357  -2.585  -1.562  0.00  0.00     0.043 H 
ATOM     73  H   LIG d   1       3.580  -1.155  -2.281  0.00  0.00     0.043 H 
ENDBRANCH  65  70
ENDBRANCH  59  65
ENDBRANCH  52  55
ENDBRANCH  49  52
ENDBRANCH   1  49
TORSDOF 10
ENDMDL
MODEL 7
REMARK VINA RESULT:      -6.4      5.188      9.544
REMARK  10 active torsions:
REMARK  status: ('A' for Active; 'I' for Inactive)
REMARK    1  A    between atoms: C_1  and  N_2 
REMARK    2  A    between atoms: N_2  and  C_3 
REMARK    3  A    between atoms: N_2  and  C_4 
REMARK    4  A    between atoms: C_7  and  C_10 
REMARK    5  A    between atoms: C_10  and  N_11 
REMARK    6  A    between atoms: N_11  and  C_12 
REMARK    7  A    between atoms: C_22  and  N_24 
REMARK    8  A    between atoms: C_25  and  C_29 
REMARK    9  A    between atoms: C_33  and  C_35 
REMARK   10  A    between atoms: C_35  and  N_36 
ROOT
ATOM      1  C   LIG d   1       7.546  -3.468  -5.551  0.00  0.00     0.031 C 
ATOM      2  H   LIG d   1       8.557  -3.132  -5.323  0.00  0.00     0.090 H 
ATOM      3  C   LIG d   1       7.298  -3.442  -7.075  0.00  0.00     0.093 C 
ATOM      4  O   LIG d   1       6.663  -2.169  -7.324  0.00  0.00    -0.366 OA
ATOM      5  C   LIG d   1       5.733  -1.993  -6.237  0.00  0.00     0.115 C 
ATOM      6  H   LIG d   1       4.796  -2.528  -6.394  0.00  0.00     0.065 H 
ATOM      7  C   LIG d   1       6.505  -2.479  -4.977  0.00  0.00     0.131 C 
ATOM      8  H   LIG d   1       5.850  -2.949  -4.243  0.00  0.00     0.068 H 
ATOM      9  O   LIG d   1       7.195  -1.344  -4.451  0.00  0.00    -0.366 OA
ATOM     10  C   LIG d   1       6.675  -0.130  -4.992  0.00  0.00     0.073 C 
ATOM     11  C   LIG d   1       5.522  -0.488  -5.980  0.00  0.00     0.108 C 
ATOM     12  H   LIG d   1       5.613   0.073  -6.909  0.00  0.00     0.060 H 
ATOM     13  H   LIG d   1       8.244  -3.507  -7.615  0.00  0.00     0.062 H 
ATOM     14  H   LIG d   1       6.638  -4.260  -7.366  0.00  0.00     0.062 H 
ATOM     15  H   LIG d   1       6.289   0.496  -4.186  0.00  0.00     0.058 H 
ATOM     16  H   LIG d   1       7.462   0.403  -5.525  0.00  0.00     0.058 H 
ENDROOT
BRANCH  11  17
ATOM     17  N   LIG d   1       4.217  -0.251  -5.361  0.00  0.00    -0.217 N 
ATOM     18  N   LIG d   1       3.875  -0.403  -4.005  0.00  0.00    -0.043 NA
ATOM     19  N   LIG d   1       2.629  -0.088  -3.897  0.00  0.00    -0.023 NA
ATOM     20  N   LIG d   1       2.149   0.240  -5.042  0.00  0.00    -0.108 NA
ATOM     21  C   LIG d   1       3.077   0.157  -5.971  0.00  0.00     0.182 A 
BRANCH  21  22
ATOM     22  C   LIG d   1       2.908   0.454  -7.411  0.00  0.00     0.021 A 
ATOM     23  C   LIG d   1       2.424  -0.527  -8.277  0.00  0.00    -0.043 A 
ATOM     24  C   LIG d   1       2.264  -0.242  -9.618  0.00  0.00    -0.002 A 
ATOM     25  H   LIG d   1       2.170  -1.505  -7.898  0.00  0.00     0.063 H 
ATOM     26  C   LIG d   1       2.593   1.010 -10.106  0.00  0.00    -0.053 A 
ATOM     27  C   LIG d   1       3.079   1.986  -9.253  0.00  0.00    -0.061 A 
ATOM     28  H   LIG d   1       2.469   1.227 -11.156  0.00  0.00     0.062 H 
ATOM     29  C   LIG d   1       3.238   1.715  -7.910  0.00  0.00    -0.051 A 
ATOM     30  H   LIG d   1       3.334   2.961  -9.640  0.00  0.00     0.062 H 
ATOM     31  H   LIG d   1       3.617   2.478  -7.246  0.00  0.00     0.062 H 
BRANCH  24  32
ATOM     32  C   LIG d   1       1.734  -1.298 -10.553  0.00  0.00    -0.006 C 
ATOM     33  H   LIG d   1       0.653  -1.196 -10.641  0.00  0.00     0.087 H 
ATOM     34  H   LIG d   1       2.192  -1.176 -11.535  0.00  0.00     0.087 H 
BRANCH  32  35
ATOM     35  N   LIG d   1       2.059  -2.629 -10.023  0.00  0.00     0.238 N 
ATOM     36  C   LIG d   1       3.336  -3.107 -10.593  0.00  0.00    -0.031 C 
ATOM     37  C   LIG d   1       3.203  -4.629 -10.786  0.00  0.00    -0.008 C 
ATOM     38  H   LIG d   1       3.519  -2.625 -11.553  0.00  0.00     0.081 H 
ATOM     39  H   LIG d   1       4.154  -2.890  -9.905  0.00  0.00     0.081 H 
ATOM     40  C   LIG d   1       1.768  -4.971 -10.322  0.00  0.00    -0.008 C 
ATOM     41  H   LIG d   1       3.934  -5.154 -10.171  0.00  0.00     0.032 H 
ATOM     42  H   LIG d   1       3.333  -4.890 -11.836  0.00  0.00     0.032 H 
ATOM     43  C   LIG d   1       1.032  -3.614 -10.447  0.00  0.00    -0.031 C 
ATOM     44  H   LIG d   1       1.769  -5.315  -9.288  0.00  0.00     0.032 H 
ATOM     45  H   LIG d   1       1.318  -5.716 -10.977  0.00  0.00     0.032 H 
ATOM     46  H   LIG d   1       0.168  -3.581  -9.782  0.00  0.00     0.081 H 
ATOM     47  H   LIG d   1       0.729  -3.434 -11.479  0.00  0.00     0.081 H 
ATOM     48  H   LIG d   1       2.117  -2.598  -9.016  0.00  0.00     0.204 HD
ENDBRANCH  32  35
ENDBRANCH  24  32
ENDBRANCH  21  22
ENDBRANCH  11  17
BRANCH   1  49
ATOM     49  N   LIG d   1       7.322  -4.819  -5.017  0.00  0.00     0.236 N 
ATOM     50  H   LIG d   1       6.727  -4.764  -4.204  0.00  0.00     0.202 HD
ATOM     51  H   LIG d   1       8.207  -5.229  -4.759  0.00  0.00     0.202 HD
BRANCH  49  52
ATOM     52  C   LIG d   1       6.678  -5.650  -6.042  0.00  0.00    -0.007 C 
ATOM     53  H   LIG d   1       7.350  -5.765  -6.891  0.00  0.00     0.087 H 
ATOM     54  H   LIG d   1       5.756  -5.172  -6.371  0.00  0.00     0.087 H 
BRANCH  52  55
ATOM     55  C   LIG d   1       6.362  -7.005  -5.464  0.00  0.00    -0.003 A 
ATOM     56  C   LIG d   1       7.370  -7.770  -4.906  0.00  0.00    -0.052 A 
ATOM     57  C   LIG d   1       7.084  -9.012  -4.375  0.00  0.00    -0.040 A 
ATOM     58  H   LIG d   1       8.383  -7.395  -4.886  0.00  0.00     0.062 H 
ATOM     59  C   LIG d   1       5.781  -9.493  -4.400  0.00  0.00     0.029 A 
ATOM     60  H   LIG d   1       7.872  -9.609  -3.939  0.00  0.00     0.064 H 
ATOM     61  C   LIG d   1       4.772  -8.725  -4.966  0.00  0.00    -0.040 A 
ATOM     62  C   LIG d   1       5.064  -7.482  -5.491  0.00  0.00    -0.052 A 
ATOM     63  H   LIG d   1       3.758  -9.098  -4.992  0.00  0.00     0.064 H 
ATOM     64  H   LIG d   1       4.278  -6.881  -5.926  0.00  0.00     0.062 H 
BRANCH  59  65
ATOM     65  N   LIG d   1       5.488 -10.749  -3.864  0.00  0.00    -0.336 N 
BRANCH  65  66
ATOM     66  C   LIG d   1       4.115 -11.076  -3.472  0.00  0.00     0.000 C 
ATOM     67  H   LIG d   1       3.425 -10.376  -3.944  0.00  0.00     0.043 H 
ATOM     68  H   LIG d   1       3.878 -12.090  -3.793  0.00  0.00     0.043 H 
ATOM     69  H   LIG d   1       4.019 -11.006  -2.388  0.00  0.00     0.043 H 
ENDBRANCH  65  66
BRANCH  65  70
ATOM     70  C   LIG d   1       6.554 -11.739  -3.693  0.00  0.00     0.000 C 
ATOM     71  H   LIG d   1       7.463 -11.241  -3.356  0.00  0.00     0.043 H 
ATOM     72  H   LIG d   1       6.248 -12.477  -2.951  0.00  0.00     0.043 H 
ATOM     73  H   LIG d   1       6.743 -12.238  -4.643  0.00  0.00     0.043 H 
ENDBRANCH  65  70
ENDBRANCH  59  65
ENDBRANCH  52  55
ENDBRANCH  49  52
ENDBRANCH   1  49
TORSDOF 10
ENDMDL
MODEL 8
REMARK VINA RESULT:      -6.4      6.549     12.551
REMARK  10 active torsions:
REMARK  status: ('A' for Active; 'I' for Inactive)
REMARK    1  A    between atoms: C_1  and  N_2 
REMARK    2  A    between atoms: N_2  and  C_3 
REMARK    3  A    between atoms: N_2  and  C_4 
REMARK    4  A    between atoms: C_7  and  C_10 
REMARK    5  A    between atoms: C_10  and  N_11 
REMARK    6  A    between atoms: N_11  and  C_12 
REMARK    7  A    between atoms: C_22  and  N_24 
REMARK    8  A    between atoms: C_25  and  C_29 
REMARK    9  A    between atoms: C_33  and  C_35 
REMARK   10  A    between atoms: C_35  and  N_36 
ROOT
ATOM      1  C   LIG d   1       2.031  -3.701 -10.326  0.00  0.00     0.031 C 
ATOM      2  H   LIG d   1       2.311  -3.734 -11.379  0.00  0.00     0.090 H 
ATOM      3  C   LIG d   1       2.687  -2.489  -9.629  0.00  0.00     0.093 C 
ATOM      4  O   LIG d   1       3.893  -3.015  -9.033  0.00  0.00    -0.366 OA
ATOM      5  C   LIG d   1       3.518  -4.296  -8.492  0.00  0.00     0.115 C 
ATOM      6  H   LIG d   1       3.034  -4.216  -7.518  0.00  0.00     0.065 H 
ATOM      7  C   LIG d   1       2.599  -4.928  -9.576  0.00  0.00     0.131 C 
ATOM      8  H   LIG d   1       1.814  -5.549  -9.146  0.00  0.00     0.068 H 
ATOM      9  O   LIG d   1       3.449  -5.655 -10.467  0.00  0.00    -0.366 OA
ATOM     10  C   LIG d   1       4.735  -5.871  -9.887  0.00  0.00     0.073 C 
ATOM     11  C   LIG d   1       4.750  -5.224  -8.468  0.00  0.00     0.108 C 
ATOM     12  H   LIG d   1       5.659  -4.645  -8.309  0.00  0.00     0.060 H 
ATOM     13  H   LIG d   1       2.929  -1.717 -10.360  0.00  0.00     0.062 H 
ATOM     14  H   LIG d   1       2.026  -2.090  -8.860  0.00  0.00     0.062 H 
ATOM     15  H   LIG d   1       4.927  -6.942  -9.806  0.00  0.00     0.058 H 
ATOM     16  H   LIG d   1       5.502  -5.408 -10.509  0.00  0.00     0.058 H 
ENDROOT
BRANCH  11  17
ATOM     17  N   LIG d   1       4.601  -6.247  -7.431  0.00  0.00    -0.217 N 
ATOM     18  N   LIG d   1       4.013  -7.517  -7.563  0.00  0.00    -0.043 NA
ATOM     19  N   LIG d   1       4.096  -8.089  -6.410  0.00  0.00    -0.023 NA
ATOM     20  N   LIG d   1       4.669  -7.309  -5.565  0.00  0.00    -0.108 NA
ATOM     21  C   LIG d   1       4.997  -6.171  -6.137  0.00  0.00     0.182 A 
BRANCH  21  22
ATOM     22  C   LIG d   1       5.673  -5.024  -5.489  0.00  0.00     0.021 A 
ATOM     23  C   LIG d   1       4.926  -4.075  -4.791  0.00  0.00    -0.043 A 
ATOM     24  C   LIG d   1       5.563  -3.011  -4.185  0.00  0.00    -0.002 A 
ATOM     25  H   LIG d   1       3.854  -4.175  -4.721  0.00  0.00     0.063 H 
ATOM     26  C   LIG d   1       6.937  -2.879  -4.277  0.00  0.00    -0.053 A 
ATOM     27  C   LIG d   1       7.682  -3.815  -4.973  0.00  0.00    -0.061 A 
ATOM     28  H   LIG d   1       7.430  -2.043  -3.804  0.00  0.00     0.062 H 
ATOM     29  C   LIG d   1       7.059  -4.886  -5.578  0.00  0.00    -0.051 A 
ATOM     30  H   LIG d   1       8.755  -3.706  -5.041  0.00  0.00     0.062 H 
ATOM     31  H   LIG d   1       7.642  -5.616  -6.120  0.00  0.00     0.062 H 
BRANCH  24  32
ATOM     32  C   LIG d   1       4.759  -1.988  -3.425  0.00  0.00    -0.006 C 
ATOM     33  H   LIG d   1       4.390  -2.430  -2.500  0.00  0.00     0.087 H 
ATOM     34  H   LIG d   1       5.390  -1.130  -3.191  0.00  0.00     0.087 H 
BRANCH  32  35
ATOM     35  N   LIG d   1       3.622  -1.550  -4.245  0.00  0.00     0.238 N 
ATOM     36  C   LIG d   1       4.105  -0.835  -5.446  0.00  0.00    -0.031 C 
ATOM     37  C   LIG d   1       3.095   0.291  -5.738  0.00  0.00    -0.008 C 
ATOM     38  H   LIG d   1       5.090  -0.409  -5.254  0.00  0.00     0.081 H 
ATOM     39  H   LIG d   1       4.152  -1.520  -6.292  0.00  0.00     0.081 H 
ATOM     40  C   LIG d   1       2.037   0.185  -4.615  0.00  0.00    -0.008 C 
ATOM     41  H   LIG d   1       2.629   0.138  -6.712  0.00  0.00     0.032 H 
ATOM     42  H   LIG d   1       3.589   1.261  -5.701  0.00  0.00     0.032 H 
ATOM     43  C   LIG d   1       2.795  -0.571  -3.495  0.00  0.00    -0.031 C 
ATOM     44  H   LIG d   1       1.174  -0.389  -4.951  0.00  0.00     0.032 H 
ATOM     45  H   LIG d   1       1.734   1.175  -4.276  0.00  0.00     0.032 H 
ATOM     46  H   LIG d   1       2.095  -1.084  -2.835  0.00  0.00     0.081 H 
ATOM     47  H   LIG d   1       3.428   0.113  -2.929  0.00  0.00     0.081 H 
ATOM     48  H   LIG d   1       3.062  -2.345  -4.516  0.00  0.00     0.204 HD
ENDBRANCH  32  35
ENDBRANCH  24  32
ENDBRANCH  21  22
ENDBRANCH  11  17
BRANCH   1  49
ATOM     49  N   LIG d   1       0.569  -3.645 -10.187  0.00  0.00     0.236 N 
ATOM     50  H   LIG d   1       0.218  -2.827 -10.662  0.00  0.00     0.202 HD
ATOM     51  H   LIG d   1       0.326  -3.596  -9.209  0.00  0.00     0.202 HD
BRANCH  49  52
ATOM     52  C   LIG d   1      -0.027  -4.849 -10.780  0.00  0.00    -0.007 C 
ATOM     53  H   LIG d   1       0.076  -5.684 -10.087  0.00  0.00     0.087 H 
ATOM     54  H   LIG d   1       0.485  -5.087 -11.712  0.00  0.00     0.087 H 
BRANCH  52  55
ATOM     55  C   LIG d   1      -1.487  -4.603 -11.057  0.00  0.00    -0.003 A 
ATOM     56  C   LIG d   1      -2.438  -4.961 -10.119  0.00  0.00    -0.052 A 
ATOM     57  C   LIG d   1      -3.777  -4.736 -10.369  0.00  0.00    -0.040 A 
ATOM     58  H   LIG d   1      -2.132  -5.417  -9.189  0.00  0.00     0.062 H 
ATOM     59  C   LIG d   1      -4.169  -4.149 -11.566  0.00  0.00     0.029 A 
ATOM     60  H   LIG d   1      -4.519  -5.016  -9.636  0.00  0.00     0.064 H 
ATOM     61  C   LIG d   1      -3.212  -3.796 -12.509  0.00  0.00    -0.040 A 
ATOM     62  C   LIG d   1      -1.874  -4.019 -12.249  0.00  0.00    -0.052 A 
ATOM     63  H   LIG d   1      -3.514  -3.343 -13.442  0.00  0.00     0.064 H 
ATOM     64  H   LIG d   1      -1.129  -3.739 -12.980  0.00  0.00     0.062 H 
BRANCH  59  65
ATOM     65  N   LIG d   1      -5.523  -3.920 -11.823  0.00  0.00    -0.336 N 
BRANCH  65  66
ATOM     66  C   LIG d   1      -5.921  -3.057 -12.937  0.00  0.00     0.000 C 
ATOM     67  H   LIG d   1      -6.545  -2.245 -12.563  0.00  0.00     0.043 H 
ATOM     68  H   LIG d   1      -5.032  -2.642 -13.411  0.00  0.00     0.043 H 
ATOM     69  H   LIG d   1      -6.483  -3.641 -13.666  0.00  0.00     0.043 H 
ENDBRANCH  65  66
BRANCH  65  70
ATOM     70  C   LIG d   1      -6.544  -4.544 -10.978  0.00  0.00     0.000 C 
ATOM     71  H   LIG d   1      -7.428  -4.763 -11.578  0.00  0.00     0.043 H 
ATOM     72  H   LIG d   1      -6.152  -5.471 -10.558  0.00  0.00     0.043 H 
ATOM     73  H   LIG d   1      -6.813  -3.865 -10.170  0.00  0.00     0.043 H 
ENDBRANCH  65  70
ENDBRANCH  59  65
ENDBRANCH  52  55
ENDBRANCH  49  52
ENDBRANCH   1  49
TORSDOF 10
ENDMDL
MODEL 9
REMARK VINA RESULT:      -6.3      6.235     10.072
REMARK  10 active torsions:
REMARK  status: ('A' for Active; 'I' for Inactive)
REMARK    1  A    between atoms: C_1  and  N_2 
REMARK    2  A    between atoms: N_2  and  C_3 
REMARK    3  A    between atoms: N_2  and  C_4 
REMARK    4  A    between atoms: C_7  and  C_10 
REMARK    5  A    between atoms: C_10  and  N_11 
REMARK    6  A    between atoms: N_11  and  C_12 
REMARK    7  A    between atoms: C_22  and  N_24 
REMARK    8  A    between atoms: C_25  and  C_29 
REMARK    9  A    between atoms: C_33  and  C_35 
REMARK   10  A    between atoms: C_35  and  N_36 
ROOT
ATOM      1  C   LIG d   1       5.991  -7.462  -7.156  0.00  0.00     0.031 C 
ATOM      2  H   LIG d   1       5.722  -7.382  -8.208  0.00  0.00     0.090 H 
ATOM      3  C   LIG d   1       4.737  -7.738  -6.296  0.00  0.00     0.093 C 
ATOM      4  O   LIG d   1       4.314  -6.438  -5.832  0.00  0.00    -0.366 OA
ATOM      5  C   LIG d   1       5.530  -5.746  -5.489  0.00  0.00     0.115 C 
ATOM      6  H   LIG d   1       5.902  -6.015  -4.500  0.00  0.00     0.065 H 
ATOM      7  C   LIG d   1       6.525  -6.109  -6.629  0.00  0.00     0.131 C 
ATOM      8  H   LIG d   1       7.553  -6.180  -6.277  0.00  0.00     0.068 H 
ATOM      9  O   LIG d   1       6.359  -5.123  -7.651  0.00  0.00    -0.366 OA
ATOM     10  C   LIG d   1       5.660  -3.982  -7.156  0.00  0.00     0.073 C 
ATOM     11  C   LIG d   1       5.321  -4.228  -5.654  0.00  0.00     0.108 C 
ATOM     12  H   LIG d   1       4.288  -3.960  -5.435  0.00  0.00     0.060 H 
ATOM     13  H   LIG d   1       3.957  -8.199  -6.903  0.00  0.00     0.062 H 
ATOM     14  H   LIG d   1       4.990  -8.380  -5.452  0.00  0.00     0.062 H 
ATOM     15  H   LIG d   1       6.288  -3.096  -7.252  0.00  0.00     0.058 H 
ATOM     16  H   LIG d   1       4.738  -3.841  -7.721  0.00  0.00     0.058 H 
ENDROOT
BRANCH  11  17
ATOM     17  N   LIG d   1       6.240  -3.486  -4.788  0.00  0.00    -0.217 N 
ATOM     18  N   LIG d   1       7.565  -3.824  -4.461  0.00  0.00    -0.043 NA
ATOM     19  N   LIG d   1       8.004  -2.900  -3.677  0.00  0.00    -0.023 NA
ATOM     20  N   LIG d   1       7.093  -2.019  -3.470  0.00  0.00    -0.108 NA
ATOM     21  C   LIG d   1       5.995  -2.329  -4.125  0.00  0.00     0.182 A 
BRANCH  21  22
ATOM     22  C   LIG d   1       4.730  -1.560  -4.136  0.00  0.00     0.021 A 
ATOM     23  C   LIG d   1       4.389  -0.788  -5.246  0.00  0.00    -0.043 A 
ATOM     24  C   LIG d   1       3.206  -0.077  -5.252  0.00  0.00    -0.002 A 
ATOM     25  H   LIG d   1       5.048  -0.750  -6.101  0.00  0.00     0.063 H 
ATOM     26  C   LIG d   1       2.364  -0.121  -4.156  0.00  0.00    -0.053 A 
ATOM     27  C   LIG d   1       2.699  -0.881  -3.049  0.00  0.00    -0.061 A 
ATOM     28  H   LIG d   1       1.441   0.439  -4.164  0.00  0.00     0.062 H 
ATOM     29  C   LIG d   1       3.876  -1.601  -3.033  0.00  0.00    -0.051 A 
ATOM     30  H   LIG d   1       2.037  -0.912  -2.196  0.00  0.00     0.062 H 
ATOM     31  H   LIG d   1       4.136  -2.193  -2.168  0.00  0.00     0.062 H 
BRANCH  24  32
ATOM     32  C   LIG d   1       2.834   0.752  -6.454  0.00  0.00    -0.006 C 
ATOM     33  H   LIG d   1       1.748   0.803  -6.537  0.00  0.00     0.087 H 
ATOM     34  H   LIG d   1       3.237   1.759  -6.340  0.00  0.00     0.087 H 
BRANCH  32  35
ATOM     35  N   LIG d   1       3.389   0.135  -7.666  0.00  0.00     0.238 N 
ATOM     36  C   LIG d   1       3.988   1.170  -8.536  0.00  0.00    -0.031 C 
ATOM     37  C   LIG d   1       3.723   0.745  -9.992  0.00  0.00    -0.008 C 
ATOM     38  H   LIG d   1       3.522   2.136  -8.340  0.00  0.00     0.081 H 
ATOM     39  H   LIG d   1       5.061   1.230  -8.356  0.00  0.00     0.081 H 
ATOM     40  C   LIG d   1       2.915  -0.569  -9.888  0.00  0.00    -0.008 C 
ATOM     41  H   LIG d   1       4.665   0.569 -10.512  0.00  0.00     0.032 H 
ATOM     42  H   LIG d   1       3.140   1.507 -10.509  0.00  0.00     0.032 H 
ATOM     43  C   LIG d   1       2.305  -0.489  -8.466  0.00  0.00    -0.031 C 
ATOM     44  H   LIG d   1       3.571  -1.434  -9.978  0.00  0.00     0.032 H 
ATOM     45  H   LIG d   1       2.130  -0.600 -10.643  0.00  0.00     0.032 H 
ATOM     46  H   LIG d   1       2.073  -1.486  -8.090  0.00  0.00     0.081 H 
ATOM     47  H   LIG d   1       1.414   0.140  -8.464  0.00  0.00     0.081 H 
ATOM     48  H   LIG d   1       4.082  -0.555  -7.419  0.00  0.00     0.204 HD
ENDBRANCH  32  35
ENDBRANCH  24  32
ENDBRANCH  21  22
ENDBRANCH  11  17
BRANCH   1  49
ATOM     49  N   LIG d   1       6.992  -8.520  -6.961  0.00  0.00     0.236 N 
ATOM     50  H   LIG d   1       7.416  -8.748  -7.847  0.00  0.00     0.202 HD
ATOM     51  H   LIG d   1       6.543  -9.341  -6.582  0.00  0.00     0.202 HD
BRANCH  49  52
ATOM     52  C   LIG d   1       8.025  -8.052  -6.029  0.00  0.00    -0.007 C 
ATOM     53  H   LIG d   1       7.884  -6.989  -5.834  0.00  0.00     0.087 H 
ATOM     54  H   LIG d   1       9.010  -8.214  -6.466  0.00  0.00     0.087 H 
BRANCH  52  55
ATOM     55  C   LIG d   1       7.918  -8.818  -4.735  0.00  0.00    -0.003 A 
ATOM     56  C   LIG d   1       7.342 -10.075  -4.723  0.00  0.00    -0.052 A 
ATOM     57  C   LIG d   1       7.243 -10.780  -3.539  0.00  0.00    -0.040 A 
ATOM     58  H   LIG d   1       6.969 -10.506  -5.640  0.00  0.00     0.062 H 
ATOM     59  C   LIG d   1       7.724 -10.225  -2.360  0.00  0.00     0.029 A 
ATOM     60  H   LIG d   1       6.793 -11.762  -3.530  0.00  0.00     0.064 H 
ATOM     61  C   LIG d   1       8.296  -8.959  -2.375  0.00  0.00    -0.040 A 
ATOM     62  C   LIG d   1       8.397  -8.263  -3.563  0.00  0.00    -0.052 A 
ATOM     63  H   LIG d   1       8.667  -8.523  -1.458  0.00  0.00     0.064 H 
ATOM     64  H   LIG d   1       8.847  -7.280  -3.576  0.00  0.00     0.062 H 
BRANCH  59  65
ATOM     65  N   LIG d   1       7.625 -10.934  -1.161  0.00  0.00    -0.336 N 
BRANCH  65  66
ATOM     66  C   LIG d   1       6.347 -11.532  -0.767  0.00  0.00     0.000 C 
ATOM     67  H   LIG d   1       6.239 -11.478   0.316  0.00  0.00     0.043 H 
ATOM     68  H   LIG d   1       5.530 -10.987  -1.240  0.00  0.00     0.043 H 
ATOM     69  H   LIG d   1       6.320 -12.575  -1.084  0.00  0.00     0.043 H 
ENDBRANCH  65  66
BRANCH  65  70
ATOM     70  C   LIG d   1       8.799 -11.082  -0.298  0.00  0.00     0.000 C 
ATOM     71  H   LIG d   1       9.238 -12.069  -0.446  0.00  0.00     0.043 H 
ATOM     72  H   LIG d   1       9.534 -10.317  -0.551  0.00  0.00     0.043 H 
ATOM     73  H   LIG d   1       8.502 -10.969   0.744  0.00  0.00     0.043 H 
ENDBRANCH  65  70
ENDBRANCH  59  65
ENDBRANCH  52  55
ENDBRANCH  49  52
ENDBRANCH   1  49
TORSDOF 10
ENDMDL
MODEL 10
REMARK VINA RESULT:      -6.1      2.807      5.355
REMARK  10 active torsions:
REMARK  status: ('A' for Active; 'I' for Inactive)
REMARK    1  A    between atoms: C_1  and  N_2 
REMARK    2  A    between atoms: N_2  and  C_3 
REMARK    3  A    between atoms: N_2  and  C_4 
REMARK    4  A    between atoms: C_7  and  C_10 
REMARK    5  A    between atoms: C_10  and  N_11 
REMARK    6  A    between atoms: N_11  and  C_12 
REMARK    7  A    between atoms: C_22  and  N_24 
REMARK    8  A    between atoms: C_25  and  C_29 
REMARK    9  A    between atoms: C_33  and  C_35 
REMARK   10  A    between atoms: C_35  and  N_36 
ROOT
ATOM      1  C   LIG d   1       5.965   0.968  -9.524  0.00  0.00     0.031 C 
ATOM      2  H   LIG d   1       5.343   1.253 -10.373  0.00  0.00     0.090 H 
ATOM      3  C   LIG d   1       6.307  -0.537  -9.586  0.00  0.00     0.093 C 
ATOM      4  O   LIG d   1       5.315  -1.175  -8.753  0.00  0.00    -0.366 OA
ATOM      5  C   LIG d   1       5.170  -0.310  -7.610  0.00  0.00     0.115 C 
ATOM      6  H   LIG d   1       5.947  -0.469  -6.862  0.00  0.00     0.065 H 
ATOM      7  C   LIG d   1       5.181   1.129  -8.201  0.00  0.00     0.131 C 
ATOM      8  H   LIG d   1       5.647   1.850  -7.530  0.00  0.00     0.068 H 
ATOM      9  O   LIG d   1       3.826   1.460  -8.510  0.00  0.00    -0.366 OA
ATOM     10  C   LIG d   1       2.918   0.572  -7.858  0.00  0.00     0.073 C 
ATOM     11  C   LIG d   1       3.748  -0.458  -7.031  0.00  0.00     0.108 C 
ATOM     12  H   LIG d   1       3.379  -1.472  -7.183  0.00  0.00     0.060 H 
ATOM     13  H   LIG d   1       6.234  -0.901 -10.611  0.00  0.00     0.062 H 
ATOM     14  H   LIG d   1       7.307  -0.715  -9.190  0.00  0.00     0.062 H 
ATOM     15  H   LIG d   1       2.265   1.137  -7.193  0.00  0.00     0.058 H 
ATOM     16  H   LIG d   1       2.319   0.046  -8.601  0.00  0.00     0.058 H 
ENDROOT
BRANCH  11  17
ATOM     17  N   LIG d   1       3.735  -0.111  -5.609  0.00  0.00    -0.217 N 
ATOM     18  N   LIG d   1       3.028   0.936  -4.992  0.00  0.00    -0.043 NA
ATOM     19  N   LIG d   1       3.298   0.878  -3.732  0.00  0.00    -0.023 NA
ATOM     20  N   LIG d   1       4.106  -0.092  -3.492  0.00  0.00    -0.108 NA
ATOM     21  C   LIG d   1       4.405  -0.728  -4.604  0.00  0.00     0.182 A 
BRANCH  21  22
ATOM     22  C   LIG d   1       5.303  -1.898  -4.734  0.00  0.00     0.021 A 
ATOM     23  C   LIG d   1       6.685  -1.733  -4.644  0.00  0.00    -0.043 A 
ATOM     24  C   LIG d   1       7.516  -2.829  -4.760  0.00  0.00    -0.002 A 
ATOM     25  H   LIG d   1       7.103  -0.752  -4.478  0.00  0.00     0.063 H 
ATOM     26  C   LIG d   1       6.982  -4.086  -4.976  0.00  0.00    -0.053 A 
ATOM     27  C   LIG d   1       5.612  -4.255  -5.072  0.00  0.00    -0.061 A 
ATOM     28  H   LIG d   1       7.637  -4.940  -5.070  0.00  0.00     0.062 H 
ATOM     29  C   LIG d   1       4.770  -3.169  -4.952  0.00  0.00    -0.051 A 
ATOM     30  H   LIG d   1       5.201  -5.240  -5.240  0.00  0.00     0.062 H 
ATOM     31  H   LIG d   1       3.701  -3.303  -5.026  0.00  0.00     0.062 H 
BRANCH  24  32
ATOM     32  C   LIG d   1       9.010  -2.654  -4.656  0.00  0.00    -0.006 C 
ATOM     33  H   LIG d   1       9.276  -2.408  -3.629  0.00  0.00     0.087 H 
ATOM     34  H   LIG d   1       9.505  -3.580  -4.948  0.00  0.00     0.087 H 
BRANCH  32  35
ATOM     35  N   LIG d   1       9.438  -1.567  -5.546  0.00  0.00     0.238 N 
ATOM     36  C   LIG d   1       9.606  -2.073  -6.925  0.00  0.00    -0.031 C 
ATOM     37  C   LIG d   1      10.799  -1.318  -7.541  0.00  0.00    -0.008 C 
ATOM     38  H   LIG d   1       9.814  -3.143  -6.906  0.00  0.00     0.081 H 
ATOM     39  H   LIG d   1       8.704  -1.878  -7.504  0.00  0.00     0.081 H 
ATOM     40  C   LIG d   1      11.309  -0.384  -6.419  0.00  0.00    -0.008 C 
ATOM     41  H   LIG d   1      10.474  -0.733  -8.401  0.00  0.00     0.032 H 
ATOM     42  H   LIG d   1      11.581  -2.019  -7.833  0.00  0.00     0.032 H 
ATOM     43  C   LIG d   1      10.773  -1.063  -5.133  0.00  0.00    -0.031 C 
ATOM     44  H   LIG d   1      10.891   0.616  -6.530  0.00  0.00     0.032 H 
ATOM     45  H   LIG d   1      12.398  -0.349  -6.411  0.00  0.00     0.032 H 
ATOM     46  H   LIG d   1      10.678  -0.337  -4.325  0.00  0.00     0.081 H 
ATOM     47  H   LIG d   1      11.420  -1.888  -4.835  0.00  0.00     0.081 H 
ATOM     48  H   LIG d   1       8.763  -0.817  -5.531  0.00  0.00     0.204 HD
ENDBRANCH  32  35
ENDBRANCH  24  32
ENDBRANCH  21  22
ENDBRANCH  11  17
BRANCH   1  49
ATOM     49  N   LIG d   1       7.194   1.774  -9.496  0.00  0.00     0.236 N 
ATOM     50  H   LIG d   1       6.998   2.670  -9.076  0.00  0.00     0.202 HD
ATOM     51  H   LIG d   1       7.529   1.909 -10.438  0.00  0.00     0.202 HD
BRANCH  49  52
ATOM     52  C   LIG d   1       8.218   1.077  -8.708  0.00  0.00    -0.007 C 
ATOM     53  H   LIG d   1       9.083   0.871  -9.337  0.00  0.00     0.087 H 
ATOM     54  H   LIG d   1       7.812   0.138  -8.332  0.00  0.00     0.087 H 
BRANCH  52  55
ATOM     55  C   LIG d   1       8.635   1.943  -7.548  0.00  0.00    -0.003 A 
ATOM     56  C   LIG d   1       8.206   1.639  -6.269  0.00  0.00    -0.052 A 
ATOM     57  C   LIG d   1       8.586   2.430  -5.204  0.00  0.00    -0.040 A 
ATOM     58  H   LIG d   1       7.571   0.780  -6.104  0.00  0.00     0.062 H 
ATOM     59  C   LIG d   1       9.402   3.534  -5.417  0.00  0.00     0.029 A 
ATOM     60  H   LIG d   1       8.250   2.192  -4.205  0.00  0.00     0.064 H 
ATOM     61  C   LIG d   1       9.827   3.841  -6.704  0.00  0.00    -0.040 A 
ATOM     62  C   LIG d   1       9.447   3.042  -7.764  0.00  0.00    -0.052 A 
ATOM     63  H   LIG d   1      10.458   4.701  -6.874  0.00  0.00     0.064 H 
ATOM     64  H   LIG d   1       9.782   3.276  -8.764  0.00  0.00     0.062 H 
BRANCH  59  65
ATOM     65  N   LIG d   1       9.789   4.337  -4.342  0.00  0.00    -0.336 N 
BRANCH  65  66
ATOM     66  C   LIG d   1       9.860   3.771  -2.993  0.00  0.00     0.000 C 
ATOM     67  H   LIG d   1       9.180   2.922  -2.919  0.00  0.00     0.043 H 
ATOM     68  H   LIG d   1      10.878   3.439  -2.792  0.00  0.00     0.043 H 
ATOM     69  H   LIG d   1       9.575   4.530  -2.265  0.00  0.00     0.043 H 
ENDBRANCH  65  66
BRANCH  65  70
ATOM     70  C   LIG d   1      10.124   5.746  -4.563  0.00  0.00     0.000 C 
ATOM     71  H   LIG d   1      11.200   5.885  -4.460  0.00  0.00     0.043 H 
ATOM     72  H   LIG d   1       9.814   6.040  -5.566  0.00  0.00     0.043 H 
ATOM     73  H   LIG d   1       9.607   6.363  -3.828  0.00  0.00     0.043 H 
ENDBRANCH  65  70
ENDBRANCH  59  65
ENDBRANCH  52  55
ENDBRANCH  49  52
ENDBRANCH   1  49
TORSDOF 10
ENDMDL
