MODEL 1
REMARK VINA RESULT:      -6.1      0.000      0.000
REMARK  13 active torsions:
REMARK  status: ('A' for Active; 'I' for Inactive)
REMARK    1  A    between atoms: C_1  and  C_2 
REMARK    2  A    between atoms: C_2  and  C_3 
REMARK       I    between atoms: C_3  and  N_5 
REMARK    3  A    between atoms: N_5  and  C_6 
REMARK    4  A    between atoms: N_5  and  C_25 
REMARK    5  A    between atoms: C_6  and  C_7 
REMARK    6  A    between atoms: C_7  and  C_8 
REMARK    7  A    between atoms: C_8  and  C_10 
REMARK    8  A    between atoms: C_8  and  C_16 
REMARK    9  A    between atoms: C_25  and  C_26 
REMARK   10  A    between atoms: C_29  and  O_32 
REMARK   11  A    between atoms: O_32  and  C_33 
REMARK   12  A    between atoms: C_33  and  C_34 
REMARK   13  A    between atoms: C_33  and  C_35 
ROOT
ATOM      1  C   LIG d   1       4.205  -1.391  -2.937  0.00  0.00     0.216 C 
ATOM      2  O   LIG d   1       3.868  -2.345  -2.269  0.00  0.00    -0.276 OA
ATOM      3  N   LIG d   1       5.191  -1.520  -3.847  0.00  0.00    -0.297 N 
ENDROOT
BRANCH   3   4
ATOM      4  C   LIG d   1       5.788  -2.835  -4.099  0.00  0.00     0.016 C 
ATOM      5  H   LIG d   1       6.799  -2.707  -4.485  0.00  0.00     0.046 H 
ATOM      6  H   LIG d   1       5.823  -3.402  -3.169  0.00  0.00     0.046 H 
BRANCH   4   7
ATOM      7  C   LIG d   1       4.941  -3.591  -5.126  0.00  0.00    -0.026 C 
ATOM      8  H   LIG d   1       4.324  -4.329  -4.614  0.00  0.00     0.029 H 
ATOM      9  H   LIG d   1       4.301  -2.886  -5.658  0.00  0.00     0.029 H 
BRANCH   7  10
ATOM     10  C   LIG d   1       5.861  -4.298  -6.123  0.00  0.00     0.011 C 
ATOM     11  H   LIG d   1       6.832  -3.803  -6.136  0.00  0.00     0.040 H 
BRANCH  10  12
ATOM     12  C   LIG d   1       5.249  -4.238  -7.499  0.00  0.00    -0.040 A 
ATOM     13  C   LIG d   1       6.057  -4.307  -8.619  0.00  0.00    -0.058 A 
ATOM     14  C   LIG d   1       5.495  -4.256  -9.881  0.00  0.00    -0.061 A 
ATOM     15  H   LIG d   1       7.126  -4.405  -8.508  0.00  0.00     0.062 H 
ATOM     16  C   LIG d   1       4.126  -4.126 -10.023  0.00  0.00    -0.062 A 
ATOM     17  H   LIG d   1       6.126  -4.315 -10.755  0.00  0.00     0.062 H 
ATOM     18  C   LIG d   1       3.318  -4.052  -8.904  0.00  0.00    -0.061 A 
ATOM     19  H   LIG d   1       3.687  -4.083 -11.009  0.00  0.00     0.062 H 
ATOM     20  C   LIG d   1       3.880  -4.107  -7.642  0.00  0.00    -0.058 A 
ATOM     21  H   LIG d   1       2.249  -3.951  -9.015  0.00  0.00     0.062 H 
ATOM     22  H   LIG d   1       3.249  -4.049  -6.767  0.00  0.00     0.062 H 
ENDBRANCH  10  12
BRANCH  10  23
ATOM     23  C   LIG d   1       6.035  -5.738  -5.713  0.00  0.00    -0.036 A 
ATOM     24  C   LIG d   1       4.929  -6.554  -5.573  0.00  0.00    -0.012 A 
ATOM     25  C   LIG d   1       5.087  -7.879  -5.201  0.00  0.00     0.167 A 
ATOM     26  H   LIG d   1       3.941  -6.159  -5.757  0.00  0.00     0.066 H 
ATOM     27  C   LIG d   1       6.363  -8.382  -4.959  0.00  0.00     0.166 A 
ATOM     28  O   LIG d   1       4.179  -8.877  -5.000  0.00  0.00    -0.453 OA
ATOM     29  C   LIG d   1       7.467  -7.557  -5.097  0.00  0.00    -0.016 A 
ATOM     30  O   LIG d   1       6.254  -9.697  -4.607  0.00  0.00    -0.453 OA
ATOM     31  C   LIG d   1       7.302  -6.237  -5.473  0.00  0.00    -0.054 A 
ATOM     32  H   LIG d   1       8.458  -7.945  -4.910  0.00  0.00     0.066 H 
ATOM     33  H   LIG d   1       8.164  -5.596  -5.581  0.00  0.00     0.062 H 
ATOM     34  C   LIG d   1       4.938 -10.101  -5.031  0.00  0.00     0.233 C 
ATOM     35  H   LIG d   1       4.520 -10.829  -4.338  0.00  0.00     0.117 H 
ATOM     36  H   LIG d   1       4.970 -10.506  -6.042  0.00  0.00     0.117 H 
ENDBRANCH  10  23
ENDBRANCH   7  10
ENDBRANCH   4   7
ENDBRANCH   3   4
BRANCH   3  37
ATOM     37  C   LIG d   1       5.666  -0.347  -4.584  0.00  0.00     0.040 C 
ATOM     38  H   LIG d   1       5.264   0.557  -4.127  0.00  0.00     0.051 H 
ATOM     39  H   LIG d   1       6.755  -0.316  -4.556  0.00  0.00     0.051 H 
BRANCH  37  40
ATOM     40  C   LIG d   1       5.205  -0.433  -6.017  0.00  0.00    -0.030 A 
ATOM     41  C   LIG d   1       3.855  -0.371  -6.312  0.00  0.00    -0.054 A 
ATOM     42  C   LIG d   1       3.430  -0.443  -7.625  0.00  0.00    -0.020 A 
ATOM     43  H   LIG d   1       3.133  -0.262  -5.516  0.00  0.00     0.062 H 
ATOM     44  C   LIG d   1       4.358  -0.590  -8.646  0.00  0.00     0.121 A 
ATOM     45  H   LIG d   1       2.376  -0.391  -7.855  0.00  0.00     0.065 H 
ATOM     46  C   LIG d   1       5.710  -0.658  -8.346  0.00  0.00    -0.020 A 
ATOM     47  C   LIG d   1       6.131  -0.579  -7.033  0.00  0.00    -0.054 A 
ATOM     48  H   LIG d   1       6.435  -0.771  -9.139  0.00  0.00     0.065 H 
ATOM     49  H   LIG d   1       7.184  -0.631  -6.798  0.00  0.00     0.062 H 
BRANCH  44  50
ATOM     50  O   LIG d   1       3.942  -0.667  -9.938  0.00  0.00    -0.489 OA
BRANCH  50  51
ATOM     51  C   LIG d   1       4.482   0.291 -10.850  0.00  0.00     0.095 C 
ATOM     52  H   LIG d   1       5.557   0.378 -10.692  0.00  0.00     0.073 H 
BRANCH  51  53
ATOM     53  C   LIG d   1       4.212  -0.164 -12.286  0.00  0.00    -0.028 C 
ATOM     54  H   LIG d   1       3.194   0.104 -12.566  0.00  0.00     0.026 H 
ATOM     55  H   LIG d   1       4.915   0.323 -12.961  0.00  0.00     0.026 H 
ATOM     56  H   LIG d   1       4.335  -1.245 -12.353  0.00  0.00     0.026 H 
ENDBRANCH  51  53
BRANCH  51  57
ATOM     57  C   LIG d   1       3.820   1.650 -10.613  0.00  0.00    -0.028 C 
ATOM     58  H   LIG d   1       3.287   1.956 -11.513  0.00  0.00     0.026 H 
ATOM     59  H   LIG d   1       3.119   1.573  -9.783  0.00  0.00     0.026 H 
ATOM     60  H   LIG d   1       4.585   2.390 -10.375  0.00  0.00     0.026 H 
ENDBRANCH  51  57
ENDBRANCH  50  51
ENDBRANCH  44  50
ENDBRANCH  37  40
ENDBRANCH   3  37
BRANCH   1  61
ATOM     61  C   LIG d   1       3.523  -0.060  -2.750  0.00  0.00     0.021 C 
ATOM     62  H   LIG d   1       2.511  -0.221  -2.378  0.00  0.00     0.036 H 
ATOM     63  H   LIG d   1       3.480   0.464  -3.705  0.00  0.00     0.036 H 
BRANCH  61  64
ATOM     64  C   LIG d   1       4.311   0.779  -1.743  0.00  0.00    -0.057 C 
ATOM     65  H   LIG d   1       5.111   1.311  -2.260  0.00  0.00     0.023 H 
ATOM     66  H   LIG d   1       3.645   1.498  -1.267  0.00  0.00     0.023 H 
ATOM     67  H   LIG d   1       4.743   0.126  -0.985  0.00  0.00     0.023 H 
ENDBRANCH  61  64
ENDBRANCH   1  61
TORSDOF 13
ENDMDL
MODEL 2
REMARK VINA RESULT:      -6.0      4.716      8.238
REMARK  13 active torsions:
REMARK  status: ('A' for Active; 'I' for Inactive)
REMARK    1  A    between atoms: C_1  and  C_2 
REMARK    2  A    between atoms: C_2  and  C_3 
REMARK       I    between atoms: C_3  and  N_5 
REMARK    3  A    between atoms: N_5  and  C_6 
REMARK    4  A    between atoms: N_5  and  C_25 
REMARK    5  A    between atoms: C_6  and  C_7 
REMARK    6  A    between atoms: C_7  and  C_8 
REMARK    7  A    between atoms: C_8  and  C_10 
REMARK    8  A    between atoms: C_8  and  C_16 
REMARK    9  A    between atoms: C_25  and  C_26 
REMARK   10  A    between atoms: C_29  and  O_32 
REMARK   11  A    between atoms: O_32  and  C_33 
REMARK   12  A    between atoms: C_33  and  C_34 
REMARK   13  A    between atoms: C_33  and  C_35 
ROOT
ATOM      1  C   LIG d   1       5.077  -0.063  -2.274  0.00  0.00     0.216 C 
ATOM      2  O   LIG d   1       4.703   0.827  -1.542  0.00  0.00    -0.276 OA
ATOM      3  N   LIG d   1       5.926   0.208  -3.286  0.00  0.00    -0.297 N 
ENDROOT
BRANCH   3   4
ATOM      4  C   LIG d   1       6.472   1.559  -3.442  0.00  0.00     0.016 C 
ATOM      5  H   LIG d   1       5.939   2.077  -4.239  0.00  0.00     0.046 H 
ATOM      6  H   LIG d   1       6.354   2.109  -2.508  0.00  0.00     0.046 H 
BRANCH   4   7
ATOM      7  C   LIG d   1       7.958   1.470  -3.796  0.00  0.00    -0.026 C 
ATOM      8  H   LIG d   1       8.556   1.690  -2.912  0.00  0.00     0.029 H 
ATOM      9  H   LIG d   1       8.187   0.464  -4.149  0.00  0.00     0.029 H 
BRANCH   7  10
ATOM     10  C   LIG d   1       8.282   2.483  -4.896  0.00  0.00     0.011 C 
ATOM     11  H   LIG d   1       7.356   2.917  -5.273  0.00  0.00     0.040 H 
BRANCH  10  12
ATOM     12  C   LIG d   1       9.006   1.788  -6.020  0.00  0.00    -0.040 A 
ATOM     13  C   LIG d   1       9.887   0.759  -5.744  0.00  0.00    -0.058 A 
ATOM     14  C   LIG d   1      10.548   0.119  -6.777  0.00  0.00    -0.061 A 
ATOM     15  H   LIG d   1      10.055   0.452  -4.723  0.00  0.00     0.062 H 
ATOM     16  C   LIG d   1      10.336   0.515  -8.083  0.00  0.00    -0.062 A 
ATOM     17  H   LIG d   1      11.232  -0.688  -6.560  0.00  0.00     0.062 H 
ATOM     18  C   LIG d   1       9.459   1.548  -8.359  0.00  0.00    -0.061 A 
ATOM     19  H   LIG d   1      10.854   0.017  -8.889  0.00  0.00     0.062 H 
ATOM     20  C   LIG d   1       8.795   2.185  -7.328  0.00  0.00    -0.058 A 
ATOM     21  H   LIG d   1       9.293   1.857  -9.380  0.00  0.00     0.062 H 
ATOM     22  H   LIG d   1       8.110   2.992  -7.544  0.00  0.00     0.062 H 
ENDBRANCH  10  12
BRANCH  10  23
ATOM     23  C   LIG d   1       9.156   3.574  -4.333  0.00  0.00    -0.036 A 
ATOM     24  C   LIG d   1       9.778   3.398  -3.111  0.00  0.00    -0.012 A 
ATOM     25  C   LIG d   1      10.586   4.397  -2.595  0.00  0.00     0.167 A 
ATOM     26  H   LIG d   1       9.636   2.480  -2.562  0.00  0.00     0.066 H 
ATOM     27  C   LIG d   1      10.762   5.583  -3.305  0.00  0.00     0.166 A 
ATOM     28  O   LIG d   1      11.303   4.473  -1.436  0.00  0.00    -0.453 OA
ATOM     29  C   LIG d   1      10.132   5.753  -4.527  0.00  0.00    -0.016 A 
ATOM     30  O   LIG d   1      11.590   6.401  -2.591  0.00  0.00    -0.453 OA
ATOM     31  C   LIG d   1       9.330   4.750  -5.039  0.00  0.00    -0.054 A 
ATOM     32  H   LIG d   1      10.266   6.672  -5.080  0.00  0.00     0.066 H 
ATOM     33  H   LIG d   1       8.841   4.885  -5.991  0.00  0.00     0.062 H 
ATOM     34  C   LIG d   1      12.243   5.546  -1.634  0.00  0.00     0.233 C 
ATOM     35  H   LIG d   1      12.418   6.080  -0.700  0.00  0.00     0.117 H 
ATOM     36  H   LIG d   1      13.180   5.164  -2.039  0.00  0.00     0.117 H 
ENDBRANCH  10  23
ENDBRANCH   7  10
ENDBRANCH   4   7
ENDBRANCH   3   4
BRANCH   3  37
ATOM     37  C   LIG d   1       6.301  -0.847  -4.230  0.00  0.00     0.040 C 
ATOM     38  H   LIG d   1       7.382  -0.840  -4.373  0.00  0.00     0.051 H 
ATOM     39  H   LIG d   1       5.993  -1.815  -3.836  0.00  0.00     0.051 H 
BRANCH  37  40
ATOM     40  C   LIG d   1       5.619  -0.604  -5.553  0.00  0.00    -0.030 A 
ATOM     41  C   LIG d   1       6.373  -0.489  -6.707  0.00  0.00    -0.054 A 
ATOM     42  C   LIG d   1       5.750  -0.272  -7.921  0.00  0.00    -0.020 A 
ATOM     43  H   LIG d   1       7.449  -0.572  -6.659  0.00  0.00     0.062 H 
ATOM     44  C   LIG d   1       4.369  -0.158  -7.980  0.00  0.00     0.121 A 
ATOM     45  H   LIG d   1       6.339  -0.186  -8.822  0.00  0.00     0.065 H 
ATOM     46  C   LIG d   1       3.616  -0.269  -6.820  0.00  0.00    -0.020 A 
ATOM     47  C   LIG d   1       4.242  -0.491  -5.609  0.00  0.00    -0.054 A 
ATOM     48  H   LIG d   1       2.540  -0.182  -6.863  0.00  0.00     0.065 H 
ATOM     49  H   LIG d   1       3.657  -0.578  -4.706  0.00  0.00     0.062 H 
BRANCH  44  50
ATOM     50  O   LIG d   1       3.754   0.060  -9.173  0.00  0.00    -0.489 OA
BRANCH  50  51
ATOM     51  C   LIG d   1       4.339   1.040 -10.033  0.00  0.00     0.095 C 
ATOM     52  H   LIG d   1       5.409   1.103  -9.837  0.00  0.00     0.073 H 
BRANCH  51  53
ATOM     53  C   LIG d   1       4.109   0.639 -11.491  0.00  0.00    -0.028 C 
ATOM     54  H   LIG d   1       3.784   1.509 -12.061  0.00  0.00     0.026 H 
ATOM     55  H   LIG d   1       5.038   0.255 -11.914  0.00  0.00     0.026 H 
ATOM     56  H   LIG d   1       3.342  -0.134 -11.539  0.00  0.00     0.026 H 
ENDBRANCH  51  53
BRANCH  51  57
ATOM     57  C   LIG d   1       3.691   2.400  -9.770  0.00  0.00    -0.028 C 
ATOM     58  H   LIG d   1       2.976   2.622 -10.563  0.00  0.00     0.026 H 
ATOM     59  H   LIG d   1       3.174   2.378  -8.811  0.00  0.00     0.026 H 
ATOM     60  H   LIG d   1       4.461   3.172  -9.750  0.00  0.00     0.026 H 
ENDBRANCH  51  57
ENDBRANCH  50  51
ENDBRANCH  44  50
ENDBRANCH  37  40
ENDBRANCH   3  37
BRANCH   1  61
ATOM     61  C   LIG d   1       4.595  -1.474  -2.054  0.00  0.00     0.021 C 
ATOM     62  H   LIG d   1       4.643  -1.712  -0.992  0.00  0.00     0.036 H 
ATOM     63  H   LIG d   1       5.227  -2.166  -2.611  0.00  0.00     0.036 H 
BRANCH  61  64
ATOM     64  C   LIG d   1       3.151  -1.600  -2.542  0.00  0.00    -0.057 C 
ATOM     65  H   LIG d   1       3.124  -1.508  -3.628  0.00  0.00     0.023 H 
ATOM     66  H   LIG d   1       2.750  -2.570  -2.250  0.00  0.00     0.023 H 
ATOM     67  H   LIG d   1       2.547  -0.809  -2.097  0.00  0.00     0.023 H 
ENDBRANCH  61  64
ENDBRANCH   1  61
TORSDOF 13
ENDMDL
MODEL 3
REMARK VINA RESULT:      -5.9      2.589      5.417
REMARK  13 active torsions:
REMARK  status: ('A' for Active; 'I' for Inactive)
REMARK    1  A    between atoms: C_1  and  C_2 
REMARK    2  A    between atoms: C_2  and  C_3 
REMARK       I    between atoms: C_3  and  N_5 
REMARK    3  A    between atoms: N_5  and  C_6 
REMARK    4  A    between atoms: N_5  and  C_25 
REMARK    5  A    between atoms: C_6  and  C_7 
REMARK    6  A    between atoms: C_7  and  C_8 
REMARK    7  A    between atoms: C_8  and  C_10 
REMARK    8  A    between atoms: C_8  and  C_16 
REMARK    9  A    between atoms: C_25  and  C_26 
REMARK   10  A    between atoms: C_29  and  O_32 
REMARK   11  A    between atoms: O_32  and  C_33 
REMARK   12  A    between atoms: C_33  and  C_34 
REMARK   13  A    between atoms: C_33  and  C_35 
ROOT
ATOM      1  C   LIG d   1       3.729   0.180  -3.937  0.00  0.00     0.216 C 
ATOM      2  O   LIG d   1       3.614   1.301  -4.385  0.00  0.00    -0.276 OA
ATOM      3  N   LIG d   1       4.159  -0.822  -4.730  0.00  0.00    -0.297 N 
ENDROOT
BRANCH   3   4
ATOM      4  C   LIG d   1       4.580  -0.538  -6.105  0.00  0.00     0.016 C 
ATOM      5  H   LIG d   1       4.591   0.539  -6.267  0.00  0.00     0.046 H 
ATOM      6  H   LIG d   1       5.579  -0.942  -6.269  0.00  0.00     0.046 H 
BRANCH   4   7
ATOM      7  C   LIG d   1       3.600  -1.191  -7.083  0.00  0.00    -0.026 C 
ATOM      8  H   LIG d   1       3.196  -2.101  -6.639  0.00  0.00     0.029 H 
ATOM      9  H   LIG d   1       2.786  -0.498  -7.297  0.00  0.00     0.029 H 
BRANCH   7  10
ATOM     10  C   LIG d   1       4.330  -1.537  -8.382  0.00  0.00     0.011 C 
ATOM     11  H   LIG d   1       5.205  -0.896  -8.488  0.00  0.00     0.040 H 
BRANCH  10  12
ATOM     12  C   LIG d   1       3.404  -1.321  -9.551  0.00  0.00    -0.040 A 
ATOM     13  C   LIG d   1       2.079  -0.991  -9.331  0.00  0.00    -0.058 A 
ATOM     14  C   LIG d   1       1.231  -0.789 -10.405  0.00  0.00    -0.061 A 
ATOM     15  H   LIG d   1       1.709  -0.888  -8.323  0.00  0.00     0.062 H 
ATOM     16  C   LIG d   1       1.704  -0.927 -11.695  0.00  0.00    -0.062 A 
ATOM     17  H   LIG d   1       0.197  -0.527 -10.232  0.00  0.00     0.062 H 
ATOM     18  C   LIG d   1       3.028  -1.261 -11.915  0.00  0.00    -0.061 A 
ATOM     19  H   LIG d   1       1.041  -0.771 -12.533  0.00  0.00     0.062 H 
ATOM     20  C   LIG d   1       3.877  -1.459 -10.842  0.00  0.00    -0.058 A 
ATOM     21  H   LIG d   1       3.398  -1.368 -12.923  0.00  0.00     0.062 H 
ATOM     22  H   LIG d   1       4.911  -1.721 -11.014  0.00  0.00     0.062 H 
ENDBRANCH  10  12
BRANCH  10  23
ATOM     23  C   LIG d   1       4.765  -2.980  -8.345  0.00  0.00    -0.036 A 
ATOM     24  C   LIG d   1       3.853  -3.967  -8.025  0.00  0.00    -0.012 A 
ATOM     25  C   LIG d   1       4.250  -5.294  -7.996  0.00  0.00     0.167 A 
ATOM     26  H   LIG d   1       2.831  -3.704  -7.801  0.00  0.00     0.066 H 
ATOM     27  C   LIG d   1       5.572  -5.628  -8.280  0.00  0.00     0.166 A 
ATOM     28  O   LIG d   1       3.560  -6.439  -7.719  0.00  0.00    -0.453 OA
ATOM     29  C   LIG d   1       6.482  -4.632  -8.596  0.00  0.00    -0.016 A 
ATOM     30  O   LIG d   1       5.711  -6.983  -8.181  0.00  0.00    -0.453 OA
ATOM     31  C   LIG d   1       6.078  -3.311  -8.627  0.00  0.00    -0.054 A 
ATOM     32  H   LIG d   1       7.508  -4.889  -8.816  0.00  0.00     0.066 H 
ATOM     33  H   LIG d   1       6.788  -2.537  -8.874  0.00  0.00     0.062 H 
ATOM     34  C   LIG d   1       4.372  -7.511  -8.235  0.00  0.00     0.233 C 
ATOM     35  H   LIG d   1       4.284  -8.396  -7.604  0.00  0.00     0.117 H 
ATOM     36  H   LIG d   1       4.092  -7.743  -9.262  0.00  0.00     0.117 H 
ENDBRANCH  10  23
ENDBRANCH   7  10
ENDBRANCH   4   7
ENDBRANCH   3   4
BRANCH   3  37
ATOM     37  C   LIG d   1       4.204  -2.193  -4.219  0.00  0.00     0.040 C 
ATOM     38  H   LIG d   1       3.828  -2.213  -3.196  0.00  0.00     0.051 H 
ATOM     39  H   LIG d   1       3.586  -2.836  -4.846  0.00  0.00     0.051 H 
BRANCH  37  40
ATOM     40  C   LIG d   1       5.627  -2.691  -4.240  0.00  0.00    -0.030 A 
ATOM     41  C   LIG d   1       6.607  -2.009  -3.542  0.00  0.00    -0.054 A 
ATOM     42  C   LIG d   1       7.911  -2.466  -3.556  0.00  0.00    -0.020 A 
ATOM     43  H   LIG d   1       6.352  -1.120  -2.983  0.00  0.00     0.062 H 
ATOM     44  C   LIG d   1       8.238  -3.604  -4.279  0.00  0.00     0.121 A 
ATOM     45  H   LIG d   1       8.675  -1.936  -3.007  0.00  0.00     0.065 H 
ATOM     46  C   LIG d   1       7.254  -4.282  -4.982  0.00  0.00    -0.020 A 
ATOM     47  C   LIG d   1       5.951  -3.825  -4.962  0.00  0.00    -0.054 A 
ATOM     48  H   LIG d   1       7.506  -5.169  -5.545  0.00  0.00     0.065 H 
ATOM     49  H   LIG d   1       5.184  -4.353  -5.509  0.00  0.00     0.062 H 
BRANCH  44  50
ATOM     50  O   LIG d   1       9.521  -4.053  -4.298  0.00  0.00    -0.489 OA
BRANCH  50  51
ATOM     51  C   LIG d   1      10.235  -4.025  -3.060  0.00  0.00     0.095 C 
ATOM     52  H   LIG d   1       9.991  -3.111  -2.520  0.00  0.00     0.073 H 
BRANCH  51  53
ATOM     53  C   LIG d   1       9.840  -5.239  -2.217  0.00  0.00    -0.028 C 
ATOM     54  H   LIG d   1      10.560  -5.372  -1.411  0.00  0.00     0.026 H 
ATOM     55  H   LIG d   1       8.847  -5.081  -1.795  0.00  0.00     0.026 H 
ATOM     56  H   LIG d   1       9.830  -6.130  -2.845  0.00  0.00     0.026 H 
ENDBRANCH  51  53
BRANCH  51  57
ATOM     57  C   LIG d   1      11.739  -4.066  -3.339  0.00  0.00    -0.028 C 
ATOM     58  H   LIG d   1      12.009  -5.047  -3.731  0.00  0.00     0.026 H 
ATOM     59  H   LIG d   1      11.995  -3.299  -4.069  0.00  0.00     0.026 H 
ATOM     60  H   LIG d   1      12.285  -3.882  -2.412  0.00  0.00     0.026 H 
ENDBRANCH  51  57
ENDBRANCH  50  51
ENDBRANCH  44  50
ENDBRANCH  37  40
ENDBRANCH   3  37
BRANCH   1  61
ATOM     61  C   LIG d   1       3.392  -0.094  -2.494  0.00  0.00     0.021 C 
ATOM     62  H   LIG d   1       3.354  -1.171  -2.328  0.00  0.00     0.036 H 
ATOM     63  H   LIG d   1       2.422   0.343  -2.258  0.00  0.00     0.036 H 
BRANCH  61  64
ATOM     64  C   LIG d   1       4.462   0.525  -1.594  0.00  0.00    -0.057 C 
ATOM     65  H   LIG d   1       4.679  -0.152  -0.767  0.00  0.00     0.023 H 
ATOM     66  H   LIG d   1       5.371   0.695  -2.173  0.00  0.00     0.023 H 
ATOM     67  H   LIG d   1       4.101   1.475  -1.200  0.00  0.00     0.023 H 
ENDBRANCH  61  64
ENDBRANCH   1  61
TORSDOF 13
ENDMDL
MODEL 4
REMARK VINA RESULT:      -5.8      2.425      5.911
REMARK  13 active torsions:
REMARK  status: ('A' for Active; 'I' for Inactive)
REMARK    1  A    between atoms: C_1  and  C_2 
REMARK    2  A    between atoms: C_2  and  C_3 
REMARK       I    between atoms: C_3  and  N_5 
REMARK    3  A    between atoms: N_5  and  C_6 
REMARK    4  A    between atoms: N_5  and  C_25 
REMARK    5  A    between atoms: C_6  and  C_7 
REMARK    6  A    between atoms: C_7  and  C_8 
REMARK    7  A    between atoms: C_8  and  C_10 
REMARK    8  A    between atoms: C_8  and  C_16 
REMARK    9  A    between atoms: C_25  and  C_26 
REMARK   10  A    between atoms: C_29  and  O_32 
REMARK   11  A    between atoms: O_32  and  C_33 
REMARK   12  A    between atoms: C_33  and  C_34 
REMARK   13  A    between atoms: C_33  and  C_35 
ROOT
ATOM      1  C   LIG d   1       5.597  -0.070  -7.535  0.00  0.00     0.216 C 
ATOM      2  O   LIG d   1       6.141   0.652  -6.727  0.00  0.00    -0.276 OA
ATOM      3  N   LIG d   1       6.210  -1.193  -7.956  0.00  0.00    -0.297 N 
ENDROOT
BRANCH   3   4
ATOM      4  C   LIG d   1       7.491  -1.594  -7.366  0.00  0.00     0.016 C 
ATOM      5  H   LIG d   1       7.701  -2.632  -7.625  0.00  0.00     0.046 H 
ATOM      6  H   LIG d   1       8.285  -0.954  -7.752  0.00  0.00     0.046 H 
BRANCH   4   7
ATOM      7  C   LIG d   1       7.417  -1.453  -5.844  0.00  0.00    -0.026 C 
ATOM      8  H   LIG d   1       8.420  -1.523  -5.424  0.00  0.00     0.029 H 
ATOM      9  H   LIG d   1       6.983  -0.486  -5.590  0.00  0.00     0.029 H 
BRANCH   7  10
ATOM     10  C   LIG d   1       6.544  -2.571  -5.270  0.00  0.00     0.011 C 
ATOM     11  H   LIG d   1       5.875  -2.944  -6.046  0.00  0.00     0.040 H 
BRANCH  10  12
ATOM     12  C   LIG d   1       5.731  -2.033  -4.121  0.00  0.00    -0.040 A 
ATOM     13  C   LIG d   1       6.056  -0.814  -3.556  0.00  0.00    -0.058 A 
ATOM     14  C   LIG d   1       5.307  -0.318  -2.504  0.00  0.00    -0.061 A 
ATOM     15  H   LIG d   1       6.891  -0.247  -3.937  0.00  0.00     0.062 H 
ATOM     16  C   LIG d   1       4.240  -1.046  -2.012  0.00  0.00    -0.062 A 
ATOM     17  H   LIG d   1       5.558   0.636  -2.066  0.00  0.00     0.062 H 
ATOM     18  C   LIG d   1       3.918  -2.268  -2.574  0.00  0.00    -0.061 A 
ATOM     19  H   LIG d   1       3.657  -0.661  -1.189  0.00  0.00     0.062 H 
ATOM     20  C   LIG d   1       4.664  -2.761  -3.628  0.00  0.00    -0.058 A 
ATOM     21  H   LIG d   1       3.085  -2.836  -2.191  0.00  0.00     0.062 H 
ATOM     22  H   LIG d   1       4.413  -3.715  -4.067  0.00  0.00     0.062 H 
ENDBRANCH  10  12
BRANCH  10  23
ATOM     23  C   LIG d   1       7.423  -3.694  -4.781  0.00  0.00    -0.036 A 
ATOM     24  C   LIG d   1       8.344  -3.462  -3.777  0.00  0.00    -0.012 A 
ATOM     25  C   LIG d   1       9.148  -4.494  -3.323  0.00  0.00     0.167 A 
ATOM     26  H   LIG d   1       8.433  -2.477  -3.344  0.00  0.00     0.066 H 
ATOM     27  C   LIG d   1       9.034  -5.762  -3.888  0.00  0.00     0.166 A 
ATOM     28  O   LIG d   1      10.115  -4.531  -2.360  0.00  0.00    -0.453 OA
ATOM     29  C   LIG d   1       8.112  -5.986  -4.897  0.00  0.00    -0.016 A 
ATOM     30  O   LIG d   1       9.929  -6.594  -3.278  0.00  0.00    -0.453 OA
ATOM     31  C   LIG d   1       7.309  -4.953  -5.343  0.00  0.00    -0.054 A 
ATOM     32  H   LIG d   1       8.022  -6.968  -5.338  0.00  0.00     0.066 H 
ATOM     33  H   LIG d   1       6.591  -5.129  -6.129  0.00  0.00     0.062 H 
ATOM     34  C   LIG d   1      10.305  -5.927  -2.059  0.00  0.00     0.233 C 
ATOM     35  H   LIG d   1      11.348  -6.129  -1.818  0.00  0.00     0.117 H 
ATOM     36  H   LIG d   1       9.656  -6.234  -1.239  0.00  0.00     0.117 H 
ENDBRANCH  10  23
ENDBRANCH   7  10
ENDBRANCH   4   7
ENDBRANCH   3   4
BRANCH   3  37
ATOM     37  C   LIG d   1       5.599  -2.014  -9.004  0.00  0.00     0.040 C 
ATOM     38  H   LIG d   1       4.730  -1.496  -9.411  0.00  0.00     0.051 H 
ATOM     39  H   LIG d   1       6.323  -2.188  -9.800  0.00  0.00     0.051 H 
BRANCH  37  40
ATOM     40  C   LIG d   1       5.168  -3.336  -8.421  0.00  0.00    -0.030 A 
ATOM     41  C   LIG d   1       5.746  -4.509  -8.869  0.00  0.00    -0.054 A 
ATOM     42  C   LIG d   1       5.357  -5.721  -8.333  0.00  0.00    -0.020 A 
ATOM     43  H   LIG d   1       6.506  -4.477  -9.637  0.00  0.00     0.062 H 
ATOM     44  C   LIG d   1       4.377  -5.761  -7.352  0.00  0.00     0.121 A 
ATOM     45  H   LIG d   1       5.813  -6.637  -8.680  0.00  0.00     0.065 H 
ATOM     46  C   LIG d   1       3.794  -4.584  -6.909  0.00  0.00    -0.020 A 
ATOM     47  C   LIG d   1       4.190  -3.374  -7.444  0.00  0.00    -0.054 A 
ATOM     48  H   LIG d   1       3.031  -4.612  -6.145  0.00  0.00     0.065 H 
ATOM     49  H   LIG d   1       3.737  -2.456  -7.099  0.00  0.00     0.062 H 
BRANCH  44  50
ATOM     50  O   LIG d   1       3.988  -6.954  -6.827  0.00  0.00    -0.489 OA
BRANCH  50  51
ATOM     51  C   LIG d   1       5.015  -7.915  -6.575  0.00  0.00     0.095 C 
ATOM     52  H   LIG d   1       5.968  -7.533  -6.938  0.00  0.00     0.073 H 
BRANCH  51  53
ATOM     53  C   LIG d   1       5.109  -8.178  -5.071  0.00  0.00    -0.028 C 
ATOM     54  H   LIG d   1       6.042  -8.694  -4.849  0.00  0.00     0.026 H 
ATOM     55  H   LIG d   1       5.080  -7.231  -4.533  0.00  0.00     0.026 H 
ATOM     56  H   LIG d   1       4.268  -8.799  -4.757  0.00  0.00     0.026 H 
ENDBRANCH  51  53
BRANCH  51  57
ATOM     57  C   LIG d   1       4.679  -9.220  -7.301  0.00  0.00    -0.028 C 
ATOM     58  H   LIG d   1       5.245 -10.039  -6.856  0.00  0.00     0.026 H 
ATOM     59  H   LIG d   1       3.613  -9.423  -7.209  0.00  0.00     0.026 H 
ATOM     60  H   LIG d   1       4.943  -9.128  -8.355  0.00  0.00     0.026 H 
ENDBRANCH  51  57
ENDBRANCH  50  51
ENDBRANCH  44  50
ENDBRANCH  37  40
ENDBRANCH   3  37
BRANCH   1  61
ATOM     61  C   LIG d   1       4.234   0.289  -8.069  0.00  0.00     0.021 C 
ATOM     62  H   LIG d   1       3.979  -0.379  -8.891  0.00  0.00     0.036 H 
ATOM     63  H   LIG d   1       4.243   1.318  -8.427  0.00  0.00     0.036 H 
BRANCH  61  64
ATOM     64  C   LIG d   1       3.197   0.147  -6.953  0.00  0.00    -0.057 C 
ATOM     65  H   LIG d   1       3.692  -0.163  -6.033  0.00  0.00     0.023 H 
ATOM     66  H   LIG d   1       2.700   1.104  -6.794  0.00  0.00     0.023 H 
ATOM     67  H   LIG d   1       2.458  -0.603  -7.237  0.00  0.00     0.023 H 
ENDBRANCH  61  64
ENDBRANCH   1  61
TORSDOF 13
ENDMDL
MODEL 5
REMARK VINA RESULT:      -5.8      2.433      3.314
REMARK  13 active torsions:
REMARK  status: ('A' for Active; 'I' for Inactive)
REMARK    1  A    between atoms: C_1  and  C_2 
REMARK    2  A    between atoms: C_2  and  C_3 
REMARK       I    between atoms: C_3  and  N_5 
REMARK    3  A    between atoms: N_5  and  C_6 
REMARK    4  A    between atoms: N_5  and  C_25 
REMARK    5  A    between atoms: C_6  and  C_7 
REMARK    6  A    between atoms: C_7  and  C_8 
REMARK    7  A    between atoms: C_8  and  C_10 
REMARK    8  A    between atoms: C_8  and  C_16 
REMARK    9  A    between atoms: C_25  and  C_26 
REMARK   10  A    between atoms: C_29  and  O_32 
REMARK   11  A    between atoms: O_32  and  C_33 
REMARK   12  A    between atoms: C_33  and  C_34 
REMARK   13  A    between atoms: C_33  and  C_35 
ROOT
ATOM      1  C   LIG d   1       6.024   0.811  -3.435  0.00  0.00     0.216 C 
ATOM      2  O   LIG d   1       7.082   1.400  -3.388  0.00  0.00    -0.276 OA
ATOM      3  N   LIG d   1       5.946  -0.385  -4.052  0.00  0.00    -0.297 N 
ENDROOT
BRANCH   3   4
ATOM      4  C   LIG d   1       7.157  -1.018  -4.580  0.00  0.00     0.016 C 
ATOM      5  H   LIG d   1       7.011  -1.264  -5.631  0.00  0.00     0.046 H 
ATOM      6  H   LIG d   1       7.999  -0.331  -4.481  0.00  0.00     0.046 H 
BRANCH   4   7
ATOM      7  C   LIG d   1       7.449  -2.297  -3.792  0.00  0.00    -0.026 C 
ATOM      8  H   LIG d   1       8.152  -2.077  -2.989  0.00  0.00     0.029 H 
ATOM      9  H   LIG d   1       6.521  -2.681  -3.367  0.00  0.00     0.029 H 
BRANCH   7  10
ATOM     10  C   LIG d   1       8.053  -3.346  -4.727  0.00  0.00     0.011 C 
ATOM     11  H   LIG d   1       8.787  -2.871  -5.379  0.00  0.00     0.040 H 
BRANCH  10  12
ATOM     12  C   LIG d   1       6.962  -3.962  -5.564  0.00  0.00    -0.040 A 
ATOM     13  C   LIG d   1       7.116  -4.066  -6.934  0.00  0.00    -0.058 A 
ATOM     14  C   LIG d   1       6.115  -4.634  -7.701  0.00  0.00    -0.061 A 
ATOM     15  H   LIG d   1       8.018  -3.707  -7.404  0.00  0.00     0.062 H 
ATOM     16  C   LIG d   1       4.958  -5.089  -7.099  0.00  0.00    -0.062 A 
ATOM     17  H   LIG d   1       6.239  -4.719  -8.770  0.00  0.00     0.062 H 
ATOM     18  C   LIG d   1       4.801  -4.980  -5.729  0.00  0.00    -0.061 A 
ATOM     19  H   LIG d   1       4.175  -5.530  -7.698  0.00  0.00     0.062 H 
ATOM     20  C   LIG d   1       5.803  -4.416  -4.962  0.00  0.00    -0.058 A 
ATOM     21  H   LIG d   1       3.897  -5.336  -5.259  0.00  0.00     0.062 H 
ATOM     22  H   LIG d   1       5.680  -4.331  -3.893  0.00  0.00     0.062 H 
ENDBRANCH  10  12
BRANCH  10  23
ATOM     23  C   LIG d   1       8.727  -4.419  -3.911  0.00  0.00    -0.036 A 
ATOM     24  C   LIG d   1       8.865  -5.694  -4.427  0.00  0.00    -0.012 A 
ATOM     25  C   LIG d   1       9.488  -6.680  -3.680  0.00  0.00     0.167 A 
ATOM     26  H   LIG d   1       8.490  -5.919  -5.414  0.00  0.00     0.066 H 
ATOM     27  C   LIG d   1       9.965  -6.386  -2.405  0.00  0.00     0.166 A 
ATOM     28  O   LIG d   1       9.750  -7.991  -3.953  0.00  0.00    -0.453 OA
ATOM     29  C   LIG d   1       9.818  -5.107  -1.892  0.00  0.00    -0.016 A 
ATOM     30  O   LIG d   1      10.527  -7.514  -1.878  0.00  0.00    -0.453 OA
ATOM     31  C   LIG d   1       9.200  -4.127  -2.645  0.00  0.00    -0.054 A 
ATOM     32  H   LIG d   1      10.187  -4.877  -0.903  0.00  0.00     0.066 H 
ATOM     33  H   LIG d   1       9.087  -3.131  -2.244  0.00  0.00     0.062 H 
ATOM     34  C   LIG d   1      10.754  -8.389  -2.999  0.00  0.00     0.233 C 
ATOM     35  H   LIG d   1      10.614  -9.429  -2.707  0.00  0.00     0.117 H 
ATOM     36  H   LIG d   1      11.753  -8.236  -3.408  0.00  0.00     0.117 H 
ENDBRANCH  10  23
ENDBRANCH   7  10
ENDBRANCH   4   7
ENDBRANCH   3   4
BRANCH   3  37
ATOM     37  C   LIG d   1       4.650  -1.052  -4.197  0.00  0.00     0.040 C 
ATOM     38  H   LIG d   1       4.781  -2.129  -4.097  0.00  0.00     0.051 H 
ATOM     39  H   LIG d   1       3.969  -0.696  -3.423  0.00  0.00     0.051 H 
BRANCH  37  40
ATOM     40  C   LIG d   1       4.072  -0.740  -5.554  0.00  0.00    -0.030 A 
ATOM     41  C   LIG d   1       4.553  -1.392  -6.675  0.00  0.00    -0.054 A 
ATOM     42  C   LIG d   1       4.022  -1.113  -7.919  0.00  0.00    -0.020 A 
ATOM     43  H   LIG d   1       5.342  -2.124  -6.577  0.00  0.00     0.062 H 
ATOM     44  C   LIG d   1       3.014  -0.169  -8.045  0.00  0.00     0.121 A 
ATOM     45  H   LIG d   1       4.395  -1.626  -8.794  0.00  0.00     0.065 H 
ATOM     46  C   LIG d   1       2.537   0.488  -6.921  0.00  0.00    -0.020 A 
ATOM     47  C   LIG d   1       3.067   0.202  -5.678  0.00  0.00    -0.054 A 
ATOM     48  H   LIG d   1       1.751   1.223  -7.016  0.00  0.00     0.065 H 
ATOM     49  H   LIG d   1       2.697   0.712  -4.801  0.00  0.00     0.062 H 
BRANCH  44  50
ATOM     50  O   LIG d   1       2.493   0.112  -9.270  0.00  0.00    -0.489 OA
BRANCH  50  51
ATOM     51  C   LIG d   1       3.358  -0.054 -10.395  0.00  0.00     0.095 C 
ATOM     52  H   LIG d   1       4.187  -0.707 -10.123  0.00  0.00     0.073 H 
BRANCH  51  53
ATOM     53  C   LIG d   1       2.575  -0.677 -11.552  0.00  0.00    -0.028 C 
ATOM     54  H   LIG d   1       2.210  -1.660 -11.257  0.00  0.00     0.026 H 
ATOM     55  H   LIG d   1       1.731  -0.037 -11.807  0.00  0.00     0.026 H 
ATOM     56  H   LIG d   1       3.228  -0.778 -12.419  0.00  0.00     0.026 H 
ENDBRANCH  51  53
BRANCH  51  57
ATOM     57  C   LIG d   1       3.903   1.310 -10.823  0.00  0.00    -0.028 C 
ATOM     58  H   LIG d   1       3.426   2.094 -10.234  0.00  0.00     0.026 H 
ATOM     59  H   LIG d   1       4.980   1.339 -10.662  0.00  0.00     0.026 H 
ATOM     60  H   LIG d   1       3.689   1.471 -11.881  0.00  0.00     0.026 H 
ENDBRANCH  51  57
ENDBRANCH  50  51
ENDBRANCH  44  50
ENDBRANCH  37  40
ENDBRANCH   3  37
BRANCH   1  61
ATOM     61  C   LIG d   1       4.795   1.414  -2.805  0.00  0.00     0.021 C 
ATOM     62  H   LIG d   1       3.928   1.209  -3.431  0.00  0.00     0.036 H 
ATOM     63  H   LIG d   1       4.927   2.492  -2.710  0.00  0.00     0.036 H 
BRANCH  61  64
ATOM     64  C   LIG d   1       4.582   0.803  -1.419  0.00  0.00    -0.057 C 
ATOM     65  H   LIG d   1       5.124  -0.140  -1.350  0.00  0.00     0.023 H 
ATOM     66  H   LIG d   1       4.949   1.490  -0.657  0.00  0.00     0.023 H 
ATOM     67  H   LIG d   1       3.519   0.622  -1.262  0.00  0.00     0.023 H 
ENDBRANCH  61  64
ENDBRANCH   1  61
TORSDOF 13
ENDMDL
MODEL 6
REMARK VINA RESULT:      -5.7      2.069      8.475
REMARK  13 active torsions:
REMARK  status: ('A' for Active; 'I' for Inactive)
REMARK    1  A    between atoms: C_1  and  C_2 
REMARK    2  A    between atoms: C_2  and  C_3 
REMARK       I    between atoms: C_3  and  N_5 
REMARK    3  A    between atoms: N_5  and  C_6 
REMARK    4  A    between atoms: N_5  and  C_25 
REMARK    5  A    between atoms: C_6  and  C_7 
REMARK    6  A    between atoms: C_7  and  C_8 
REMARK    7  A    between atoms: C_8  and  C_10 
REMARK    8  A    between atoms: C_8  and  C_16 
REMARK    9  A    between atoms: C_25  and  C_26 
REMARK   10  A    between atoms: C_29  and  O_32 
REMARK   11  A    between atoms: O_32  and  C_33 
REMARK   12  A    between atoms: C_33  and  C_34 
REMARK   13  A    between atoms: C_33  and  C_35 
ROOT
ATOM      1  C   LIG d   1       7.831  -3.437  -4.220  0.00  0.00     0.216 C 
ATOM      2  O   LIG d   1       7.668  -2.738  -3.243  0.00  0.00    -0.276 OA
ATOM      3  N   LIG d   1       6.766  -3.876  -4.919  0.00  0.00    -0.297 N 
ENDROOT
BRANCH   3   4
ATOM      4  C   LIG d   1       5.418  -3.430  -4.558  0.00  0.00     0.016 C 
ATOM      5  H   LIG d   1       4.742  -4.286  -4.546  0.00  0.00     0.046 H 
ATOM      6  H   LIG d   1       5.439  -2.970  -3.570  0.00  0.00     0.046 H 
BRANCH   4   7
ATOM      7  C   LIG d   1       4.927  -2.407  -5.585  0.00  0.00    -0.026 C 
ATOM      8  H   LIG d   1       5.129  -2.777  -6.591  0.00  0.00     0.029 H 
ATOM      9  H   LIG d   1       3.855  -2.255  -5.462  0.00  0.00     0.029 H 
BRANCH   7  10
ATOM     10  C   LIG d   1       5.658  -1.080  -5.373  0.00  0.00     0.011 C 
ATOM     11  H   LIG d   1       6.708  -1.275  -5.152  0.00  0.00     0.040 H 
BRANCH  10  12
ATOM     12  C   LIG d   1       5.031  -0.340  -4.220  0.00  0.00    -0.040 A 
ATOM     13  C   LIG d   1       5.804   0.487  -3.427  0.00  0.00    -0.058 A 
ATOM     14  C   LIG d   1       5.226   1.170  -2.372  0.00  0.00    -0.061 A 
ATOM     15  H   LIG d   1       6.856   0.604  -3.634  0.00  0.00     0.062 H 
ATOM     16  C   LIG d   1       3.879   1.016  -2.104  0.00  0.00    -0.062 A 
ATOM     17  H   LIG d   1       5.830   1.819  -1.755  0.00  0.00     0.062 H 
ATOM     18  C   LIG d   1       3.107   0.185  -2.894  0.00  0.00    -0.061 A 
ATOM     19  H   LIG d   1       3.429   1.547  -1.278  0.00  0.00     0.062 H 
ATOM     20  C   LIG d   1       3.683  -0.494  -3.952  0.00  0.00    -0.058 A 
ATOM     21  H   LIG d   1       2.055   0.066  -2.686  0.00  0.00     0.062 H 
ATOM     22  H   LIG d   1       3.080  -1.143  -4.569  0.00  0.00     0.062 H 
ENDBRANCH  10  12
BRANCH  10  23
ATOM     23  C   LIG d   1       5.556  -0.244  -6.623  0.00  0.00    -0.036 A 
ATOM     24  C   LIG d   1       4.340  -0.112  -7.266  0.00  0.00    -0.012 A 
ATOM     25  C   LIG d   1       4.242   0.661  -8.412  0.00  0.00     0.167 A 
ATOM     26  H   LIG d   1       3.465  -0.607  -6.873  0.00  0.00     0.066 H 
ATOM     27  C   LIG d   1       5.374   1.294  -8.919  0.00  0.00     0.166 A 
ATOM     28  O   LIG d   1       3.181   0.952  -9.219  0.00  0.00    -0.453 OA
ATOM     29  C   LIG d   1       6.591   1.152  -8.272  0.00  0.00    -0.016 A 
ATOM     30  O   LIG d   1       5.022   1.982 -10.045  0.00  0.00    -0.453 OA
ATOM     31  C   LIG d   1       6.680   0.384  -7.126  0.00  0.00    -0.054 A 
ATOM     32  H   LIG d   1       7.471   1.642  -8.663  0.00  0.00     0.066 H 
ATOM     33  H   LIG d   1       7.629   0.276  -6.623  0.00  0.00     0.062 H 
ATOM     34  C   LIG d   1       3.588   2.098  -9.991  0.00  0.00     0.233 C 
ATOM     35  H   LIG d   1       3.163   2.055 -10.994  0.00  0.00     0.117 H 
ATOM     36  H   LIG d   1       3.296   3.021  -9.490  0.00  0.00     0.117 H 
ENDBRANCH  10  23
ENDBRANCH   7  10
ENDBRANCH   4   7
ENDBRANCH   3   4
BRANCH   3  37
ATOM     37  C   LIG d   1       6.955  -4.801  -6.039  0.00  0.00     0.040 C 
ATOM     38  H   LIG d   1       6.333  -4.489  -6.878  0.00  0.00     0.051 H 
ATOM     39  H   LIG d   1       8.003  -4.795  -6.343  0.00  0.00     0.051 H 
BRANCH  37  40
ATOM     40  C   LIG d   1       6.565  -6.194  -5.615  0.00  0.00    -0.030 A 
ATOM     41  C   LIG d   1       5.254  -6.613  -5.748  0.00  0.00    -0.054 A 
ATOM     42  C   LIG d   1       4.894  -7.891  -5.364  0.00  0.00    -0.020 A 
ATOM     43  H   LIG d   1       4.511  -5.943  -6.155  0.00  0.00     0.062 H 
ATOM     44  C   LIG d   1       5.847  -8.748  -4.834  0.00  0.00     0.121 A 
ATOM     45  H   LIG d   1       3.871  -8.219  -5.472  0.00  0.00     0.065 H 
ATOM     46  C   LIG d   1       7.160  -8.323  -4.697  0.00  0.00    -0.020 A 
ATOM     47  C   LIG d   1       7.516  -7.047  -5.086  0.00  0.00    -0.054 A 
ATOM     48  H   LIG d   1       7.904  -8.989  -4.286  0.00  0.00     0.065 H 
ATOM     49  H   LIG d   1       8.538  -6.714  -4.981  0.00  0.00     0.062 H 
BRANCH  44  50
ATOM     50  O   LIG d   1       5.494 -10.004  -4.451  0.00  0.00    -0.489 OA
BRANCH  50  51
ATOM     51  C   LIG d   1       4.754 -10.127  -3.236  0.00  0.00     0.095 C 
ATOM     52  H   LIG d   1       4.525  -9.135  -2.847  0.00  0.00     0.073 H 
BRANCH  51  53
ATOM     53  C   LIG d   1       3.451 -10.882  -3.507  0.00  0.00    -0.028 C 
ATOM     54  H   LIG d   1       2.707 -10.602  -2.762  0.00  0.00     0.026 H 
ATOM     55  H   LIG d   1       3.083 -10.629  -4.501  0.00  0.00     0.026 H 
ATOM     56  H   LIG d   1       3.635 -11.955  -3.450  0.00  0.00     0.026 H 
ENDBRANCH  51  53
BRANCH  51  57
ATOM     57  C   LIG d   1       5.585 -10.897  -2.208  0.00  0.00    -0.028 C 
ATOM     58  H   LIG d   1       6.628 -10.587  -2.278  0.00  0.00     0.026 H 
ATOM     59  H   LIG d   1       5.211 -10.688  -1.207  0.00  0.00     0.026 H 
ATOM     60  H   LIG d   1       5.510 -11.967  -2.408  0.00  0.00     0.026 H 
ENDBRANCH  51  57
ENDBRANCH  50  51
ENDBRANCH  44  50
ENDBRANCH  37  40
ENDBRANCH   3  37
BRANCH   1  61
ATOM     61  C   LIG d   1       9.224  -3.816  -4.652  0.00  0.00     0.021 C 
ATOM     62  H   LIG d   1       9.783  -2.915  -4.905  0.00  0.00     0.036 H 
ATOM     63  H   LIG d   1       9.170  -4.466  -5.525  0.00  0.00     0.036 H 
BRANCH  61  64
ATOM     64  C   LIG d   1       9.929  -4.552  -3.512  0.00  0.00    -0.057 C 
ATOM     65  H   LIG d   1       9.268  -4.598  -2.646  0.00  0.00     0.023 H 
ATOM     66  H   LIG d   1      10.181  -5.563  -3.831  0.00  0.00     0.023 H 
ATOM     67  H   LIG d   1      10.840  -4.018  -3.243  0.00  0.00     0.023 H 
ENDBRANCH  61  64
ENDBRANCH   1  61
TORSDOF 13
ENDMDL
MODEL 7
REMARK VINA RESULT:      -5.7      3.666      5.806
REMARK  13 active torsions:
REMARK  status: ('A' for Active; 'I' for Inactive)
REMARK    1  A    between atoms: C_1  and  C_2 
REMARK    2  A    between atoms: C_2  and  C_3 
REMARK       I    between atoms: C_3  and  N_5 
REMARK    3  A    between atoms: N_5  and  C_6 
REMARK    4  A    between atoms: N_5  and  C_25 
REMARK    5  A    between atoms: C_6  and  C_7 
REMARK    6  A    between atoms: C_7  and  C_8 
REMARK    7  A    between atoms: C_8  and  C_10 
REMARK    8  A    between atoms: C_8  and  C_16 
REMARK    9  A    between atoms: C_25  and  C_26 
REMARK   10  A    between atoms: C_29  and  O_32 
REMARK   11  A    between atoms: O_32  and  C_33 
REMARK   12  A    between atoms: C_33  and  C_34 
REMARK   13  A    between atoms: C_33  and  C_35 
ROOT
ATOM      1  C   LIG d   1       4.013  -0.992  -3.064  0.00  0.00     0.216 C 
ATOM      2  O   LIG d   1       2.854  -0.971  -3.421  0.00  0.00    -0.276 OA
ATOM      3  N   LIG d   1       4.939  -1.616  -3.819  0.00  0.00    -0.297 N 
ENDROOT
BRANCH   3   4
ATOM      4  C   LIG d   1       4.565  -2.184  -5.116  0.00  0.00     0.016 C 
ATOM      5  H   LIG d   1       5.283  -2.955  -5.396  0.00  0.00     0.046 H 
ATOM      6  H   LIG d   1       3.569  -2.623  -5.048  0.00  0.00     0.046 H 
BRANCH   4   7
ATOM      7  C   LIG d   1       4.564  -1.080  -6.175  0.00  0.00    -0.026 C 
ATOM      8  H   LIG d   1       3.552  -0.697  -6.300  0.00  0.00     0.029 H 
ATOM      9  H   LIG d   1       5.222  -0.271  -5.857  0.00  0.00     0.029 H 
BRANCH   7  10
ATOM     10  C   LIG d   1       5.062  -1.648  -7.506  0.00  0.00     0.011 C 
ATOM     11  H   LIG d   1       5.617  -2.568  -7.323  0.00  0.00     0.040 H 
BRANCH  10  12
ATOM     12  C   LIG d   1       5.963  -0.643  -8.175  0.00  0.00    -0.040 A 
ATOM     13  C   LIG d   1       5.816   0.706  -7.905  0.00  0.00    -0.058 A 
ATOM     14  C   LIG d   1       6.646   1.628  -8.516  0.00  0.00    -0.061 A 
ATOM     15  H   LIG d   1       5.056   1.038  -7.215  0.00  0.00     0.062 H 
ATOM     16  C   LIG d   1       7.616   1.202  -9.404  0.00  0.00    -0.062 A 
ATOM     17  H   LIG d   1       6.533   2.680  -8.301  0.00  0.00     0.062 H 
ATOM     18  C   LIG d   1       7.760  -0.145  -9.678  0.00  0.00    -0.061 A 
ATOM     19  H   LIG d   1       8.262   1.922  -9.884  0.00  0.00     0.062 H 
ATOM     20  C   LIG d   1       6.933  -1.067  -9.064  0.00  0.00    -0.058 A 
ATOM     21  H   LIG d   1       8.518  -0.478 -10.372  0.00  0.00     0.062 H 
ATOM     22  H   LIG d   1       7.046  -2.120  -9.278  0.00  0.00     0.062 H 
ENDBRANCH  10  12
BRANCH  10  23
ATOM     23  C   LIG d   1       3.885  -1.940  -8.400  0.00  0.00    -0.036 A 
ATOM     24  C   LIG d   1       3.698  -3.215  -8.900  0.00  0.00    -0.012 A 
ATOM     25  C   LIG d   1       2.613  -3.488  -9.717  0.00  0.00     0.167 A 
ATOM     26  H   LIG d   1       4.396  -4.000  -8.649  0.00  0.00     0.066 H 
ATOM     27  C   LIG d   1       1.718  -2.471 -10.042  0.00  0.00     0.166 A 
ATOM     28  O   LIG d   1       2.206  -4.639 -10.326  0.00  0.00    -0.453 OA
ATOM     29  C   LIG d   1       1.915  -1.194  -9.541  0.00  0.00    -0.016 A 
ATOM     30  O   LIG d   1       0.749  -2.986 -10.855  0.00  0.00    -0.453 OA
ATOM     31  C   LIG d   1       2.996  -0.931  -8.722  0.00  0.00    -0.054 A 
ATOM     32  H   LIG d   1       1.222  -0.404  -9.792  0.00  0.00     0.066 H 
ATOM     33  H   LIG d   1       3.147   0.064  -8.333  0.00  0.00     0.062 H 
ATOM     34  C   LIG d   1       0.831  -4.415 -10.693  0.00  0.00     0.233 C 
ATOM     35  H   LIG d   1       0.597  -4.920 -11.630  0.00  0.00     0.117 H 
ATOM     36  H   LIG d   1       0.164  -4.749  -9.900  0.00  0.00     0.117 H 
ENDBRANCH  10  23
ENDBRANCH   7  10
ENDBRANCH   4   7
ENDBRANCH   3   4
BRANCH   3  37
ATOM     37  C   LIG d   1       6.319  -1.727  -3.341  0.00  0.00     0.040 C 
ATOM     38  H   LIG d   1       6.376  -1.383  -2.308  0.00  0.00     0.051 H 
ATOM     39  H   LIG d   1       6.641  -2.767  -3.395  0.00  0.00     0.051 H 
BRANCH  37  40
ATOM     40  C   LIG d   1       7.220  -0.879  -4.203  0.00  0.00    -0.030 A 
ATOM     41  C   LIG d   1       7.162   0.500  -4.114  0.00  0.00    -0.054 A 
ATOM     42  C   LIG d   1       7.989   1.279  -4.899  0.00  0.00    -0.020 A 
ATOM     43  H   LIG d   1       6.471   0.968  -3.427  0.00  0.00     0.062 H 
ATOM     44  C   LIG d   1       8.871   0.678  -5.785  0.00  0.00     0.121 A 
ATOM     45  H   LIG d   1       7.947   2.356  -4.825  0.00  0.00     0.065 H 
ATOM     46  C   LIG d   1       8.922  -0.705  -5.877  0.00  0.00    -0.020 A 
ATOM     47  C   LIG d   1       8.097  -1.480  -5.087  0.00  0.00    -0.054 A 
ATOM     48  H   LIG d   1       9.608  -1.176  -6.565  0.00  0.00     0.065 H 
ATOM     49  H   LIG d   1       8.137  -2.557  -5.156  0.00  0.00     0.062 H 
BRANCH  44  50
ATOM     50  O   LIG d   1       9.683   1.443  -6.562  0.00  0.00    -0.489 OA
BRANCH  50  51
ATOM     51  C   LIG d   1       9.842   2.811  -6.182  0.00  0.00     0.095 C 
ATOM     52  H   LIG d   1       9.095   3.069  -5.431  0.00  0.00     0.073 H 
BRANCH  51  53
ATOM     53  C   LIG d   1      11.242   3.019  -5.602  0.00  0.00    -0.028 C 
ATOM     54  H   LIG d   1      11.166   3.514  -4.634  0.00  0.00     0.026 H 
ATOM     55  H   LIG d   1      11.732   2.054  -5.478  0.00  0.00     0.026 H 
ATOM     56  H   LIG d   1      11.828   3.639  -6.281  0.00  0.00     0.026 H 
ENDBRANCH  51  53
BRANCH  51  57
ATOM     57  C   LIG d   1       9.661   3.706  -7.410  0.00  0.00    -0.028 C 
ATOM     58  H   LIG d   1      10.115   4.679  -7.221  0.00  0.00     0.026 H 
ATOM     59  H   LIG d   1      10.140   3.242  -8.271  0.00  0.00     0.026 H 
ATOM     60  H   LIG d   1       8.596   3.835  -7.611  0.00  0.00     0.026 H 
ENDBRANCH  51  57
ENDBRANCH  50  51
ENDBRANCH  44  50
ENDBRANCH  37  40
ENDBRANCH   3  37
BRANCH   1  61
ATOM     61  C   LIG d   1       4.418  -0.320  -1.777  0.00  0.00     0.021 C 
ATOM     62  H   LIG d   1       5.463  -0.542  -1.566  0.00  0.00     0.036 H 
ATOM     63  H   LIG d   1       3.795  -0.690  -0.963  0.00  0.00     0.036 H 
BRANCH  61  64
ATOM     64  C   LIG d   1       4.233   1.192  -1.913  0.00  0.00    -0.057 C 
ATOM     65  H   LIG d   1       4.792   1.551  -2.778  0.00  0.00     0.023 H 
ATOM     66  H   LIG d   1       3.176   1.420  -2.043  0.00  0.00     0.023 H 
ATOM     67  H   LIG d   1       4.603   1.685  -1.014  0.00  0.00     0.023 H 
ENDBRANCH  61  64
ENDBRANCH   1  61
TORSDOF 13
ENDMDL
MODEL 8
REMARK VINA RESULT:      -5.6      3.572      6.136
REMARK  13 active torsions:
REMARK  status: ('A' for Active; 'I' for Inactive)
REMARK    1  A    between atoms: C_1  and  C_2 
REMARK    2  A    between atoms: C_2  and  C_3 
REMARK       I    between atoms: C_3  and  N_5 
REMARK    3  A    between atoms: N_5  and  C_6 
REMARK    4  A    between atoms: N_5  and  C_25 
REMARK    5  A    between atoms: C_6  and  C_7 
REMARK    6  A    between atoms: C_7  and  C_8 
REMARK    7  A    between atoms: C_8  and  C_10 
REMARK    8  A    between atoms: C_8  and  C_16 
REMARK    9  A    between atoms: C_25  and  C_26 
REMARK   10  A    between atoms: C_29  and  O_32 
REMARK   11  A    between atoms: O_32  and  C_33 
REMARK   12  A    between atoms: C_33  and  C_34 
REMARK   13  A    between atoms: C_33  and  C_35 
ROOT
ATOM      1  C   LIG d   1       3.192   0.639  -7.635  0.00  0.00     0.216 C 
ATOM      2  O   LIG d   1       2.979   1.063  -6.519  0.00  0.00    -0.276 OA
ATOM      3  N   LIG d   1       3.787  -0.560  -7.797  0.00  0.00    -0.297 N 
ENDROOT
BRANCH   3   4
ATOM      4  C   LIG d   1       4.086  -1.394  -6.630  0.00  0.00     0.016 C 
ATOM      5  H   LIG d   1       3.542  -1.017  -5.764  0.00  0.00     0.046 H 
ATOM      6  H   LIG d   1       3.784  -2.422  -6.831  0.00  0.00     0.046 H 
BRANCH   4   7
ATOM      7  C   LIG d   1       5.589  -1.351  -6.345  0.00  0.00    -0.026 C 
ATOM      8  H   LIG d   1       6.125  -1.859  -7.147  0.00  0.00     0.029 H 
ATOM      9  H   LIG d   1       5.918  -0.313  -6.288  0.00  0.00     0.029 H 
BRANCH   7  10
ATOM     10  C   LIG d   1       5.877  -2.051  -5.015  0.00  0.00     0.011 C 
ATOM     11  H   LIG d   1       5.325  -2.990  -4.973  0.00  0.00     0.040 H 
BRANCH  10  12
ATOM     12  C   LIG d   1       5.445  -1.163  -3.877  0.00  0.00    -0.040 A 
ATOM     13  C   LIG d   1       5.888   0.145  -3.814  0.00  0.00    -0.058 A 
ATOM     14  C   LIG d   1       5.488   0.961  -2.771  0.00  0.00    -0.061 A 
ATOM     15  H   LIG d   1       6.542   0.531  -4.581  0.00  0.00     0.062 H 
ATOM     16  C   LIG d   1       4.654   0.465  -1.787  0.00  0.00    -0.062 A 
ATOM     17  H   LIG d   1       5.831   1.984  -2.726  0.00  0.00     0.062 H 
ATOM     18  C   LIG d   1       4.215  -0.845  -1.848  0.00  0.00    -0.061 A 
ATOM     19  H   LIG d   1       4.344   1.101  -0.972  0.00  0.00     0.062 H 
ATOM     20  C   LIG d   1       4.611  -1.659  -2.892  0.00  0.00    -0.058 A 
ATOM     21  H   LIG d   1       3.563  -1.232  -1.079  0.00  0.00     0.062 H 
ATOM     22  H   LIG d   1       4.268  -2.682  -2.939  0.00  0.00     0.062 H 
ENDBRANCH  10  12
BRANCH  10  23
ATOM     23  C   LIG d   1       7.354  -2.330  -4.903  0.00  0.00    -0.036 A 
ATOM     24  C   LIG d   1       7.840  -3.052  -3.829  0.00  0.00    -0.012 A 
ATOM     25  C   LIG d   1       9.196  -3.313  -3.727  0.00  0.00     0.167 A 
ATOM     26  H   LIG d   1       7.161  -3.415  -3.073  0.00  0.00     0.066 H 
ATOM     27  C   LIG d   1      10.069  -2.838  -4.703  0.00  0.00     0.166 A 
ATOM     28  O   LIG d   1       9.918  -3.992  -2.789  0.00  0.00    -0.453 OA
ATOM     29  C   LIG d   1       9.575  -2.111  -5.774  0.00  0.00    -0.016 A 
ATOM     30  O   LIG d   1      11.339  -3.220  -4.376  0.00  0.00    -0.453 OA
ATOM     31  C   LIG d   1       8.220  -1.858  -5.872  0.00  0.00    -0.054 A 
ATOM     32  H   LIG d   1      10.250  -1.741  -6.532  0.00  0.00     0.066 H 
ATOM     33  H   LIG d   1       7.837  -1.292  -6.708  0.00  0.00     0.062 H 
ATOM     34  C   LIG d   1      11.185  -4.278  -3.411  0.00  0.00     0.233 C 
ATOM     35  H   LIG d   1      11.989  -4.244  -2.676  0.00  0.00     0.117 H 
ATOM     36  H   LIG d   1      11.159  -5.247  -3.907  0.00  0.00     0.117 H 
ENDBRANCH  10  23
ENDBRANCH   7  10
ENDBRANCH   4   7
ENDBRANCH   3   4
BRANCH   3  37
ATOM     37  C   LIG d   1       4.134  -1.030  -9.140  0.00  0.00     0.040 C 
ATOM     38  H   LIG d   1       4.057  -0.203  -9.846  0.00  0.00     0.051 H 
ATOM     39  H   LIG d   1       5.155  -1.412  -9.140  0.00  0.00     0.051 H 
BRANCH  37  40
ATOM     40  C   LIG d   1       3.187  -2.129  -9.550  0.00  0.00    -0.030 A 
ATOM     41  C   LIG d   1       1.938  -1.812 -10.051  0.00  0.00    -0.054 A 
ATOM     42  C   LIG d   1       1.070  -2.818 -10.431  0.00  0.00    -0.020 A 
ATOM     43  H   LIG d   1       1.641  -0.778 -10.148  0.00  0.00     0.062 H 
ATOM     44  C   LIG d   1       1.449  -4.146 -10.300  0.00  0.00     0.121 A 
ATOM     45  H   LIG d   1       0.096  -2.570 -10.827  0.00  0.00     0.065 H 
ATOM     46  C   LIG d   1       2.700  -4.461  -9.792  0.00  0.00    -0.020 A 
ATOM     47  C   LIG d   1       3.567  -3.452  -9.417  0.00  0.00    -0.054 A 
ATOM     48  H   LIG d   1       2.998  -5.493  -9.689  0.00  0.00     0.065 H 
ATOM     49  H   LIG d   1       4.542  -3.695  -9.022  0.00  0.00     0.062 H 
BRANCH  44  50
ATOM     50  O   LIG d   1       0.595  -5.137 -10.669  0.00  0.00    -0.489 OA
BRANCH  50  51
ATOM     51  C   LIG d   1      -0.802  -4.844 -10.609  0.00  0.00     0.095 C 
ATOM     52  H   LIG d   1      -0.944  -3.810 -10.294  0.00  0.00     0.073 H 
BRANCH  51  53
ATOM     53  C   LIG d   1      -1.425  -5.046 -11.992  0.00  0.00    -0.028 C 
ATOM     54  H   LIG d   1      -1.782  -4.090 -12.374  0.00  0.00     0.026 H 
ATOM     55  H   LIG d   1      -0.677  -5.452 -12.673  0.00  0.00     0.026 H 
ATOM     56  H   LIG d   1      -2.261  -5.742 -11.916  0.00  0.00     0.026 H 
ENDBRANCH  51  53
BRANCH  51  57
ATOM     57  C   LIG d   1      -1.477  -5.780  -9.605  0.00  0.00    -0.028 C 
ATOM     58  H   LIG d   1      -0.899  -5.799  -8.680  0.00  0.00     0.026 H 
ATOM     59  H   LIG d   1      -2.485  -5.424  -9.396  0.00  0.00     0.026 H 
ATOM     60  H   LIG d   1      -1.526  -6.787 -10.023  0.00  0.00     0.026 H 
ENDBRANCH  51  57
ENDBRANCH  50  51
ENDBRANCH  44  50
ENDBRANCH  37  40
ENDBRANCH   3  37
BRANCH   1  61
ATOM     61  C   LIG d   1       2.793   1.451  -8.840  0.00  0.00     0.021 C 
ATOM     62  H   LIG d   1       1.821   1.909  -8.663  0.00  0.00     0.036 H 
ATOM     63  H   LIG d   1       2.735   0.801  -9.713  0.00  0.00     0.036 H 
BRANCH  61  64
ATOM     64  C   LIG d   1       3.836   2.543  -9.085  0.00  0.00    -0.057 C 
ATOM     65  H   LIG d   1       4.606   2.165  -9.759  0.00  0.00     0.023 H 
ATOM     66  H   LIG d   1       3.356   3.412  -9.534  0.00  0.00     0.023 H 
ATOM     67  H   LIG d   1       4.293   2.829  -8.138  0.00  0.00     0.023 H 
ENDBRANCH  61  64
ENDBRANCH   1  61
TORSDOF 13
ENDMDL
MODEL 9
REMARK VINA RESULT:      -5.6      1.834      6.591
REMARK  13 active torsions:
REMARK  status: ('A' for Active; 'I' for Inactive)
REMARK    1  A    between atoms: C_1  and  C_2 
REMARK    2  A    between atoms: C_2  and  C_3 
REMARK       I    between atoms: C_3  and  N_5 
REMARK    3  A    between atoms: N_5  and  C_6 
REMARK    4  A    between atoms: N_5  and  C_25 
REMARK    5  A    between atoms: C_6  and  C_7 
REMARK    6  A    between atoms: C_7  and  C_8 
REMARK    7  A    between atoms: C_8  and  C_10 
REMARK    8  A    between atoms: C_8  and  C_16 
REMARK    9  A    between atoms: C_25  and  C_26 
REMARK   10  A    between atoms: C_29  and  O_32 
REMARK   11  A    between atoms: O_32  and  C_33 
REMARK   12  A    between atoms: C_33  and  C_34 
REMARK   13  A    between atoms: C_33  and  C_35 
ROOT
ATOM      1  C   LIG d   1       5.553  -6.575  -5.977  0.00  0.00     0.216 C 
ATOM      2  O   LIG d   1       6.515  -6.928  -5.328  0.00  0.00    -0.276 OA
ATOM      3  N   LIG d   1       5.221  -5.270  -6.031  0.00  0.00    -0.297 N 
ENDROOT
BRANCH   3   4
ATOM      4  C   LIG d   1       6.076  -4.268  -5.389  0.00  0.00     0.016 C 
ATOM      5  H   LIG d   1       6.705  -4.752  -4.643  0.00  0.00     0.046 H 
ATOM      6  H   LIG d   1       6.705  -3.791  -6.141  0.00  0.00     0.046 H 
BRANCH   4   7
ATOM      7  C   LIG d   1       5.201  -3.211  -4.711  0.00  0.00    -0.026 C 
ATOM      8  H   LIG d   1       4.209  -3.216  -5.162  0.00  0.00     0.029 H 
ATOM      9  H   LIG d   1       5.119  -3.435  -3.647  0.00  0.00     0.029 H 
BRANCH   7  10
ATOM     10  C   LIG d   1       5.836  -1.830  -4.893  0.00  0.00     0.011 C 
ATOM     11  H   LIG d   1       6.922  -1.930  -4.909  0.00  0.00     0.040 H 
BRANCH  10  12
ATOM     12  C   LIG d   1       5.430  -0.936  -3.750  0.00  0.00    -0.040 A 
ATOM     13  C   LIG d   1       5.837   0.385  -3.727  0.00  0.00    -0.058 A 
ATOM     14  C   LIG d   1       5.461   1.206  -2.679  0.00  0.00    -0.061 A 
ATOM     15  H   LIG d   1       6.446   0.776  -4.527  0.00  0.00     0.062 H 
ATOM     16  C   LIG d   1       4.686   0.703  -1.652  0.00  0.00    -0.062 A 
ATOM     17  H   LIG d   1       5.776   2.238  -2.664  0.00  0.00     0.062 H 
ATOM     18  C   LIG d   1       4.282  -0.619  -1.673  0.00  0.00    -0.061 A 
ATOM     19  H   LIG d   1       4.393   1.343  -0.833  0.00  0.00     0.062 H 
ATOM     20  C   LIG d   1       4.655  -1.439  -2.722  0.00  0.00    -0.058 A 
ATOM     21  H   LIG d   1       3.676  -1.012  -0.870  0.00  0.00     0.062 H 
ATOM     22  H   LIG d   1       4.339  -2.472  -2.738  0.00  0.00     0.062 H 
ENDBRANCH  10  12
BRANCH  10  23
ATOM     23  C   LIG d   1       5.368  -1.229  -6.193  0.00  0.00    -0.036 A 
ATOM     24  C   LIG d   1       4.021  -1.002  -6.402  0.00  0.00    -0.012 A 
ATOM     25  C   LIG d   1       3.589  -0.444  -7.594  0.00  0.00     0.167 A 
ATOM     26  H   LIG d   1       3.306  -1.257  -5.635  0.00  0.00     0.066 H 
ATOM     27  C   LIG d   1       4.514  -0.122  -8.584  0.00  0.00     0.166 A 
ATOM     28  O   LIG d   1       2.341  -0.121  -8.042  0.00  0.00    -0.453 OA
ATOM     29  C   LIG d   1       5.863  -0.357  -8.369  0.00  0.00    -0.016 A 
ATOM     30  O   LIG d   1       3.846   0.403  -9.653  0.00  0.00    -0.453 OA
ATOM     31  C   LIG d   1       6.287  -0.909  -7.175  0.00  0.00    -0.054 A 
ATOM     32  H   LIG d   1       6.582  -0.109  -9.135  0.00  0.00     0.066 H 
ATOM     33  H   LIG d   1       7.338  -1.091  -7.010  0.00  0.00     0.062 H 
ATOM     34  C   LIG d   1       2.549   0.777  -9.149  0.00  0.00     0.233 C 
ATOM     35  H   LIG d   1       1.785   0.630  -9.911  0.00  0.00     0.117 H 
ATOM     36  H   LIG d   1       2.556   1.812  -8.806  0.00  0.00     0.117 H 
ENDBRANCH  10  23
ENDBRANCH   7  10
ENDBRANCH   4   7
ENDBRANCH   3   4
BRANCH   3  37
ATOM     37  C   LIG d   1       4.004  -4.852  -6.732  0.00  0.00     0.040 C 
ATOM     38  H   LIG d   1       3.338  -5.708  -6.846  0.00  0.00     0.051 H 
ATOM     39  H   LIG d   1       3.501  -4.074  -6.157  0.00  0.00     0.051 H 
BRANCH  37  40
ATOM     40  C   LIG d   1       4.366  -4.314  -8.093  0.00  0.00    -0.030 A 
ATOM     41  C   LIG d   1       5.683  -4.337  -8.516  0.00  0.00    -0.054 A 
ATOM     42  C   LIG d   1       6.017  -3.849  -9.764  0.00  0.00    -0.020 A 
ATOM     43  H   LIG d   1       6.450  -4.741  -7.871  0.00  0.00     0.062 H 
ATOM     44  C   LIG d   1       5.032  -3.325 -10.589  0.00  0.00     0.121 A 
ATOM     45  H   LIG d   1       7.045  -3.872 -10.096  0.00  0.00     0.065 H 
ATOM     46  C   LIG d   1       3.714  -3.297 -10.160  0.00  0.00    -0.020 A 
ATOM     47  C   LIG d   1       3.383  -3.791  -8.913  0.00  0.00    -0.054 A 
ATOM     48  H   LIG d   1       2.945  -2.891 -10.800  0.00  0.00     0.065 H 
ATOM     49  H   LIG d   1       2.357  -3.771  -8.578  0.00  0.00     0.062 H 
BRANCH  44  50
ATOM     50  O   LIG d   1       5.360  -2.840 -11.816  0.00  0.00    -0.489 OA
BRANCH  50  51
ATOM     51  C   LIG d   1       5.632  -1.440 -11.907  0.00  0.00     0.095 C 
ATOM     52  H   LIG d   1       5.519  -0.983 -10.925  0.00  0.00     0.073 H 
BRANCH  51  53
ATOM     53  C   LIG d   1       7.062  -1.231 -12.408  0.00  0.00    -0.028 C 
ATOM     54  H   LIG d   1       7.766  -1.539 -11.636  0.00  0.00     0.026 H 
ATOM     55  H   LIG d   1       7.224  -1.826 -13.306  0.00  0.00     0.026 H 
ATOM     56  H   LIG d   1       7.216  -0.176 -12.639  0.00  0.00     0.026 H 
ENDBRANCH  51  53
BRANCH  51  57
ATOM     57  C   LIG d   1       4.649  -0.793 -12.886  0.00  0.00    -0.028 C 
ATOM     58  H   LIG d   1       5.136  -0.656 -13.852  0.00  0.00     0.026 H 
ATOM     59  H   LIG d   1       3.778  -1.437 -13.006  0.00  0.00     0.026 H 
ATOM     60  H   LIG d   1       4.334   0.176 -12.498  0.00  0.00     0.026 H 
ENDBRANCH  51  57
ENDBRANCH  50  51
ENDBRANCH  44  50
ENDBRANCH  37  40
ENDBRANCH   3  37
BRANCH   1  61
ATOM     61  C   LIG d   1       4.729  -7.593  -6.722  0.00  0.00     0.021 C 
ATOM     62  H   LIG d   1       5.125  -7.713  -7.730  0.00  0.00     0.036 H 
ATOM     63  H   LIG d   1       3.695  -7.255  -6.775  0.00  0.00     0.036 H 
BRANCH  61  64
ATOM     64  C   LIG d   1       4.790  -8.933  -5.986  0.00  0.00    -0.057 C 
ATOM     65  H   LIG d   1       4.854  -8.756  -4.912  0.00  0.00     0.023 H 
ATOM     66  H   LIG d   1       3.893  -9.511  -6.206  0.00  0.00     0.023 H 
ATOM     67  H   LIG d   1       5.669  -9.488  -6.314  0.00  0.00     0.023 H 
ENDBRANCH  61  64
ENDBRANCH   1  61
TORSDOF 13
ENDMDL
MODEL 10
REMARK VINA RESULT:      -5.5      2.270      4.586
REMARK  13 active torsions:
REMARK  status: ('A' for Active; 'I' for Inactive)
REMARK    1  A    between atoms: C_1  and  C_2 
REMARK    2  A    between atoms: C_2  and  C_3 
REMARK       I    between atoms: C_3  and  N_5 
REMARK    3  A    between atoms: N_5  and  C_6 
REMARK    4  A    between atoms: N_5  and  C_25 
REMARK    5  A    between atoms: C_6  and  C_7 
REMARK    6  A    between atoms: C_7  and  C_8 
REMARK    7  A    between atoms: C_8  and  C_10 
REMARK    8  A    between atoms: C_8  and  C_16 
REMARK    9  A    between atoms: C_25  and  C_26 
REMARK   10  A    between atoms: C_29  and  O_32 
REMARK   11  A    between atoms: O_32  and  C_33 
REMARK   12  A    between atoms: C_33  and  C_34 
REMARK   13  A    between atoms: C_33  and  C_35 
ROOT
ATOM      1  C   LIG d   1       9.542  -3.491  -5.634  0.00  0.00     0.216 C 
ATOM      2  O   LIG d   1       9.234  -4.308  -4.792  0.00  0.00    -0.276 OA
ATOM      3  N   LIG d   1       9.018  -2.250  -5.591  0.00  0.00    -0.297 N 
ENDROOT
BRANCH   3   4
ATOM      4  C   LIG d   1       8.155  -1.857  -4.474  0.00  0.00     0.016 C 
ATOM      5  H   LIG d   1       8.744  -1.806  -3.559  0.00  0.00     0.046 H 
ATOM      6  H   LIG d   1       7.718  -0.879  -4.680  0.00  0.00     0.046 H 
BRANCH   4   7
ATOM      7  C   LIG d   1       7.038  -2.889  -4.305  0.00  0.00    -0.026 C 
ATOM      8  H   LIG d   1       7.424  -3.883  -4.535  0.00  0.00     0.029 H 
ATOM      9  H   LIG d   1       6.677  -2.869  -3.277  0.00  0.00     0.029 H 
BRANCH   7  10
ATOM     10  C   LIG d   1       5.887  -2.556  -5.257  0.00  0.00     0.011 C 
ATOM     11  H   LIG d   1       6.249  -1.901  -6.049  0.00  0.00     0.040 H 
BRANCH  10  12
ATOM     12  C   LIG d   1       4.789  -1.862  -4.492  0.00  0.00    -0.040 A 
ATOM     13  C   LIG d   1       4.180  -0.741  -5.024  0.00  0.00    -0.058 A 
ATOM     14  C   LIG d   1       3.170  -0.106  -4.324  0.00  0.00    -0.061 A 
ATOM     15  H   LIG d   1       4.489  -0.363  -5.986  0.00  0.00     0.062 H 
ATOM     16  C   LIG d   1       2.777  -0.587  -3.090  0.00  0.00    -0.062 A 
ATOM     17  H   LIG d   1       2.691   0.767  -4.742  0.00  0.00     0.062 H 
ATOM     18  C   LIG d   1       3.390  -1.705  -2.556  0.00  0.00    -0.061 A 
ATOM     19  H   LIG d   1       1.990  -0.090  -2.542  0.00  0.00     0.062 H 
ATOM     20  C   LIG d   1       4.397  -2.342  -3.257  0.00  0.00    -0.058 A 
ATOM     21  H   LIG d   1       3.083  -2.081  -1.591  0.00  0.00     0.062 H 
ATOM     22  H   LIG d   1       4.875  -3.216  -2.840  0.00  0.00     0.062 H 
ENDBRANCH  10  12
BRANCH  10  23
ATOM     23  C   LIG d   1       5.351  -3.828  -5.862  0.00  0.00    -0.036 A 
ATOM     24  C   LIG d   1       5.931  -5.042  -5.543  0.00  0.00    -0.012 A 
ATOM     25  C   LIG d   1       5.436  -6.212  -6.094  0.00  0.00     0.167 A 
ATOM     26  H   LIG d   1       6.766  -5.077  -4.860  0.00  0.00     0.066 H 
ATOM     27  C   LIG d   1       4.361  -6.162  -6.978  0.00  0.00     0.166 A 
ATOM     28  O   LIG d   1       5.817  -7.514  -5.944  0.00  0.00    -0.453 OA
ATOM     29  C   LIG d   1       3.788  -4.941  -7.297  0.00  0.00    -0.016 A 
ATOM     30  O   LIG d   1       4.068  -7.433  -7.382  0.00  0.00    -0.453 OA
ATOM     31  C   LIG d   1       4.284  -3.777  -6.740  0.00  0.00    -0.054 A 
ATOM     32  H   LIG d   1       2.955  -4.899  -7.983  0.00  0.00     0.066 H 
ATOM     33  H   LIG d   1       3.836  -2.828  -6.989  0.00  0.00     0.062 H 
ATOM     34  C   LIG d   1       4.707  -8.297  -6.424  0.00  0.00     0.233 C 
ATOM     35  H   LIG d   1       5.061  -9.208  -6.907  0.00  0.00     0.117 H 
ATOM     36  H   LIG d   1       4.025  -8.536  -5.608  0.00  0.00     0.117 H 
ENDBRANCH  10  23
ENDBRANCH   7  10
ENDBRANCH   4   7
ENDBRANCH   3   4
BRANCH   3  37
ATOM     37  C   LIG d   1       9.311  -1.294  -6.661  0.00  0.00     0.040 C 
ATOM     38  H   LIG d   1       9.791  -0.411  -6.239  0.00  0.00     0.051 H 
ATOM     39  H   LIG d   1       9.978  -1.756  -7.390  0.00  0.00     0.051 H 
BRANCH  37  40
ATOM     40  C   LIG d   1       8.028  -0.891  -7.342  0.00  0.00    -0.030 A 
ATOM     41  C   LIG d   1       7.408  -1.763  -8.218  0.00  0.00    -0.054 A 
ATOM     42  C   LIG d   1       6.229  -1.398  -8.839  0.00  0.00    -0.020 A 
ATOM     43  H   LIG d   1       7.845  -2.731  -8.415  0.00  0.00     0.062 H 
ATOM     44  C   LIG d   1       5.673  -0.151  -8.591  0.00  0.00     0.121 A 
ATOM     45  H   LIG d   1       5.743  -2.081  -9.520  0.00  0.00     0.065 H 
ATOM     46  C   LIG d   1       6.300   0.723  -7.716  0.00  0.00    -0.020 A 
ATOM     47  C   LIG d   1       7.475   0.352  -7.094  0.00  0.00    -0.054 A 
ATOM     48  H   LIG d   1       5.868   1.694  -7.521  0.00  0.00     0.065 H 
ATOM     49  H   LIG d   1       7.964   1.032  -6.411  0.00  0.00     0.062 H 
BRANCH  44  50
ATOM     50  O   LIG d   1       4.515   0.212  -9.205  0.00  0.00    -0.489 OA
BRANCH  50  51
ATOM     51  C   LIG d   1       3.451   0.663  -8.365  0.00  0.00     0.095 C 
ATOM     52  H   LIG d   1       3.830   0.831  -7.357  0.00  0.00     0.073 H 
BRANCH  51  53
ATOM     53  C   LIG d   1       2.883   1.970  -8.921  0.00  0.00    -0.028 C 
ATOM     54  H   LIG d   1       3.202   2.802  -8.294  0.00  0.00     0.026 H 
ATOM     55  H   LIG d   1       3.245   2.121  -9.938  0.00  0.00     0.026 H 
ATOM     56  H   LIG d   1       1.794   1.918  -8.928  0.00  0.00     0.026 H 
ENDBRANCH  51  53
BRANCH  51  57
ATOM     57  C   LIG d   1       2.349  -0.396  -8.325  0.00  0.00    -0.028 C 
ATOM     58  H   LIG d   1       2.725  -1.329  -8.748  0.00  0.00     0.026 H 
ATOM     59  H   LIG d   1       2.042  -0.564  -7.293  0.00  0.00     0.026 H 
ATOM     60  H   LIG d   1       1.493  -0.053  -8.908  0.00  0.00     0.026 H 
ENDBRANCH  51  57
ENDBRANCH  50  51
ENDBRANCH  44  50
ENDBRANCH  37  40
ENDBRANCH   3  37
BRANCH   1  61
ATOM     61  C   LIG d   1      10.509  -3.863  -6.728  0.00  0.00     0.021 C 
ATOM     62  H   LIG d   1      11.381  -4.349  -6.291  0.00  0.00     0.036 H 
ATOM     63  H   LIG d   1      10.822  -2.964  -7.258  0.00  0.00     0.036 H 
BRANCH  61  64
ATOM     64  C   LIG d   1       9.827  -4.819  -7.707  0.00  0.00    -0.057 C 
ATOM     65  H   LIG d   1      10.177  -5.836  -7.527  0.00  0.00     0.023 H 
ATOM     66  H   LIG d   1       8.747  -4.777  -7.566  0.00  0.00     0.023 H 
ATOM     67  H   LIG d   1      10.070  -4.528  -8.729  0.00  0.00     0.023 H 
ENDBRANCH  61  64
ENDBRANCH   1  61
TORSDOF 13
ENDMDL
