MODEL 1
REMARK VINA RESULT:      -6.2      0.000      0.000
REMARK  9 active torsions:
REMARK  status: ('A' for Active; 'I' for Inactive)
REMARK    1  A    between atoms: C_1  and  C_2 
REMARK    2  A    between atoms: C_2  and  C_3 
REMARK    3  A    between atoms: C_2  and  C_4 
REMARK    4  A    between atoms: C_2  and  N_5 
REMARK       I    between atoms: N_5  and  C_6 
REMARK    5  A    between atoms: C_6  and  C_8 
REMARK    6  A    between atoms: C_8  and  C_9 
REMARK    7  A    between atoms: C_14  and  C_16 
REMARK    8  A    between atoms: C_16  and  C_17 
REMARK    9  A    between atoms: C_19  and  C_22 
ROOT
ATOM      1  C   LIG d   1       3.605  -1.377  -4.449  0.00  0.00    -0.020 C 
ATOM      2  H   LIG d   1       3.000  -1.929  -5.170  0.00  0.00     0.031 H 
ATOM      3  C   LIG d   1       2.692  -0.671  -3.445  0.00  0.00    -0.009 C 
ATOM      4  C   LIG d   1       3.549   0.051  -2.403  0.00  0.00    -0.033 C 
ATOM      5  C   LIG d   1       5.325  -1.578  -2.651  0.00  0.00    -0.030 C 
ATOM      6  C   LIG d   1       4.521  -2.349  -3.700  0.00  0.00     0.008 C 
ATOM      7  H   LIG d   1       3.917  -3.112  -3.208  0.00  0.00     0.036 H 
ATOM      8  H   LIG d   1       2.067   0.054  -3.967  0.00  0.00     0.032 H 
ATOM      9  H   LIG d   1       2.059  -1.406  -2.948  0.00  0.00     0.032 H 
ATOM     10  H   LIG d   1       2.901   0.543  -1.678  0.00  0.00     0.081 H 
ATOM     11  H   LIG d   1       4.172   0.797  -2.898  0.00  0.00     0.081 H 
ATOM     12  H   LIG d   1       5.967  -2.270  -2.105  0.00  0.00     0.082 H 
ATOM     13  H   LIG d   1       5.939  -0.826  -3.145  0.00  0.00     0.082 H 
ATOM     14  N   LIG d   1       4.405  -0.923  -1.702  0.00  0.00     0.227 N 
ATOM     15  H   LIG d   1       3.813  -1.636  -1.257  0.00  0.00     0.201 HD
ATOM     16  H   LIG d   1       4.953  -0.437  -0.981  0.00  0.00     0.201 HD
ENDROOT
BRANCH   1  17
ATOM     17  C   LIG d   1       4.455  -0.339  -5.186  0.00  0.00     0.027 C 
ATOM     18  H   LIG d   1       5.441  -0.755  -5.390  0.00  0.00     0.036 H 
ATOM     19  H   LIG d   1       4.557   0.552  -4.566  0.00  0.00     0.036 H 
BRANCH  17  20
ATOM     20  C   LIG d   1       3.784   0.028  -6.485  0.00  0.00     0.214 C 
ATOM     21  N   LIG d   1       4.516   0.519  -7.504  0.00  0.00    -0.310 N 
ATOM     22  H   LIG d   1       5.474   0.637  -7.402  0.00  0.00     0.149 HD
ATOM     23  O   LIG d   1       2.589  -0.120  -6.612  0.00  0.00    -0.276 OA
BRANCH  21  24
ATOM     24  C   LIG d   1       3.866   0.876  -8.768  0.00  0.00     0.026 C 
BRANCH  24  25
ATOM     25  C   LIG d   1       3.090  -0.331  -9.300  0.00  0.00    -0.044 C 
ATOM     26  H   LIG d   1       2.158   0.008  -9.753  0.00  0.00     0.025 H 
ATOM     27  H   LIG d   1       2.867  -1.012  -8.478  0.00  0.00     0.025 H 
ATOM     28  H   LIG d   1       3.690  -0.848 -10.048  0.00  0.00     0.025 H 
ENDBRANCH  24  25
BRANCH  24  29
ATOM     29  C   LIG d   1       4.927   1.290  -9.789  0.00  0.00    -0.044 C 
ATOM     30  H   LIG d   1       4.777   2.333 -10.067  0.00  0.00     0.025 H 
ATOM     31  H   LIG d   1       5.919   1.169  -9.352  0.00  0.00     0.025 H 
ATOM     32  H   LIG d   1       4.842   0.661 -10.676  0.00  0.00     0.025 H 
ENDBRANCH  24  29
BRANCH  24  33
ATOM     33  C   LIG d   1       2.902   2.040  -8.535  0.00  0.00    -0.044 C 
ATOM     34  H   LIG d   1       3.194   2.884  -9.160  0.00  0.00     0.025 H 
ATOM     35  H   LIG d   1       1.889   1.731  -8.793  0.00  0.00     0.025 H 
ATOM     36  H   LIG d   1       2.936   2.335  -7.486  0.00  0.00     0.025 H 
ENDBRANCH  24  33
ENDBRANCH  21  24
ENDBRANCH  17  20
ENDBRANCH   1  17
BRANCH   6  37
ATOM     37  C   LIG d   1       5.478  -3.016  -4.690  0.00  0.00     0.001 C 
ATOM     38  H   LIG d   1       5.963  -2.252  -5.298  0.00  0.00     0.033 H 
ATOM     39  H   LIG d   1       6.234  -3.578  -4.141  0.00  0.00     0.033 H 
BRANCH  37  40
ATOM     40  C   LIG d   1       4.705  -3.953  -5.582  0.00  0.00     0.085 A 
ATOM     41  N   LIG d   1       4.105  -5.051  -5.224  0.00  0.00    -0.083 NA
ATOM     42  O   LIG d   1       3.562  -5.594  -6.156  0.00  0.00    -0.353 OA
ATOM     43  C   LIG d   1       3.744  -4.909  -7.301  0.00  0.00     0.183 A 
ATOM     44  C   LIG d   1       4.496  -3.814  -6.972  0.00  0.00     0.009 A 
ATOM     45  H   LIG d   1       4.846  -3.025  -7.623  0.00  0.00     0.068 H 
BRANCH  43  46
ATOM     46  C   LIG d   1       3.236  -5.265  -8.638  0.00  0.00     0.110 C 
ATOM     47  O   LIG d   1       3.153  -4.417  -9.503  0.00  0.00    -0.541 OA
ATOM     48  O   LIG d   1       2.866  -6.534  -8.902  0.00  0.00    -0.541 OA
ENDBRANCH  43  46
ENDBRANCH  37  40
ENDBRANCH   6  37
TORSDOF 9
ENDMDL
MODEL 2
REMARK VINA RESULT:      -5.9      3.484      5.452
REMARK  9 active torsions:
REMARK  status: ('A' for Active; 'I' for Inactive)
REMARK    1  A    between atoms: C_1  and  C_2 
REMARK    2  A    between atoms: C_2  and  C_3 
REMARK    3  A    between atoms: C_2  and  C_4 
REMARK    4  A    between atoms: C_2  and  N_5 
REMARK       I    between atoms: N_5  and  C_6 
REMARK    5  A    between atoms: C_6  and  C_8 
REMARK    6  A    between atoms: C_8  and  C_9 
REMARK    7  A    between atoms: C_14  and  C_16 
REMARK    8  A    between atoms: C_16  and  C_17 
REMARK    9  A    between atoms: C_19  and  C_22 
ROOT
ATOM      1  C   LIG d   1       5.139  -0.200  -3.867  0.00  0.00    -0.020 C 
ATOM      2  H   LIG d   1       5.067   0.732  -4.429  0.00  0.00     0.031 H 
ATOM      3  C   LIG d   1       4.230  -0.131  -2.638  0.00  0.00    -0.009 C 
ATOM      4  C   LIG d   1       4.291  -1.464  -1.888  0.00  0.00    -0.033 C 
ATOM      5  C   LIG d   1       4.744  -2.664  -3.944  0.00  0.00    -0.030 C 
ATOM      6  C   LIG d   1       4.697  -1.367  -4.754  0.00  0.00     0.008 C 
ATOM      7  H   LIG d   1       3.678  -1.193  -5.104  0.00  0.00     0.036 H 
ATOM      8  H   LIG d   1       4.567   0.672  -1.981  0.00  0.00     0.032 H 
ATOM      9  H   LIG d   1       3.204   0.063  -2.952  0.00  0.00     0.032 H 
ATOM     10  H   LIG d   1       3.634  -1.422  -1.020  0.00  0.00     0.081 H 
ATOM     11  H   LIG d   1       5.314  -1.650  -1.560  0.00  0.00     0.081 H 
ATOM     12  H   LIG d   1       4.415  -3.495  -4.568  0.00  0.00     0.082 H 
ATOM     13  H   LIG d   1       5.764  -2.845  -3.607  0.00  0.00     0.082 H 
ATOM     14  N   LIG d   1       3.848  -2.554  -2.776  0.00  0.00     0.227 N 
ATOM     15  H   LIG d   1       2.892  -2.360  -3.100  0.00  0.00     0.201 HD
ATOM     16  H   LIG d   1       3.859  -3.440  -2.257  0.00  0.00     0.201 HD
ENDROOT
BRANCH   1  17
ATOM     17  C   LIG d   1       6.587  -0.417  -3.422  0.00  0.00     0.027 C 
ATOM     18  H   LIG d   1       6.979  -1.321  -3.886  0.00  0.00     0.036 H 
ATOM     19  H   LIG d   1       6.621  -0.522  -2.337  0.00  0.00     0.036 H 
BRANCH  17  20
ATOM     20  C   LIG d   1       7.422   0.766  -3.838  0.00  0.00     0.214 C 
ATOM     21  N   LIG d   1       8.743   0.613  -4.058  0.00  0.00    -0.310 N 
ATOM     22  H   LIG d   1       9.156  -0.259  -3.947  0.00  0.00     0.149 HD
ATOM     23  O   LIG d   1       6.906   1.854  -3.976  0.00  0.00    -0.276 OA
BRANCH  21  24
ATOM     24  C   LIG d   1       9.556   1.762  -4.463  0.00  0.00     0.026 C 
BRANCH  24  25
ATOM     25  C   LIG d   1      11.000   1.311  -4.691  0.00  0.00    -0.044 C 
ATOM     26  H   LIG d   1      11.133   0.303  -4.296  0.00  0.00     0.025 H 
ATOM     27  H   LIG d   1      11.680   1.993  -4.181  0.00  0.00     0.025 H 
ATOM     28  H   LIG d   1      11.217   1.313  -5.759  0.00  0.00     0.025 H 
ENDBRANCH  24  25
BRANCH  24  29
ATOM     29  C   LIG d   1       9.523   2.824  -3.362  0.00  0.00    -0.044 C 
ATOM     30  H   LIG d   1      10.493   2.866  -2.867  0.00  0.00     0.025 H 
ATOM     31  H   LIG d   1       9.297   3.796  -3.801  0.00  0.00     0.025 H 
ATOM     32  H   LIG d   1       8.753   2.568  -2.634  0.00  0.00     0.025 H 
ENDBRANCH  24  29
BRANCH  24  33
ATOM     33  C   LIG d   1       8.996   2.353  -5.758  0.00  0.00    -0.044 C 
ATOM     34  H   LIG d   1       7.950   2.622  -5.610  0.00  0.00     0.025 H 
ATOM     35  H   LIG d   1       9.565   3.242  -6.028  0.00  0.00     0.025 H 
ATOM     36  H   LIG d   1       9.072   1.615  -6.556  0.00  0.00     0.025 H 
ENDBRANCH  24  33
ENDBRANCH  21  24
ENDBRANCH  17  20
ENDBRANCH   1  17
BRANCH   6  37
ATOM     37  C   LIG d   1       5.636  -1.481  -5.956  0.00  0.00     0.001 C 
ATOM     38  H   LIG d   1       6.670  -1.408  -5.618  0.00  0.00     0.033 H 
ATOM     39  H   LIG d   1       5.482  -2.441  -6.448  0.00  0.00     0.033 H 
BRANCH  37  40
ATOM     40  C   LIG d   1       5.346  -0.366  -6.928  0.00  0.00     0.085 A 
ATOM     41  N   LIG d   1       6.139   0.614  -7.248  0.00  0.00    -0.083 NA
ATOM     42  O   LIG d   1       5.638   1.357  -8.058  0.00  0.00    -0.353 OA
ATOM     43  C   LIG d   1       4.394   0.959  -8.388  0.00  0.00     0.183 A 
ATOM     44  C   LIG d   1       4.156  -0.179  -7.665  0.00  0.00     0.009 A 
ATOM     45  H   LIG d   1       3.265  -0.791  -7.660  0.00  0.00     0.068 H 
BRANCH  43  46
ATOM     46  C   LIG d   1       3.476   1.614  -9.337  0.00  0.00     0.110 C 
ATOM     47  O   LIG d   1       2.414   2.056  -8.948  0.00  0.00    -0.541 OA
ATOM     48  O   LIG d   1       3.816   1.724 -10.636  0.00  0.00    -0.541 OA
ENDBRANCH  43  46
ENDBRANCH  37  40
ENDBRANCH   6  37
TORSDOF 9
ENDMDL
MODEL 3
REMARK VINA RESULT:      -5.7      3.392      4.886
REMARK  9 active torsions:
REMARK  status: ('A' for Active; 'I' for Inactive)
REMARK    1  A    between atoms: C_1  and  C_2 
REMARK    2  A    between atoms: C_2  and  C_3 
REMARK    3  A    between atoms: C_2  and  C_4 
REMARK    4  A    between atoms: C_2  and  N_5 
REMARK       I    between atoms: N_5  and  C_6 
REMARK    5  A    between atoms: C_6  and  C_8 
REMARK    6  A    between atoms: C_8  and  C_9 
REMARK    7  A    between atoms: C_14  and  C_16 
REMARK    8  A    between atoms: C_16  and  C_17 
REMARK    9  A    between atoms: C_19  and  C_22 
ROOT
ATOM      1  C   LIG d   1       5.073   0.204  -3.485  0.00  0.00    -0.020 C 
ATOM      2  H   LIG d   1       5.047   1.258  -3.766  0.00  0.00     0.031 H 
ATOM      3  C   LIG d   1       4.407   0.020  -2.120  0.00  0.00    -0.009 C 
ATOM      4  C   LIG d   1       4.395  -1.468  -1.760  0.00  0.00    -0.033 C 
ATOM      5  C   LIG d   1       4.308  -2.091  -4.100  0.00  0.00    -0.030 C 
ATOM      6  C   LIG d   1       4.318  -0.623  -4.529  0.00  0.00     0.008 C 
ATOM      7  H   LIG d   1       3.293  -0.260  -4.608  0.00  0.00     0.036 H 
ATOM      8  H   LIG d   1       4.966   0.572  -1.364  0.00  0.00     0.032 H 
ATOM      9  H   LIG d   1       3.384   0.393  -2.160  0.00  0.00     0.032 H 
ATOM     10  H   LIG d   1       3.909  -1.604  -0.794  0.00  0.00     0.081 H 
ATOM     11  H   LIG d   1       5.420  -1.837  -1.705  0.00  0.00     0.081 H 
ATOM     12  H   LIG d   1       3.758  -2.681  -4.833  0.00  0.00     0.082 H 
ATOM     13  H   LIG d   1       5.333  -2.457  -4.035  0.00  0.00     0.082 H 
ATOM     14  N   LIG d   1       3.650  -2.221  -2.785  0.00  0.00     0.227 N 
ATOM     15  H   LIG d   1       2.693  -1.852  -2.848  0.00  0.00     0.201 HD
ATOM     16  H   LIG d   1       3.617  -3.213  -2.520  0.00  0.00     0.201 HD
ENDROOT
BRANCH   1  17
ATOM     17  C   LIG d   1       6.527  -0.268  -3.413  0.00  0.00     0.027 C 
ATOM     18  H   LIG d   1       6.684  -1.072  -4.132  0.00  0.00     0.036 H 
ATOM     19  H   LIG d   1       6.741  -0.633  -2.408  0.00  0.00     0.036 H 
BRANCH  17  20
ATOM     20  C   LIG d   1       7.445   0.883  -3.736  0.00  0.00     0.214 C 
ATOM     21  N   LIG d   1       8.706   0.643  -4.147  0.00  0.00    -0.310 N 
ATOM     22  H   LIG d   1       9.023  -0.271  -4.235  0.00  0.00     0.149 HD
ATOM     23  O   LIG d   1       7.049   2.023  -3.626  0.00  0.00    -0.276 OA
BRANCH  21  24
ATOM     24  C   LIG d   1       9.599   1.761  -4.462  0.00  0.00     0.026 C 
BRANCH  24  25
ATOM     25  C   LIG d   1       8.984   2.607  -5.579  0.00  0.00    -0.044 C 
ATOM     26  H   LIG d   1       8.521   3.495  -5.149  0.00  0.00     0.025 H 
ATOM     27  H   LIG d   1       8.229   2.022  -6.104  0.00  0.00     0.025 H 
ATOM     28  H   LIG d   1       9.764   2.906  -6.279  0.00  0.00     0.025 H 
ENDBRANCH  24  25
BRANCH  24  29
ATOM     29  C   LIG d   1      10.954   1.218  -4.921  0.00  0.00    -0.044 C 
ATOM     30  H   LIG d   1      11.416   0.659  -4.107  0.00  0.00     0.025 H 
ATOM     31  H   LIG d   1      10.811   0.560  -5.778  0.00  0.00     0.025 H 
ATOM     32  H   LIG d   1      11.600   2.049  -5.205  0.00  0.00     0.025 H 
ENDBRANCH  24  29
BRANCH  24  33
ATOM     33  C   LIG d   1       9.793   2.625  -3.215  0.00  0.00    -0.044 C 
ATOM     34  H   LIG d   1      10.271   2.034  -2.434  0.00  0.00     0.025 H 
ATOM     35  H   LIG d   1      10.423   3.480  -3.460  0.00  0.00     0.025 H 
ATOM     36  H   LIG d   1       8.823   2.977  -2.862  0.00  0.00     0.025 H 
ENDBRANCH  24  33
ENDBRANCH  21  24
ENDBRANCH  17  20
ENDBRANCH   1  17
BRANCH   6  37
ATOM     37  C   LIG d   1       5.012  -0.491  -5.886  0.00  0.00     0.001 C 
ATOM     38  H   LIG d   1       5.654   0.390  -5.882  0.00  0.00     0.033 H 
ATOM     39  H   LIG d   1       5.615  -1.380  -6.072  0.00  0.00     0.033 H 
BRANCH  37  40
ATOM     40  C   LIG d   1       3.975  -0.352  -6.970  0.00  0.00     0.085 A 
ATOM     41  N   LIG d   1       3.279   0.711  -7.249  0.00  0.00    -0.083 NA
ATOM     42  O   LIG d   1       2.524   0.529  -8.175  0.00  0.00    -0.353 OA
ATOM     43  C   LIG d   1       2.615  -0.730  -8.644  0.00  0.00     0.183 A 
ATOM     44  C   LIG d   1       3.563  -1.353  -7.877  0.00  0.00     0.009 A 
ATOM     45  H   LIG d   1       3.915  -2.372  -7.950  0.00  0.00     0.068 H 
BRANCH  43  46
ATOM     46  C   LIG d   1       1.849  -1.319  -9.757  0.00  0.00     0.110 C 
ATOM     47  O   LIG d   1       1.287  -0.598 -10.557  0.00  0.00    -0.541 OA
ATOM     48  O   LIG d   1       1.775  -2.658  -9.888  0.00  0.00    -0.541 OA
ENDBRANCH  43  46
ENDBRANCH  37  40
ENDBRANCH   6  37
TORSDOF 9
ENDMDL
MODEL 4
REMARK VINA RESULT:      -5.7      6.673      9.777
REMARK  9 active torsions:
REMARK  status: ('A' for Active; 'I' for Inactive)
REMARK    1  A    between atoms: C_1  and  C_2 
REMARK    2  A    between atoms: C_2  and  C_3 
REMARK    3  A    between atoms: C_2  and  C_4 
REMARK    4  A    between atoms: C_2  and  N_5 
REMARK       I    between atoms: N_5  and  C_6 
REMARK    5  A    between atoms: C_6  and  C_8 
REMARK    6  A    between atoms: C_8  and  C_9 
REMARK    7  A    between atoms: C_14  and  C_16 
REMARK    8  A    between atoms: C_16  and  C_17 
REMARK    9  A    between atoms: C_19  and  C_22 
ROOT
ATOM      1  C   LIG d   1       8.268   1.978  -4.991  0.00  0.00    -0.020 C 
ATOM      2  H   LIG d   1       7.581   2.788  -4.744  0.00  0.00     0.031 H 
ATOM      3  C   LIG d   1       8.004   1.497  -6.420  0.00  0.00    -0.009 C 
ATOM      4  C   LIG d   1       9.011   0.402  -6.779  0.00  0.00    -0.033 C 
ATOM      5  C   LIG d   1      10.668   1.358  -5.291  0.00  0.00    -0.030 C 
ATOM      6  C   LIG d   1       9.711   2.482  -4.888  0.00  0.00     0.008 C 
ATOM      7  H   LIG d   1       9.847   3.333  -5.555  0.00  0.00     0.036 H 
ATOM      8  H   LIG d   1       6.992   1.098  -6.488  0.00  0.00     0.032 H 
ATOM      9  H   LIG d   1       8.113   2.333  -7.112  0.00  0.00     0.032 H 
ATOM     10  H   LIG d   1       8.834   0.068  -7.801  0.00  0.00     0.081 H 
ATOM     11  H   LIG d   1       8.892  -0.439  -6.096  0.00  0.00     0.081 H 
ATOM     12  H   LIG d   1      11.695   1.718  -5.234  0.00  0.00     0.082 H 
ATOM     13  H   LIG d   1      10.541   0.513  -4.616  0.00  0.00     0.082 H 
ATOM     14  N   LIG d   1      10.382   0.935  -6.676  0.00  0.00     0.227 N 
ATOM     15  H   LIG d   1      10.480   1.742  -7.304  0.00  0.00     0.201 HD
ATOM     16  H   LIG d   1      11.051   0.205  -6.951  0.00  0.00     0.201 HD
ENDROOT
BRANCH   1  17
ATOM     17  C   LIG d   1       8.061   0.818  -4.014  0.00  0.00     0.027 C 
ATOM     18  H   LIG d   1       8.764   0.909  -3.187  0.00  0.00     0.036 H 
ATOM     19  H   LIG d   1       8.230  -0.127  -4.532  0.00  0.00     0.036 H 
BRANCH  17  20
ATOM     20  C   LIG d   1       6.651   0.855  -3.483  0.00  0.00     0.214 C 
ATOM     21  N   LIG d   1       6.018  -0.295  -3.176  0.00  0.00    -0.310 N 
ATOM     22  H   LIG d   1       6.469  -1.146  -3.298  0.00  0.00     0.149 HD
ATOM     23  O   LIG d   1       6.088   1.917  -3.332  0.00  0.00    -0.276 OA
BRANCH  21  24
ATOM     24  C   LIG d   1       4.647  -0.260  -2.660  0.00  0.00     0.026 C 
BRANCH  24  25
ATOM     25  C   LIG d   1       4.300  -1.616  -2.042  0.00  0.00    -0.044 C 
ATOM     26  H   LIG d   1       3.917  -1.468  -1.032  0.00  0.00     0.025 H 
ATOM     27  H   LIG d   1       5.195  -2.238  -2.003  0.00  0.00     0.025 H 
ATOM     28  H   LIG d   1       3.542  -2.109  -2.650  0.00  0.00     0.025 H 
ENDBRANCH  24  25
BRANCH  24  29
ATOM     29  C   LIG d   1       3.678   0.041  -3.805  0.00  0.00    -0.044 C 
ATOM     30  H   LIG d   1       3.082  -0.846  -4.020  0.00  0.00     0.025 H 
ATOM     31  H   LIG d   1       3.019   0.860  -3.517  0.00  0.00     0.025 H 
ATOM     32  H   LIG d   1       4.243   0.325  -4.693  0.00  0.00     0.025 H 
ENDBRANCH  24  29
BRANCH  24  33
ATOM     33  C   LIG d   1       4.531   0.831  -1.594  0.00  0.00    -0.044 C 
ATOM     34  H   LIG d   1       4.765   1.798  -2.038  0.00  0.00     0.025 H 
ATOM     35  H   LIG d   1       3.515   0.848  -1.200  0.00  0.00     0.025 H 
ATOM     36  H   LIG d   1       5.231   0.624  -0.784  0.00  0.00     0.025 H 
ENDBRANCH  24  33
ENDBRANCH  21  24
ENDBRANCH  17  20
ENDBRANCH   1  17
BRANCH   6  37
ATOM     37  C   LIG d   1      10.001   2.909  -3.448  0.00  0.00     0.001 C 
ATOM     38  H   LIG d   1       9.324   2.390  -2.770  0.00  0.00     0.033 H 
ATOM     39  H   LIG d   1      11.032   2.657  -3.196  0.00  0.00     0.033 H 
BRANCH  37  40
ATOM     40  C   LIG d   1       9.802   4.397  -3.316  0.00  0.00     0.085 A 
ATOM     41  N   LIG d   1       9.467   5.224  -4.262  0.00  0.00    -0.083 NA
ATOM     42  O   LIG d   1       9.377   6.360  -3.860  0.00  0.00    -0.353 OA
ATOM     43  C   LIG d   1       9.661   6.442  -2.547  0.00  0.00     0.183 A 
ATOM     44  C   LIG d   1       9.949   5.167  -2.141  0.00  0.00     0.009 A 
ATOM     45  H   LIG d   1      10.224   4.828  -1.152  0.00  0.00     0.068 H 
BRANCH  43  46
ATOM     46  C   LIG d   1       9.661   7.658  -1.713  0.00  0.00     0.110 C 
ATOM     47  O   LIG d   1       8.854   7.778  -0.814  0.00  0.00    -0.541 OA
ATOM     48  O   LIG d   1      10.558   8.635  -1.949  0.00  0.00    -0.541 OA
ENDBRANCH  43  46
ENDBRANCH  37  40
ENDBRANCH   6  37
TORSDOF 9
ENDMDL
MODEL 5
REMARK VINA RESULT:      -5.6      2.330      4.916
REMARK  9 active torsions:
REMARK  status: ('A' for Active; 'I' for Inactive)
REMARK    1  A    between atoms: C_1  and  C_2 
REMARK    2  A    between atoms: C_2  and  C_3 
REMARK    3  A    between atoms: C_2  and  C_4 
REMARK    4  A    between atoms: C_2  and  N_5 
REMARK       I    between atoms: N_5  and  C_6 
REMARK    5  A    between atoms: C_6  and  C_8 
REMARK    6  A    between atoms: C_8  and  C_9 
REMARK    7  A    between atoms: C_14  and  C_16 
REMARK    8  A    between atoms: C_16  and  C_17 
REMARK    9  A    between atoms: C_19  and  C_22 
ROOT
ATOM      1  C   LIG d   1       5.452  -2.058  -7.224  0.00  0.00    -0.020 C 
ATOM      2  H   LIG d   1       5.556  -2.548  -6.256  0.00  0.00     0.031 H 
ATOM      3  C   LIG d   1       6.741  -1.306  -7.561  0.00  0.00    -0.009 C 
ATOM      4  C   LIG d   1       6.609  -0.671  -8.948  0.00  0.00    -0.033 C 
ATOM      5  C   LIG d   1       5.099  -2.424  -9.668  0.00  0.00    -0.030 C 
ATOM      6  C   LIG d   1       5.186  -3.111  -8.304  0.00  0.00     0.008 C 
ATOM      7  H   LIG d   1       6.001  -3.836  -8.312  0.00  0.00     0.036 H 
ATOM      8  H   LIG d   1       6.913  -0.526  -6.819  0.00  0.00     0.032 H 
ATOM      9  H   LIG d   1       7.581  -2.002  -7.558  0.00  0.00     0.032 H 
ATOM     10  H   LIG d   1       7.532  -0.147  -9.196  0.00  0.00     0.081 H 
ATOM     11  H   LIG d   1       5.779   0.035  -8.946  0.00  0.00     0.081 H 
ATOM     12  H   LIG d   1       4.926  -3.173 -10.442  0.00  0.00     0.082 H 
ATOM     13  H   LIG d   1       4.276  -1.710  -9.664  0.00  0.00     0.082 H 
ATOM     14  N   LIG d   1       6.365  -1.721  -9.954  0.00  0.00     0.227 N 
ATOM     15  H   LIG d   1       7.139  -2.396  -9.933  0.00  0.00     0.201 HD
ATOM     16  H   LIG d   1       6.311  -1.292 -10.885  0.00  0.00     0.201 HD
ENDROOT
BRANCH   1  17
ATOM     17  C   LIG d   1       4.283  -1.071  -7.174  0.00  0.00     0.027 C 
ATOM     18  H   LIG d   1       3.390  -1.545  -7.582  0.00  0.00     0.036 H 
ATOM     19  H   LIG d   1       4.527  -0.188  -7.764  0.00  0.00     0.036 H 
BRANCH  17  20
ATOM     20  C   LIG d   1       4.029  -0.666  -5.745  0.00  0.00     0.214 C 
ATOM     21  N   LIG d   1       4.079  -1.590  -4.765  0.00  0.00    -0.310 N 
ATOM     22  H   LIG d   1       4.278  -2.515  -4.979  0.00  0.00     0.149 HD
ATOM     23  O   LIG d   1       3.782   0.490  -5.478  0.00  0.00    -0.276 OA
BRANCH  21  24
ATOM     24  C   LIG d   1       3.834  -1.196  -3.375  0.00  0.00     0.026 C 
BRANCH  24  25
ATOM     25  C   LIG d   1       3.902  -2.432  -2.475  0.00  0.00    -0.044 C 
ATOM     26  H   LIG d   1       2.911  -2.644  -2.074  0.00  0.00     0.025 H 
ATOM     27  H   LIG d   1       4.594  -2.246  -1.653  0.00  0.00     0.025 H 
ATOM     28  H   LIG d   1       4.249  -3.286  -3.056  0.00  0.00     0.025 H 
ENDBRANCH  24  25
BRANCH  24  29
ATOM     29  C   LIG d   1       2.447  -0.560  -3.262  0.00  0.00    -0.044 C 
ATOM     30  H   LIG d   1       2.302   0.145  -4.081  0.00  0.00     0.025 H 
ATOM     31  H   LIG d   1       1.684  -1.338  -3.314  0.00  0.00     0.025 H 
ATOM     32  H   LIG d   1       2.364  -0.035  -2.311  0.00  0.00     0.025 H 
ENDBRANCH  24  29
BRANCH  24  33
ATOM     33  C   LIG d   1       4.894  -0.186  -2.935  0.00  0.00    -0.044 C 
ATOM     34  H   LIG d   1       4.459   0.813  -2.918  0.00  0.00     0.025 H 
ATOM     35  H   LIG d   1       5.250  -0.443  -1.938  0.00  0.00     0.025 H 
ATOM     36  H   LIG d   1       5.729  -0.207  -3.636  0.00  0.00     0.025 H 
ENDBRANCH  24  33
ENDBRANCH  21  24
ENDBRANCH  17  20
ENDBRANCH   1  17
BRANCH   6  37
ATOM     37  C   LIG d   1       3.868  -3.827  -8.007  0.00  0.00     0.001 C 
ATOM     38  H   LIG d   1       3.134  -3.105  -7.648  0.00  0.00     0.033 H 
ATOM     39  H   LIG d   1       3.498  -4.299  -8.917  0.00  0.00     0.033 H 
BRANCH  37  40
ATOM     40  C   LIG d   1       4.094  -4.879  -6.952  0.00  0.00     0.085 A 
ATOM     41  N   LIG d   1       3.879  -4.759  -5.674  0.00  0.00    -0.083 NA
ATOM     42  O   LIG d   1       4.149  -5.771  -5.072  0.00  0.00    -0.353 OA
ATOM     43  C   LIG d   1       4.605  -6.730  -5.900  0.00  0.00     0.183 A 
ATOM     44  C   LIG d   1       4.588  -6.186  -7.156  0.00  0.00     0.009 A 
ATOM     45  H   LIG d   1       4.881  -6.650  -8.087  0.00  0.00     0.068 H 
BRANCH  43  46
ATOM     46  C   LIG d   1       5.036  -8.090  -5.530  0.00  0.00     0.110 C 
ATOM     47  O   LIG d   1       6.096  -8.523  -5.933  0.00  0.00    -0.541 OA
ATOM     48  O   LIG d   1       4.253  -8.853  -4.742  0.00  0.00    -0.541 OA
ENDBRANCH  43  46
ENDBRANCH  37  40
ENDBRANCH   6  37
TORSDOF 9
ENDMDL
MODEL 6
REMARK VINA RESULT:      -5.4      4.364      7.430
REMARK  9 active torsions:
REMARK  status: ('A' for Active; 'I' for Inactive)
REMARK    1  A    between atoms: C_1  and  C_2 
REMARK    2  A    between atoms: C_2  and  C_3 
REMARK    3  A    between atoms: C_2  and  C_4 
REMARK    4  A    between atoms: C_2  and  N_5 
REMARK       I    between atoms: N_5  and  C_6 
REMARK    5  A    between atoms: C_6  and  C_8 
REMARK    6  A    between atoms: C_8  and  C_9 
REMARK    7  A    between atoms: C_14  and  C_16 
REMARK    8  A    between atoms: C_16  and  C_17 
REMARK    9  A    between atoms: C_19  and  C_22 
ROOT
ATOM      1  C   LIG d   1       5.682  -0.360  -6.560  0.00  0.00    -0.020 C 
ATOM      2  H   LIG d   1       5.426   0.371  -5.793  0.00  0.00     0.031 H 
ATOM      3  C   LIG d   1       4.888  -0.068  -7.835  0.00  0.00    -0.009 C 
ATOM      4  C   LIG d   1       5.298  -1.061  -8.925  0.00  0.00    -0.033 C 
ATOM      5  C   LIG d   1       7.523  -1.260  -7.987  0.00  0.00    -0.030 C 
ATOM      6  C   LIG d   1       7.180  -0.273  -6.869  0.00  0.00     0.008 C 
ATOM      7  H   LIG d   1       7.426   0.740  -7.189  0.00  0.00     0.036 H 
ATOM      8  H   LIG d   1       3.822  -0.171  -7.632  0.00  0.00     0.032 H 
ATOM      9  H   LIG d   1       5.098   0.948  -8.171  0.00  0.00     0.032 H 
ATOM     10  H   LIG d   1       4.744  -0.846  -9.839  0.00  0.00     0.081 H 
ATOM     11  H   LIG d   1       5.074  -2.076  -8.595  0.00  0.00     0.081 H 
ATOM     12  H   LIG d   1       8.586  -1.190  -8.220  0.00  0.00     0.082 H 
ATOM     13  H   LIG d   1       7.289  -2.273  -7.661  0.00  0.00     0.082 H 
ATOM     14  N   LIG d   1       6.742  -0.934  -9.196  0.00  0.00     0.227 N 
ATOM     15  H   LIG d   1       6.949   0.030  -9.483  0.00  0.00     0.201 HD
ATOM     16  H   LIG d   1       7.003  -1.579  -9.951  0.00  0.00     0.201 HD
ENDROOT
BRANCH   1  17
ATOM     17  C   LIG d   1       5.345  -1.766  -6.058  0.00  0.00     0.027 C 
ATOM     18  H   LIG d   1       6.265  -2.335  -5.925  0.00  0.00     0.036 H 
ATOM     19  H   LIG d   1       4.709  -2.269  -6.787  0.00  0.00     0.036 H 
BRANCH  17  20
ATOM     20  C   LIG d   1       4.619  -1.668  -4.742  0.00  0.00     0.214 C 
ATOM     21  N   LIG d   1       4.554  -0.486  -4.096  0.00  0.00    -0.310 N 
ATOM     22  H   LIG d   1       4.975   0.300  -4.478  0.00  0.00     0.149 HD
ATOM     23  O   LIG d   1       4.093  -2.650  -4.265  0.00  0.00    -0.276 OA
BRANCH  21  24
ATOM     24  C   LIG d   1       3.847  -0.390  -2.816  0.00  0.00     0.026 C 
BRANCH  24  25
ATOM     25  C   LIG d   1       4.453  -1.384  -1.823  0.00  0.00    -0.044 C 
ATOM     26  H   LIG d   1       5.377  -1.791  -2.233  0.00  0.00     0.025 H 
ATOM     27  H   LIG d   1       3.747  -2.196  -1.644  0.00  0.00     0.025 H 
ATOM     28  H   LIG d   1       4.666  -0.875  -0.883  0.00  0.00     0.025 H 
ENDBRANCH  24  25
BRANCH  24  29
ATOM     29  C   LIG d   1       2.367  -0.716  -3.024  0.00  0.00    -0.044 C 
ATOM     30  H   LIG d   1       2.274  -1.652  -3.574  0.00  0.00     0.025 H 
ATOM     31  H   LIG d   1       1.876  -0.814  -2.055  0.00  0.00     0.025 H 
ATOM     32  H   LIG d   1       1.895   0.088  -3.590  0.00  0.00     0.025 H 
ENDBRANCH  24  29
BRANCH  24  33
ATOM     33  C   LIG d   1       3.984   1.030  -2.263  0.00  0.00    -0.044 C 
ATOM     34  H   LIG d   1       3.357   1.137  -1.378  0.00  0.00     0.025 H 
ATOM     35  H   LIG d   1       5.024   1.218  -1.996  0.00  0.00     0.025 H 
ATOM     36  H   LIG d   1       3.667   1.746  -3.021  0.00  0.00     0.025 H 
ENDBRANCH  24  33
ENDBRANCH  21  24
ENDBRANCH  17  20
ENDBRANCH   1  17
BRANCH   6  37
ATOM     37  C   LIG d   1       7.982  -0.622  -5.614  0.00  0.00     0.001 C 
ATOM     38  H   LIG d   1       7.456  -1.391  -5.048  0.00  0.00     0.033 H 
ATOM     39  H   LIG d   1       8.966  -0.993  -5.904  0.00  0.00     0.033 H 
BRANCH  37  40
ATOM     40  C   LIG d   1       8.141   0.610  -4.761  0.00  0.00     0.085 A 
ATOM     41  N   LIG d   1       7.224   1.174  -4.030  0.00  0.00    -0.083 NA
ATOM     42  O   LIG d   1       7.643   2.148  -3.451  0.00  0.00    -0.353 OA
ATOM     43  C   LIG d   1       8.938   2.375  -3.739  0.00  0.00     0.183 A 
ATOM     44  C   LIG d   1       9.313   1.382  -4.604  0.00  0.00     0.009 A 
ATOM     45  H   LIG d   1      10.281   1.224  -5.059  0.00  0.00     0.068 H 
BRANCH  43  46
ATOM     46  C   LIG d   1       9.783   3.469  -3.227  0.00  0.00     0.110 C 
ATOM     47  O   LIG d   1      10.647   3.237  -2.406  0.00  0.00    -0.541 OA
ATOM     48  O   LIG d   1       9.597   4.727  -3.672  0.00  0.00    -0.541 OA
ENDBRANCH  43  46
ENDBRANCH  37  40
ENDBRANCH   6  37
TORSDOF 9
ENDMDL
MODEL 7
REMARK VINA RESULT:      -5.4      2.021      5.042
REMARK  9 active torsions:
REMARK  status: ('A' for Active; 'I' for Inactive)
REMARK    1  A    between atoms: C_1  and  C_2 
REMARK    2  A    between atoms: C_2  and  C_3 
REMARK    3  A    between atoms: C_2  and  C_4 
REMARK    4  A    between atoms: C_2  and  N_5 
REMARK       I    between atoms: N_5  and  C_6 
REMARK    5  A    between atoms: C_6  and  C_8 
REMARK    6  A    between atoms: C_8  and  C_9 
REMARK    7  A    between atoms: C_14  and  C_16 
REMARK    8  A    between atoms: C_16  and  C_17 
REMARK    9  A    between atoms: C_19  and  C_22 
ROOT
ATOM      1  C   LIG d   1       4.265  -0.125  -8.246  0.00  0.00    -0.020 C 
ATOM      2  H   LIG d   1       4.904  -0.697  -7.573  0.00  0.00     0.031 H 
ATOM      3  C   LIG d   1       4.959   1.185  -8.625  0.00  0.00    -0.009 C 
ATOM      4  C   LIG d   1       4.082   1.955  -9.615  0.00  0.00    -0.033 C 
ATOM      5  C   LIG d   1       3.150  -0.109 -10.480  0.00  0.00    -0.030 C 
ATOM      6  C   LIG d   1       4.000  -0.939  -9.515  0.00  0.00     0.008 C 
ATOM      7  H   LIG d   1       4.949  -1.191  -9.990  0.00  0.00     0.036 H 
ATOM      8  H   LIG d   1       5.112   1.789  -7.730  0.00  0.00     0.032 H 
ATOM      9  H   LIG d   1       5.923   0.968  -9.086  0.00  0.00     0.032 H 
ATOM     10  H   LIG d   1       4.580   2.881  -9.898  0.00  0.00     0.081 H 
ATOM     11  H   LIG d   1       3.123   2.185  -9.149  0.00  0.00     0.081 H 
ATOM     12  H   LIG d   1       2.973  -0.680 -11.392  0.00  0.00     0.082 H 
ATOM     13  H   LIG d   1       2.197   0.131 -10.010  0.00  0.00     0.082 H 
ATOM     14  N   LIG d   1       3.862   1.138 -10.823  0.00  0.00     0.227 N 
ATOM     15  H   LIG d   1       4.770   0.904 -11.244  0.00  0.00     0.201 HD
ATOM     16  H   LIG d   1       3.301   1.672 -11.497  0.00  0.00     0.201 HD
ENDROOT
BRANCH   1  17
ATOM     17  C   LIG d   1       2.937   0.182  -7.549  0.00  0.00     0.027 C 
ATOM     18  H   LIG d   1       2.195  -0.561  -7.838  0.00  0.00     0.036 H 
ATOM     19  H   LIG d   1       2.593   1.173  -7.845  0.00  0.00     0.036 H 
BRANCH  17  20
ATOM     20  C   LIG d   1       3.134   0.143  -6.056  0.00  0.00     0.214 C 
ATOM     21  N   LIG d   1       3.704  -0.933  -5.480  0.00  0.00    -0.310 N 
ATOM     22  H   LIG d   1       3.988  -1.684  -6.027  0.00  0.00     0.149 HD
ATOM     23  O   LIG d   1       2.779   1.080  -5.374  0.00  0.00    -0.276 OA
BRANCH  21  24
ATOM     24  C   LIG d   1       3.896  -0.972  -4.028  0.00  0.00     0.026 C 
BRANCH  24  25
ATOM     25  C   LIG d   1       4.408  -2.354  -3.617  0.00  0.00    -0.044 C 
ATOM     26  H   LIG d   1       3.589  -2.932  -3.189  0.00  0.00     0.025 H 
ATOM     27  H   LIG d   1       5.200  -2.243  -2.877  0.00  0.00     0.025 H 
ATOM     28  H   LIG d   1       4.799  -2.872  -4.493  0.00  0.00     0.025 H 
ENDBRANCH  24  25
BRANCH  24  29
ATOM     29  C   LIG d   1       2.563  -0.694  -3.330  0.00  0.00    -0.044 C 
ATOM     30  H   LIG d   1       1.974  -0.003  -3.932  0.00  0.00     0.025 H 
ATOM     31  H   LIG d   1       2.015  -1.629  -3.209  0.00  0.00     0.025 H 
ATOM     32  H   LIG d   1       2.751  -0.255  -2.350  0.00  0.00     0.025 H 
ENDBRANCH  24  29
BRANCH  24  33
ATOM     33  C   LIG d   1       4.916   0.092  -3.619  0.00  0.00    -0.044 C 
ATOM     34  H   LIG d   1       4.418   0.867  -3.036  0.00  0.00     0.025 H 
ATOM     35  H   LIG d   1       5.700  -0.368  -3.017  0.00  0.00     0.025 H 
ATOM     36  H   LIG d   1       5.356   0.535  -4.512  0.00  0.00     0.025 H 
ENDBRANCH  24  33
ENDBRANCH  21  24
ENDBRANCH  17  20
ENDBRANCH   1  17
BRANCH   6  37
ATOM     37  C   LIG d   1       3.253  -2.224  -9.152  0.00  0.00     0.001 C 
ATOM     38  H   LIG d   1       2.388  -1.980  -8.535  0.00  0.00     0.033 H 
ATOM     39  H   LIG d   1       2.920  -2.721 -10.064  0.00  0.00     0.033 H 
BRANCH  37  40
ATOM     40  C   LIG d   1       4.173  -3.141  -8.388  0.00  0.00     0.085 A 
ATOM     41  N   LIG d   1       5.436  -3.347  -8.622  0.00  0.00    -0.083 NA
ATOM     42  O   LIG d   1       5.919  -4.134  -7.843  0.00  0.00    -0.353 OA
ATOM     43  C   LIG d   1       5.003  -4.578  -6.960  0.00  0.00     0.183 A 
ATOM     44  C   LIG d   1       3.831  -3.948  -7.281  0.00  0.00     0.009 A 
ATOM     45  H   LIG d   1       2.869  -4.046  -6.799  0.00  0.00     0.068 H 
BRANCH  43  46
ATOM     46  C   LIG d   1       5.219  -5.545  -5.869  0.00  0.00     0.110 C 
ATOM     47  O   LIG d   1       6.332  -5.982  -5.656  0.00  0.00    -0.541 OA
ATOM     48  O   LIG d   1       4.182  -5.942  -5.107  0.00  0.00    -0.541 OA
ENDBRANCH  43  46
ENDBRANCH  37  40
ENDBRANCH   6  37
TORSDOF 9
ENDMDL
MODEL 8
REMARK VINA RESULT:      -5.3      2.424      5.532
REMARK  9 active torsions:
REMARK  status: ('A' for Active; 'I' for Inactive)
REMARK    1  A    between atoms: C_1  and  C_2 
REMARK    2  A    between atoms: C_2  and  C_3 
REMARK    3  A    between atoms: C_2  and  C_4 
REMARK    4  A    between atoms: C_2  and  N_5 
REMARK       I    between atoms: N_5  and  C_6 
REMARK    5  A    between atoms: C_6  and  C_8 
REMARK    6  A    between atoms: C_8  and  C_9 
REMARK    7  A    between atoms: C_14  and  C_16 
REMARK    8  A    between atoms: C_16  and  C_17 
REMARK    9  A    between atoms: C_19  and  C_22 
ROOT
ATOM      1  C   LIG d   1       4.899  -3.678  -6.194  0.00  0.00    -0.020 C 
ATOM      2  H   LIG d   1       4.094  -2.944  -6.229  0.00  0.00     0.031 H 
ATOM      3  C   LIG d   1       4.312  -5.089  -6.263  0.00  0.00    -0.009 C 
ATOM      4  C   LIG d   1       5.451  -6.112  -6.274  0.00  0.00    -0.033 C 
ATOM      5  C   LIG d   1       6.933  -4.534  -7.362  0.00  0.00    -0.030 C 
ATOM      6  C   LIG d   1       5.838  -3.465  -7.384  0.00  0.00     0.008 C 
ATOM      7  H   LIG d   1       5.272  -3.543  -8.313  0.00  0.00     0.036 H 
ATOM      8  H   LIG d   1       3.675  -5.262  -5.395  0.00  0.00     0.032 H 
ATOM      9  H   LIG d   1       3.721  -5.194  -7.174  0.00  0.00     0.032 H 
ATOM     10  H   LIG d   1       5.035  -7.117  -6.338  0.00  0.00     0.081 H 
ATOM     11  H   LIG d   1       6.032  -6.017  -5.356  0.00  0.00     0.081 H 
ATOM     12  H   LIG d   1       7.595  -4.394  -8.217  0.00  0.00     0.082 H 
ATOM     13  H   LIG d   1       7.508  -4.446  -6.440  0.00  0.00     0.082 H 
ATOM     14  N   LIG d   1       6.321  -5.874  -7.440  0.00  0.00     0.227 N 
ATOM     15  H   LIG d   1       5.761  -5.942  -8.299  0.00  0.00     0.201 HD
ATOM     16  H   LIG d   1       7.063  -6.584  -7.459  0.00  0.00     0.201 HD
ENDROOT
BRANCH   1  17
ATOM     17  C   LIG d   1       5.682  -3.514  -4.889  0.00  0.00     0.027 C 
ATOM     18  H   LIG d   1       6.665  -3.095  -5.105  0.00  0.00     0.036 H 
ATOM     19  H   LIG d   1       5.800  -4.487  -4.411  0.00  0.00     0.036 H 
BRANCH  17  20
ATOM     20  C   LIG d   1       4.932  -2.589  -3.967  0.00  0.00     0.214 C 
ATOM     21  N   LIG d   1       5.293  -1.293  -3.874  0.00  0.00    -0.310 N 
ATOM     22  H   LIG d   1       6.036  -0.957  -4.400  0.00  0.00     0.149 HD
ATOM     23  O   LIG d   1       4.005  -3.009  -3.310  0.00  0.00    -0.276 OA
BRANCH  21  24
ATOM     24  C   LIG d   1       4.564  -0.393  -2.977  0.00  0.00     0.026 C 
BRANCH  24  25
ATOM     25  C   LIG d   1       4.505  -1.005  -1.576  0.00  0.00    -0.044 C 
ATOM     26  H   LIG d   1       5.161  -1.874  -1.532  0.00  0.00     0.025 H 
ATOM     27  H   LIG d   1       3.482  -1.311  -1.356  0.00  0.00     0.025 H 
ATOM     28  H   LIG d   1       4.829  -0.267  -0.843  0.00  0.00     0.025 H 
ENDBRANCH  24  25
BRANCH  24  29
ATOM     29  C   LIG d   1       3.142  -0.188  -3.505  0.00  0.00    -0.044 C 
ATOM     30  H   LIG d   1       3.147   0.586  -4.271  0.00  0.00     0.025 H 
ATOM     31  H   LIG d   1       2.776  -1.122  -3.933  0.00  0.00     0.025 H 
ATOM     32  H   LIG d   1       2.491   0.115  -2.684  0.00  0.00     0.025 H 
ENDBRANCH  24  29
BRANCH  24  33
ATOM     33  C   LIG d   1       5.282   0.956  -2.914  0.00  0.00    -0.044 C 
ATOM     34  H   LIG d   1       5.051   1.533  -3.810  0.00  0.00     0.025 H 
ATOM     35  H   LIG d   1       4.949   1.505  -2.033  0.00  0.00     0.025 H 
ATOM     36  H   LIG d   1       6.358   0.793  -2.855  0.00  0.00     0.025 H 
ENDBRANCH  24  33
ENDBRANCH  21  24
ENDBRANCH  17  20
ENDBRANCH   1  17
BRANCH   6  37
ATOM     37  C   LIG d   1       6.476  -2.078  -7.290  0.00  0.00     0.001 C 
ATOM     38  H   LIG d   1       6.961  -1.965  -6.320  0.00  0.00     0.033 H 
ATOM     39  H   LIG d   1       7.217  -1.964  -8.082  0.00  0.00     0.033 H 
BRANCH  37  40
ATOM     40  C   LIG d   1       5.411  -1.023  -7.445  0.00  0.00     0.085 A 
ATOM     41  N   LIG d   1       5.145  -0.058  -6.614  0.00  0.00    -0.083 NA
ATOM     42  O   LIG d   1       4.237   0.638  -7.003  0.00  0.00    -0.353 OA
ATOM     43  C   LIG d   1       3.756   0.205  -8.184  0.00  0.00     0.183 A 
ATOM     44  C   LIG d   1       4.501  -0.894  -8.517  0.00  0.00     0.009 A 
ATOM     45  H   LIG d   1       4.415  -1.516  -9.397  0.00  0.00     0.068 H 
BRANCH  43  46
ATOM     46  C   LIG d   1       2.651   0.795  -8.961  0.00  0.00     0.110 C 
ATOM     47  O   LIG d   1       2.479   1.997  -8.957  0.00  0.00    -0.541 OA
ATOM     48  O   LIG d   1       1.833  -0.000  -9.679  0.00  0.00    -0.541 OA
ENDBRANCH  43  46
ENDBRANCH  37  40
ENDBRANCH   6  37
TORSDOF 9
ENDMDL
MODEL 9
REMARK VINA RESULT:      -5.3      3.610      6.938
REMARK  9 active torsions:
REMARK  status: ('A' for Active; 'I' for Inactive)
REMARK    1  A    between atoms: C_1  and  C_2 
REMARK    2  A    between atoms: C_2  and  C_3 
REMARK    3  A    between atoms: C_2  and  C_4 
REMARK    4  A    between atoms: C_2  and  N_5 
REMARK       I    between atoms: N_5  and  C_6 
REMARK    5  A    between atoms: C_6  and  C_8 
REMARK    6  A    between atoms: C_8  and  C_9 
REMARK    7  A    between atoms: C_14  and  C_16 
REMARK    8  A    between atoms: C_16  and  C_17 
REMARK    9  A    between atoms: C_19  and  C_22 
ROOT
ATOM      1  C   LIG d   1       3.977   0.904  -7.836  0.00  0.00    -0.020 C 
ATOM      2  H   LIG d   1       4.412   1.589  -7.107  0.00  0.00     0.031 H 
ATOM      3  C   LIG d   1       2.965   1.654  -8.705  0.00  0.00    -0.009 C 
ATOM      4  C   LIG d   1       2.404   0.701  -9.764  0.00  0.00    -0.033 C 
ATOM      5  C   LIG d   1       4.461  -0.579  -9.785  0.00  0.00    -0.030 C 
ATOM      6  C   LIG d   1       5.084   0.336  -8.728  0.00  0.00     0.008 C 
ATOM      7  H   LIG d   1       5.611   1.154  -9.219  0.00  0.00     0.036 H 
ATOM      8  H   LIG d   1       2.152   2.024  -8.081  0.00  0.00     0.032 H 
ATOM      9  H   LIG d   1       3.458   2.493  -9.197  0.00  0.00     0.032 H 
ATOM     10  H   LIG d   1       1.693   1.236 -10.393  0.00  0.00     0.081 H 
ATOM     11  H   LIG d   1       1.898  -0.130  -9.272  0.00  0.00     0.081 H 
ATOM     12  H   LIG d   1       5.245  -0.973 -10.432  0.00  0.00     0.082 H 
ATOM     13  H   LIG d   1       3.946  -1.404  -9.293  0.00  0.00     0.082 H 
ATOM     14  N   LIG d   1       3.501   0.188 -10.603  0.00  0.00     0.227 N 
ATOM     15  H   LIG d   1       3.988   0.978 -11.044  0.00  0.00     0.201 HD
ATOM     16  H   LIG d   1       3.114  -0.423 -11.331  0.00  0.00     0.201 HD
ENDROOT
BRANCH   1  17
ATOM     17  C   LIG d   1       3.273  -0.240  -7.103  0.00  0.00     0.027 C 
ATOM     18  H   LIG d   1       3.796  -1.176  -7.302  0.00  0.00     0.036 H 
ATOM     19  H   LIG d   1       2.244  -0.318  -7.455  0.00  0.00     0.036 H 
BRANCH  17  20
ATOM     20  C   LIG d   1       3.277   0.034  -5.622  0.00  0.00     0.214 C 
ATOM     21  N   LIG d   1       4.039  -0.715  -4.801  0.00  0.00    -0.310 N 
ATOM     22  H   LIG d   1       4.584  -1.432  -5.163  0.00  0.00     0.149 HD
ATOM     23  O   LIG d   1       2.596   0.929  -5.169  0.00  0.00    -0.276 OA
BRANCH  21  24
ATOM     24  C   LIG d   1       4.044  -0.449  -3.360  0.00  0.00     0.026 C 
BRANCH  24  25
ATOM     25  C   LIG d   1       2.661  -0.751  -2.780  0.00  0.00    -0.044 C 
ATOM     26  H   LIG d   1       2.110  -1.391  -3.470  0.00  0.00     0.025 H 
ATOM     27  H   LIG d   1       2.115   0.182  -2.636  0.00  0.00     0.025 H 
ATOM     28  H   LIG d   1       2.771  -1.259  -1.822  0.00  0.00     0.025 H 
ENDBRANCH  24  25
BRANCH  24  29
ATOM     29  C   LIG d   1       4.389   1.022  -3.114  0.00  0.00    -0.044 C 
ATOM     30  H   LIG d   1       3.638   1.655  -3.587  0.00  0.00     0.025 H 
ATOM     31  H   LIG d   1       4.406   1.217  -2.042  0.00  0.00     0.025 H 
ATOM     32  H   LIG d   1       5.369   1.241  -3.538  0.00  0.00     0.025 H 
ENDBRANCH  24  29
BRANCH  24  33
ATOM     33  C   LIG d   1       5.087  -1.336  -2.680  0.00  0.00    -0.044 C 
ATOM     34  H   LIG d   1       5.986  -0.753  -2.481  0.00  0.00     0.025 H 
ATOM     35  H   LIG d   1       4.685  -1.716  -1.741  0.00  0.00     0.025 H 
ATOM     36  H   LIG d   1       5.335  -2.172  -3.334  0.00  0.00     0.025 H 
ENDBRANCH  24  33
ENDBRANCH  21  24
ENDBRANCH  17  20
ENDBRANCH   1  17
BRANCH   6  37
ATOM     37  C   LIG d   1       6.068  -0.466  -7.874  0.00  0.00     0.001 C 
ATOM     38  H   LIG d   1       5.516  -1.149  -7.227  0.00  0.00     0.033 H 
ATOM     39  H   LIG d   1       6.731  -1.038  -8.524  0.00  0.00     0.033 H 
BRANCH  37  40
ATOM     40  C   LIG d   1       6.884   0.477  -7.030  0.00  0.00     0.085 A 
ATOM     41  N   LIG d   1       6.836   0.604  -5.735  0.00  0.00    -0.083 NA
ATOM     42  O   LIG d   1       7.610   1.439  -5.332  0.00  0.00    -0.353 OA
ATOM     43  C   LIG d   1       8.294   2.006  -6.344  0.00  0.00     0.183 A 
ATOM     44  C   LIG d   1       7.848   1.402  -7.489  0.00  0.00     0.009 A 
ATOM     45  H   LIG d   1       8.161   1.589  -8.506  0.00  0.00     0.068 H 
BRANCH  43  46
ATOM     46  C   LIG d   1       9.317   3.063  -6.241  0.00  0.00     0.110 C 
ATOM     47  O   LIG d   1       9.588   3.543  -5.159  0.00  0.00    -0.541 OA
ATOM     48  O   LIG d   1       9.952   3.495  -7.348  0.00  0.00    -0.541 OA
ENDBRANCH  43  46
ENDBRANCH  37  40
ENDBRANCH   6  37
TORSDOF 9
ENDMDL
