MODEL 1
REMARK VINA RESULT:      -6.1      0.000      0.000
REMARK  7 active torsions:
REMARK  status: ('A' for Active; 'I' for Inactive)
REMARK    1  A    between atoms: C_1  and  C_2 
REMARK    2  A    between atoms: C_2  and  C_3 
REMARK    3  A    between atoms: C_3  and  C_5 
REMARK    4  A    between atoms: C_3  and  N_6 
REMARK       I    between atoms: N_6  and  C_7 
REMARK    5  A    between atoms: C_7  and  C_9 
REMARK    6  A    between atoms: C_9  and  C_10 
REMARK    7  A    between atoms: C_9  and  C_14 
ROOT
ATOM      1  N   LIG d   1       4.007  -0.443  -5.174  0.00  0.00    -0.312 N 
ATOM      2  C   LIG d   1       5.073  -0.103  -4.424  0.00  0.00     0.234 C 
ATOM      3  O   LIG d   1       6.073   0.336  -4.954  0.00  0.00    -0.275 OA
ATOM      4  H   LIG d   1       3.208  -0.795  -4.750  0.00  0.00     0.149 HD
ENDROOT
BRANCH   1   5
ATOM      5  C   LIG d   1       4.053  -0.284  -6.630  0.00  0.00     0.020 C 
ATOM      6  H   LIG d   1       4.870   0.387  -6.895  0.00  0.00     0.050 H 
BRANCH   5   7
ATOM      7  C   LIG d   1       2.729   0.303  -7.121  0.00  0.00    -0.038 C 
ATOM      8  H   LIG d   1       2.216   0.788  -6.291  0.00  0.00     0.028 H 
ATOM      9  H   LIG d   1       2.103  -0.496  -7.518  0.00  0.00     0.028 H 
BRANCH   7  10
ATOM     10  C   LIG d   1       3.003   1.330  -8.222  0.00  0.00    -0.064 C 
ATOM     11  H   LIG d   1       2.072   1.572  -8.733  0.00  0.00     0.023 H 
ATOM     12  H   LIG d   1       3.713   0.915  -8.938  0.00  0.00     0.023 H 
ATOM     13  H   LIG d   1       3.420   2.234  -7.779  0.00  0.00     0.023 H 
ENDBRANCH   7  10
ENDBRANCH   5   7
BRANCH   5  14
ATOM     14  C   LIG d   1       4.281  -1.648  -7.284  0.00  0.00    -0.047 C 
ATOM     15  H   LIG d   1       3.484  -1.843  -8.004  0.00  0.00     0.025 H 
ATOM     16  H   LIG d   1       5.242  -1.650  -7.798  0.00  0.00     0.025 H 
ATOM     17  H   LIG d   1       4.276  -2.424  -6.519  0.00  0.00     0.025 H 
ENDBRANCH   5  14
ENDBRANCH   1   5
BRANCH   2  18
ATOM     18  C   LIG d   1       5.026  -0.267  -2.927  0.00  0.00     0.224 C 
ATOM     19  H   LIG d   1       6.039  -0.230  -2.525  0.00  0.00     0.057 H 
BRANCH  18  20
ATOM     20  C   LIG d   1       4.193   0.863  -2.317  0.00  0.00     0.409 C 
ATOM     21  F   LIG d   1       4.629   1.111  -1.011  0.00  0.00    -0.170 F 
ATOM     22  F   LIG d   1       4.342   2.020  -3.087  0.00  0.00    -0.170 F 
ATOM     23  F   LIG d   1       2.845   0.488  -2.295  0.00  0.00    -0.170 F 
ENDBRANCH  18  20
BRANCH  18  24
ATOM     24  C   LIG d   1       4.388  -1.615  -2.581  0.00  0.00     0.409 C 
ATOM     25  F   LIG d   1       5.078  -2.638  -3.239  0.00  0.00    -0.170 F 
ATOM     26  F   LIG d   1       4.456  -1.820  -1.199  0.00  0.00    -0.170 F 
ATOM     27  F   LIG d   1       3.051  -1.616  -2.988  0.00  0.00    -0.170 F 
ENDBRANCH  18  24
ENDBRANCH   2  18
TORSDOF 7
ENDMDL
MODEL 2
REMARK VINA RESULT:      -6.1      0.839      2.556
REMARK  7 active torsions:
REMARK  status: ('A' for Active; 'I' for Inactive)
REMARK    1  A    between atoms: C_1  and  C_2 
REMARK    2  A    between atoms: C_2  and  C_3 
REMARK    3  A    between atoms: C_3  and  C_5 
REMARK    4  A    between atoms: C_3  and  N_6 
REMARK       I    between atoms: N_6  and  C_7 
REMARK    5  A    between atoms: C_7  and  C_9 
REMARK    6  A    between atoms: C_9  and  C_10 
REMARK    7  A    between atoms: C_9  and  C_14 
ROOT
ATOM      1  N   LIG d   1       3.526  -0.577  -5.600  0.00  0.00    -0.312 N 
ATOM      2  C   LIG d   1       4.452  -0.197  -4.698  0.00  0.00     0.234 C 
ATOM      3  O   LIG d   1       5.536   0.200  -5.071  0.00  0.00    -0.275 OA
ATOM      4  H   LIG d   1       2.660  -0.895  -5.302  0.00  0.00     0.149 HD
ENDROOT
BRANCH   1   5
ATOM      5  C   LIG d   1       3.829  -0.512  -7.032  0.00  0.00     0.020 C 
ATOM      6  H   LIG d   1       4.689   0.138  -7.192  0.00  0.00     0.050 H 
BRANCH   5   7
ATOM      7  C   LIG d   1       2.620   0.047  -7.784  0.00  0.00    -0.038 C 
ATOM      8  H   LIG d   1       1.757   0.071  -7.118  0.00  0.00     0.028 H 
ATOM      9  H   LIG d   1       2.399  -0.588  -8.641  0.00  0.00     0.028 H 
BRANCH   7  10
ATOM     10  C   LIG d   1       2.931   1.465  -8.267  0.00  0.00    -0.064 C 
ATOM     11  H   LIG d   1       2.162   1.786  -8.970  0.00  0.00     0.023 H 
ATOM     12  H   LIG d   1       3.902   1.477  -8.761  0.00  0.00     0.023 H 
ATOM     13  H   LIG d   1       2.949   2.144  -7.414  0.00  0.00     0.023 H 
ENDBRANCH   7  10
ENDBRANCH   5   7
BRANCH   5  14
ATOM     14  C   LIG d   1       4.146  -1.916  -7.550  0.00  0.00    -0.047 C 
ATOM     15  H   LIG d   1       3.669  -2.062  -8.520  0.00  0.00     0.025 H 
ATOM     16  H   LIG d   1       5.225  -2.030  -7.656  0.00  0.00     0.025 H 
ATOM     17  H   LIG d   1       3.770  -2.658  -6.846  0.00  0.00     0.025 H 
ENDBRANCH   5  14
ENDBRANCH   1   5
BRANCH   2  18
ATOM     18  C   LIG d   1       4.142  -0.264  -3.225  0.00  0.00     0.224 C 
ATOM     19  H   LIG d   1       3.062  -0.319  -3.083  0.00  0.00     0.057 H 
BRANCH  18  20
ATOM     20  C   LIG d   1       4.799  -1.508  -2.621  0.00  0.00     0.409 C 
ATOM     21  F   LIG d   1       4.358  -2.646  -3.304  0.00  0.00    -0.170 F 
ATOM     22  F   LIG d   1       6.189  -1.403  -2.737  0.00  0.00    -0.170 F 
ATOM     23  F   LIG d   1       4.450  -1.610  -1.270  0.00  0.00    -0.170 F 
ENDBRANCH  18  20
BRANCH  18  24
ATOM     24  C   LIG d   1       4.685   0.987  -2.531  0.00  0.00     0.409 C 
ATOM     25  F   LIG d   1       6.062   1.085  -2.760  0.00  0.00    -0.170 F 
ATOM     26  F   LIG d   1       4.045   2.119  -3.045  0.00  0.00    -0.170 F 
ATOM     27  F   LIG d   1       4.446   0.899  -1.156  0.00  0.00    -0.170 F 
ENDBRANCH  18  24
ENDBRANCH   2  18
TORSDOF 7
ENDMDL
MODEL 3
REMARK VINA RESULT:      -6.0      1.256      2.730
REMARK  7 active torsions:
REMARK  status: ('A' for Active; 'I' for Inactive)
REMARK    1  A    between atoms: C_1  and  C_2 
REMARK    2  A    between atoms: C_2  and  C_3 
REMARK    3  A    between atoms: C_3  and  C_5 
REMARK    4  A    between atoms: C_3  and  N_6 
REMARK       I    between atoms: N_6  and  C_7 
REMARK    5  A    between atoms: C_7  and  C_9 
REMARK    6  A    between atoms: C_9  and  C_10 
REMARK    7  A    between atoms: C_9  and  C_14 
ROOT
ATOM      1  N   LIG d   1       2.906   0.047  -6.138  0.00  0.00    -0.312 N 
ATOM      2  C   LIG d   1       3.881  -0.097  -5.219  0.00  0.00     0.234 C 
ATOM      3  O   LIG d   1       5.045  -0.017  -5.550  0.00  0.00    -0.275 OA
ATOM      4  H   LIG d   1       1.976  -0.018  -5.874  0.00  0.00     0.149 HD
ENDROOT
BRANCH   1   5
ATOM      5  C   LIG d   1       3.253   0.299  -7.540  0.00  0.00     0.020 C 
ATOM      6  H   LIG d   1       4.332   0.214  -7.668  0.00  0.00     0.050 H 
BRANCH   5   7
ATOM      7  C   LIG d   1       2.802   1.708  -7.930  0.00  0.00    -0.038 C 
ATOM      8  H   LIG d   1       2.857   2.362  -7.060  0.00  0.00     0.028 H 
ATOM      9  H   LIG d   1       1.775   1.673  -8.293  0.00  0.00     0.028 H 
BRANCH   7  10
ATOM     10  C   LIG d   1       3.714   2.248  -9.034  0.00  0.00    -0.064 C 
ATOM     11  H   LIG d   1       3.648   1.601  -9.908  0.00  0.00     0.023 H 
ATOM     12  H   LIG d   1       4.744   2.271  -8.675  0.00  0.00     0.023 H 
ATOM     13  H   LIG d   1       3.401   3.256  -9.303  0.00  0.00     0.023 H 
ENDBRANCH   7  10
ENDBRANCH   5   7
BRANCH   5  14
ATOM     14  C   LIG d   1       2.550  -0.727  -8.431  0.00  0.00    -0.047 C 
ATOM     15  H   LIG d   1       1.483  -0.731  -8.207  0.00  0.00     0.025 H 
ATOM     16  H   LIG d   1       2.701  -0.463  -9.478  0.00  0.00     0.025 H 
ATOM     17  H   LIG d   1       2.965  -1.717  -8.242  0.00  0.00     0.025 H 
ENDBRANCH   5  14
ENDBRANCH   1   5
BRANCH   2  18
ATOM     18  C   LIG d   1       3.525  -0.357  -3.778  0.00  0.00     0.224 C 
ATOM     19  H   LIG d   1       2.440  -0.401  -3.673  0.00  0.00     0.057 H 
BRANCH  18  20
ATOM     20  C   LIG d   1       4.134  -1.690  -3.334  0.00  0.00     0.409 C 
ATOM     21  F   LIG d   1       5.459  -1.487  -2.934  0.00  0.00    -0.170 F 
ATOM     22  F   LIG d   1       3.397  -2.206  -2.264  0.00  0.00    -0.170 F 
ATOM     23  F   LIG d   1       4.102  -2.594  -4.401  0.00  0.00    -0.170 F 
ENDBRANCH  18  20
BRANCH  18  24
ATOM     24  C   LIG d   1       4.077   0.771  -2.904  0.00  0.00     0.409 C 
ATOM     25  F   LIG d   1       3.919   0.436  -1.555  0.00  0.00    -0.170 F 
ATOM     26  F   LIG d   1       5.435   0.955  -3.184  0.00  0.00    -0.170 F 
ATOM     27  F   LIG d   1       3.381   1.953  -3.175  0.00  0.00    -0.170 F 
ENDBRANCH  18  24
ENDBRANCH   2  18
TORSDOF 7
ENDMDL
MODEL 4
REMARK VINA RESULT:      -5.9      1.534      1.827
REMARK  7 active torsions:
REMARK  status: ('A' for Active; 'I' for Inactive)
REMARK    1  A    between atoms: C_1  and  C_2 
REMARK    2  A    between atoms: C_2  and  C_3 
REMARK    3  A    between atoms: C_3  and  C_5 
REMARK    4  A    between atoms: C_3  and  N_6 
REMARK       I    between atoms: N_6  and  C_7 
REMARK    5  A    between atoms: C_7  and  C_9 
REMARK    6  A    between atoms: C_9  and  C_10 
REMARK    7  A    between atoms: C_9  and  C_14 
ROOT
ATOM      1  N   LIG d   1       3.690   0.151  -6.220  0.00  0.00    -0.312 N 
ATOM      2  C   LIG d   1       3.244   0.099  -4.950  0.00  0.00     0.234 C 
ATOM      3  O   LIG d   1       2.057   0.202  -4.718  0.00  0.00    -0.275 OA
ATOM      4  H   LIG d   1       4.638   0.070  -6.406  0.00  0.00     0.149 HD
ENDROOT
BRANCH   1   5
ATOM      5  C   LIG d   1       2.742   0.333  -7.323  0.00  0.00     0.020 C 
ATOM      6  H   LIG d   1       1.727   0.372  -6.926  0.00  0.00     0.050 H 
BRANCH   5   7
ATOM      7  C   LIG d   1       2.864  -0.838  -8.299  0.00  0.00    -0.038 C 
ATOM      8  H   LIG d   1       2.625  -1.768  -7.783  0.00  0.00     0.028 H 
ATOM      9  H   LIG d   1       3.883  -0.887  -8.682  0.00  0.00     0.028 H 
BRANCH   7  10
ATOM     10  C   LIG d   1       1.891  -0.636  -9.463  0.00  0.00    -0.064 C 
ATOM     11  H   LIG d   1       1.139  -1.425  -9.449  0.00  0.00     0.023 H 
ATOM     12  H   LIG d   1       2.438  -0.673 -10.405  0.00  0.00     0.023 H 
ATOM     13  H   LIG d   1       1.403   0.334  -9.364  0.00  0.00     0.023 H 
ENDBRANCH   7  10
ENDBRANCH   5   7
BRANCH   5  14
ATOM     14  C   LIG d   1       3.054   1.641  -8.053  0.00  0.00    -0.047 C 
ATOM     15  H   LIG d   1       2.123   2.107  -8.379  0.00  0.00     0.025 H 
ATOM     16  H   LIG d   1       3.583   2.316  -7.380  0.00  0.00     0.025 H 
ATOM     17  H   LIG d   1       3.678   1.432  -8.922  0.00  0.00     0.025 H 
ENDBRANCH   5  14
ENDBRANCH   1   5
BRANCH   2  18
ATOM     18  C   LIG d   1       4.219  -0.088  -3.816  0.00  0.00     0.224 C 
ATOM     19  H   LIG d   1       5.238  -0.007  -4.196  0.00  0.00     0.057 H 
BRANCH  18  20
ATOM     20  C   LIG d   1       3.982   0.991  -2.757  0.00  0.00     0.409 C 
ATOM     21  F   LIG d   1       5.080   1.044  -1.891  0.00  0.00    -0.170 F 
ATOM     22  F   LIG d   1       3.821   2.231  -3.383  0.00  0.00    -0.170 F 
ATOM     23  F   LIG d   1       2.828   0.683  -2.028  0.00  0.00    -0.170 F 
ENDBRANCH  18  20
BRANCH  18  24
ATOM     24  C   LIG d   1       4.015  -1.470  -3.190  0.00  0.00     0.409 C 
ATOM     25  F   LIG d   1       4.129  -2.451  -4.181  0.00  0.00    -0.170 F 
ATOM     26  F   LIG d   1       4.988  -1.684  -2.208  0.00  0.00    -0.170 F 
ATOM     27  F   LIG d   1       2.745  -1.537  -2.612  0.00  0.00    -0.170 F 
ENDBRANCH  18  24
ENDBRANCH   2  18
TORSDOF 7
ENDMDL
MODEL 5
REMARK VINA RESULT:      -5.7      3.717      5.431
REMARK  7 active torsions:
REMARK  status: ('A' for Active; 'I' for Inactive)
REMARK    1  A    between atoms: C_1  and  C_2 
REMARK    2  A    between atoms: C_2  and  C_3 
REMARK    3  A    between atoms: C_3  and  C_5 
REMARK    4  A    between atoms: C_3  and  N_6 
REMARK       I    between atoms: N_6  and  C_7 
REMARK    5  A    between atoms: C_7  and  C_9 
REMARK    6  A    between atoms: C_9  and  C_10 
REMARK    7  A    between atoms: C_9  and  C_14 
ROOT
ATOM      1  N   LIG d   1       2.788  -0.020  -5.137  0.00  0.00    -0.312 N 
ATOM      2  C   LIG d   1       3.451   0.049  -6.308  0.00  0.00     0.234 C 
ATOM      3  O   LIG d   1       4.665   0.043  -6.319  0.00  0.00    -0.275 OA
ATOM      4  H   LIG d   1       1.818  -0.015  -5.128  0.00  0.00     0.149 HD
ENDROOT
BRANCH   1   5
ATOM      5  C   LIG d   1       3.531  -0.101  -3.877  0.00  0.00     0.020 C 
ATOM      6  H   LIG d   1       4.561  -0.396  -4.082  0.00  0.00     0.050 H 
BRANCH   5   7
ATOM      7  C   LIG d   1       2.875  -1.138  -2.964  0.00  0.00    -0.038 C 
ATOM      8  H   LIG d   1       2.157  -1.725  -3.537  0.00  0.00     0.028 H 
ATOM      9  H   LIG d   1       2.361  -0.630  -2.149  0.00  0.00     0.028 H 
BRANCH   7  10
ATOM     10  C   LIG d   1       3.949  -2.065  -2.391  0.00  0.00    -0.064 C 
ATOM     11  H   LIG d   1       4.919  -1.571  -2.440  0.00  0.00     0.023 H 
ATOM     12  H   LIG d   1       3.981  -2.987  -2.972  0.00  0.00     0.023 H 
ATOM     13  H   LIG d   1       3.711  -2.299  -1.353  0.00  0.00     0.023 H 
ENDBRANCH   7  10
ENDBRANCH   5   7
BRANCH   5  14
ATOM     14  C   LIG d   1       3.518   1.265  -3.189  0.00  0.00    -0.047 C 
ATOM     15  H   LIG d   1       2.489   1.549  -2.965  0.00  0.00     0.025 H 
ATOM     16  H   LIG d   1       4.091   1.212  -2.263  0.00  0.00     0.025 H 
ATOM     17  H   LIG d   1       3.963   2.009  -3.850  0.00  0.00     0.025 H 
ENDBRANCH   5  14
ENDBRANCH   1   5
BRANCH   2  18
ATOM     18  C   LIG d   1       2.687   0.132  -7.604  0.00  0.00     0.224 C 
ATOM     19  H   LIG d   1       1.617   0.072  -7.400  0.00  0.00     0.057 H 
BRANCH  18  20
ATOM     20  C   LIG d   1       3.000   1.461  -8.296  0.00  0.00     0.409 C 
ATOM     21  F   LIG d   1       2.527   2.518  -7.512  0.00  0.00    -0.170 F 
ATOM     22  F   LIG d   1       4.384   1.585  -8.461  0.00  0.00    -0.170 F 
ATOM     23  F   LIG d   1       2.377   1.493  -9.548  0.00  0.00    -0.170 F 
ENDBRANCH  18  20
BRANCH  18  24
ATOM     24  C   LIG d   1       3.099  -1.027  -8.515  0.00  0.00     0.409 C 
ATOM     25  F   LIG d   1       4.178  -0.631  -9.312  0.00  0.00    -0.170 F 
ATOM     26  F   LIG d   1       3.474  -2.123  -7.732  0.00  0.00    -0.170 F 
ATOM     27  F   LIG d   1       2.021  -1.383  -9.331  0.00  0.00    -0.170 F 
ENDBRANCH  18  24
ENDBRANCH   2  18
TORSDOF 7
ENDMDL
MODEL 6
REMARK VINA RESULT:      -5.6      1.492      2.148
REMARK  7 active torsions:
REMARK  status: ('A' for Active; 'I' for Inactive)
REMARK    1  A    between atoms: C_1  and  C_2 
REMARK    2  A    between atoms: C_2  and  C_3 
REMARK    3  A    between atoms: C_3  and  C_5 
REMARK    4  A    between atoms: C_3  and  N_6 
REMARK       I    between atoms: N_6  and  C_7 
REMARK    5  A    between atoms: C_7  and  C_9 
REMARK    6  A    between atoms: C_9  and  C_10 
REMARK    7  A    between atoms: C_9  and  C_14 
ROOT
ATOM      1  N   LIG d   1       5.774  -0.629  -5.276  0.00  0.00    -0.312 N 
ATOM      2  C   LIG d   1       4.767  -0.235  -4.471  0.00  0.00     0.234 C 
ATOM      3  O   LIG d   1       3.759   0.240  -4.950  0.00  0.00    -0.275 OA
ATOM      4  H   LIG d   1       6.581  -1.008  -4.894  0.00  0.00     0.149 HD
ENDROOT
BRANCH   1   5
ATOM      5  C   LIG d   1       5.652  -0.481  -6.729  0.00  0.00     0.020 C 
ATOM      6  H   LIG d   1       4.675  -0.061  -6.970  0.00  0.00     0.050 H 
BRANCH   5   7
ATOM      7  C   LIG d   1       5.798  -1.850  -7.394  0.00  0.00    -0.038 C 
ATOM      8  H   LIG d   1       6.657  -2.371  -6.971  0.00  0.00     0.028 H 
ATOM      9  H   LIG d   1       5.945  -1.719  -8.466  0.00  0.00     0.028 H 
BRANCH   7  10
ATOM     10  C   LIG d   1       4.532  -2.674  -7.150  0.00  0.00    -0.064 C 
ATOM     11  H   LIG d   1       3.710  -2.257  -7.731  0.00  0.00     0.023 H 
ATOM     12  H   LIG d   1       4.279  -2.645  -6.090  0.00  0.00     0.023 H 
ATOM     13  H   LIG d   1       4.706  -3.706  -7.454  0.00  0.00     0.023 H 
ENDBRANCH   7  10
ENDBRANCH   5   7
BRANCH   5  14
ATOM     14  C   LIG d   1       6.750   0.454  -7.240  0.00  0.00    -0.047 C 
ATOM     15  H   LIG d   1       6.723   0.484  -8.330  0.00  0.00     0.025 H 
ATOM     16  H   LIG d   1       6.586   1.457  -6.845  0.00  0.00     0.025 H 
ATOM     17  H   LIG d   1       7.722   0.088  -6.911  0.00  0.00     0.025 H 
ENDBRANCH   5  14
ENDBRANCH   1   5
BRANCH   2  18
ATOM     18  C   LIG d   1       4.893  -0.387  -2.977  0.00  0.00     0.224 C 
ATOM     19  H   LIG d   1       5.941  -0.531  -2.713  0.00  0.00     0.057 H 
BRANCH  18  20
ATOM     20  C   LIG d   1       4.363   0.875  -2.291  0.00  0.00     0.409 C 
ATOM     21  F   LIG d   1       4.801   0.902  -0.962  0.00  0.00    -0.170 F 
ATOM     22  F   LIG d   1       4.839   2.005  -2.962  0.00  0.00    -0.170 F 
ATOM     23  F   LIG d   1       2.965   0.869  -2.321  0.00  0.00    -0.170 F 
ENDBRANCH  18  20
BRANCH  18  24
ATOM     24  C   LIG d   1       4.079  -1.598  -2.517  0.00  0.00     0.409 C 
ATOM     25  F   LIG d   1       2.716  -1.335  -2.688  0.00  0.00    -0.170 F 
ATOM     26  F   LIG d   1       4.438  -2.716  -3.277  0.00  0.00    -0.170 F 
ATOM     27  F   LIG d   1       4.340  -1.849  -1.166  0.00  0.00    -0.170 F 
ENDBRANCH  18  24
ENDBRANCH   2  18
TORSDOF 7
ENDMDL
MODEL 7
REMARK VINA RESULT:      -5.3      2.147      3.804
REMARK  7 active torsions:
REMARK  status: ('A' for Active; 'I' for Inactive)
REMARK    1  A    between atoms: C_1  and  C_2 
REMARK    2  A    between atoms: C_2  and  C_3 
REMARK    3  A    between atoms: C_3  and  C_5 
REMARK    4  A    between atoms: C_3  and  N_6 
REMARK       I    between atoms: N_6  and  C_7 
REMARK    5  A    between atoms: C_7  and  C_9 
REMARK    6  A    between atoms: C_9  and  C_10 
REMARK    7  A    between atoms: C_9  and  C_14 
ROOT
ATOM      1  N   LIG d   1       6.192  -0.069  -3.975  0.00  0.00    -0.312 N 
ATOM      2  C   LIG d   1       5.052  -0.373  -4.626  0.00  0.00     0.234 C 
ATOM      3  O   LIG d   1       4.919  -0.066  -5.793  0.00  0.00    -0.275 OA
ATOM      4  H   LIG d   1       6.297  -0.313  -3.043  0.00  0.00     0.149 HD
ENDROOT
BRANCH   1   5
ATOM      5  C   LIG d   1       7.271   0.633  -4.675  0.00  0.00     0.020 C 
ATOM      6  H   LIG d   1       6.891   1.041  -5.612  0.00  0.00     0.050 H 
BRANCH   5   7
ATOM      7  C   LIG d   1       8.409  -0.347  -4.970  0.00  0.00    -0.038 C 
ATOM      8  H   LIG d   1       8.291  -1.237  -4.351  0.00  0.00     0.028 H 
ATOM      9  H   LIG d   1       9.363   0.128  -4.745  0.00  0.00     0.028 H 
BRANCH   7  10
ATOM     10  C   LIG d   1       8.371  -0.743  -6.447  0.00  0.00    -0.064 C 
ATOM     11  H   LIG d   1       7.482  -1.345  -6.639  0.00  0.00     0.023 H 
ATOM     12  H   LIG d   1       9.261  -1.323  -6.691  0.00  0.00     0.023 H 
ATOM     13  H   LIG d   1       8.342   0.155  -7.064  0.00  0.00     0.023 H 
ENDBRANCH   7  10
ENDBRANCH   5   7
BRANCH   5  14
ATOM     14  C   LIG d   1       7.793   1.771  -3.796  0.00  0.00    -0.047 C 
ATOM     15  H   LIG d   1       6.983   2.473  -3.592  0.00  0.00     0.025 H 
ATOM     16  H   LIG d   1       8.167   1.364  -2.857  0.00  0.00     0.025 H 
ATOM     17  H   LIG d   1       8.599   2.290  -4.314  0.00  0.00     0.025 H 
ENDBRANCH   5  14
ENDBRANCH   1   5
BRANCH   2  18
ATOM     18  C   LIG d   1       3.941  -1.094  -3.906  0.00  0.00     0.224 C 
ATOM     19  H   LIG d   1       3.560  -1.897  -4.538  0.00  0.00     0.057 H 
BRANCH  18  20
ATOM     20  C   LIG d   1       4.479  -1.683  -2.600  0.00  0.00     0.409 C 
ATOM     21  F   LIG d   1       3.619  -2.693  -2.155  0.00  0.00    -0.170 F 
ATOM     22  F   LIG d   1       5.753  -2.217  -2.819  0.00  0.00    -0.170 F 
ATOM     23  F   LIG d   1       4.556  -0.676  -1.632  0.00  0.00    -0.170 F 
ENDBRANCH  18  20
BRANCH  18  24
ATOM     24  C   LIG d   1       2.812  -0.109  -3.595  0.00  0.00     0.409 C 
ATOM     25  F   LIG d   1       3.358   1.115  -3.196  0.00  0.00    -0.170 F 
ATOM     26  F   LIG d   1       2.030   0.080  -4.740  0.00  0.00    -0.170 F 
ATOM     27  F   LIG d   1       2.016  -0.623  -2.567  0.00  0.00    -0.170 F 
ENDBRANCH  18  24
ENDBRANCH   2  18
TORSDOF 7
ENDMDL
MODEL 8
REMARK VINA RESULT:      -5.3      2.630      3.881
REMARK  7 active torsions:
REMARK  status: ('A' for Active; 'I' for Inactive)
REMARK    1  A    between atoms: C_1  and  C_2 
REMARK    2  A    between atoms: C_2  and  C_3 
REMARK    3  A    between atoms: C_3  and  C_5 
REMARK    4  A    between atoms: C_3  and  N_6 
REMARK       I    between atoms: N_6  and  C_7 
REMARK    5  A    between atoms: C_7  and  C_9 
REMARK    6  A    between atoms: C_9  and  C_10 
REMARK    7  A    between atoms: C_9  and  C_14 
ROOT
ATOM      1  N   LIG d   1       5.656  -1.348  -4.871  0.00  0.00    -0.312 N 
ATOM      2  C   LIG d   1       4.430  -1.247  -4.321  0.00  0.00     0.234 C 
ATOM      3  O   LIG d   1       3.782  -2.248  -4.095  0.00  0.00    -0.275 OA
ATOM      4  H   LIG d   1       6.173  -0.548  -5.053  0.00  0.00     0.149 HD
ENDROOT
BRANCH   1   5
ATOM      5  C   LIG d   1       6.207  -2.666  -5.198  0.00  0.00     0.020 C 
ATOM      6  H   LIG d   1       5.423  -3.419  -5.111  0.00  0.00     0.050 H 
BRANCH   5   7
ATOM      7  C   LIG d   1       7.343  -2.998  -4.228  0.00  0.00    -0.038 C 
ATOM      8  H   LIG d   1       6.943  -3.095  -3.219  0.00  0.00     0.028 H 
ATOM      9  H   LIG d   1       8.084  -2.200  -4.250  0.00  0.00     0.028 H 
BRANCH   7  10
ATOM     10  C   LIG d   1       8.000  -4.316  -4.644  0.00  0.00    -0.064 C 
ATOM     11  H   LIG d   1       7.433  -5.150  -4.231  0.00  0.00     0.023 H 
ATOM     12  H   LIG d   1       9.022  -4.348  -4.267  0.00  0.00     0.023 H 
ATOM     13  H   LIG d   1       8.012  -4.388  -5.732  0.00  0.00     0.023 H 
ENDBRANCH   7  10
ENDBRANCH   5   7
BRANCH   5  14
ATOM     14  C   LIG d   1       6.746  -2.652  -6.630  0.00  0.00    -0.047 C 
ATOM     15  H   LIG d   1       7.524  -3.411  -6.732  0.00  0.00     0.025 H 
ATOM     16  H   LIG d   1       5.936  -2.866  -7.326  0.00  0.00     0.025 H 
ATOM     17  H   LIG d   1       7.166  -1.671  -6.851  0.00  0.00     0.025 H 
ENDBRANCH   5  14
ENDBRANCH   1   5
BRANCH   2  18
ATOM     18  C   LIG d   1       3.863   0.108  -3.986  0.00  0.00     0.224 C 
ATOM     19  H   LIG d   1       4.625   0.871  -4.147  0.00  0.00     0.057 H 
BRANCH  18  20
ATOM     20  C   LIG d   1       2.658   0.393  -4.885  0.00  0.00     0.409 C 
ATOM     21  F   LIG d   1       2.380   1.764  -4.872  0.00  0.00    -0.170 F 
ATOM     22  F   LIG d   1       2.945  -0.013  -6.192  0.00  0.00    -0.170 F 
ATOM     23  F   LIG d   1       1.546  -0.312  -4.412  0.00  0.00    -0.170 F 
ENDBRANCH  18  20
BRANCH  18  24
ATOM     24  C   LIG d   1       3.422   0.128  -2.521  0.00  0.00     0.409 C 
ATOM     25  F   LIG d   1       3.186   1.449  -2.124  0.00  0.00    -0.170 F 
ATOM     26  F   LIG d   1       2.249  -0.619  -2.377  0.00  0.00    -0.170 F 
ATOM     27  F   LIG d   1       4.428  -0.426  -1.724  0.00  0.00    -0.170 F 
ENDBRANCH  18  24
ENDBRANCH   2  18
TORSDOF 7
ENDMDL
MODEL 9
REMARK VINA RESULT:      -5.2      1.738      2.628
REMARK  7 active torsions:
REMARK  status: ('A' for Active; 'I' for Inactive)
REMARK    1  A    between atoms: C_1  and  C_2 
REMARK    2  A    between atoms: C_2  and  C_3 
REMARK    3  A    between atoms: C_3  and  C_5 
REMARK    4  A    between atoms: C_3  and  N_6 
REMARK       I    between atoms: N_6  and  C_7 
REMARK    5  A    between atoms: C_7  and  C_9 
REMARK    6  A    between atoms: C_9  and  C_10 
REMARK    7  A    between atoms: C_9  and  C_14 
ROOT
ATOM      1  N   LIG d   1       5.294   0.051  -5.704  0.00  0.00    -0.312 N 
ATOM      2  C   LIG d   1       4.647  -0.732  -4.819  0.00  0.00     0.234 C 
ATOM      3  O   LIG d   1       4.183  -1.795  -5.175  0.00  0.00    -0.275 OA
ATOM      4  H   LIG d   1       5.664   0.901  -5.419  0.00  0.00     0.149 HD
ENDROOT
BRANCH   1   5
ATOM      5  C   LIG d   1       5.435  -0.379  -7.098  0.00  0.00     0.020 C 
ATOM      6  H   LIG d   1       5.280  -1.456  -7.162  0.00  0.00     0.050 H 
BRANCH   5   7
ATOM      7  C   LIG d   1       6.838  -0.033  -7.598  0.00  0.00    -0.038 C 
ATOM      8  H   LIG d   1       7.507   0.093  -6.747  0.00  0.00     0.028 H 
ATOM      9  H   LIG d   1       6.801   0.893  -8.171  0.00  0.00     0.028 H 
BRANCH   7  10
ATOM     10  C   LIG d   1       7.355  -1.164  -8.490  0.00  0.00    -0.064 C 
ATOM     11  H   LIG d   1       8.106  -0.772  -9.175  0.00  0.00     0.023 H 
ATOM     12  H   LIG d   1       6.526  -1.584  -9.061  0.00  0.00     0.023 H 
ATOM     13  H   LIG d   1       7.799  -1.942  -7.869  0.00  0.00     0.023 H 
ENDBRANCH   7  10
ENDBRANCH   5   7
BRANCH   5  14
ATOM     14  C   LIG d   1       4.394   0.339  -7.960  0.00  0.00    -0.047 C 
ATOM     15  H   LIG d   1       3.903   1.112  -7.368  0.00  0.00     0.025 H 
ATOM     16  H   LIG d   1       4.886   0.796  -8.818  0.00  0.00     0.025 H 
ATOM     17  H   LIG d   1       3.651  -0.379  -8.306  0.00  0.00     0.025 H 
ENDBRANCH   5  14
ENDBRANCH   1   5
BRANCH   2  18
ATOM     18  C   LIG d   1       4.502  -0.290  -3.385  0.00  0.00     0.224 C 
ATOM     19  H   LIG d   1       5.241   0.481  -3.166  0.00  0.00     0.057 H 
BRANCH  18  20
ATOM     20  C   LIG d   1       3.096   0.275  -3.166  0.00  0.00     0.409 C 
ATOM     21  F   LIG d   1       2.654   0.893  -4.341  0.00  0.00    -0.170 F 
ATOM     22  F   LIG d   1       2.224  -0.765  -2.828  0.00  0.00    -0.170 F 
ATOM     23  F   LIG d   1       3.127   1.213  -2.129  0.00  0.00    -0.170 F 
ENDBRANCH  18  20
BRANCH  18  24
ATOM     24  C   LIG d   1       4.721  -1.487  -2.457  0.00  0.00     0.409 C 
ATOM     25  F   LIG d   1       4.557  -1.082  -1.128  0.00  0.00    -0.170 F 
ATOM     26  F   LIG d   1       3.790  -2.486  -2.759  0.00  0.00    -0.170 F 
ATOM     27  F   LIG d   1       6.015  -1.985  -2.637  0.00  0.00    -0.170 F 
ENDBRANCH  18  24
ENDBRANCH   2  18
TORSDOF 7
ENDMDL
MODEL 10
REMARK VINA RESULT:      -5.2      2.287      3.298
REMARK  7 active torsions:
REMARK  status: ('A' for Active; 'I' for Inactive)
REMARK    1  A    between atoms: C_1  and  C_2 
REMARK    2  A    between atoms: C_2  and  C_3 
REMARK    3  A    between atoms: C_3  and  C_5 
REMARK    4  A    between atoms: C_3  and  N_6 
REMARK       I    between atoms: N_6  and  C_7 
REMARK    5  A    between atoms: C_7  and  C_9 
REMARK    6  A    between atoms: C_9  and  C_10 
REMARK    7  A    between atoms: C_9  and  C_14 
ROOT
ATOM      1  N   LIG d   1       7.068   0.006  -4.191  0.00  0.00    -0.312 N 
ATOM      2  C   LIG d   1       5.730  -0.086  -4.056  0.00  0.00     0.234 C 
ATOM      3  O   LIG d   1       5.008   0.112  -5.011  0.00  0.00    -0.275 OA
ATOM      4  H   LIG d   1       7.644  -0.152  -3.428  0.00  0.00     0.149 HD
ENDROOT
BRANCH   1   5
ATOM      5  C   LIG d   1       7.651   0.346  -5.492  0.00  0.00     0.020 C 
ATOM      6  H   LIG d   1       6.888   0.257  -6.266  0.00  0.00     0.050 H 
BRANCH   5   7
ATOM      7  C   LIG d   1       8.804  -0.611  -5.799  0.00  0.00    -0.038 C 
ATOM      8  H   LIG d   1       9.600  -0.468  -5.068  0.00  0.00     0.028 H 
ATOM      9  H   LIG d   1       9.188  -0.408  -6.798  0.00  0.00     0.028 H 
BRANCH   7  10
ATOM     10  C   LIG d   1       8.302  -2.055  -5.730  0.00  0.00    -0.064 C 
ATOM     11  H   LIG d   1       8.092  -2.317  -4.692  0.00  0.00     0.023 H 
ATOM     12  H   LIG d   1       9.065  -2.725  -6.126  0.00  0.00     0.023 H 
ATOM     13  H   LIG d   1       7.391  -2.151  -6.320  0.00  0.00     0.023 H 
ENDBRANCH   7  10
ENDBRANCH   5   7
BRANCH   5  14
ATOM     14  C   LIG d   1       8.176   1.782  -5.455  0.00  0.00    -0.047 C 
ATOM     15  H   LIG d   1       8.700   2.001  -6.386  0.00  0.00     0.025 H 
ATOM     16  H   LIG d   1       7.341   2.472  -5.337  0.00  0.00     0.025 H 
ATOM     17  H   LIG d   1       8.863   1.897  -4.616  0.00  0.00     0.025 H 
ENDBRANCH   5  14
ENDBRANCH   1   5
BRANCH   2  18
ATOM     18  C   LIG d   1       5.130  -0.435  -2.718  0.00  0.00     0.224 C 
ATOM     19  H   LIG d   1       5.927  -0.668  -2.011  0.00  0.00     0.057 H 
BRANCH  18  20
ATOM     20  C   LIG d   1       4.318   0.753  -2.198  0.00  0.00     0.409 C 
ATOM     21  F   LIG d   1       2.955   0.436  -2.231  0.00  0.00    -0.170 F 
ATOM     22  F   LIG d   1       4.699   1.038  -0.883  0.00  0.00    -0.170 F 
ATOM     23  F   LIG d   1       4.557   1.870  -3.005  0.00  0.00    -0.170 F 
ENDBRANCH  18  20
BRANCH  18  24
ATOM     24  C   LIG d   1       4.214  -1.652  -2.872  0.00  0.00     0.409 C 
ATOM     25  F   LIG d   1       3.067  -1.284  -3.583  0.00  0.00    -0.170 F 
ATOM     26  F   LIG d   1       4.891  -2.659  -3.567  0.00  0.00    -0.170 F 
ATOM     27  F   LIG d   1       3.847  -2.122  -1.607  0.00  0.00    -0.170 F 
ENDBRANCH  18  24
ENDBRANCH   2  18
TORSDOF 7
ENDMDL
