MODEL 1
REMARK VINA RESULT:      -6.3      0.000      0.000
REMARK  9 active torsions:
REMARK  status: ('A' for Active; 'I' for Inactive)
REMARK    1  A    between atoms: C_1  and  C_2 
REMARK    2  A    between atoms: C_12  and  C_13 
REMARK    3  A    between atoms: C_13  and  C_14 
REMARK       I    between atoms: C_14  and  N_16 
REMARK    4  A    between atoms: N_16  and  C_17 
REMARK    5  A    between atoms: C_17  and  C_19 
REMARK    6  A    between atoms: C_17  and  C_22 
REMARK    7  A    between atoms: C_19  and  S_20 
REMARK    8  A    between atoms: S_20  and  C_21 
REMARK    9  A    between atoms: C_26  and  C_27 
ROOT
ATOM      1  C   UNK d   0       5.737  -6.526  -6.273  0.00  0.00    -0.029 A 
ATOM      2  C   UNK d   0       6.430  -5.444  -5.566  0.00  0.00     0.022 A 
ATOM      3  C   UNK d   0       5.757  -4.272  -5.218  0.00  0.00    -0.040 A 
ATOM      4  C   UNK d   0       6.441  -3.270  -4.551  0.00  0.00     0.029 A 
ATOM      5  C   UNK d   0       7.803  -3.427  -4.224  0.00  0.00     0.139 A 
ATOM      6  C   UNK d   0       8.466  -4.594  -4.572  0.00  0.00     0.024 A 
ATOM      7  C   UNK d   0       7.792  -5.603  -5.240  0.00  0.00     0.143 A 
ATOM      8  O   UNK d   0       8.433  -6.743  -5.581  0.00  0.00    -0.422 OA
ATOM      9  C   UNK d   0       7.804  -7.736  -6.227  0.00  0.00     0.341 A 
ATOM     10  O   UNK d   0       8.423  -8.744  -6.514  0.00  0.00    -0.245 OA
ATOM     11  C   UNK d   0       6.440  -7.645  -6.580  0.00  0.00     0.049 A 
ATOM     12  O   UNK d   0       8.196  -2.304  -3.586  0.00  0.00    -0.462 OA
ATOM     13  C   UNK d   0       7.184  -1.428  -3.476  0.00  0.00     0.101 A 
ATOM     14  C   UNK d   0       6.066  -1.936  -4.042  0.00  0.00     0.028 A 
ATOM     15  H   UNK d   0       4.713  -4.148  -5.468  0.00  0.00     0.063 H 
ATOM     16  H   UNK d   0       9.509  -4.717  -4.322  0.00  0.00     0.069 H 
ATOM     17  H   UNK d   0       7.253  -0.458  -3.004  0.00  0.00     0.104 H 
ENDROOT
BRANCH  11  18
ATOM     18  C   UNK d   0       5.768  -8.786  -7.299  0.00  0.00     0.056 C 
ATOM     19  H   UNK d   0       4.857  -8.428  -7.778  0.00  0.00     0.041 H 
ATOM     20  H   UNK d   0       6.443  -9.187  -8.056  0.00  0.00     0.041 H 
BRANCH  18  21
ATOM     21  C   UNK d   0       5.423  -9.870  -6.310  0.00  0.00     0.218 C 
ATOM     22  O   UNK d   0       5.447 -11.033  -6.653  0.00  0.00    -0.275 OA
ATOM     23  N   UNK d   1       5.087  -9.547  -5.046  0.00  0.00    -0.306 N 
ATOM     24  H   UNK d   1       5.068  -8.617  -4.772  0.00  0.00     0.149 HD
BRANCH  23  25
ATOM     25  C   UNK d   1       4.752 -10.601  -4.085  0.00  0.00     0.071 C 
ATOM     26  H   UNK d   1       5.079 -11.565  -4.474  0.00  0.00     0.057 H 
BRANCH  25  27
ATOM     27  C   UNK d   1       5.458 -10.321  -2.756  0.00  0.00     0.017 C 
ATOM     28  H   UNK d   1       4.898  -9.572  -2.197  0.00  0.00     0.040 H 
ATOM     29  H   UNK d   1       5.515 -11.242  -2.175  0.00  0.00     0.040 H 
BRANCH  27  30
ATOM     30  S   UNK d   1       7.134  -9.708  -3.079  0.00  0.00    -0.162 SA
BRANCH  30  31
ATOM     31  C   UNK d   1       8.020 -11.161  -3.705  0.00  0.00    -0.018 C 
ATOM     32  H   UNK d   1       8.689 -10.860  -4.511  0.00  0.00     0.034 H 
ATOM     33  H   UNK d   1       8.603 -11.607  -2.899  0.00  0.00     0.034 H 
ATOM     34  H   UNK d   1       7.303 -11.890  -4.082  0.00  0.00     0.034 H 
ENDBRANCH  30  31
ENDBRANCH  27  30
ENDBRANCH  25  27
BRANCH  25  35
ATOM     35  C   UNK d   1       3.262 -10.625  -3.866  0.00  0.00     0.063 C 
ATOM     36  O   UNK d   1       2.583 -11.459  -4.418  0.00  0.00    -0.548 OA
ATOM     37  O   UNK d   1       2.687  -9.720  -3.058  0.00  0.00    -0.548 OA
ENDBRANCH  25  35
ENDBRANCH  23  25
ENDBRANCH  18  21
ENDBRANCH  11  18
BRANCH   1  38
ATOM     38  C   UNK d   0       4.281  -6.401  -6.643  0.00  0.00    -0.038 C 
ATOM     39  H   UNK d   0       4.151  -6.653  -7.695  0.00  0.00     0.028 H 
ATOM     40  H   UNK d   0       3.690  -7.080  -6.030  0.00  0.00     0.028 H 
ATOM     41  H   UNK d   0       3.950  -5.376  -6.472  0.00  0.00     0.028 H 
ENDBRANCH   1  38
BRANCH  14  42
ATOM     42  C   UNK d   0       4.736  -1.287  -4.130  0.00  0.00    -0.014 A 
ATOM     43  C   UNK d   0       3.823  -1.416  -3.084  0.00  0.00    -0.054 A 
ATOM     44  C   UNK d   0       2.587  -0.810  -3.173  0.00  0.00    -0.061 A 
ATOM     45  H   UNK d   0       4.083  -1.989  -2.206  0.00  0.00     0.062 H 
ATOM     46  C   UNK d   0       2.252  -0.075  -4.297  0.00  0.00    -0.062 A 
ATOM     47  H   UNK d   0       1.879  -0.908  -2.363  0.00  0.00     0.062 H 
ATOM     48  C   UNK d   0       3.153   0.055  -5.338  0.00  0.00    -0.061 A 
ATOM     49  H   UNK d   0       1.283   0.396  -4.362  0.00  0.00     0.062 H 
ATOM     50  C   UNK d   0       4.395  -0.542  -5.258  0.00  0.00    -0.054 A 
ATOM     51  H   UNK d   0       2.887   0.630  -6.212  0.00  0.00     0.062 H 
ATOM     52  H   UNK d   0       5.100  -0.436  -6.069  0.00  0.00     0.062 H 
ENDBRANCH  14  42
TORSDOF 9
ENDMDL
MODEL 2
REMARK VINA RESULT:      -6.2      6.337      8.951
REMARK  9 active torsions:
REMARK  status: ('A' for Active; 'I' for Inactive)
REMARK    1  A    between atoms: C_1  and  C_2 
REMARK    2  A    between atoms: C_12  and  C_13 
REMARK    3  A    between atoms: C_13  and  C_14 
REMARK       I    between atoms: C_14  and  N_16 
REMARK    4  A    between atoms: N_16  and  C_17 
REMARK    5  A    between atoms: C_17  and  C_19 
REMARK    6  A    between atoms: C_17  and  C_22 
REMARK    7  A    between atoms: C_19  and  S_20 
REMARK    8  A    between atoms: S_20  and  C_21 
REMARK    9  A    between atoms: C_26  and  C_27 
ROOT
ATOM      1  C   UNK d   0       6.537   0.588  -3.954  0.00  0.00    -0.029 A 
ATOM      2  C   UNK d   0       7.945   0.894  -4.227  0.00  0.00     0.022 A 
ATOM      3  C   UNK d   0       8.542   2.040  -3.699  0.00  0.00    -0.040 A 
ATOM      4  C   UNK d   0       9.874   2.300  -3.977  0.00  0.00     0.029 A 
ATOM      5  C   UNK d   0      10.623   1.420  -4.782  0.00  0.00     0.139 A 
ATOM      6  C   UNK d   0      10.024   0.283  -5.304  0.00  0.00     0.024 A 
ATOM      7  C   UNK d   0       8.693   0.012  -5.033  0.00  0.00     0.143 A 
ATOM      8  O   UNK d   0       8.105  -1.095  -5.538  0.00  0.00    -0.422 OA
ATOM      9  C   UNK d   0       6.818  -1.380  -5.292  0.00  0.00     0.341 A 
ATOM     10  O   UNK d   0       6.331  -2.389  -5.768  0.00  0.00    -0.245 OA
ATOM     11  C   UNK d   0       6.012  -0.544  -4.489  0.00  0.00     0.049 A 
ATOM     12  O   UNK d   0      11.871   1.925  -4.877  0.00  0.00    -0.462 OA
ATOM     13  C   UNK d   0      11.985   3.072  -4.189  0.00  0.00     0.101 A 
ATOM     14  C   UNK d   0      10.806   3.381  -3.603  0.00  0.00     0.028 A 
ATOM     15  H   UNK d   0       7.970   2.718  -3.082  0.00  0.00     0.063 H 
ATOM     16  H   UNK d   0      10.596  -0.394  -5.921  0.00  0.00     0.069 H 
ATOM     17  H   UNK d   0      12.887   3.662  -4.114  0.00  0.00     0.104 H 
ENDROOT
BRANCH  11  18
ATOM     18  C   UNK d   0       4.572  -0.904  -4.229  0.00  0.00     0.056 C 
ATOM     19  H   UNK d   0       4.457  -1.987  -4.259  0.00  0.00     0.041 H 
ATOM     20  H   UNK d   0       4.276  -0.533  -3.248  0.00  0.00     0.041 H 
BRANCH  18  21
ATOM     21  C   UNK d   0       3.699  -0.278  -5.287  0.00  0.00     0.218 C 
ATOM     22  O   UNK d   0       2.951   0.631  -4.996  0.00  0.00    -0.275 OA
ATOM     23  N   UNK d   1       3.750  -0.728  -6.556  0.00  0.00    -0.306 N 
ATOM     24  H   UNK d   1       4.348  -1.455  -6.789  0.00  0.00     0.149 HD
BRANCH  23  25
ATOM     25  C   UNK d   1       2.902  -0.119  -7.584  0.00  0.00     0.071 C 
ATOM     26  H   UNK d   1       1.978   0.236  -7.130  0.00  0.00     0.057 H 
BRANCH  25  27
ATOM     27  C   UNK d   1       3.641   1.058  -8.222  0.00  0.00     0.017 C 
ATOM     28  H   UNK d   1       3.166   1.318  -9.168  0.00  0.00     0.040 H 
ATOM     29  H   UNK d   1       3.607   1.917  -7.550  0.00  0.00     0.040 H 
BRANCH  27  30
ATOM     30  S   UNK d   1       5.369   0.596  -8.522  0.00  0.00    -0.162 SA
BRANCH  30  31
ATOM     31  C   UNK d   1       5.474   0.432 -10.325  0.00  0.00    -0.018 C 
ATOM     32  H   UNK d   1       4.480   0.248 -10.732  0.00  0.00     0.034 H 
ATOM     33  H   UNK d   1       5.875   1.353 -10.751  0.00  0.00     0.034 H 
ATOM     34  H   UNK d   1       6.130  -0.401 -10.577  0.00  0.00     0.034 H 
ENDBRANCH  30  31
ENDBRANCH  27  30
ENDBRANCH  25  27
BRANCH  25  35
ATOM     35  C   UNK d   1       2.582  -1.143  -8.641  0.00  0.00     0.063 C 
ATOM     36  O   UNK d   1       1.759  -0.898  -9.492  0.00  0.00    -0.548 OA
ATOM     37  O   UNK d   1       3.211  -2.329  -8.639  0.00  0.00    -0.548 OA
ENDBRANCH  25  35
ENDBRANCH  23  25
ENDBRANCH  18  21
ENDBRANCH  11  18
BRANCH   1  38
ATOM     38  C   UNK d   0       5.698   1.501  -3.099  0.00  0.00    -0.038 C 
ATOM     39  H   UNK d   0       5.050   0.905  -2.457  0.00  0.00     0.028 H 
ATOM     40  H   UNK d   0       6.349   2.122  -2.483  0.00  0.00     0.028 H 
ATOM     41  H   UNK d   0       5.088   2.139  -3.739  0.00  0.00     0.028 H 
ENDBRANCH   1  38
BRANCH  14  42
ATOM     42  C   UNK d   0      10.512   4.563  -2.757  0.00  0.00    -0.014 A 
ATOM     43  C   UNK d   0      11.057   4.661  -1.477  0.00  0.00    -0.054 A 
ATOM     44  C   UNK d   0      10.779   5.763  -0.695  0.00  0.00    -0.061 A 
ATOM     45  H   UNK d   0      11.695   3.875  -1.099  0.00  0.00     0.062 H 
ATOM     46  C   UNK d   0       9.962   6.770  -1.178  0.00  0.00    -0.062 A 
ATOM     47  H   UNK d   0      11.200   5.840   0.297  0.00  0.00     0.062 H 
ATOM     48  C   UNK d   0       9.419   6.678  -2.447  0.00  0.00    -0.061 A 
ATOM     49  H   UNK d   0       9.747   7.629  -0.562  0.00  0.00     0.062 H 
ATOM     50  C   UNK d   0       9.694   5.582  -3.241  0.00  0.00    -0.054 A 
ATOM     51  H   UNK d   0       8.782   7.466  -2.819  0.00  0.00     0.062 H 
ATOM     52  H   UNK d   0       9.273   5.514  -4.232  0.00  0.00     0.062 H 
ENDBRANCH  14  42
TORSDOF 9
ENDMDL
MODEL 3
REMARK VINA RESULT:      -6.1      6.295      9.407
REMARK  9 active torsions:
REMARK  status: ('A' for Active; 'I' for Inactive)
REMARK    1  A    between atoms: C_1  and  C_2 
REMARK    2  A    between atoms: C_12  and  C_13 
REMARK    3  A    between atoms: C_13  and  C_14 
REMARK       I    between atoms: C_14  and  N_16 
REMARK    4  A    between atoms: N_16  and  C_17 
REMARK    5  A    between atoms: C_17  and  C_19 
REMARK    6  A    between atoms: C_17  and  C_22 
REMARK    7  A    between atoms: C_19  and  S_20 
REMARK    8  A    between atoms: S_20  and  C_21 
REMARK    9  A    between atoms: C_26  and  C_27 
ROOT
ATOM      1  C   UNK d   0       7.834   0.752  -5.310  0.00  0.00    -0.029 A 
ATOM      2  C   UNK d   0       8.467   1.963  -5.844  0.00  0.00     0.022 A 
ATOM      3  C   UNK d   0       8.902   2.976  -4.989  0.00  0.00    -0.040 A 
ATOM      4  C   UNK d   0       9.496   4.107  -5.526  0.00  0.00     0.029 A 
ATOM      5  C   UNK d   0       9.661   4.237  -6.919  0.00  0.00     0.139 A 
ATOM      6  C   UNK d   0       9.225   3.225  -7.763  0.00  0.00     0.024 A 
ATOM      7  C   UNK d   0       8.630   2.091  -7.237  0.00  0.00     0.143 A 
ATOM      8  O   UNK d   0       8.205   1.102  -8.055  0.00  0.00    -0.422 OA
ATOM      9  C   UNK d   0       7.626  -0.007  -7.572  0.00  0.00     0.341 A 
ATOM     10  O   UNK d   0       7.259  -0.871  -8.348  0.00  0.00    -0.245 OA
ATOM     11  C   UNK d   0       7.435  -0.203  -6.188  0.00  0.00     0.049 A 
ATOM     12  O   UNK d   0      10.260   5.425  -7.144  0.00  0.00    -0.462 OA
ATOM     13  C   UNK d   0      10.496   6.077  -5.994  0.00  0.00     0.101 A 
ATOM     14  C   UNK d   0      10.059   5.342  -4.946  0.00  0.00     0.028 A 
ATOM     15  H   UNK d   0       8.777   2.881  -3.920  0.00  0.00     0.063 H 
ATOM     16  H   UNK d   0       9.351   3.323  -8.831  0.00  0.00     0.069 H 
ATOM     17  H   UNK d   0      10.967   7.046  -5.917  0.00  0.00     0.104 H 
ENDROOT
BRANCH  11  18
ATOM     18  C   UNK d   0       6.787  -1.468  -5.685  0.00  0.00     0.056 C 
ATOM     19  H   UNK d   0       7.202  -2.324  -6.215  0.00  0.00     0.041 H 
ATOM     20  H   UNK d   0       6.977  -1.574  -4.617  0.00  0.00     0.041 H 
BRANCH  18  21
ATOM     21  C   UNK d   0       5.300  -1.400  -5.926  0.00  0.00     0.218 C 
ATOM     22  O   UNK d   0       4.703  -2.384  -6.305  0.00  0.00    -0.275 OA
ATOM     23  N   UNK d   1       4.637  -0.246  -5.719  0.00  0.00    -0.306 N 
ATOM     24  H   UNK d   1       5.115   0.541  -5.416  0.00  0.00     0.149 HD
BRANCH  23  25
ATOM     25  C   UNK d   1       3.191  -0.181  -5.953  0.00  0.00     0.071 C 
ATOM     26  H   UNK d   1       2.776  -1.188  -5.950  0.00  0.00     0.057 H 
BRANCH  25  27
ATOM     27  C   UNK d   1       2.533   0.646  -4.846  0.00  0.00     0.017 C 
ATOM     28  H   UNK d   1       2.910   1.667  -4.881  0.00  0.00     0.040 H 
ATOM     29  H   UNK d   1       1.452   0.652  -4.992  0.00  0.00     0.040 H 
BRANCH  27  30
ATOM     30  S   UNK d   1       2.921  -0.087  -3.233  0.00  0.00    -0.162 SA
BRANCH  30  31
ATOM     31  C   UNK d   1       3.910   1.185  -2.400  0.00  0.00    -0.018 C 
ATOM     32  H   UNK d   1       3.438   2.159  -2.534  0.00  0.00     0.034 H 
ATOM     33  H   UNK d   1       3.973   0.957  -1.335  0.00  0.00     0.034 H 
ATOM     34  H   UNK d   1       4.912   1.205  -2.828  0.00  0.00     0.034 H 
ENDBRANCH  30  31
ENDBRANCH  27  30
ENDBRANCH  25  27
BRANCH  25  35
ATOM     35  C   UNK d   1       2.928   0.467  -7.287  0.00  0.00     0.063 C 
ATOM     36  O   UNK d   1       2.473  -0.185  -8.198  0.00  0.00    -0.548 OA
ATOM     37  O   UNK d   1       3.197   1.771  -7.466  0.00  0.00    -0.548 OA
ENDBRANCH  25  35
ENDBRANCH  23  25
ENDBRANCH  18  21
ENDBRANCH  11  18
BRANCH   1  38
ATOM     38  C   UNK d   0       7.637   0.571  -3.826  0.00  0.00    -0.038 C 
ATOM     39  H   UNK d   0       8.450   1.057  -3.290  0.00  0.00     0.028 H 
ATOM     40  H   UNK d   0       6.687   1.017  -3.529  0.00  0.00     0.028 H 
ATOM     41  H   UNK d   0       7.629  -0.493  -3.589  0.00  0.00     0.028 H 
ENDBRANCH   1  38
BRANCH  14  42
ATOM     42  C   UNK d   0      10.133   5.703  -3.510  0.00  0.00    -0.014 A 
ATOM     43  C   UNK d   0       9.440   6.813  -3.031  0.00  0.00    -0.054 A 
ATOM     44  C   UNK d   0       9.514   7.144  -1.693  0.00  0.00    -0.061 A 
ATOM     45  H   UNK d   0       8.847   7.414  -3.705  0.00  0.00     0.062 H 
ATOM     46  C   UNK d   0      10.273   6.376  -0.828  0.00  0.00    -0.062 A 
ATOM     47  H   UNK d   0       8.977   8.005  -1.320  0.00  0.00     0.062 H 
ATOM     48  C   UNK d   0      10.962   5.273  -1.298  0.00  0.00    -0.061 A 
ATOM     49  H   UNK d   0      10.327   6.640   0.217  0.00  0.00     0.062 H 
ATOM     50  C   UNK d   0      10.892   4.930  -2.633  0.00  0.00    -0.054 A 
ATOM     51  H   UNK d   0      11.553   4.677  -0.619  0.00  0.00     0.062 H 
ATOM     52  H   UNK d   0      11.428   4.066  -2.998  0.00  0.00     0.062 H 
ENDBRANCH  14  42
TORSDOF 9
ENDMDL
MODEL 4
REMARK VINA RESULT:      -6.1      3.927      5.476
REMARK  9 active torsions:
REMARK  status: ('A' for Active; 'I' for Inactive)
REMARK    1  A    between atoms: C_1  and  C_2 
REMARK    2  A    between atoms: C_12  and  C_13 
REMARK    3  A    between atoms: C_13  and  C_14 
REMARK       I    between atoms: C_14  and  N_16 
REMARK    4  A    between atoms: N_16  and  C_17 
REMARK    5  A    between atoms: C_17  and  C_19 
REMARK    6  A    between atoms: C_17  and  C_22 
REMARK    7  A    between atoms: C_19  and  S_20 
REMARK    8  A    between atoms: S_20  and  C_21 
REMARK    9  A    between atoms: C_26  and  C_27 
ROOT
ATOM      1  C   UNK d   0       9.499  -4.891  -3.271  0.00  0.00    -0.029 A 
ATOM      2  C   UNK d   0       8.463  -4.471  -4.220  0.00  0.00     0.022 A 
ATOM      3  C   UNK d   0       7.593  -3.425  -3.909  0.00  0.00    -0.040 A 
ATOM      4  C   UNK d   0       6.625  -3.053  -4.828  0.00  0.00     0.029 A 
ATOM      5  C   UNK d   0       6.517  -3.720  -6.065  0.00  0.00     0.139 A 
ATOM      6  C   UNK d   0       7.386  -4.758  -6.367  0.00  0.00     0.024 A 
ATOM      7  C   UNK d   0       8.357  -5.139  -5.456  0.00  0.00     0.143 A 
ATOM      8  O   UNK d   0       9.206  -6.150  -5.746  0.00  0.00    -0.422 OA
ATOM      9  C   UNK d   0      10.155  -6.539  -4.882  0.00  0.00     0.341 A 
ATOM     10  O   UNK d   0      10.897  -7.454  -5.187  0.00  0.00    -0.245 OA
ATOM     11  C   UNK d   0      10.321  -5.910  -3.629  0.00  0.00     0.049 A 
ATOM     12  O   UNK d   0       5.500  -3.148  -6.742  0.00  0.00    -0.462 OA
ATOM     13  C   UNK d   0       4.939  -2.156  -6.032  0.00  0.00     0.101 A 
ATOM     14  C   UNK d   0       5.566  -2.025  -4.841  0.00  0.00     0.028 A 
ATOM     15  H   UNK d   0       7.672  -2.912  -2.962  0.00  0.00     0.063 H 
ATOM     16  H   UNK d   0       7.305  -5.270  -7.314  0.00  0.00     0.069 H 
ATOM     17  H   UNK d   0       4.108  -1.550  -6.364  0.00  0.00     0.104 H 
ENDROOT
BRANCH  11  18
ATOM     18  C   UNK d   0      11.406  -6.372  -2.689  0.00  0.00     0.056 C 
ATOM     19  H   UNK d   0      12.193  -6.867  -3.258  0.00  0.00     0.041 H 
ATOM     20  H   UNK d   0      11.822  -5.512  -2.164  0.00  0.00     0.041 H 
BRANCH  18  21
ATOM     21  C   UNK d   0      10.825  -7.338  -1.689  0.00  0.00     0.218 C 
ATOM     22  O   UNK d   0       9.724  -7.813  -1.872  0.00  0.00    -0.275 OA
ATOM     23  N   UNK d   1      11.529  -7.675  -0.591  0.00  0.00    -0.306 N 
ATOM     24  H   UNK d   1      12.409  -7.296  -0.444  0.00  0.00     0.149 HD
BRANCH  23  25
ATOM     25  C   UNK d   1      10.964  -8.615   0.382  0.00  0.00     0.071 C 
ATOM     26  H   UNK d   1       9.877  -8.541   0.370  0.00  0.00     0.057 H 
BRANCH  25  27
ATOM     27  C   UNK d   1      11.383 -10.040   0.015  0.00  0.00     0.017 C 
ATOM     28  H   UNK d   1      11.724 -10.065  -1.020  0.00  0.00     0.040 H 
ATOM     29  H   UNK d   1      12.192 -10.362   0.672  0.00  0.00     0.040 H 
BRANCH  27  30
ATOM     30  S   UNK d   1       9.966 -11.156   0.211  0.00  0.00    -0.162 SA
BRANCH  30  31
ATOM     31  C   UNK d   1       9.308 -11.328  -1.471  0.00  0.00    -0.018 C 
ATOM     32  H   UNK d   1       9.937 -12.013  -2.039  0.00  0.00     0.034 H 
ATOM     33  H   UNK d   1       8.293 -11.724  -1.424  0.00  0.00     0.034 H 
ATOM     34  H   UNK d   1       9.297 -10.354  -1.959  0.00  0.00     0.034 H 
ENDBRANCH  30  31
ENDBRANCH  27  30
ENDBRANCH  25  27
BRANCH  25  35
ATOM     35  C   UNK d   1      11.476  -8.280   1.759  0.00  0.00     0.063 C 
ATOM     36  O   UNK d   1      12.619  -7.918   1.908  0.00  0.00    -0.548 OA
ATOM     37  O   UNK d   1      10.662  -8.383   2.821  0.00  0.00    -0.548 OA
ENDBRANCH  25  35
ENDBRANCH  23  25
ENDBRANCH  18  21
ENDBRANCH  11  18
BRANCH   1  38
ATOM     38  C   UNK d   0       9.651  -4.207  -1.936  0.00  0.00    -0.038 C 
ATOM     39  H   UNK d   0       9.704  -4.957  -1.148  0.00  0.00     0.028 H 
ATOM     40  H   UNK d   0      10.564  -3.612  -1.935  0.00  0.00     0.028 H 
ATOM     41  H   UNK d   0       8.793  -3.557  -1.763  0.00  0.00     0.028 H 
ENDBRANCH   1  38
BRANCH  14  42
ATOM     42  C   UNK d   0       5.254  -1.049  -3.770  0.00  0.00    -0.014 A 
ATOM     43  C   UNK d   0       5.634   0.285  -3.905  0.00  0.00    -0.054 A 
ATOM     44  C   UNK d   0       5.340   1.188  -2.904  0.00  0.00    -0.061 A 
ATOM     45  H   UNK d   0       6.157   0.611  -4.792  0.00  0.00     0.062 H 
ATOM     46  C   UNK d   0       4.670   0.771  -1.767  0.00  0.00    -0.062 A 
ATOM     47  H   UNK d   0       5.634   2.222  -3.008  0.00  0.00     0.062 H 
ATOM     48  C   UNK d   0       4.290  -0.551  -1.628  0.00  0.00    -0.061 A 
ATOM     49  H   UNK d   0       4.443   1.482  -0.987  0.00  0.00     0.062 H 
ATOM     50  C   UNK d   0       4.574  -1.463  -2.625  0.00  0.00    -0.054 A 
ATOM     51  H   UNK d   0       3.767  -0.870  -0.739  0.00  0.00     0.062 H 
ATOM     52  H   UNK d   0       4.273  -2.494  -2.516  0.00  0.00     0.062 H 
ENDBRANCH  14  42
TORSDOF 9
ENDMDL
MODEL 5
REMARK VINA RESULT:      -6.1      5.461      7.313
REMARK  9 active torsions:
REMARK  status: ('A' for Active; 'I' for Inactive)
REMARK    1  A    between atoms: C_1  and  C_2 
REMARK    2  A    between atoms: C_12  and  C_13 
REMARK    3  A    between atoms: C_13  and  C_14 
REMARK       I    between atoms: C_14  and  N_16 
REMARK    4  A    between atoms: N_16  and  C_17 
REMARK    5  A    between atoms: C_17  and  C_19 
REMARK    6  A    between atoms: C_17  and  C_22 
REMARK    7  A    between atoms: C_19  and  S_20 
REMARK    8  A    between atoms: S_20  and  C_21 
REMARK    9  A    between atoms: C_26  and  C_27 
ROOT
ATOM      1  C   UNK d   0       3.617  -0.370  -9.143  0.00  0.00    -0.029 A 
ATOM      2  C   UNK d   0       4.915  -0.217  -8.478  0.00  0.00     0.022 A 
ATOM      3  C   UNK d   0       5.007  -0.214  -7.086  0.00  0.00    -0.040 A 
ATOM      4  C   UNK d   0       6.249  -0.067  -6.489  0.00  0.00     0.029 A 
ATOM      5  C   UNK d   0       7.409   0.077  -7.276  0.00  0.00     0.139 A 
ATOM      6  C   UNK d   0       7.310   0.073  -8.659  0.00  0.00     0.024 A 
ATOM      7  C   UNK d   0       6.074  -0.073  -9.266  0.00  0.00     0.143 A 
ATOM      8  O   UNK d   0       5.972  -0.078 -10.614  0.00  0.00    -0.422 OA
ATOM      9  C   UNK d   0       4.787  -0.218 -11.228  0.00  0.00     0.341 A 
ATOM     10  O   UNK d   0       4.745  -0.217 -12.445  0.00  0.00    -0.245 OA
ATOM     11  C   UNK d   0       3.588  -0.372 -10.500  0.00  0.00     0.049 A 
ATOM     12  O   UNK d   0       8.454   0.199  -6.431  0.00  0.00    -0.462 OA
ATOM     13  C   UNK d   0       8.055   0.144  -5.150  0.00  0.00     0.101 A 
ATOM     14  C   UNK d   0       6.714  -0.018  -5.089  0.00  0.00     0.028 A 
ATOM     15  H   UNK d   0       4.120  -0.324  -6.479  0.00  0.00     0.063 H 
ATOM     16  H   UNK d   0       8.198   0.183  -9.264  0.00  0.00     0.069 H 
ATOM     17  H   UNK d   0       8.709   0.218  -4.294  0.00  0.00     0.104 H 
ENDROOT
BRANCH  11  18
ATOM     18  C   UNK d   0       2.278  -0.535 -11.228  0.00  0.00     0.056 C 
ATOM     19  H   UNK d   0       1.458  -0.256 -10.566  0.00  0.00     0.041 H 
ATOM     20  H   UNK d   0       2.270   0.108 -12.109  0.00  0.00     0.041 H 
BRANCH  18  21
ATOM     21  C   UNK d   0       2.114  -1.972 -11.653  0.00  0.00     0.218 C 
ATOM     22  O   UNK d   0       1.887  -2.238 -12.814  0.00  0.00    -0.275 OA
ATOM     23  N   UNK d   1       2.219  -2.959 -10.743  0.00  0.00    -0.306 N 
ATOM     24  H   UNK d   1       2.401  -2.746  -9.814  0.00  0.00     0.149 HD
BRANCH  23  25
ATOM     25  C   UNK d   1       2.060  -4.356 -11.157  0.00  0.00     0.071 C 
ATOM     26  H   UNK d   1       1.901  -4.401 -12.233  0.00  0.00     0.057 H 
BRANCH  25  27
ATOM     27  C   UNK d   1       3.322  -5.142 -10.794  0.00  0.00     0.017 C 
ATOM     28  H   UNK d   1       3.041  -6.104 -10.366  0.00  0.00     0.040 H 
ATOM     29  H   UNK d   1       3.920  -5.303 -11.691  0.00  0.00     0.040 H 
BRANCH  27  30
ATOM     30  S   UNK d   1       4.292  -4.202  -9.583  0.00  0.00    -0.162 SA
BRANCH  30  31
ATOM     31  C   UNK d   1       3.753  -4.862  -7.981  0.00  0.00    -0.018 C 
ATOM     32  H   UNK d   1       4.393  -5.698  -7.699  0.00  0.00     0.034 H 
ATOM     33  H   UNK d   1       3.822  -4.081  -7.225  0.00  0.00     0.034 H 
ATOM     34  H   UNK d   1       2.721  -5.205  -8.058  0.00  0.00     0.034 H 
ENDBRANCH  30  31
ENDBRANCH  27  30
ENDBRANCH  25  27
BRANCH  25  35
ATOM     35  C   UNK d   1       0.874  -4.957 -10.448  0.00  0.00     0.063 C 
ATOM     36  O   UNK d   1       0.980  -6.020  -9.884  0.00  0.00    -0.548 OA
ATOM     37  O   UNK d   1      -0.303  -4.310 -10.443  0.00  0.00    -0.548 OA
ENDBRANCH  25  35
ENDBRANCH  23  25
ENDBRANCH  18  21
ENDBRANCH  11  18
BRANCH   1  38
ATOM     38  C   UNK d   0       2.350  -0.527  -8.342  0.00  0.00    -0.038 C 
ATOM     39  H   UNK d   0       1.615   0.203  -8.678  0.00  0.00     0.028 H 
ATOM     40  H   UNK d   0       1.954  -1.533  -8.482  0.00  0.00     0.028 H 
ATOM     41  H   UNK d   0       2.567  -0.365  -7.286  0.00  0.00     0.028 H 
ENDBRANCH   1  38
BRANCH  14  42
ATOM     42  C   UNK d   0       5.882  -0.126  -3.866  0.00  0.00    -0.014 A 
ATOM     43  C   UNK d   0       5.580   1.013  -3.122  0.00  0.00    -0.054 A 
ATOM     44  C   UNK d   0       4.806   0.906  -1.985  0.00  0.00    -0.061 A 
ATOM     45  H   UNK d   0       5.952   1.978  -3.435  0.00  0.00     0.062 H 
ATOM     46  C   UNK d   0       4.330  -0.330  -1.583  0.00  0.00    -0.062 A 
ATOM     47  H   UNK d   0       4.571   1.788  -1.408  0.00  0.00     0.062 H 
ATOM     48  C   UNK d   0       4.626  -1.463  -2.318  0.00  0.00    -0.061 A 
ATOM     49  H   UNK d   0       3.725  -0.408  -0.693  0.00  0.00     0.062 H 
ATOM     50  C   UNK d   0       5.395  -1.367  -3.460  0.00  0.00    -0.054 A 
ATOM     51  H   UNK d   0       4.251  -2.425  -2.000  0.00  0.00     0.062 H 
ATOM     52  H   UNK d   0       5.623  -2.253  -4.035  0.00  0.00     0.062 H 
ENDBRANCH  14  42
TORSDOF 9
ENDMDL
MODEL 6
REMARK VINA RESULT:      -6.0      8.796     13.532
REMARK  9 active torsions:
REMARK  status: ('A' for Active; 'I' for Inactive)
REMARK    1  A    between atoms: C_1  and  C_2 
REMARK    2  A    between atoms: C_12  and  C_13 
REMARK    3  A    between atoms: C_13  and  C_14 
REMARK       I    between atoms: C_14  and  N_16 
REMARK    4  A    between atoms: N_16  and  C_17 
REMARK    5  A    between atoms: C_17  and  C_19 
REMARK    6  A    between atoms: C_17  and  C_22 
REMARK    7  A    between atoms: C_19  and  S_20 
REMARK    8  A    between atoms: S_20  and  C_21 
REMARK    9  A    between atoms: C_26  and  C_27 
ROOT
ATOM      1  C   UNK d   0       9.855   4.079  -4.576  0.00  0.00    -0.029 A 
ATOM      2  C   UNK d   0       9.204   3.015  -5.346  0.00  0.00     0.022 A 
ATOM      3  C   UNK d   0       8.227   2.207  -4.762  0.00  0.00    -0.040 A 
ATOM      4  C   UNK d   0       7.631   1.210  -5.518  0.00  0.00     0.029 A 
ATOM      5  C   UNK d   0       8.004   1.010  -6.862  0.00  0.00     0.139 A 
ATOM      6  C   UNK d   0       8.976   1.817  -7.436  0.00  0.00     0.024 A 
ATOM      7  C   UNK d   0       9.578   2.816  -6.690  0.00  0.00     0.143 A 
ATOM      8  O   UNK d   0      10.525   3.605  -7.245  0.00  0.00    -0.422 OA
ATOM      9  C   UNK d   0      11.124   4.580  -6.545  0.00  0.00     0.341 A 
ATOM     10  O   UNK d   0      11.971   5.266  -7.088  0.00  0.00    -0.245 OA
ATOM     11  C   UNK d   0      10.794   4.837  -5.197  0.00  0.00     0.049 A 
ATOM     12  O   UNK d   0       7.266  -0.015  -7.336  0.00  0.00    -0.462 OA
ATOM     13  C   UNK d   0       6.439  -0.496  -6.393  0.00  0.00     0.101 A 
ATOM     14  C   UNK d   0       6.595   0.196  -5.242  0.00  0.00     0.028 A 
ATOM     15  H   UNK d   0       7.939   2.357  -3.732  0.00  0.00     0.063 H 
ATOM     16  H   UNK d   0       9.263   1.665  -8.466  0.00  0.00     0.069 H 
ATOM     17  H   UNK d   0       5.750  -1.316  -6.534  0.00  0.00     0.104 H 
ENDROOT
BRANCH  11  18
ATOM     18  C   UNK d   0      11.485   5.948  -4.448  0.00  0.00     0.056 C 
ATOM     19  H   UNK d   0      11.472   5.729  -3.381  0.00  0.00     0.041 H 
ATOM     20  H   UNK d   0      12.517   6.030  -4.791  0.00  0.00     0.041 H 
BRANCH  18  21
ATOM     21  C   UNK d   0      10.766   7.248  -4.703  0.00  0.00     0.218 C 
ATOM     22  O   UNK d   0       9.971   7.670  -3.890  0.00  0.00    -0.275 OA
ATOM     23  N   UNK d   1      11.007   7.941  -5.832  0.00  0.00    -0.306 N 
ATOM     24  H   UNK d   1      11.643   7.604  -6.482  0.00  0.00     0.149 HD
BRANCH  23  25
ATOM     25  C   UNK d   1      10.309   9.206  -6.079  0.00  0.00     0.071 C 
ATOM     26  H   UNK d   1       9.508   9.327  -5.351  0.00  0.00     0.057 H 
BRANCH  25  27
ATOM     27  C   UNK d   1      11.296  10.367  -5.949  0.00  0.00     0.017 C 
ATOM     28  H   UNK d   1      12.303   9.975  -5.811  0.00  0.00     0.040 H 
ATOM     29  H   UNK d   1      11.264  10.975  -6.854  0.00  0.00     0.040 H 
BRANCH  27  30
ATOM     30  S   UNK d   1      10.844  11.389  -4.520  0.00  0.00    -0.162 SA
BRANCH  30  31
ATOM     31  C   UNK d   1       9.061  11.111  -4.329  0.00  0.00    -0.018 C 
ATOM     32  H   UNK d   1       8.719  10.410  -5.090  0.00  0.00     0.034 H 
ATOM     33  H   UNK d   1       8.862  10.698  -3.340  0.00  0.00     0.034 H 
ATOM     34  H   UNK d   1       8.532  12.057  -4.441  0.00  0.00     0.034 H 
ENDBRANCH  30  31
ENDBRANCH  27  30
ENDBRANCH  25  27
BRANCH  25  35
ATOM     35  C   UNK d   1       9.727   9.195  -7.469  0.00  0.00     0.063 C 
ATOM     36  O   UNK d   1      10.106   9.997  -8.290  0.00  0.00    -0.548 OA
ATOM     37  O   UNK d   1       8.789   8.292  -7.797  0.00  0.00    -0.548 OA
ENDBRANCH  25  35
ENDBRANCH  23  25
ENDBRANCH  18  21
ENDBRANCH  11  18
BRANCH   1  38
ATOM     38  C   UNK d   0       9.488   4.328  -3.136  0.00  0.00    -0.038 C 
ATOM     39  H   UNK d   0       8.600   4.958  -3.090  0.00  0.00     0.028 H 
ATOM     40  H   UNK d   0       9.286   3.378  -2.643  0.00  0.00     0.028 H 
ATOM     41  H   UNK d   0      10.316   4.830  -2.632  0.00  0.00     0.028 H 
ENDBRANCH   1  38
BRANCH  14  42
ATOM     42  C   UNK d   0       5.871  -0.019  -3.966  0.00  0.00    -0.014 A 
ATOM     43  C   UNK d   0       5.529  -1.308  -3.564  0.00  0.00    -0.054 A 
ATOM     44  C   UNK d   0       4.855  -1.501  -2.375  0.00  0.00    -0.061 A 
ATOM     45  H   UNK d   0       5.790  -2.155  -4.182  0.00  0.00     0.062 H 
ATOM     46  C   UNK d   0       4.519  -0.418  -1.583  0.00  0.00    -0.062 A 
ATOM     47  H   UNK d   0       4.589  -2.501  -2.062  0.00  0.00     0.062 H 
ATOM     48  C   UNK d   0       4.857   0.864  -1.977  0.00  0.00    -0.061 A 
ATOM     49  H   UNK d   0       3.992  -0.574  -0.655  0.00  0.00     0.062 H 
ATOM     50  C   UNK d   0       5.536   1.069  -3.162  0.00  0.00    -0.054 A 
ATOM     51  H   UNK d   0       4.593   1.706  -1.355  0.00  0.00     0.062 H 
ATOM     52  H   UNK d   0       5.802   2.070  -3.466  0.00  0.00     0.062 H 
ENDBRANCH  14  42
TORSDOF 9
ENDMDL
MODEL 7
REMARK VINA RESULT:      -5.9      4.210      8.596
REMARK  9 active torsions:
REMARK  status: ('A' for Active; 'I' for Inactive)
REMARK    1  A    between atoms: C_1  and  C_2 
REMARK    2  A    between atoms: C_12  and  C_13 
REMARK    3  A    between atoms: C_13  and  C_14 
REMARK       I    between atoms: C_14  and  N_16 
REMARK    4  A    between atoms: N_16  and  C_17 
REMARK    5  A    between atoms: C_17  and  C_19 
REMARK    6  A    between atoms: C_17  and  C_22 
REMARK    7  A    between atoms: C_19  and  S_20 
REMARK    8  A    between atoms: S_20  and  C_21 
REMARK    9  A    between atoms: C_26  and  C_27 
ROOT
ATOM      1  C   UNK d   0       5.530  -2.310  -4.597  0.00  0.00    -0.029 A 
ATOM      2  C   UNK d   0       6.538  -3.191  -5.196  0.00  0.00     0.022 A 
ATOM      3  C   UNK d   0       6.468  -4.574  -5.025  0.00  0.00    -0.040 A 
ATOM      4  C   UNK d   0       7.437  -5.378  -5.604  0.00  0.00     0.029 A 
ATOM      5  C   UNK d   0       8.483  -4.809  -6.358  0.00  0.00     0.139 A 
ATOM      6  C   UNK d   0       8.546  -3.434  -6.523  0.00  0.00     0.024 A 
ATOM      7  C   UNK d   0       7.583  -2.620  -5.949  0.00  0.00     0.143 A 
ATOM      8  O   UNK d   0       7.639  -1.279  -6.108  0.00  0.00    -0.422 OA
ATOM      9  C   UNK d   0       6.720  -0.469  -5.563  0.00  0.00     0.341 A 
ATOM     10  O   UNK d   0       6.812   0.733  -5.734  0.00  0.00    -0.245 OA
ATOM     11  C   UNK d   0       5.644  -0.973  -4.801  0.00  0.00     0.049 A 
ATOM     12  O   UNK d   0       9.263  -5.822  -6.791  0.00  0.00    -0.462 OA
ATOM     13  C   UNK d   0       8.797  -7.009  -6.371  0.00  0.00     0.101 A 
ATOM     14  C   UNK d   0       7.677  -6.834  -5.634  0.00  0.00     0.028 A 
ATOM     15  H   UNK d   0       5.669  -5.013  -4.448  0.00  0.00     0.063 H 
ATOM     16  H   UNK d   0       9.346  -2.996  -7.101  0.00  0.00     0.069 H 
ATOM     17  H   UNK d   0       9.250  -7.965  -6.590  0.00  0.00     0.104 H 
ENDROOT
BRANCH  11  18
ATOM     18  C   UNK d   0       4.627  -0.029  -4.212  0.00  0.00     0.056 C 
ATOM     19  H   UNK d   0       4.236  -0.449  -3.286  0.00  0.00     0.041 H 
ATOM     20  H   UNK d   0       5.100   0.931  -4.006  0.00  0.00     0.041 H 
BRANCH  18  21
ATOM     21  C   UNK d   0       3.498   0.168  -5.191  0.00  0.00     0.218 C 
ATOM     22  O   UNK d   0       2.352   0.209  -4.795  0.00  0.00    -0.275 OA
ATOM     23  N   UNK d   1       3.761   0.297  -6.506  0.00  0.00    -0.306 N 
ATOM     24  H   UNK d   1       4.677   0.264  -6.823  0.00  0.00     0.149 HD
BRANCH  23  25
ATOM     25  C   UNK d   1       2.663   0.488  -7.457  0.00  0.00     0.071 C 
ATOM     26  H   UNK d   1       1.728   0.613  -6.913  0.00  0.00     0.057 H 
BRANCH  25  27
ATOM     27  C   UNK d   1       2.932   1.736  -8.301  0.00  0.00     0.017 C 
ATOM     28  H   UNK d   1       2.137   1.856  -9.037  0.00  0.00     0.040 H 
ATOM     29  H   UNK d   1       2.963   2.613  -7.653  0.00  0.00     0.040 H 
BRANCH  27  30
ATOM     30  S   UNK d   1       4.523   1.558  -9.153  0.00  0.00    -0.162 SA
BRANCH  30  31
ATOM     31  C   UNK d   1       4.064   1.268 -10.884  0.00  0.00    -0.018 C 
ATOM     32  H   UNK d   1       4.106   0.200 -11.097  0.00  0.00     0.034 H 
ATOM     33  H   UNK d   1       3.052   1.634 -11.058  0.00  0.00     0.034 H 
ATOM     34  H   UNK d   1       4.759   1.796 -11.537  0.00  0.00     0.034 H 
ENDBRANCH  30  31
ENDBRANCH  27  30
ENDBRANCH  25  27
BRANCH  25  35
ATOM     35  C   UNK d   1       2.564  -0.715  -8.358  0.00  0.00     0.063 C 
ATOM     36  O   UNK d   1       3.328  -1.641  -8.217  0.00  0.00    -0.548 OA
ATOM     37  O   UNK d   1       1.626  -0.760  -9.318  0.00  0.00    -0.548 OA
ENDBRANCH  25  35
ENDBRANCH  23  25
ENDBRANCH  18  21
ENDBRANCH  11  18
BRANCH   1  38
ATOM     38  C   UNK d   0       4.394  -2.874  -3.783  0.00  0.00    -0.038 C 
ATOM     39  H   UNK d   0       4.610  -2.748  -2.722  0.00  0.00     0.028 H 
ATOM     40  H   UNK d   0       3.472  -2.348  -4.031  0.00  0.00     0.028 H 
ATOM     41  H   UNK d   0       4.279  -3.935  -4.007  0.00  0.00     0.028 H 
ENDBRANCH   1  38
BRANCH  14  42
ATOM     42  C   UNK d   0       6.858  -7.888  -4.989  0.00  0.00    -0.014 A 
ATOM     43  C   UNK d   0       5.522  -8.057  -5.352  0.00  0.00    -0.054 A 
ATOM     44  C   UNK d   0       4.766  -9.040  -4.748  0.00  0.00    -0.061 A 
ATOM     45  H   UNK d   0       5.081  -7.419  -6.104  0.00  0.00     0.062 H 
ATOM     46  C   UNK d   0       5.329  -9.857  -3.784  0.00  0.00    -0.062 A 
ATOM     47  H   UNK d   0       3.730  -9.172  -5.028  0.00  0.00     0.062 H 
ATOM     48  C   UNK d   0       6.654  -9.694  -3.421  0.00  0.00    -0.061 A 
ATOM     49  H   UNK d   0       4.733 -10.624  -3.315  0.00  0.00     0.062 H 
ATOM     50  C   UNK d   0       7.422  -8.718  -4.022  0.00  0.00    -0.054 A 
ATOM     51  H   UNK d   0       7.089 -10.335  -2.669  0.00  0.00     0.062 H 
ATOM     52  H   UNK d   0       8.457  -8.595  -3.740  0.00  0.00     0.062 H 
ENDBRANCH  14  42
TORSDOF 9
ENDMDL
MODEL 8
REMARK VINA RESULT:      -5.9      3.843      4.527
REMARK  9 active torsions:
REMARK  status: ('A' for Active; 'I' for Inactive)
REMARK    1  A    between atoms: C_1  and  C_2 
REMARK    2  A    between atoms: C_12  and  C_13 
REMARK    3  A    between atoms: C_13  and  C_14 
REMARK       I    between atoms: C_14  and  N_16 
REMARK    4  A    between atoms: N_16  and  C_17 
REMARK    5  A    between atoms: C_17  and  C_19 
REMARK    6  A    between atoms: C_17  and  C_22 
REMARK    7  A    between atoms: C_19  and  S_20 
REMARK    8  A    between atoms: S_20  and  C_21 
REMARK    9  A    between atoms: C_26  and  C_27 
ROOT
ATOM      1  C   UNK d   0      10.070  -5.136  -2.751  0.00  0.00    -0.029 A 
ATOM      2  C   UNK d   0       9.654  -4.187  -3.789  0.00  0.00     0.022 A 
ATOM      3  C   UNK d   0       8.606  -3.294  -3.560  0.00  0.00    -0.040 A 
ATOM      4  C   UNK d   0       8.238  -2.410  -4.562  0.00  0.00     0.029 A 
ATOM      5  C   UNK d   0       8.912  -2.409  -5.799  0.00  0.00     0.139 A 
ATOM      6  C   UNK d   0       9.952  -3.300  -6.019  0.00  0.00     0.024 A 
ATOM      7  C   UNK d   0      10.329  -4.187  -5.026  0.00  0.00     0.143 A 
ATOM      8  O   UNK d   0      11.343  -5.056  -5.235  0.00  0.00    -0.422 OA
ATOM      9  C   UNK d   0      11.728  -5.926  -4.290  0.00  0.00     0.341 A 
ATOM     10  O   UNK d   0      12.646  -6.690  -4.524  0.00  0.00    -0.245 OA
ATOM     11  C   UNK d   0      11.099  -5.977  -3.027  0.00  0.00     0.049 A 
ATOM     12  O   UNK d   0       8.343  -1.456  -6.566  0.00  0.00    -0.462 OA
ATOM     13  C   UNK d   0       7.346  -0.836  -5.912  0.00  0.00     0.101 A 
ATOM     14  C   UNK d   0       7.209  -1.358  -4.672  0.00  0.00     0.028 A 
ATOM     15  H   UNK d   0       8.087  -3.292  -2.613  0.00  0.00     0.063 H 
ATOM     16  H   UNK d   0      10.470  -3.300  -6.967  0.00  0.00     0.069 H 
ATOM     17  H   UNK d   0       6.742  -0.038  -6.318  0.00  0.00     0.104 H 
ENDROOT
BRANCH  11  18
ATOM     18  C   UNK d   0      11.567  -6.964  -1.989  0.00  0.00     0.056 C 
ATOM     19  H   UNK d   0      12.631  -7.156  -2.123  0.00  0.00     0.041 H 
ATOM     20  H   UNK d   0      11.393  -6.555  -0.993  0.00  0.00     0.041 H 
BRANCH  18  21
ATOM     21  C   UNK d   0      10.802  -8.254  -2.142  0.00  0.00     0.218 C 
ATOM     22  O   UNK d   0      11.026  -8.984  -3.084  0.00  0.00    -0.275 OA
ATOM     23  N   UNK d   1       9.869  -8.596  -1.231  0.00  0.00    -0.306 N 
ATOM     24  H   UNK d   1       9.690  -8.013  -0.477  0.00  0.00     0.149 HD
BRANCH  23  25
ATOM     25  C   UNK d   1       9.126  -9.850  -1.380  0.00  0.00     0.071 C 
ATOM     26  H   UNK d   1       9.573 -10.446  -2.175  0.00  0.00     0.057 H 
BRANCH  25  27
ATOM     27  C   UNK d   1       9.178 -10.632  -0.066  0.00  0.00     0.017 C 
ATOM     28  H   UNK d   1       9.969 -10.230   0.566  0.00  0.00     0.040 H 
ATOM     29  H   UNK d   1       8.220 -10.542   0.448  0.00  0.00     0.040 H 
BRANCH  27  30
ATOM     30  S   UNK d   1       9.513 -12.380  -0.415  0.00  0.00    -0.162 SA
BRANCH  30  31
ATOM     31  C   UNK d   1      10.297 -12.358  -2.051  0.00  0.00    -0.018 C 
ATOM     32  H   UNK d   1      10.257 -13.356  -2.487  0.00  0.00     0.034 H 
ATOM     33  H   UNK d   1       9.768 -11.658  -2.698  0.00  0.00     0.034 H 
ATOM     34  H   UNK d   1      11.336 -12.047  -1.951  0.00  0.00     0.034 H 
ENDBRANCH  30  31
ENDBRANCH  27  30
ENDBRANCH  25  27
BRANCH  25  35
ATOM     35  C   UNK d   1       7.692  -9.545  -1.726  0.00  0.00     0.063 C 
ATOM     36  O   UNK d   1       6.819  -9.732  -0.911  0.00  0.00    -0.548 OA
ATOM     37  O   UNK d   1       7.382  -9.062  -2.940  0.00  0.00    -0.548 OA
ENDBRANCH  25  35
ENDBRANCH  23  25
ENDBRANCH  18  21
ENDBRANCH  11  18
BRANCH   1  38
ATOM     38  C   UNK d   0       9.378  -5.173  -1.413  0.00  0.00    -0.038 C 
ATOM     39  H   UNK d   0       9.270  -4.159  -1.031  0.00  0.00     0.028 H 
ATOM     40  H   UNK d   0       8.393  -5.626  -1.526  0.00  0.00     0.028 H 
ATOM     41  H   UNK d   0       9.971  -5.763  -0.714  0.00  0.00     0.028 H 
ENDBRANCH   1  38
BRANCH  14  42
ATOM     42  C   UNK d   0       6.228  -0.954  -3.637  0.00  0.00    -0.014 A 
ATOM     43  C   UNK d   0       5.401  -1.908  -3.046  0.00  0.00    -0.054 A 
ATOM     44  C   UNK d   0       4.489  -1.525  -2.083  0.00  0.00    -0.061 A 
ATOM     45  H   UNK d   0       5.473  -2.945  -3.342  0.00  0.00     0.062 H 
ATOM     46  C   UNK d   0       4.396  -0.198  -1.704  0.00  0.00    -0.062 A 
ATOM     47  H   UNK d   0       3.848  -2.264  -1.625  0.00  0.00     0.062 H 
ATOM     48  C   UNK d   0       5.214   0.752  -2.286  0.00  0.00    -0.061 A 
ATOM     49  H   UNK d   0       3.681   0.096  -0.951  0.00  0.00     0.062 H 
ATOM     50  C   UNK d   0       6.133   0.381  -3.247  0.00  0.00    -0.054 A 
ATOM     51  H   UNK d   0       5.137   1.787  -1.986  0.00  0.00     0.062 H 
ATOM     52  H   UNK d   0       6.774   1.123  -3.698  0.00  0.00     0.062 H 
ENDBRANCH  14  42
TORSDOF 9
ENDMDL
MODEL 9
REMARK VINA RESULT:      -5.9      3.368      4.589
REMARK  9 active torsions:
REMARK  status: ('A' for Active; 'I' for Inactive)
REMARK    1  A    between atoms: C_1  and  C_2 
REMARK    2  A    between atoms: C_12  and  C_13 
REMARK    3  A    between atoms: C_13  and  C_14 
REMARK       I    between atoms: C_14  and  N_16 
REMARK    4  A    between atoms: N_16  and  C_17 
REMARK    5  A    between atoms: C_17  and  C_19 
REMARK    6  A    between atoms: C_17  and  C_22 
REMARK    7  A    between atoms: C_19  and  S_20 
REMARK    8  A    between atoms: S_20  and  C_21 
REMARK    9  A    between atoms: C_26  and  C_27 
ROOT
ATOM      1  C   UNK d   0       9.506  -4.961  -3.307  0.00  0.00    -0.029 A 
ATOM      2  C   UNK d   0       8.500  -4.499  -4.269  0.00  0.00     0.022 A 
ATOM      3  C   UNK d   0       7.637  -3.450  -3.951  0.00  0.00    -0.040 A 
ATOM      4  C   UNK d   0       6.698  -3.038  -4.883  0.00  0.00     0.029 A 
ATOM      5  C   UNK d   0       6.612  -3.668  -6.140  0.00  0.00     0.139 A 
ATOM      6  C   UNK d   0       7.473  -4.711  -6.449  0.00  0.00     0.024 A 
ATOM      7  C   UNK d   0       8.415  -5.131  -5.526  0.00  0.00     0.143 A 
ATOM      8  O   UNK d   0       9.257  -6.146  -5.823  0.00  0.00    -0.422 OA
ATOM      9  C   UNK d   0      10.179  -6.572  -4.947  0.00  0.00     0.341 A 
ATOM     10  O   UNK d   0      10.915  -7.490  -5.260  0.00  0.00    -0.245 OA
ATOM     11  C   UNK d   0      10.322  -5.982  -3.673  0.00  0.00     0.049 A 
ATOM     12  O   UNK d   0       5.620  -3.063  -6.826  0.00  0.00    -0.462 OA
ATOM     13  C   UNK d   0       5.055  -2.083  -6.102  0.00  0.00     0.101 A 
ATOM     14  C   UNK d   0       5.654  -1.995  -4.893  0.00  0.00     0.028 A 
ATOM     15  H   UNK d   0       7.699  -2.965  -2.988  0.00  0.00     0.063 H 
ATOM     16  H   UNK d   0       7.409  -5.195  -7.412  0.00  0.00     0.069 H 
ATOM     17  H   UNK d   0       4.242  -1.456  -6.437  0.00  0.00     0.104 H 
ENDROOT
BRANCH  11  18
ATOM     18  C   UNK d   0      11.376  -6.485  -2.720  0.00  0.00     0.056 C 
ATOM     19  H   UNK d   0      12.174  -6.968  -3.283  0.00  0.00     0.041 H 
ATOM     20  H   UNK d   0      11.784  -5.648  -2.155  0.00  0.00     0.041 H 
BRANCH  18  21
ATOM     21  C   UNK d   0      10.759  -7.480  -1.770  0.00  0.00     0.218 C 
ATOM     22  O   UNK d   0      10.989  -7.404  -0.581  0.00  0.00    -0.275 OA
ATOM     23  N   UNK d   1       9.954  -8.452  -2.240  0.00  0.00    -0.306 N 
ATOM     24  H   UNK d   1       9.771  -8.512  -3.191  0.00  0.00     0.149 HD
BRANCH  23  25
ATOM     25  C   UNK d   1       9.355  -9.418  -1.316  0.00  0.00     0.071 C 
ATOM     26  H   UNK d   1       9.417  -9.034  -0.298  0.00  0.00     0.057 H 
BRANCH  25  27
ATOM     27  C   UNK d   1       7.887  -9.638  -1.689  0.00  0.00     0.017 C 
ATOM     28  H   UNK d   1       7.638 -10.693  -1.581  0.00  0.00     0.040 H 
ATOM     29  H   UNK d   1       7.252  -9.045  -1.031  0.00  0.00     0.040 H 
BRANCH  27  30
ATOM     30  S   UNK d   1       7.619  -9.128  -3.409  0.00  0.00    -0.162 SA
BRANCH  30  31
ATOM     31  C   UNK d   1       7.497 -10.693  -4.318  0.00  0.00    -0.018 C 
ATOM     32  H   UNK d   1       8.471 -11.182  -4.331  0.00  0.00     0.034 H 
ATOM     33  H   UNK d   1       6.772 -11.342  -3.827  0.00  0.00     0.034 H 
ATOM     34  H   UNK d   1       7.175 -10.495  -5.340  0.00  0.00     0.034 H 
ENDBRANCH  30  31
ENDBRANCH  27  30
ENDBRANCH  25  27
BRANCH  25  35
ATOM     35  C   UNK d   1      10.097 -10.726  -1.406  0.00  0.00     0.063 C 
ATOM     36  O   UNK d   1      10.227 -11.417  -0.423  0.00  0.00    -0.548 OA
ATOM     37  O   UNK d   1      10.614 -11.124  -2.579  0.00  0.00    -0.548 OA
ENDBRANCH  25  35
ENDBRANCH  23  25
ENDBRANCH  18  21
ENDBRANCH  11  18
BRANCH   1  38
ATOM     38  C   UNK d   0       9.633  -4.317  -1.950  0.00  0.00    -0.038 C 
ATOM     39  H   UNK d   0       8.815  -3.613  -1.804  0.00  0.00     0.028 H 
ATOM     40  H   UNK d   0       9.595  -5.085  -1.178  0.00  0.00     0.028 H 
ATOM     41  H   UNK d   0      10.584  -3.787  -1.889  0.00  0.00     0.028 H 
ENDBRANCH   1  38
BRANCH  14  42
ATOM     42  C   UNK d   0       5.328  -1.045  -3.802  0.00  0.00    -0.014 A 
ATOM     43  C   UNK d   0       4.589  -1.471  -2.700  0.00  0.00    -0.054 A 
ATOM     44  C   UNK d   0       4.289  -0.581  -1.689  0.00  0.00    -0.061 A 
ATOM     45  H   UNK d   0       4.252  -2.495  -2.637  0.00  0.00     0.062 H 
ATOM     46  C   UNK d   0       4.720   0.731  -1.767  0.00  0.00    -0.062 A 
ATOM     47  H   UNK d   0       3.717  -0.910  -0.833  0.00  0.00     0.062 H 
ATOM     48  C   UNK d   0       5.454   1.159  -2.859  0.00  0.00    -0.061 A 
ATOM     49  H   UNK d   0       4.482   1.423  -0.974  0.00  0.00     0.062 H 
ATOM     50  C   UNK d   0       5.764   0.277  -3.874  0.00  0.00    -0.054 A 
ATOM     51  H   UNK d   0       5.788   2.185  -2.915  0.00  0.00     0.062 H 
ATOM     52  H   UNK d   0       6.340   0.612  -4.724  0.00  0.00     0.062 H 
ENDBRANCH  14  42
TORSDOF 9
ENDMDL
