MODEL 1
REMARK VINA RESULT:      -6.9      0.000      0.000
REMARK  10 active torsions:
REMARK  status: ('A' for Active; 'I' for Inactive)
REMARK    1  A    between atoms: C_1  and  C_2 
REMARK    2  A    between atoms: C_2  and  O_3 
REMARK    3  A    between atoms: O_3  and  C_4 
REMARK    4  A    between atoms: C_4  and  C_6 
REMARK    5  A    between atoms: C_9  and  N_12 
REMARK       I    between atoms: N_12  and  C_13 
REMARK    6  A    between atoms: C_13  and  C_15 
REMARK    7  A    between atoms: C_15  and  C_16 
REMARK    8  A    between atoms: C_16  and  C_17 
REMARK       I    between atoms: C_17  and  N_19 
REMARK    9  A    between atoms: C_26  and  O_32 
REMARK   10  A    between atoms: O_32  and  C_33 
ROOT
ATOM      1  C   LIG d   1      10.574   2.365  -6.764  0.00  0.00     0.032 C 
ATOM      2  H   LIG d   1      10.740   1.581  -6.010  0.00  0.00     0.036 H 
ATOM      3  H   LIG d   1      11.519   2.580  -7.285  0.00  0.00     0.036 H 
ENDROOT
BRANCH   1   4
ATOM      4  C   LIG d   1       9.530   1.887  -7.776  0.00  0.00     0.033 C 
ATOM      5  H   LIG d   1       9.994   1.171  -8.470  0.00  0.00     0.036 H 
ATOM      6  H   LIG d   1       9.147   2.750  -8.342  0.00  0.00     0.036 H 
BRANCH   4   7
ATOM      7  C   LIG d   1       8.393   1.218  -7.047  0.00  0.00     0.218 C 
ATOM      8  N   LIG d   1       8.600   0.054  -6.401  0.00  0.00    -0.285 N 
ATOM      9  H   LIG d   1       9.578  -0.445  -6.465  0.00  0.00     0.155 HD
ATOM     10  O   LIG d   1       7.293   1.729  -7.040  0.00  0.00    -0.276 OA
BRANCH   8  11
ATOM     11  C   LIG d   1       7.574  -0.519  -5.652  0.00  0.00     0.033 A 
ATOM     12  C   LIG d   1       6.568  -1.241  -6.288  0.00  0.00    -0.040 A 
ATOM     13  C   LIG d   1       5.554  -1.807  -5.550  0.00  0.00    -0.046 A 
ATOM     14  H   LIG d   1       6.584  -1.356  -7.361  0.00  0.00     0.064 H 
ATOM     15  C   LIG d   1       5.534  -1.658  -4.160  0.00  0.00     0.059 A 
ATOM     16  H   LIG d   1       4.773  -2.366  -6.045  0.00  0.00     0.063 H 
ATOM     17  C   LIG d   1       6.546  -0.932  -3.525  0.00  0.00    -0.046 A 
ATOM     18  C   LIG d   1       7.560  -0.373  -4.268  0.00  0.00    -0.040 A 
ATOM     19  H   LIG d   1       6.534  -0.814  -2.451  0.00  0.00     0.063 H 
ATOM     20  H   LIG d   1       8.344   0.185  -3.777  0.00  0.00     0.064 H 
BRANCH  15  21
ATOM     21  C   LIG d   1       4.448  -2.263  -3.367  0.00  0.00     0.339 C 
ATOM     22  O   LIG d   1       4.121  -3.416  -3.566  0.00  0.00    -0.245 OA
BRANCH  21  23
ATOM     23  O   LIG d   1       3.819  -1.537  -2.422  0.00  0.00    -0.461 OA
BRANCH  23  24
ATOM     24  C   LIG d   1       2.971  -0.451  -2.881  0.00  0.00     0.090 C 
ATOM     25  H   LIG d   1       1.956  -0.582  -2.477  0.00  0.00     0.070 H 
ATOM     26  H   LIG d   1       2.932  -0.456  -3.979  0.00  0.00     0.070 H 
BRANCH  24  27
ATOM     27  C   LIG d   1       3.544   0.883  -2.397  0.00  0.00    -0.031 C 
ATOM     28  H   LIG d   1       4.515   1.062  -2.881  0.00  0.00     0.026 H 
ATOM     29  H   LIG d   1       3.678   0.850  -1.305  0.00  0.00     0.026 H 
ATOM     30  H   LIG d   1       2.849   1.695  -2.656  0.00  0.00     0.026 H 
ENDBRANCH  24  27
ENDBRANCH  23  24
ENDBRANCH  21  23
ENDBRANCH  15  21
ENDBRANCH   8  11
ENDBRANCH   4   7
ENDBRANCH   1   4
BRANCH   1  31
ATOM     31  C   LIG d   1      10.078   3.617  -6.086  0.00  0.00     0.216 C 
ATOM     32  O   LIG d   1       9.927   4.635  -6.728  0.00  0.00    -0.276 OA
ATOM     33  N   LIG d   1       9.805   3.605  -4.767  0.00  0.00    -0.297 N 
ATOM     34  C   LIG d   1       9.325   4.818  -4.081  0.00  0.00     0.042 C 
ATOM     35  C   LIG d   1       9.982   2.383  -3.969  0.00  0.00     0.020 C 
ATOM     36  C   LIG d   1      10.073   4.934  -2.780  0.00  0.00    -0.002 A 
ATOM     37  H   LIG d   1       9.520   5.697  -4.713  0.00  0.00     0.051 H 
ATOM     38  H   LIG d   1       8.244   4.732  -3.895  0.00  0.00     0.051 H 
ATOM     39  C   LIG d   1      10.851   3.957  -2.264  0.00  0.00     0.023 A 
ATOM     40  C   LIG d   1      10.116   6.049  -1.859  0.00  0.00     0.008 A 
ATOM     41  C   LIG d   1      11.079   2.619  -2.926  0.00  0.00     0.004 C 
ATOM     42  N   LIG d   1      11.383   4.374  -1.072  0.00  0.00    -0.358 N 
ATOM     43  H   LIG d   1      11.046   1.820  -2.170  0.00  0.00     0.034 H 
ATOM     44  H   LIG d   1      12.063   2.612  -3.420  0.00  0.00     0.034 H 
ATOM     45  C   LIG d   1      10.960   5.643  -0.793  0.00  0.00     0.047 A 
ATOM     46  H   LIG d   1      12.046   3.705  -0.502  0.00  0.00     0.166 HD
ATOM     47  C   LIG d   1      11.216   6.497   0.277  0.00  0.00    -0.034 A 
ATOM     48  C   LIG d   1      10.615   7.743   0.249  0.00  0.00    -0.018 A 
ATOM     49  H   LIG d   1      11.858   6.200   1.094  0.00  0.00     0.064 H 
ATOM     50  C   LIG d   1       9.787   8.143  -0.794  0.00  0.00     0.121 A 
ATOM     51  H   LIG d   1      10.795   8.427   1.064  0.00  0.00     0.066 H 
ATOM     52  C   LIG d   1       9.516   7.311  -1.870  0.00  0.00    -0.011 A 
ATOM     53  H   LIG d   1       8.871   7.625  -2.679  0.00  0.00     0.066 H 
ATOM     54  H   LIG d   1       9.036   2.135  -3.461  0.00  0.00     0.047 H 
ATOM     55  H   LIG d   1      10.271   1.552  -4.629  0.00  0.00     0.047 H 
BRANCH  50  56
ATOM     56  O   LIG d   1       9.229   9.381  -0.756  0.00  0.00    -0.495 OA
BRANCH  56  57
ATOM     57  C   LIG d   1       9.505  10.253  -1.855  0.00  0.00     0.079 C 
ATOM     58  H   LIG d   1      10.128  11.091  -1.511  0.00  0.00     0.066 H 
ATOM     59  H   LIG d   1       8.559  10.640  -2.260  0.00  0.00     0.066 H 
ATOM     60  H   LIG d   1      10.040   9.695  -2.638  0.00  0.00     0.066 H 
ENDBRANCH  56  57
ENDBRANCH  50  56
ENDBRANCH   1  31
TORSDOF 10
ENDMDL
MODEL 2
REMARK VINA RESULT:      -6.6      5.895      8.974
REMARK  10 active torsions:
REMARK  status: ('A' for Active; 'I' for Inactive)
REMARK    1  A    between atoms: C_1  and  C_2 
REMARK    2  A    between atoms: C_2  and  O_3 
REMARK    3  A    between atoms: O_3  and  C_4 
REMARK    4  A    between atoms: C_4  and  C_6 
REMARK    5  A    between atoms: C_9  and  N_12 
REMARK       I    between atoms: N_12  and  C_13 
REMARK    6  A    between atoms: C_13  and  C_15 
REMARK    7  A    between atoms: C_15  and  C_16 
REMARK    8  A    between atoms: C_16  and  C_17 
REMARK       I    between atoms: C_17  and  N_19 
REMARK    9  A    between atoms: C_26  and  O_32 
REMARK   10  A    between atoms: O_32  and  C_33 
ROOT
ATOM      1  C   LIG d   1       3.846   1.197  -2.322  0.00  0.00     0.032 C 
ATOM      2  H   LIG d   1       4.027   1.939  -1.530  0.00  0.00     0.036 H 
ATOM      3  H   LIG d   1       3.286   0.346  -1.906  0.00  0.00     0.036 H 
ENDROOT
BRANCH   1   4
ATOM      4  C   LIG d   1       3.034   1.840  -3.448  0.00  0.00     0.033 C 
ATOM      5  H   LIG d   1       3.571   2.720  -3.831  0.00  0.00     0.036 H 
ATOM      6  H   LIG d   1       2.052   2.150  -3.061  0.00  0.00     0.036 H 
BRANCH   4   7
ATOM      7  C   LIG d   1       2.843   0.842  -4.562  0.00  0.00     0.218 C 
ATOM      8  N   LIG d   1       3.556   0.959  -5.699  0.00  0.00    -0.285 N 
ATOM      9  H   LIG d   1       4.225   1.820  -5.844  0.00  0.00     0.155 HD
ATOM     10  O   LIG d   1       2.049  -0.065  -4.434  0.00  0.00    -0.276 OA
BRANCH   8  11
ATOM     11  C   LIG d   1       3.447  -0.013  -6.692  0.00  0.00     0.033 A 
ATOM     12  C   LIG d   1       2.518   0.141  -7.717  0.00  0.00    -0.040 A 
ATOM     13  C   LIG d   1       2.408  -0.817  -8.698  0.00  0.00    -0.046 A 
ATOM     14  H   LIG d   1       1.882   1.013  -7.740  0.00  0.00     0.064 H 
ATOM     15  C   LIG d   1       3.232  -1.946  -8.667  0.00  0.00     0.059 A 
ATOM     16  H   LIG d   1       1.686  -0.697  -9.492  0.00  0.00     0.063 H 
ATOM     17  C   LIG d   1       4.165  -2.098  -7.637  0.00  0.00    -0.046 A 
ATOM     18  C   LIG d   1       4.272  -1.133  -6.661  0.00  0.00    -0.040 A 
ATOM     19  H   LIG d   1       4.803  -2.969  -7.609  0.00  0.00     0.063 H 
ATOM     20  H   LIG d   1       4.996  -1.248  -5.867  0.00  0.00     0.064 H 
BRANCH  15  21
ATOM     21  C   LIG d   1       3.116  -2.975  -9.717  0.00  0.00     0.339 C 
ATOM     22  O   LIG d   1       4.090  -3.624 -10.041  0.00  0.00    -0.245 OA
BRANCH  21  23
ATOM     23  O   LIG d   1       1.929  -3.195 -10.317  0.00  0.00    -0.461 OA
BRANCH  23  24
ATOM     24  C   LIG d   1       1.887  -3.061 -11.763  0.00  0.00     0.090 C 
ATOM     25  H   LIG d   1       1.136  -3.752 -12.173  0.00  0.00     0.070 H 
ATOM     26  H   LIG d   1       2.874  -3.302 -12.181  0.00  0.00     0.070 H 
BRANCH  24  27
ATOM     27  C   LIG d   1       1.513  -1.624 -12.130  0.00  0.00    -0.031 C 
ATOM     28  H   LIG d   1       2.118  -1.295 -12.987  0.00  0.00     0.026 H 
ATOM     29  H   LIG d   1       1.703  -0.963 -11.271  0.00  0.00     0.026 H 
ATOM     30  H   LIG d   1       0.447  -1.580 -12.397  0.00  0.00     0.026 H 
ENDBRANCH  24  27
ENDBRANCH  23  24
ENDBRANCH  21  23
ENDBRANCH  15  21
ENDBRANCH   8  11
ENDBRANCH   4   7
ENDBRANCH   1   4
BRANCH   1  31
ATOM     31  C   LIG d   1       5.165   0.712  -2.867  0.00  0.00     0.216 C 
ATOM     32  O   LIG d   1       5.934   1.497  -3.380  0.00  0.00    -0.276 OA
ATOM     33  N   LIG d   1       5.488  -0.593  -2.785  0.00  0.00    -0.297 N 
ATOM     34  C   LIG d   1       6.769  -1.091  -3.318  0.00  0.00     0.042 C 
ATOM     35  C   LIG d   1       4.571  -1.563  -2.168  0.00  0.00     0.020 C 
ATOM     36  C   LIG d   1       6.488  -2.365  -4.068  0.00  0.00    -0.002 A 
ATOM     37  H   LIG d   1       7.204  -0.338  -3.992  0.00  0.00     0.051 H 
ATOM     38  H   LIG d   1       7.463  -1.283  -2.486  0.00  0.00     0.051 H 
ATOM     39  C   LIG d   1       5.308  -3.022  -4.030  0.00  0.00     0.023 A 
ATOM     40  C   LIG d   1       7.368  -3.113  -4.940  0.00  0.00     0.008 A 
ATOM     41  C   LIG d   1       4.110  -2.565  -3.232  0.00  0.00     0.004 C 
ATOM     42  N   LIG d   1       5.380  -4.143  -4.816  0.00  0.00    -0.358 N 
ATOM     43  H   LIG d   1       3.639  -3.430  -2.742  0.00  0.00     0.034 H 
ATOM     44  H   LIG d   1       3.382  -2.082  -3.901  0.00  0.00     0.034 H 
ATOM     45  C   LIG d   1       6.618  -4.231  -5.388  0.00  0.00     0.047 A 
ATOM     46  H   LIG d   1       4.508  -4.808  -4.906  0.00  0.00     0.166 HD
ATOM     47  C   LIG d   1       7.181  -5.165  -6.254  0.00  0.00    -0.034 A 
ATOM     48  C   LIG d   1       8.489  -4.952  -6.650  0.00  0.00    -0.018 A 
ATOM     49  H   LIG d   1       6.619  -6.021  -6.602  0.00  0.00     0.064 H 
ATOM     50  C   LIG d   1       9.227  -3.858  -6.212  0.00  0.00     0.121 A 
ATOM     51  H   LIG d   1       8.952  -5.659  -7.321  0.00  0.00     0.066 H 
ATOM     52  C   LIG d   1       8.690  -2.914  -5.350  0.00  0.00    -0.011 A 
ATOM     53  H   LIG d   1       9.266  -2.065  -5.011  0.00  0.00     0.066 H 
ATOM     54  H   LIG d   1       5.091  -2.097  -1.358  0.00  0.00     0.047 H 
ATOM     55  H   LIG d   1       3.699  -1.033  -1.757  0.00  0.00     0.047 H 
BRANCH  50  56
ATOM     56  O   LIG d   1      10.508  -3.711  -6.641  0.00  0.00    -0.495 OA
BRANCH  56  57
ATOM     57  C   LIG d   1      11.363  -4.852  -6.538  0.00  0.00     0.079 C 
ATOM     58  H   LIG d   1      10.992  -5.650  -7.198  0.00  0.00     0.066 H 
ATOM     59  H   LIG d   1      11.371  -5.210  -5.499  0.00  0.00     0.066 H 
ATOM     60  H   LIG d   1      12.384  -4.573  -6.839  0.00  0.00     0.066 H 
ENDBRANCH  56  57
ENDBRANCH  50  56
ENDBRANCH   1  31
TORSDOF 10
ENDMDL
MODEL 3
REMARK VINA RESULT:      -6.6      7.161     11.614
REMARK  10 active torsions:
REMARK  status: ('A' for Active; 'I' for Inactive)
REMARK    1  A    between atoms: C_1  and  C_2 
REMARK    2  A    between atoms: C_2  and  O_3 
REMARK    3  A    between atoms: O_3  and  C_4 
REMARK    4  A    between atoms: C_4  and  C_6 
REMARK    5  A    between atoms: C_9  and  N_12 
REMARK       I    between atoms: N_12  and  C_13 
REMARK    6  A    between atoms: C_13  and  C_15 
REMARK    7  A    between atoms: C_15  and  C_16 
REMARK    8  A    between atoms: C_16  and  C_17 
REMARK       I    between atoms: C_17  and  N_19 
REMARK    9  A    between atoms: C_26  and  O_32 
REMARK   10  A    between atoms: O_32  and  C_33 
ROOT
ATOM      1  C   LIG d   1       7.329  -6.946  -5.319  0.00  0.00     0.032 C 
ATOM      2  H   LIG d   1       7.947  -6.950  -6.230  0.00  0.00     0.036 H 
ATOM      3  H   LIG d   1       7.480  -6.001  -4.776  0.00  0.00     0.036 H 
ENDROOT
BRANCH   1   4
ATOM      4  C   LIG d   1       5.854  -7.083  -5.703  0.00  0.00     0.033 C 
ATOM      5  H   LIG d   1       5.391  -7.880  -5.103  0.00  0.00     0.036 H 
ATOM      6  H   LIG d   1       5.776  -7.336  -6.771  0.00  0.00     0.036 H 
BRANCH   4   7
ATOM      7  C   LIG d   1       5.144  -5.779  -5.442  0.00  0.00     0.218 C 
ATOM      8  N   LIG d   1       5.856  -4.650  -5.262  0.00  0.00    -0.285 N 
ATOM      9  H   LIG d   1       6.955  -4.690  -5.235  0.00  0.00     0.155 HD
ATOM     10  O   LIG d   1       3.933  -5.747  -5.394  0.00  0.00    -0.276 OA
BRANCH   8  11
ATOM     11  C   LIG d   1       5.200  -3.429  -5.110  0.00  0.00     0.033 A 
ATOM     12  C   LIG d   1       5.093  -2.559  -6.191  0.00  0.00    -0.040 A 
ATOM     13  C   LIG d   1       4.445  -1.354  -6.045  0.00  0.00    -0.046 A 
ATOM     14  H   LIG d   1       5.519  -2.830  -7.145  0.00  0.00     0.064 H 
ATOM     15  C   LIG d   1       3.894  -1.003  -4.809  0.00  0.00     0.059 A 
ATOM     16  H   LIG d   1       4.364  -0.678  -6.883  0.00  0.00     0.063 H 
ATOM     17  C   LIG d   1       4.004  -1.879  -3.725  0.00  0.00    -0.046 A 
ATOM     18  C   LIG d   1       4.648  -3.086  -3.880  0.00  0.00    -0.040 A 
ATOM     19  H   LIG d   1       3.579  -1.612  -2.768  0.00  0.00     0.063 H 
ATOM     20  H   LIG d   1       4.729  -3.766  -3.044  0.00  0.00     0.064 H 
BRANCH  15  21
ATOM     21  C   LIG d   1       3.201   0.289  -4.648  0.00  0.00     0.339 C 
ATOM     22  O   LIG d   1       2.845   0.913  -5.627  0.00  0.00    -0.245 OA
BRANCH  21  23
ATOM     23  O   LIG d   1       2.962   0.776  -3.414  0.00  0.00    -0.461 OA
BRANCH  23  24
ATOM     24  C   LIG d   1       3.974   1.646  -2.842  0.00  0.00     0.090 C 
ATOM     25  H   LIG d   1       3.519   2.609  -2.570  0.00  0.00     0.070 H 
ATOM     26  H   LIG d   1       4.772   1.813  -3.579  0.00  0.00     0.070 H 
BRANCH  24  27
ATOM     27  C   LIG d   1       4.563   0.989  -1.592  0.00  0.00    -0.031 C 
ATOM     28  H   LIG d   1       5.250   1.691  -1.098  0.00  0.00     0.026 H 
ATOM     29  H   LIG d   1       5.110   0.079  -1.878  0.00  0.00     0.026 H 
ATOM     30  H   LIG d   1       3.749   0.724  -0.900  0.00  0.00     0.026 H 
ENDBRANCH  24  27
ENDBRANCH  23  24
ENDBRANCH  21  23
ENDBRANCH  15  21
ENDBRANCH   8  11
ENDBRANCH   4   7
ENDBRANCH   1   4
BRANCH   1  31
ATOM     31  C   LIG d   1       7.727  -8.102  -4.437  0.00  0.00     0.216 C 
ATOM     32  O   LIG d   1       6.977  -9.044  -4.296  0.00  0.00    -0.276 OA
ATOM     33  N   LIG d   1       8.917  -8.087  -3.805  0.00  0.00    -0.297 N 
ATOM     34  C   LIG d   1       9.325  -9.202  -2.932  0.00  0.00     0.042 C 
ATOM     35  C   LIG d   1       9.842  -6.955  -3.960  0.00  0.00     0.020 C 
ATOM     36  C   LIG d   1       9.924  -8.611  -1.684  0.00  0.00    -0.002 A 
ATOM     37  H   LIG d   1       8.445  -9.812  -2.681  0.00  0.00     0.051 H 
ATOM     38  H   LIG d   1      10.066  -9.825  -3.454  0.00  0.00     0.051 H 
ATOM     39  C   LIG d   1      10.233  -7.304  -1.538  0.00  0.00     0.023 A 
ATOM     40  C   LIG d   1      10.275  -9.276  -0.448  0.00  0.00     0.008 A 
ATOM     41  C   LIG d   1      10.015  -6.258  -2.606  0.00  0.00     0.004 C 
ATOM     42  N   LIG d   1      10.763  -7.093  -0.292  0.00  0.00    -0.358 N 
ATOM     43  H   LIG d   1      10.883  -5.584  -2.648  0.00  0.00     0.034 H 
ATOM     44  H   LIG d   1       9.111  -5.675  -2.375  0.00  0.00     0.034 H 
ATOM     45  C   LIG d   1      10.803  -8.270   0.402  0.00  0.00     0.047 A 
ATOM     46  H   LIG d   1      11.078  -6.081   0.007  0.00  0.00     0.166 HD
ATOM     47  C   LIG d   1      11.243  -8.581   1.685  0.00  0.00    -0.034 A 
ATOM     48  C   LIG d   1      11.141  -9.901   2.086  0.00  0.00    -0.018 A 
ATOM     49  H   LIG d   1      11.646  -7.823   2.342  0.00  0.00     0.064 H 
ATOM     50  C   LIG d   1      10.625 -10.889   1.256  0.00  0.00     0.121 A 
ATOM     51  H   LIG d   1      11.474 -10.173   3.077  0.00  0.00     0.066 H 
ATOM     52  C   LIG d   1      10.181 -10.606  -0.027  0.00  0.00    -0.011 A 
ATOM     53  H   LIG d   1       9.780 -11.376  -0.670  0.00  0.00     0.066 H 
ATOM     54  H   LIG d   1      10.818  -7.324  -4.314  0.00  0.00     0.047 H 
ATOM     55  H   LIG d   1       9.432  -6.243  -4.692  0.00  0.00     0.047 H 
BRANCH  50  56
ATOM     56  O   LIG d   1      10.554 -12.167   1.714  0.00  0.00    -0.495 OA
BRANCH  56  57
ATOM     57  C   LIG d   1      11.049 -13.195   0.853  0.00  0.00     0.079 C 
ATOM     58  H   LIG d   1      12.129 -13.321   1.016  0.00  0.00     0.066 H 
ATOM     59  H   LIG d   1      10.865 -12.914  -0.193  0.00  0.00     0.066 H 
ATOM     60  H   LIG d   1      10.531 -14.140   1.077  0.00  0.00     0.066 H 
ENDBRANCH  56  57
ENDBRANCH  50  56
ENDBRANCH   1  31
TORSDOF 10
ENDMDL
MODEL 4
REMARK VINA RESULT:      -6.3      3.439      6.756
REMARK  10 active torsions:
REMARK  status: ('A' for Active; 'I' for Inactive)
REMARK    1  A    between atoms: C_1  and  C_2 
REMARK    2  A    between atoms: C_2  and  O_3 
REMARK    3  A    between atoms: O_3  and  C_4 
REMARK    4  A    between atoms: C_4  and  C_6 
REMARK    5  A    between atoms: C_9  and  N_12 
REMARK       I    between atoms: N_12  and  C_13 
REMARK    6  A    between atoms: C_13  and  C_15 
REMARK    7  A    between atoms: C_15  and  C_16 
REMARK    8  A    between atoms: C_16  and  C_17 
REMARK       I    between atoms: C_17  and  N_19 
REMARK    9  A    between atoms: C_26  and  O_32 
REMARK   10  A    between atoms: O_32  and  C_33 
ROOT
ATOM      1  C   LIG d   1       4.324  -0.734  -2.363  0.00  0.00     0.032 C 
ATOM      2  H   LIG d   1       4.216  -0.917  -1.283  0.00  0.00     0.036 H 
ATOM      3  H   LIG d   1       4.726  -1.635  -2.850  0.00  0.00     0.036 H 
ENDROOT
BRANCH   1   4
ATOM      4  C   LIG d   1       2.957  -0.396  -2.962  0.00  0.00     0.033 C 
ATOM      5  H   LIG d   1       2.478   0.390  -2.362  0.00  0.00     0.036 H 
ATOM      6  H   LIG d   1       2.324  -1.296  -2.962  0.00  0.00     0.036 H 
BRANCH   4   7
ATOM      7  C   LIG d   1       3.137   0.091  -4.378  0.00  0.00     0.218 C 
ATOM      8  N   LIG d   1       3.563  -0.758  -5.333  0.00  0.00    -0.285 N 
ATOM      9  H   LIG d   1       3.848  -1.787  -5.067  0.00  0.00     0.155 HD
ATOM     10  O   LIG d   1       2.897   1.247  -4.656  0.00  0.00    -0.276 OA
BRANCH   8  11
ATOM     11  C   LIG d   1       3.643  -0.333  -6.658  0.00  0.00     0.033 A 
ATOM     12  C   LIG d   1       2.479  -0.099  -7.384  0.00  0.00    -0.040 A 
ATOM     13  C   LIG d   1       2.554   0.321  -8.692  0.00  0.00    -0.046 A 
ATOM     14  H   LIG d   1       1.515  -0.247  -6.919  0.00  0.00     0.064 H 
ATOM     15  C   LIG d   1       3.802   0.512  -9.293  0.00  0.00     0.059 A 
ATOM     16  H   LIG d   1       1.651   0.501  -9.255  0.00  0.00     0.063 H 
ATOM     17  C   LIG d   1       4.970   0.276  -8.561  0.00  0.00    -0.046 A 
ATOM     18  C   LIG d   1       4.886  -0.138  -7.251  0.00  0.00    -0.040 A 
ATOM     19  H   LIG d   1       5.936   0.423  -9.021  0.00  0.00     0.063 H 
ATOM     20  H   LIG d   1       5.789  -0.317  -6.683  0.00  0.00     0.064 H 
BRANCH  15  21
ATOM     21  C   LIG d   1       3.887   0.961 -10.695  0.00  0.00     0.339 C 
ATOM     22  O   LIG d   1       3.798   2.143 -10.961  0.00  0.00    -0.245 OA
BRANCH  21  23
ATOM     23  O   LIG d   1       4.063   0.059 -11.682  0.00  0.00    -0.461 OA
BRANCH  23  24
ATOM     24  C   LIG d   1       2.974  -0.869 -11.928  0.00  0.00     0.090 C 
ATOM     25  H   LIG d   1       2.651  -0.786 -12.976  0.00  0.00     0.070 H 
ATOM     26  H   LIG d   1       2.132  -0.629 -11.264  0.00  0.00     0.070 H 
BRANCH  24  27
ATOM     27  C   LIG d   1       3.450  -2.297 -11.653  0.00  0.00    -0.031 C 
ATOM     28  H   LIG d   1       4.354  -2.268 -11.028  0.00  0.00     0.026 H 
ATOM     29  H   LIG d   1       3.678  -2.798 -12.605  0.00  0.00     0.026 H 
ATOM     30  H   LIG d   1       2.659  -2.852 -11.128  0.00  0.00     0.026 H 
ENDBRANCH  24  27
ENDBRANCH  23  24
ENDBRANCH  21  23
ENDBRANCH  15  21
ENDBRANCH   8  11
ENDBRANCH   4   7
ENDBRANCH   1   4
BRANCH   1  31
ATOM     31  C   LIG d   1       5.268   0.420  -2.584  0.00  0.00     0.216 C 
ATOM     32  O   LIG d   1       4.942   1.542  -2.258  0.00  0.00    -0.276 OA
ATOM     33  N   LIG d   1       6.474   0.205  -3.146  0.00  0.00    -0.297 N 
ATOM     34  C   LIG d   1       7.412   1.319  -3.377  0.00  0.00     0.042 C 
ATOM     35  C   LIG d   1       6.890  -1.146  -3.550  0.00  0.00     0.020 C 
ATOM     36  C   LIG d   1       7.992   1.148  -4.756  0.00  0.00    -0.002 A 
ATOM     37  H   LIG d   1       6.871   2.274  -3.307  0.00  0.00     0.051 H 
ATOM     38  H   LIG d   1       8.209   1.292  -2.621  0.00  0.00     0.051 H 
ATOM     39  C   LIG d   1       7.841   0.036  -5.509  0.00  0.00     0.023 A 
ATOM     40  C   LIG d   1       8.789   2.081  -5.522  0.00  0.00     0.008 A 
ATOM     41  C   LIG d   1       7.065  -1.183  -5.072  0.00  0.00     0.004 C 
ATOM     42  N   LIG d   1       8.493   0.198  -6.704  0.00  0.00    -0.358 N 
ATOM     43  H   LIG d   1       7.612  -2.093  -5.356  0.00  0.00     0.034 H 
ATOM     44  H   LIG d   1       6.076  -1.186  -5.554  0.00  0.00     0.034 H 
ATOM     45  C   LIG d   1       9.080   1.431  -6.750  0.00  0.00     0.047 A 
ATOM     46  H   LIG d   1       8.481  -0.611  -7.450  0.00  0.00     0.166 HD
ATOM     47  C   LIG d   1       9.841   2.065  -7.728  0.00  0.00    -0.034 A 
ATOM     48  C   LIG d   1      10.293   3.343  -7.448  0.00  0.00    -0.018 A 
ATOM     49  H   LIG d   1      10.070   1.581  -8.667  0.00  0.00     0.064 H 
ATOM     50  C   LIG d   1      10.009   3.982  -6.247  0.00  0.00     0.121 A 
ATOM     51  H   LIG d   1      10.885   3.860  -8.188  0.00  0.00     0.066 H 
ATOM     52  C   LIG d   1       9.254   3.373  -5.256  0.00  0.00    -0.011 A 
ATOM     53  H   LIG d   1       9.035   3.872  -4.323  0.00  0.00     0.066 H 
ATOM     54  H   LIG d   1       7.845  -1.398  -3.062  0.00  0.00     0.047 H 
ATOM     55  H   LIG d   1       6.122  -1.873  -3.247  0.00  0.00     0.047 H 
BRANCH  50  56
ATOM     56  O   LIG d   1      10.486   5.238  -6.038  0.00  0.00    -0.495 OA
BRANCH  56  57
ATOM     57  C   LIG d   1      11.395   5.416  -4.950  0.00  0.00     0.079 C 
ATOM     58  H   LIG d   1      12.083   6.243  -5.178  0.00  0.00     0.066 H 
ATOM     59  H   LIG d   1      11.970   4.491  -4.799  0.00  0.00     0.066 H 
ATOM     60  H   LIG d   1      10.829   5.651  -4.036  0.00  0.00     0.066 H 
ENDBRANCH  56  57
ENDBRANCH  50  56
ENDBRANCH   1  31
TORSDOF 10
ENDMDL
MODEL 5
REMARK VINA RESULT:      -6.3      8.664     11.546
REMARK  10 active torsions:
REMARK  status: ('A' for Active; 'I' for Inactive)
REMARK    1  A    between atoms: C_1  and  C_2 
REMARK    2  A    between atoms: C_2  and  O_3 
REMARK    3  A    between atoms: O_3  and  C_4 
REMARK    4  A    between atoms: C_4  and  C_6 
REMARK    5  A    between atoms: C_9  and  N_12 
REMARK       I    between atoms: N_12  and  C_13 
REMARK    6  A    between atoms: C_13  and  C_15 
REMARK    7  A    between atoms: C_15  and  C_16 
REMARK    8  A    between atoms: C_16  and  C_17 
REMARK       I    between atoms: C_17  and  N_19 
REMARK    9  A    between atoms: C_26  and  O_32 
REMARK   10  A    between atoms: O_32  and  C_33 
ROOT
ATOM      1  C   LIG d   1       9.986  -7.076  -2.501  0.00  0.00     0.032 C 
ATOM      2  H   LIG d   1       9.777  -7.411  -3.528  0.00  0.00     0.036 H 
ATOM      3  H   LIG d   1       9.431  -7.706  -1.789  0.00  0.00     0.036 H 
ENDROOT
BRANCH   1   4
ATOM      4  C   LIG d   1      11.486  -7.193  -2.222  0.00  0.00     0.033 C 
ATOM      5  H   LIG d   1      11.918  -6.188  -2.112  0.00  0.00     0.036 H 
ATOM      6  H   LIG d   1      11.975  -7.713  -3.059  0.00  0.00     0.036 H 
BRANCH   4   7
ATOM      7  C   LIG d   1      11.701  -7.974  -0.950  0.00  0.00     0.218 C 
ATOM      8  N   LIG d   1      10.653  -8.273  -0.158  0.00  0.00    -0.285 N 
ATOM      9  H   LIG d   1       9.652  -7.886  -0.401  0.00  0.00     0.155 HD
ATOM     10  O   LIG d   1      12.817  -8.335  -0.642  0.00  0.00    -0.276 OA
BRANCH   8  11
ATOM     11  C   LIG d   1      10.836  -9.072   0.969  0.00  0.00     0.033 A 
ATOM     12  C   LIG d   1      11.124  -8.485   2.198  0.00  0.00    -0.040 A 
ATOM     13  C   LIG d   1      11.305  -9.271   3.312  0.00  0.00    -0.046 A 
ATOM     14  H   LIG d   1      11.205  -7.411   2.275  0.00  0.00     0.064 H 
ATOM     15  C   LIG d   1      11.201 -10.661   3.210  0.00  0.00     0.059 A 
ATOM     16  H   LIG d   1      11.530  -8.815   4.265  0.00  0.00     0.063 H 
ATOM     17  C   LIG d   1      10.911 -11.248   1.974  0.00  0.00    -0.046 A 
ATOM     18  C   LIG d   1      10.726 -10.455   0.865  0.00  0.00    -0.040 A 
ATOM     19  H   LIG d   1      10.830 -12.321   1.891  0.00  0.00     0.063 H 
ATOM     20  H   LIG d   1      10.498 -10.907  -0.090  0.00  0.00     0.064 H 
BRANCH  15  21
ATOM     21  C   LIG d   1      11.395 -11.507   4.403  0.00  0.00     0.339 C 
ATOM     22  O   LIG d   1      10.668 -12.460   4.596  0.00  0.00    -0.245 OA
BRANCH  21  23
ATOM     23  O   LIG d   1      12.381 -11.221   5.277  0.00  0.00    -0.461 OA
BRANCH  23  24
ATOM     24  C   LIG d   1      13.737 -11.534   4.866  0.00  0.00     0.090 C 
ATOM     25  H   LIG d   1      13.724 -11.965   3.854  0.00  0.00     0.070 H 
ATOM     26  H   LIG d   1      14.174 -12.260   5.567  0.00  0.00     0.070 H 
BRANCH  24  27
ATOM     27  C   LIG d   1      14.577 -10.256   4.865  0.00  0.00    -0.031 C 
ATOM     28  H   LIG d   1      15.337 -10.317   4.073  0.00  0.00     0.026 H 
ATOM     29  H   LIG d   1      15.073 -10.141   5.841  0.00  0.00     0.026 H 
ATOM     30  H   LIG d   1      13.925  -9.389   4.681  0.00  0.00     0.026 H 
ENDBRANCH  24  27
ENDBRANCH  23  24
ENDBRANCH  21  23
ENDBRANCH  15  21
ENDBRANCH   8  11
ENDBRANCH   4   7
ENDBRANCH   1   4
BRANCH   1  31
ATOM     31  C   LIG d   1       9.556  -5.640  -2.343  0.00  0.00     0.216 C 
ATOM     32  O   LIG d   1       9.543  -5.129  -1.243  0.00  0.00    -0.276 OA
ATOM     33  N   LIG d   1       9.187  -4.925  -3.423  0.00  0.00    -0.297 N 
ATOM     34  C   LIG d   1       8.757  -3.522  -3.292  0.00  0.00     0.042 C 
ATOM     35  C   LIG d   1       9.195  -5.525  -4.766  0.00  0.00     0.020 C 
ATOM     36  C   LIG d   1       7.534  -3.337  -4.149  0.00  0.00    -0.002 A 
ATOM     37  H   LIG d   1       8.522  -3.307  -2.240  0.00  0.00     0.051 H 
ATOM     38  H   LIG d   1       9.565  -2.857  -3.631  0.00  0.00     0.051 H 
ATOM     39  C   LIG d   1       7.090  -4.247  -5.044  0.00  0.00     0.023 A 
ATOM     40  C   LIG d   1       6.625  -2.211  -4.196  0.00  0.00     0.008 A 
ATOM     41  C   LIG d   1       7.760  -5.576  -5.301  0.00  0.00     0.004 C 
ATOM     42  N   LIG d   1       5.962  -3.774  -5.661  0.00  0.00    -0.358 N 
ATOM     43  H   LIG d   1       7.779  -5.779  -6.382  0.00  0.00     0.034 H 
ATOM     44  H   LIG d   1       7.205  -6.376  -4.789  0.00  0.00     0.034 H 
ATOM     45  C   LIG d   1       5.646  -2.539  -5.169  0.00  0.00     0.047 A 
ATOM     46  H   LIG d   1       5.458  -4.383  -6.427  0.00  0.00     0.166 HD
ATOM     47  C   LIG d   1       4.611  -1.655  -5.462  0.00  0.00    -0.034 A 
ATOM     48  C   LIG d   1       4.584  -0.460  -4.766  0.00  0.00    -0.018 A 
ATOM     49  H   LIG d   1       3.859  -1.893  -6.202  0.00  0.00     0.064 H 
ATOM     50  C   LIG d   1       5.541  -0.136  -3.812  0.00  0.00     0.121 A 
ATOM     51  H   LIG d   1       3.792   0.245  -4.971  0.00  0.00     0.066 H 
ATOM     52  C   LIG d   1       6.583  -0.998  -3.502  0.00  0.00    -0.011 A 
ATOM     53  H   LIG d   1       7.326  -0.743  -2.760  0.00  0.00     0.066 H 
ATOM     54  H   LIG d   1       9.819  -4.914  -5.437  0.00  0.00     0.047 H 
ATOM     55  H   LIG d   1       9.606  -6.544  -4.710  0.00  0.00     0.047 H 
BRANCH  50  56
ATOM     56  O   LIG d   1       5.454   1.057  -3.167  0.00  0.00    -0.495 OA
BRANCH  56  57
ATOM     57  C   LIG d   1       4.664   1.095  -1.976  0.00  0.00     0.079 C 
ATOM     58  H   LIG d   1       3.963   1.940  -2.028  0.00  0.00     0.066 H 
ATOM     59  H   LIG d   1       5.324   1.217  -1.105  0.00  0.00     0.066 H 
ATOM     60  H   LIG d   1       4.100   0.155  -1.880  0.00  0.00     0.066 H 
ENDBRANCH  56  57
ENDBRANCH  50  56
ENDBRANCH   1  31
TORSDOF 10
ENDMDL
MODEL 6
REMARK VINA RESULT:      -6.2      1.578      2.308
REMARK  10 active torsions:
REMARK  status: ('A' for Active; 'I' for Inactive)
REMARK    1  A    between atoms: C_1  and  C_2 
REMARK    2  A    between atoms: C_2  and  O_3 
REMARK    3  A    between atoms: O_3  and  C_4 
REMARK    4  A    between atoms: C_4  and  C_6 
REMARK    5  A    between atoms: C_9  and  N_12 
REMARK       I    between atoms: N_12  and  C_13 
REMARK    6  A    between atoms: C_13  and  C_15 
REMARK    7  A    between atoms: C_15  and  C_16 
REMARK    8  A    between atoms: C_16  and  C_17 
REMARK       I    between atoms: C_17  and  N_19 
REMARK    9  A    between atoms: C_26  and  O_32 
REMARK   10  A    between atoms: O_32  and  C_33 
ROOT
ATOM      1  C   LIG d   1      11.295   3.246  -5.112  0.00  0.00     0.032 C 
ATOM      2  H   LIG d   1      11.015   2.729  -4.181  0.00  0.00     0.036 H 
ATOM      3  H   LIG d   1      12.387   3.207  -5.240  0.00  0.00     0.036 H 
ENDROOT
BRANCH   1   4
ATOM      4  C   LIG d   1      10.617   2.559  -6.300  0.00  0.00     0.033 C 
ATOM      5  H   LIG d   1      11.285   1.787  -6.707  0.00  0.00     0.036 H 
ATOM      6  H   LIG d   1      10.401   3.305  -7.080  0.00  0.00     0.036 H 
BRANCH   4   7
ATOM      7  C   LIG d   1       9.329   1.923  -5.843  0.00  0.00     0.218 C 
ATOM      8  N   LIG d   1       9.329   1.089  -4.785  0.00  0.00    -0.285 N 
ATOM      9  H   LIG d   1      10.277   0.817  -4.298  0.00  0.00     0.155 HD
ATOM     10  O   LIG d   1       8.294   2.162  -6.428  0.00  0.00    -0.276 OA
BRANCH   8  11
ATOM     11  C   LIG d   1       8.126   0.571  -4.307  0.00  0.00     0.033 A 
ATOM     12  C   LIG d   1       7.242   1.393  -3.614  0.00  0.00    -0.040 A 
ATOM     13  C   LIG d   1       6.055   0.885  -3.140  0.00  0.00    -0.046 A 
ATOM     14  H   LIG d   1       7.490   2.431  -3.447  0.00  0.00     0.064 H 
ATOM     15  C   LIG d   1       5.735  -0.459  -3.356  0.00  0.00     0.059 A 
ATOM     16  H   LIG d   1       5.370   1.523  -2.602  0.00  0.00     0.063 H 
ATOM     17  C   LIG d   1       6.625  -1.282  -4.052  0.00  0.00    -0.046 A 
ATOM     18  C   LIG d   1       7.809  -0.766  -4.528  0.00  0.00    -0.040 A 
ATOM     19  H   LIG d   1       6.382  -2.321  -4.221  0.00  0.00     0.063 H 
ATOM     20  H   LIG d   1       8.495  -1.400  -5.070  0.00  0.00     0.064 H 
BRANCH  15  21
ATOM     21  C   LIG d   1       4.463  -1.007  -2.849  0.00  0.00     0.339 C 
ATOM     22  O   LIG d   1       4.338  -1.257  -1.667  0.00  0.00    -0.245 OA
BRANCH  21  23
ATOM     23  O   LIG d   1       3.441  -1.232  -3.697  0.00  0.00    -0.461 OA
BRANCH  23  24
ATOM     24  C   LIG d   1       2.576  -0.105  -3.999  0.00  0.00     0.090 C 
ATOM     25  H   LIG d   1       2.820   0.734  -3.331  0.00  0.00     0.070 H 
ATOM     26  H   LIG d   1       1.527  -0.398  -3.851  0.00  0.00     0.070 H 
BRANCH  24  27
ATOM     27  C   LIG d   1       2.786   0.324  -5.453  0.00  0.00    -0.031 C 
ATOM     28  H   LIG d   1       3.163   1.356  -5.480  0.00  0.00     0.026 H 
ATOM     29  H   LIG d   1       1.830   0.267  -5.994  0.00  0.00     0.026 H 
ATOM     30  H   LIG d   1       3.517  -0.346  -5.930  0.00  0.00     0.026 H 
ENDBRANCH  24  27
ENDBRANCH  23  24
ENDBRANCH  21  23
ENDBRANCH  15  21
ENDBRANCH   8  11
ENDBRANCH   4   7
ENDBRANCH   1   4
BRANCH   1  31
ATOM     31  C   LIG d   1      10.849   4.684  -5.042  0.00  0.00     0.216 C 
ATOM     32  O   LIG d   1      11.059   5.430  -5.975  0.00  0.00    -0.276 OA
ATOM     33  N   LIG d   1      10.217   5.140  -3.943  0.00  0.00    -0.297 N 
ATOM     34  C   LIG d   1       9.777   6.544  -3.850  0.00  0.00     0.042 C 
ATOM     35  C   LIG d   1       9.952   4.254  -2.800  0.00  0.00     0.020 C 
ATOM     36  C   LIG d   1      10.137   7.045  -2.477  0.00  0.00    -0.002 A 
ATOM     37  H   LIG d   1      10.288   7.140  -4.620  0.00  0.00     0.051 H 
ATOM     38  H   LIG d   1       8.690   6.599  -4.004  0.00  0.00     0.051 H 
ATOM     39  C   LIG d   1      10.561   6.252  -1.468  0.00  0.00     0.023 A 
ATOM     40  C   LIG d   1      10.108   8.401  -1.974  0.00  0.00     0.008 A 
ATOM     41  C   LIG d   1      10.736   4.757  -1.583  0.00  0.00     0.004 C 
ATOM     42  N   LIG d   1      10.799   7.014  -0.353  0.00  0.00    -0.358 N 
ATOM     43  H   LIG d   1      10.356   4.268  -0.674  0.00  0.00     0.034 H 
ATOM     44  H   LIG d   1      11.803   4.517  -1.708  0.00  0.00     0.034 H 
ATOM     45  C   LIG d   1      10.537   8.328  -0.624  0.00  0.00     0.047 A 
ATOM     46  H   LIG d   1      11.151   6.536   0.574  0.00  0.00     0.166 HD
ATOM     47  C   LIG d   1      10.622   9.476   0.160  0.00  0.00    -0.034 A 
ATOM     48  C   LIG d   1      10.274  10.675  -0.436  0.00  0.00    -0.018 A 
ATOM     49  H   LIG d   1      10.948   9.432   1.190  0.00  0.00     0.064 H 
ATOM     50  C   LIG d   1       9.853  10.750  -1.758  0.00  0.00     0.121 A 
ATOM     51  H   LIG d   1      10.331  11.582   0.147  0.00  0.00     0.066 H 
ATOM     52  C   LIG d   1       9.758   9.622  -2.559  0.00  0.00    -0.011 A 
ATOM     53  H   LIG d   1       9.431   9.684  -3.587  0.00  0.00     0.066 H 
ATOM     54  H   LIG d   1       8.875   4.258  -2.574  0.00  0.00     0.047 H 
ATOM     55  H   LIG d   1      10.270   3.230  -3.048  0.00  0.00     0.047 H 
BRANCH  50  56
ATOM     56  O   LIG d   1       9.525  11.962  -2.279  0.00  0.00    -0.495 OA
BRANCH  56  57
ATOM     57  C   LIG d   1       8.484  11.989  -3.258  0.00  0.00     0.079 C 
ATOM     58  H   LIG d   1       7.591  12.468  -2.830  0.00  0.00     0.066 H 
ATOM     59  H   LIG d   1       8.240  10.961  -3.560  0.00  0.00     0.066 H 
ATOM     60  H   LIG d   1       8.822  12.560  -4.136  0.00  0.00     0.066 H 
ENDBRANCH  56  57
ENDBRANCH  50  56
ENDBRANCH   1  31
TORSDOF 10
ENDMDL
MODEL 7
REMARK VINA RESULT:      -6.1      2.472      3.615
REMARK  10 active torsions:
REMARK  status: ('A' for Active; 'I' for Inactive)
REMARK    1  A    between atoms: C_1  and  C_2 
REMARK    2  A    between atoms: C_2  and  O_3 
REMARK    3  A    between atoms: O_3  and  C_4 
REMARK    4  A    between atoms: C_4  and  C_6 
REMARK    5  A    between atoms: C_9  and  N_12 
REMARK       I    between atoms: N_12  and  C_13 
REMARK    6  A    between atoms: C_13  and  C_15 
REMARK    7  A    between atoms: C_15  and  C_16 
REMARK    8  A    between atoms: C_16  and  C_17 
REMARK       I    between atoms: C_17  and  N_19 
REMARK    9  A    between atoms: C_26  and  O_32 
REMARK   10  A    between atoms: O_32  and  C_33 
ROOT
ATOM      1  C   LIG d   1       9.456   2.420  -4.329  0.00  0.00     0.032 C 
ATOM      2  H   LIG d   1       9.922   1.449  -4.557  0.00  0.00     0.036 H 
ATOM      3  H   LIG d   1       9.426   3.035  -5.241  0.00  0.00     0.036 H 
ENDROOT
BRANCH   1   4
ATOM      4  C   LIG d   1       8.032   2.195  -3.817  0.00  0.00     0.033 C 
ATOM      5  H   LIG d   1       7.387   3.020  -4.152  0.00  0.00     0.036 H 
ATOM      6  H   LIG d   1       8.040   2.158  -2.718  0.00  0.00     0.036 H 
BRANCH   4   7
ATOM      7  C   LIG d   1       7.504   0.892  -4.360  0.00  0.00     0.218 C 
ATOM      8  N   LIG d   1       7.324  -0.158  -3.535  0.00  0.00    -0.285 N 
ATOM      9  H   LIG d   1       7.628  -0.087  -2.480  0.00  0.00     0.155 HD
ATOM     10  O   LIG d   1       7.241   0.788  -5.539  0.00  0.00    -0.276 OA
BRANCH   8  11
ATOM     11  C   LIG d   1       6.751  -1.333  -4.017  0.00  0.00     0.033 A 
ATOM     12  C   LIG d   1       7.564  -2.357  -4.495  0.00  0.00    -0.040 A 
ATOM     13  C   LIG d   1       7.001  -3.519  -4.972  0.00  0.00    -0.046 A 
ATOM     14  H   LIG d   1       8.637  -2.238  -4.493  0.00  0.00     0.064 H 
ATOM     15  C   LIG d   1       5.612  -3.672  -4.976  0.00  0.00     0.059 A 
ATOM     16  H   LIG d   1       7.633  -4.312  -5.344  0.00  0.00     0.063 H 
ATOM     17  C   LIG d   1       4.798  -2.641  -4.494  0.00  0.00    -0.046 A 
ATOM     18  C   LIG d   1       5.368  -1.484  -4.014  0.00  0.00    -0.040 A 
ATOM     19  H   LIG d   1       3.724  -2.755  -4.495  0.00  0.00     0.063 H 
ATOM     20  H   LIG d   1       4.740  -0.689  -3.638  0.00  0.00     0.064 H 
BRANCH  15  21
ATOM     21  C   LIG d   1       5.005  -4.915  -5.487  0.00  0.00     0.339 C 
ATOM     22  O   LIG d   1       5.579  -5.975  -5.338  0.00  0.00    -0.245 OA
BRANCH  21  23
ATOM     23  O   LIG d   1       3.815  -4.874  -6.118  0.00  0.00    -0.461 OA
BRANCH  23  24
ATOM     24  C   LIG d   1       3.795  -5.282  -7.511  0.00  0.00     0.090 C 
ATOM     25  H   LIG d   1       2.980  -6.004  -7.670  0.00  0.00     0.070 H 
ATOM     26  H   LIG d   1       4.755  -5.750  -7.770  0.00  0.00     0.070 H 
BRANCH  24  27
ATOM     27  C   LIG d   1       3.570  -4.056  -8.398  0.00  0.00    -0.031 C 
ATOM     28  H   LIG d   1       4.065  -3.183  -7.949  0.00  0.00     0.026 H 
ATOM     29  H   LIG d   1       2.491  -3.860  -8.487  0.00  0.00     0.026 H 
ATOM     30  H   LIG d   1       3.991  -4.243  -9.397  0.00  0.00     0.026 H 
ENDBRANCH  24  27
ENDBRANCH  23  24
ENDBRANCH  21  23
ENDBRANCH  15  21
ENDBRANCH   8  11
ENDBRANCH   4   7
ENDBRANCH   1   4
BRANCH   1  31
ATOM     31  C   LIG d   1      10.264   3.129  -3.272  0.00  0.00     0.216 C 
ATOM     32  O   LIG d   1      10.658   2.520  -2.300  0.00  0.00    -0.276 OA
ATOM     33  N   LIG d   1      10.546   4.440  -3.407  0.00  0.00    -0.297 N 
ATOM     34  C   LIG d   1      11.328   5.155  -2.382  0.00  0.00     0.042 C 
ATOM     35  C   LIG d   1      10.078   5.198  -4.576  0.00  0.00     0.020 C 
ATOM     36  C   LIG d   1      10.655   6.478  -2.135  0.00  0.00    -0.002 A 
ATOM     37  H   LIG d   1      11.353   4.560  -1.458  0.00  0.00     0.051 H 
ATOM     38  H   LIG d   1      12.355   5.310  -2.746  0.00  0.00     0.051 H 
ATOM     39  C   LIG d   1       9.663   6.979  -2.904  0.00  0.00     0.023 A 
ATOM     40  C   LIG d   1      10.910   7.439  -1.084  0.00  0.00     0.008 A 
ATOM     41  C   LIG d   1       9.092   6.276  -4.113  0.00  0.00     0.004 C 
ATOM     42  N   LIG d   1       9.272   8.199  -2.415  0.00  0.00    -0.358 N 
ATOM     43  H   LIG d   1       8.935   7.002  -4.924  0.00  0.00     0.034 H 
ATOM     44  H   LIG d   1       8.132   5.808  -3.850  0.00  0.00     0.034 H 
ATOM     45  C   LIG d   1      10.008   8.511  -1.306  0.00  0.00     0.047 A 
ATOM     46  H   LIG d   1       8.471   8.761  -2.917  0.00  0.00     0.166 HD
ATOM     47  C   LIG d   1       9.993   9.617  -0.459  0.00  0.00    -0.034 A 
ATOM     48  C   LIG d   1      10.890   9.617   0.594  0.00  0.00    -0.018 A 
ATOM     49  H   LIG d   1       9.310  10.439  -0.618  0.00  0.00     0.064 H 
ATOM     50  C   LIG d   1      11.776   8.569   0.814  0.00  0.00     0.121 A 
ATOM     51  H   LIG d   1      10.902  10.461   1.268  0.00  0.00     0.066 H 
ATOM     52  C   LIG d   1      11.811   7.457  -0.014  0.00  0.00    -0.011 A 
ATOM     53  H   LIG d   1      12.500   6.644   0.159  0.00  0.00     0.066 H 
ATOM     54  H   LIG d   1      10.938   5.672  -5.074  0.00  0.00     0.047 H 
ATOM     55  H   LIG d   1       9.577   4.516  -5.279  0.00  0.00     0.047 H 
BRANCH  50  56
ATOM     56  O   LIG d   1      12.630   8.636   1.869  0.00  0.00    -0.495 OA
BRANCH  56  57
ATOM     57  C   LIG d   1      12.427   9.699   2.803  0.00  0.00     0.079 C 
ATOM     58  H   LIG d   1      11.348   9.871   2.934  0.00  0.00     0.066 H 
ATOM     59  H   LIG d   1      12.901  10.615   2.424  0.00  0.00     0.066 H 
ATOM     60  H   LIG d   1      12.875   9.426   3.771  0.00  0.00     0.066 H 
ENDBRANCH  56  57
ENDBRANCH  50  56
ENDBRANCH   1  31
TORSDOF 10
ENDMDL
MODEL 8
REMARK VINA RESULT:      -5.8      7.644     11.822
REMARK  10 active torsions:
REMARK  status: ('A' for Active; 'I' for Inactive)
REMARK    1  A    between atoms: C_1  and  C_2 
REMARK    2  A    between atoms: C_2  and  O_3 
REMARK    3  A    between atoms: O_3  and  C_4 
REMARK    4  A    between atoms: C_4  and  C_6 
REMARK    5  A    between atoms: C_9  and  N_12 
REMARK       I    between atoms: N_12  and  C_13 
REMARK    6  A    between atoms: C_13  and  C_15 
REMARK    7  A    between atoms: C_15  and  C_16 
REMARK    8  A    between atoms: C_16  and  C_17 
REMARK       I    between atoms: C_17  and  N_19 
REMARK    9  A    between atoms: C_26  and  O_32 
REMARK   10  A    between atoms: O_32  and  C_33 
ROOT
ATOM      1  C   LIG d   1       6.889  -7.195  -5.317  0.00  0.00     0.032 C 
ATOM      2  H   LIG d   1       7.339  -7.292  -6.317  0.00  0.00     0.036 H 
ATOM      3  H   LIG d   1       7.176  -6.228  -4.878  0.00  0.00     0.036 H 
ENDROOT
BRANCH   1   4
ATOM      4  C   LIG d   1       5.365  -7.271  -5.434  0.00  0.00     0.033 C 
ATOM      5  H   LIG d   1       4.948  -7.711  -4.517  0.00  0.00     0.036 H 
ATOM      6  H   LIG d   1       5.095  -7.898  -6.297  0.00  0.00     0.036 H 
BRANCH   4   7
ATOM      7  C   LIG d   1       4.807  -5.884  -5.626  0.00  0.00     0.218 C 
ATOM      8  N   LIG d   1       5.603  -4.809  -5.460  0.00  0.00    -0.285 N 
ATOM      9  H   LIG d   1       6.639  -4.940  -5.117  0.00  0.00     0.155 HD
ATOM     10  O   LIG d   1       3.642  -5.736  -5.930  0.00  0.00    -0.276 OA
BRANCH   8  11
ATOM     11  C   LIG d   1       5.112  -3.532  -5.725  0.00  0.00     0.033 A 
ATOM     12  C   LIG d   1       4.975  -3.099  -7.041  0.00  0.00    -0.040 A 
ATOM     13  C   LIG d   1       4.491  -1.838  -7.305  0.00  0.00    -0.046 A 
ATOM     14  H   LIG d   1       5.250  -3.754  -7.854  0.00  0.00     0.064 H 
ATOM     15  C   LIG d   1       4.137  -0.991  -6.251  0.00  0.00     0.059 A 
ATOM     16  H   LIG d   1       4.387  -1.503  -8.326  0.00  0.00     0.063 H 
ATOM     17  C   LIG d   1       4.276  -1.429  -4.931  0.00  0.00    -0.046 A 
ATOM     18  C   LIG d   1       4.755  -2.693  -4.674  0.00  0.00    -0.040 A 
ATOM     19  H   LIG d   1       4.003  -0.778  -4.113  0.00  0.00     0.063 H 
ATOM     20  H   LIG d   1       4.859  -3.034  -3.653  0.00  0.00     0.064 H 
BRANCH  15  21
ATOM     21  C   LIG d   1       3.619   0.361  -6.531  0.00  0.00     0.339 C 
ATOM     22  O   LIG d   1       2.881   0.905  -5.735  0.00  0.00    -0.245 OA
BRANCH  21  23
ATOM     23  O   LIG d   1       3.965   0.993  -7.670  0.00  0.00    -0.461 OA
BRANCH  23  24
ATOM     24  C   LIG d   1       2.887   1.540  -8.474  0.00  0.00     0.090 C 
ATOM     25  H   LIG d   1       3.254   2.410  -9.037  0.00  0.00     0.070 H 
ATOM     26  H   LIG d   1       2.062   1.851  -7.817  0.00  0.00     0.070 H 
BRANCH  24  27
ATOM     27  C   LIG d   1       2.387   0.473  -9.450  0.00  0.00    -0.031 C 
ATOM     28  H   LIG d   1       3.223  -0.180  -9.739  0.00  0.00     0.026 H 
ATOM     29  H   LIG d   1       1.975   0.960 -10.347  0.00  0.00     0.026 H 
ATOM     30  H   LIG d   1       1.603  -0.127  -8.967  0.00  0.00     0.026 H 
ENDBRANCH  24  27
ENDBRANCH  23  24
ENDBRANCH  21  23
ENDBRANCH  15  21
ENDBRANCH   8  11
ENDBRANCH   4   7
ENDBRANCH   1   4
BRANCH   1  31
ATOM     31  C   LIG d   1       7.381  -8.314  -4.434  0.00  0.00     0.216 C 
ATOM     32  O   LIG d   1       6.681  -9.284  -4.239  0.00  0.00    -0.276 OA
ATOM     33  N   LIG d   1       8.598  -8.234  -3.862  0.00  0.00    -0.297 N 
ATOM     34  C   LIG d   1       9.097  -9.312  -2.990  0.00  0.00     0.042 C 
ATOM     35  C   LIG d   1       9.463  -7.066  -4.085  0.00  0.00     0.020 C 
ATOM     36  C   LIG d   1       9.729  -8.669  -1.785  0.00  0.00    -0.002 A 
ATOM     37  H   LIG d   1       8.258  -9.955  -2.685  0.00  0.00     0.051 H 
ATOM     38  H   LIG d   1       9.839  -9.913  -3.537  0.00  0.00     0.051 H 
ATOM     39  C   LIG d   1       9.987  -7.347  -1.679  0.00  0.00     0.023 A 
ATOM     40  C   LIG d   1      10.170  -9.293  -0.556  0.00  0.00     0.008 A 
ATOM     41  C   LIG d   1       9.671  -6.335  -2.755  0.00  0.00     0.004 C 
ATOM     42  N   LIG d   1      10.568  -7.087  -0.465  0.00  0.00    -0.358 N 
ATOM     43  H   LIG d   1      10.505  -5.625  -2.852  0.00  0.00     0.034 H 
ATOM     44  H   LIG d   1       8.754  -5.787  -2.490  0.00  0.00     0.034 H 
ATOM     45  C   LIG d   1      10.693  -8.247   0.248  0.00  0.00     0.047 A 
ATOM     46  H   LIG d   1      10.852  -6.057  -0.201  0.00  0.00     0.166 HD
ATOM     47  C   LIG d   1      11.208  -8.511   1.514  0.00  0.00    -0.034 A 
ATOM     48  C   LIG d   1      11.184  -9.826   1.944  0.00  0.00    -0.018 A 
ATOM     49  H   LIG d   1      11.609  -7.723   2.135  0.00  0.00     0.064 H 
ATOM     50  C   LIG d   1      10.673 -10.853   1.159  0.00  0.00     0.121 A 
ATOM     51  H   LIG d   1      11.577 -10.062   2.922  0.00  0.00     0.066 H 
ATOM     52  C   LIG d   1      10.155 -10.616  -0.105  0.00  0.00    -0.011 A 
ATOM     53  H   LIG d   1       9.758 -11.417  -0.713  0.00  0.00     0.066 H 
ATOM     54  H   LIG d   1      10.436  -7.400  -4.479  0.00  0.00     0.047 H 
ATOM     55  H   LIG d   1       8.987  -6.389  -4.809  0.00  0.00     0.047 H 
BRANCH  50  56
ATOM     56  O   LIG d   1      10.682 -12.122   1.645  0.00  0.00    -0.495 OA
BRANCH  56  57
ATOM     57  C   LIG d   1      10.739 -13.184   0.689  0.00  0.00     0.079 C 
ATOM     58  H   LIG d   1      10.305 -14.094   1.126  0.00  0.00     0.066 H 
ATOM     59  H   LIG d   1      11.787 -13.372   0.414  0.00  0.00     0.066 H 
ATOM     60  H   LIG d   1      10.169 -12.899  -0.208  0.00  0.00     0.066 H 
ENDBRANCH  56  57
ENDBRANCH  50  56
ENDBRANCH   1  31
TORSDOF 10
ENDMDL
MODEL 9
REMARK VINA RESULT:      -5.7      1.581      2.393
REMARK  10 active torsions:
REMARK  status: ('A' for Active; 'I' for Inactive)
REMARK    1  A    between atoms: C_1  and  C_2 
REMARK    2  A    between atoms: C_2  and  O_3 
REMARK    3  A    between atoms: O_3  and  C_4 
REMARK    4  A    between atoms: C_4  and  C_6 
REMARK    5  A    between atoms: C_9  and  N_12 
REMARK       I    between atoms: N_12  and  C_13 
REMARK    6  A    between atoms: C_13  and  C_15 
REMARK    7  A    between atoms: C_15  and  C_16 
REMARK    8  A    between atoms: C_16  and  C_17 
REMARK       I    between atoms: C_17  and  N_19 
REMARK    9  A    between atoms: C_26  and  O_32 
REMARK   10  A    between atoms: O_32  and  C_33 
ROOT
ATOM      1  C   LIG d   1      10.162   3.101  -6.791  0.00  0.00     0.032 C 
ATOM      2  H   LIG d   1      10.401   2.278  -6.102  0.00  0.00     0.036 H 
ATOM      3  H   LIG d   1      11.013   3.274  -7.467  0.00  0.00     0.036 H 
ENDROOT
BRANCH   1   4
ATOM      4  C   LIG d   1       8.924   2.735  -7.613  0.00  0.00     0.033 C 
ATOM      5  H   LIG d   1       9.191   2.689  -8.678  0.00  0.00     0.036 H 
ATOM      6  H   LIG d   1       8.145   3.498  -7.462  0.00  0.00     0.036 H 
BRANCH   4   7
ATOM      7  C   LIG d   1       8.404   1.393  -7.166  0.00  0.00     0.218 C 
ATOM      8  N   LIG d   1       7.448   1.322  -6.219  0.00  0.00    -0.285 N 
ATOM      9  H   LIG d   1       7.097   2.239  -5.722  0.00  0.00     0.155 HD
ATOM     10  O   LIG d   1       8.846   0.377  -7.658  0.00  0.00    -0.276 OA
BRANCH   8  11
ATOM     11  C   LIG d   1       6.903   0.088  -5.870  0.00  0.00     0.033 A 
ATOM     12  C   LIG d   1       7.487  -0.669  -4.858  0.00  0.00    -0.040 A 
ATOM     13  C   LIG d   1       6.951  -1.888  -4.511  0.00  0.00    -0.046 A 
ATOM     14  H   LIG d   1       8.362  -0.299  -4.346  0.00  0.00     0.064 H 
ATOM     15  C   LIG d   1       5.818  -2.367  -5.176  0.00  0.00     0.059 A 
ATOM     16  H   LIG d   1       7.406  -2.475  -3.727  0.00  0.00     0.063 H 
ATOM     17  C   LIG d   1       5.233  -1.604  -6.191  0.00  0.00    -0.046 A 
ATOM     18  C   LIG d   1       5.772  -0.383  -6.529  0.00  0.00    -0.040 A 
ATOM     19  H   LIG d   1       4.358  -1.970  -6.707  0.00  0.00     0.063 H 
ATOM     20  H   LIG d   1       5.318   0.208  -7.311  0.00  0.00     0.064 H 
BRANCH  15  21
ATOM     21  C   LIG d   1       5.241  -3.673  -4.807  0.00  0.00     0.339 C 
ATOM     22  O   LIG d   1       4.253  -3.724  -4.103  0.00  0.00    -0.245 OA
BRANCH  21  23
ATOM     23  O   LIG d   1       5.812  -4.811  -5.252  0.00  0.00    -0.461 OA
BRANCH  23  24
ATOM     24  C   LIG d   1       5.557  -5.179  -6.633  0.00  0.00     0.090 C 
ATOM     25  H   LIG d   1       6.428  -5.717  -7.036  0.00  0.00     0.070 H 
ATOM     26  H   LIG d   1       5.379  -4.272  -7.227  0.00  0.00     0.070 H 
BRANCH  24  27
ATOM     27  C   LIG d   1       4.324  -6.083  -6.700  0.00  0.00    -0.031 C 
ATOM     28  H   LIG d   1       3.769  -5.878  -7.626  0.00  0.00     0.026 H 
ATOM     29  H   LIG d   1       3.677  -5.888  -5.832  0.00  0.00     0.026 H 
ATOM     30  H   LIG d   1       4.642  -7.137  -6.689  0.00  0.00     0.026 H 
ENDBRANCH  24  27
ENDBRANCH  23  24
ENDBRANCH  21  23
ENDBRANCH  15  21
ENDBRANCH   8  11
ENDBRANCH   4   7
ENDBRANCH   1   4
BRANCH   1  31
ATOM     31  C   LIG d   1       9.886   4.355  -6.000  0.00  0.00     0.216 C 
ATOM     32  O   LIG d   1       9.926   5.437  -6.545  0.00  0.00    -0.276 OA
ATOM     33  N   LIG d   1       9.596   4.272  -4.687  0.00  0.00    -0.297 N 
ATOM     34  C   LIG d   1       9.330   5.484  -3.892  0.00  0.00     0.042 C 
ATOM     35  C   LIG d   1       9.543   2.970  -4.005  0.00  0.00     0.020 C 
ATOM     36  C   LIG d   1      10.068   5.346  -2.587  0.00  0.00    -0.002 A 
ATOM     37  H   LIG d   1       9.686   6.368  -4.441  0.00  0.00     0.051 H 
ATOM     38  H   LIG d   1       8.249   5.574  -3.712  0.00  0.00     0.051 H 
ATOM     39  C   LIG d   1      10.654   4.204  -2.165  0.00  0.00     0.023 A 
ATOM     40  C   LIG d   1      10.295   6.347  -1.568  0.00  0.00     0.008 A 
ATOM     41  C   LIG d   1      10.651   2.912  -2.948  0.00  0.00     0.004 C 
ATOM     42  N   LIG d   1      11.235   4.410  -0.941  0.00  0.00    -0.358 N 
ATOM     43  H   LIG d   1      10.466   2.067  -2.268  0.00  0.00     0.034 H 
ATOM     44  H   LIG d   1      11.624   2.776  -3.442  0.00  0.00     0.034 H 
ATOM     45  C   LIG d   1      11.039   5.704  -0.546  0.00  0.00     0.047 A 
ATOM     46  H   LIG d   1      11.761   3.585  -0.436  0.00  0.00     0.166 HD
ATOM     47  C   LIG d   1      11.427   6.398   0.597  0.00  0.00    -0.034 A 
ATOM     48  C   LIG d   1      11.057   7.728   0.685  0.00  0.00    -0.018 A 
ATOM     49  H   LIG d   1      11.995   5.919   1.382  0.00  0.00     0.064 H 
ATOM     50  C   LIG d   1      10.327   8.361  -0.314  0.00  0.00     0.121 A 
ATOM     51  H   LIG d   1      11.344   8.293   1.559  0.00  0.00     0.066 H 
ATOM     52  C   LIG d   1       9.928   7.693  -1.462  0.00  0.00    -0.011 A 
ATOM     53  H   LIG d   1       9.361   8.187  -2.237  0.00  0.00     0.066 H 
ATOM     54  H   LIG d   1       8.562   2.850  -3.520  0.00  0.00     0.047 H 
ATOM     55  H   LIG d   1       9.690   2.164  -4.739  0.00  0.00     0.047 H 
BRANCH  50  56
ATOM     56  O   LIG d   1       9.997   9.671  -0.162  0.00  0.00    -0.495 OA
BRANCH  56  57
ATOM     57  C   LIG d   1      10.838  10.459   0.683  0.00  0.00     0.079 C 
ATOM     58  H   LIG d   1      11.800  10.636   0.181  0.00  0.00     0.066 H 
ATOM     59  H   LIG d   1      11.010   9.925   1.629  0.00  0.00     0.066 H 
ATOM     60  H   LIG d   1      10.349  11.423   0.890  0.00  0.00     0.066 H 
ENDBRANCH  56  57
ENDBRANCH  50  56
ENDBRANCH   1  31
TORSDOF 10
ENDMDL
MODEL 10
REMARK VINA RESULT:      -5.7      6.741      8.535
REMARK  10 active torsions:
REMARK  status: ('A' for Active; 'I' for Inactive)
REMARK    1  A    between atoms: C_1  and  C_2 
REMARK    2  A    between atoms: C_2  and  O_3 
REMARK    3  A    between atoms: O_3  and  C_4 
REMARK    4  A    between atoms: C_4  and  C_6 
REMARK    5  A    between atoms: C_9  and  N_12 
REMARK       I    between atoms: N_12  and  C_13 
REMARK    6  A    between atoms: C_13  and  C_15 
REMARK    7  A    between atoms: C_15  and  C_16 
REMARK    8  A    between atoms: C_16  and  C_17 
REMARK       I    between atoms: C_17  and  N_19 
REMARK    9  A    between atoms: C_26  and  O_32 
REMARK   10  A    between atoms: O_32  and  C_33 
ROOT
ATOM      1  C   LIG d   1       3.624   0.553 -11.274  0.00  0.00     0.032 C 
ATOM      2  H   LIG d   1       4.079   1.108 -12.109  0.00  0.00     0.036 H 
ATOM      3  H   LIG d   1       2.847   1.172 -10.802  0.00  0.00     0.036 H 
ENDROOT
BRANCH   1   4
ATOM      4  C   LIG d   1       2.996  -0.738 -11.803  0.00  0.00     0.033 C 
ATOM      5  H   LIG d   1       3.589  -1.115 -12.649  0.00  0.00     0.036 H 
ATOM      6  H   LIG d   1       1.968  -0.535 -12.137  0.00  0.00     0.036 H 
BRANCH   4   7
ATOM      7  C   LIG d   1       2.973  -1.771 -10.705  0.00  0.00     0.218 C 
ATOM      8  N   LIG d   1       3.974  -2.667 -10.602  0.00  0.00    -0.285 N 
ATOM      9  H   LIG d   1       4.772  -2.690 -11.359  0.00  0.00     0.155 HD
ATOM     10  O   LIG d   1       2.054  -1.795  -9.914  0.00  0.00    -0.276 OA
BRANCH   8  11
ATOM     11  C   LIG d   1       4.001  -3.563  -9.535  0.00  0.00     0.033 A 
ATOM     12  C   LIG d   1       4.338  -3.116  -8.260  0.00  0.00    -0.040 A 
ATOM     13  C   LIG d   1       4.365  -3.999  -7.205  0.00  0.00    -0.046 A 
ATOM     14  H   LIG d   1       4.580  -2.076  -8.101  0.00  0.00     0.064 H 
ATOM     15  C   LIG d   1       4.052  -5.346  -7.413  0.00  0.00     0.059 A 
ATOM     16  H   LIG d   1       4.628  -3.652  -6.217  0.00  0.00     0.063 H 
ATOM     17  C   LIG d   1       3.713  -5.790  -8.694  0.00  0.00    -0.046 A 
ATOM     18  C   LIG d   1       3.683  -4.901  -9.744  0.00  0.00    -0.040 A 
ATOM     19  H   LIG d   1       3.471  -6.830  -8.859  0.00  0.00     0.063 H 
ATOM     20  H   LIG d   1       3.417  -5.244 -10.734  0.00  0.00     0.064 H 
BRANCH  15  21
ATOM     21  C   LIG d   1       4.081  -6.294  -6.284  0.00  0.00     0.339 C 
ATOM     22  O   LIG d   1       4.166  -5.880  -5.145  0.00  0.00    -0.245 OA
BRANCH  21  23
ATOM     23  O   LIG d   1       4.012  -7.620  -6.517  0.00  0.00    -0.461 OA
BRANCH  23  24
ATOM     24  C   LIG d   1       5.145  -8.423  -6.091  0.00  0.00     0.090 C 
ATOM     25  H   LIG d   1       5.969  -7.761  -5.785  0.00  0.00     0.070 H 
ATOM     26  H   LIG d   1       5.477  -9.059  -6.924  0.00  0.00     0.070 H 
BRANCH  24  27
ATOM     27  C   LIG d   1       4.731  -9.303  -4.910  0.00  0.00    -0.031 C 
ATOM     28  H   LIG d   1       5.408  -9.121  -4.063  0.00  0.00     0.026 H 
ATOM     29  H   LIG d   1       4.787 -10.361  -5.203  0.00  0.00     0.026 H 
ATOM     30  H   LIG d   1       3.700  -9.058  -4.615  0.00  0.00     0.026 H 
ENDBRANCH  24  27
ENDBRANCH  23  24
ENDBRANCH  21  23
ENDBRANCH  15  21
ENDBRANCH   8  11
ENDBRANCH   4   7
ENDBRANCH   1   4
BRANCH   1  31
ATOM     31  C   LIG d   1       4.685   0.216 -10.258  0.00  0.00     0.216 C 
ATOM     32  O   LIG d   1       5.669  -0.409 -10.593  0.00  0.00    -0.276 OA
ATOM     33  N   LIG d   1       4.540   0.609  -8.977  0.00  0.00    -0.297 N 
ATOM     34  C   LIG d   1       5.561   0.285  -7.965  0.00  0.00     0.042 C 
ATOM     35  C   LIG d   1       3.355   1.366  -8.549  0.00  0.00     0.020 C 
ATOM     36  C   LIG d   1       4.844  -0.178  -6.725  0.00  0.00    -0.002 A 
ATOM     37  H   LIG d   1       6.216  -0.511  -8.347  0.00  0.00     0.051 H 
ATOM     38  H   LIG d   1       6.160   1.181  -7.748  0.00  0.00     0.051 H 
ATOM     39  C   LIG d   1       3.511  -0.070  -6.536  0.00  0.00     0.023 A 
ATOM     40  C   LIG d   1       5.397  -0.801  -5.542  0.00  0.00     0.008 A 
ATOM     41  C   LIG d   1       2.558   0.527  -7.545  0.00  0.00     0.004 C 
ATOM     42  N   LIG d   1       3.178  -0.579  -5.307  0.00  0.00    -0.358 N 
ATOM     43  H   LIG d   1       1.826   1.166  -7.030  0.00  0.00     0.034 H 
ATOM     44  H   LIG d   1       2.030  -0.279  -8.077  0.00  0.00     0.034 H 
ATOM     45  C   LIG d   1       4.300  -1.036  -4.674  0.00  0.00     0.047 A 
ATOM     46  H   LIG d   1       2.128  -0.573  -4.976  0.00  0.00     0.166 HD
ATOM     47  C   LIG d   1       4.490  -1.632  -3.430  0.00  0.00    -0.034 A 
ATOM     48  C   LIG d   1       5.784  -1.981  -3.089  0.00  0.00    -0.018 A 
ATOM     49  H   LIG d   1       3.662  -1.816  -2.760  0.00  0.00     0.064 H 
ATOM     50  C   LIG d   1       6.862  -1.752  -3.936  0.00  0.00     0.121 A 
ATOM     51  H   LIG d   1       5.964  -2.446  -2.130  0.00  0.00     0.066 H 
ATOM     52  C   LIG d   1       6.699  -1.160  -5.179  0.00  0.00    -0.011 A 
ATOM     53  H   LIG d   1       7.538  -0.983  -5.837  0.00  0.00     0.066 H 
ATOM     54  H   LIG d   1       3.673   2.308  -8.074  0.00  0.00     0.047 H 
ATOM     55  H   LIG d   1       2.727   1.592  -9.423  0.00  0.00     0.047 H 
BRANCH  50  56
ATOM     56  O   LIG d   1       8.107  -2.120  -3.536  0.00  0.00    -0.495 OA
BRANCH  56  57
ATOM     57  C   LIG d   1       8.523  -3.452  -3.845  0.00  0.00     0.079 C 
ATOM     58  H   LIG d   1       8.086  -4.151  -3.117  0.00  0.00     0.066 H 
ATOM     59  H   LIG d   1       9.620  -3.513  -3.800  0.00  0.00     0.066 H 
ATOM     60  H   LIG d   1       8.182  -3.717  -4.857  0.00  0.00     0.066 H 
ENDBRANCH  56  57
ENDBRANCH  50  56
ENDBRANCH   1  31
TORSDOF 10
ENDMDL
