MODEL 1
REMARK VINA RESULT:      -5.5      0.000      0.000
REMARK  8 active torsions:
REMARK  status: ('A' for Active; 'I' for Inactive)
REMARK    1  A    between atoms: C_1  and  C_2 
REMARK    2  A    between atoms: C_7  and  C_25 
REMARK    3  A    between atoms: C_8  and  O_23 
REMARK    4  A    between atoms: C_12  and  C_21 
REMARK    5  A    between atoms: C_12  and  O_22 
REMARK    6  A    between atoms: C_18  and  C_20 
REMARK    7  A    between atoms: O_23  and  C_24 
REMARK    8  A    between atoms: C_25  and  O_26 
ROOT
ATOM      1  C   LIG d   1       5.121  -1.165  -3.400  0.00  0.00    -0.007 C 
ATOM      2  H   LIG d   1       5.338  -0.542  -4.268  0.00  0.00     0.033 H 
ATOM      3  C   LIG d   1       6.432  -1.669  -2.793  0.00  0.00    -0.044 C 
ATOM      4  C   LIG d   1       7.259  -2.368  -3.874  0.00  0.00    -0.034 C 
ATOM      5  C   LIG d   1       7.171  -1.586  -5.159  0.00  0.00    -0.080 C 
ATOM      6  C   LIG d   1       6.837  -2.189  -6.272  0.00  0.00    -0.016 C 
ATOM      7  C   LIG d   1       6.749  -1.406  -7.557  0.00  0.00     0.100 C 
ATOM      8  H   LIG d   1       7.167  -1.996  -8.372  0.00  0.00     0.069 H 
ATOM      9  C   LIG d   1       5.306  -1.091  -7.854  0.00  0.00    -0.053 C 
ATOM     10  C   LIG d   1       4.748  -0.024  -7.339  0.00  0.00    -0.054 C 
ATOM     11  C   LIG d   1       3.304   0.290  -7.636  0.00  0.00     0.082 C 
ATOM     12  C   LIG d   1       2.665   0.955  -6.416  0.00  0.00    -0.011 C 
ATOM     13  C   LIG d   1       2.592  -0.050  -5.265  0.00  0.00     0.048 C 
ATOM     14  C   LIG d   1       2.943   0.640  -3.972  0.00  0.00     0.307 C 
ATOM     15  O   LIG d   1       3.134   1.833  -3.957  0.00  0.00    -0.251 OA
ATOM     16  O   LIG d   1       3.043  -0.070  -2.838  0.00  0.00    -0.461 OA
ATOM     17  C   LIG d   1       4.360  -0.341  -2.359  0.00  0.00     0.103 C 
ATOM     18  H   LIG d   1       4.298  -0.903  -1.426  0.00  0.00     0.073 H 
ATOM     19  H   LIG d   1       6.996  -0.826  -2.394  0.00  0.00     0.027 H 
ATOM     20  H   LIG d   1       6.214  -2.373  -1.990  0.00  0.00     0.027 H 
ATOM     21  H   LIG d   1       8.300  -2.427  -3.554  0.00  0.00     0.031 H 
ATOM     22  H   LIG d   1       6.870  -3.375  -4.034  0.00  0.00     0.031 H 
ATOM     23  H   LIG d   1       7.383  -0.527  -5.162  0.00  0.00     0.057 H 
ATOM     24  H   LIG d   1       4.730  -1.746  -8.493  0.00  0.00     0.060 H 
ATOM     25  H   LIG d   1       5.323   0.631  -6.701  0.00  0.00     0.060 H 
ATOM     26  H   LIG d   1       3.267   1.812  -6.112  0.00  0.00     0.030 H 
ATOM     27  H   LIG d   1       1.659   1.290  -6.670  0.00  0.00     0.030 H 
ATOM     28  H   LIG d   1       1.582  -0.454  -5.200  0.00  0.00     0.038 H 
ATOM     29  H   LIG d   1       3.296  -0.862  -5.447  0.00  0.00     0.038 H 
ENDROOT
BRANCH   7  30
ATOM     30  O   LIG d   1       7.484  -0.188  -7.423  0.00  0.00    -0.371 OA
BRANCH  30  31
ATOM     31  C   LIG d   1       8.566  -0.059  -8.349  0.00  0.00     0.038 C 
ATOM     32  H   LIG d   1       9.426  -0.620  -7.983  0.00  0.00     0.052 H 
ATOM     33  H   LIG d   1       8.262  -0.453  -9.319  0.00  0.00     0.052 H 
ATOM     34  H   LIG d   1       8.834   0.992  -8.451  0.00  0.00     0.052 H 
ENDBRANCH  30  31
ENDBRANCH   7  30
BRANCH   6  35
ATOM     35  C   LIG d   1       6.540  -3.667  -6.268  0.00  0.00     0.068 C 
ATOM     36  H   LIG d   1       7.065  -4.142  -5.440  0.00  0.00     0.060 H 
ATOM     37  H   LIG d   1       5.466  -3.821  -6.154  0.00  0.00     0.060 H 
BRANCH  35  38
ATOM     38  O   LIG d   1       6.975  -4.243  -7.502  0.00  0.00    -0.391 OA
ATOM     39  H   LIG d   1       6.410  -4.028  -8.258  0.00  0.00     0.210 HD
ENDBRANCH  35  38
ENDBRANCH   6  35
BRANCH  11  40
ATOM     40  C   LIG d   1       3.225   1.237  -8.834  0.00  0.00    -0.032 C 
ATOM     41  H   LIG d   1       4.005   1.995  -8.752  0.00  0.00     0.026 H 
ATOM     42  H   LIG d   1       3.364   0.671  -9.756  0.00  0.00     0.026 H 
ATOM     43  H   LIG d   1       2.249   1.722  -8.850  0.00  0.00     0.026 H 
ENDBRANCH  11  40
BRANCH  11  44
ATOM     44  O   LIG d   1       2.606  -0.919  -7.938  0.00  0.00    -0.385 OA
ATOM     45  H   LIG d   1       2.424  -1.472  -7.165  0.00  0.00     0.211 HD
ENDBRANCH  11  44
BRANCH   1  46
ATOM     46  C   LIG d   1       4.266  -2.359  -3.831  0.00  0.00    -0.059 C 
ATOM     47  H   LIG d   1       3.950  -2.225  -4.866  0.00  0.00     0.023 H 
ATOM     48  H   LIG d   1       4.851  -3.274  -3.746  0.00  0.00     0.023 H 
ATOM     49  H   LIG d   1       3.388  -2.427  -3.188  0.00  0.00     0.023 H 
ENDBRANCH   1  46
BRANCH  17  50
ATOM     50  C   LIG d   1       5.097   0.976  -2.112  0.00  0.00    -0.028 C 
ATOM     51  H   LIG d   1       5.899   0.814  -1.391  0.00  0.00     0.026 H 
ATOM     52  H   LIG d   1       5.520   1.338  -3.050  0.00  0.00     0.026 H 
ATOM     53  H   LIG d   1       4.399   1.715  -1.719  0.00  0.00     0.026 H 
ENDBRANCH  17  50
TORSDOF 8
ENDMDL
MODEL 2
REMARK VINA RESULT:      -5.1      1.910      4.817
REMARK  8 active torsions:
REMARK  status: ('A' for Active; 'I' for Inactive)
REMARK    1  A    between atoms: C_1  and  C_2 
REMARK    2  A    between atoms: C_7  and  C_25 
REMARK    3  A    between atoms: C_8  and  O_23 
REMARK    4  A    between atoms: C_12  and  C_21 
REMARK    5  A    between atoms: C_12  and  O_22 
REMARK    6  A    between atoms: C_18  and  C_20 
REMARK    7  A    between atoms: O_23  and  C_24 
REMARK    8  A    between atoms: C_25  and  O_26 
ROOT
ATOM      1  C   LIG d   1       5.595  -3.360  -7.259  0.00  0.00    -0.007 C 
ATOM      2  H   LIG d   1       5.577  -2.309  -6.973  0.00  0.00     0.033 H 
ATOM      3  C   LIG d   1       5.986  -3.482  -8.734  0.00  0.00    -0.044 C 
ATOM      4  C   LIG d   1       5.051  -2.619  -9.582  0.00  0.00    -0.034 C 
ATOM      5  C   LIG d   1       4.803  -1.308  -8.881  0.00  0.00    -0.080 C 
ATOM      6  C   LIG d   1       3.577  -0.888  -8.692  0.00  0.00    -0.016 C 
ATOM      7  C   LIG d   1       3.329   0.423  -7.990  0.00  0.00     0.100 C 
ATOM      8  H   LIG d   1       2.518   0.954  -8.487  0.00  0.00     0.069 H 
ATOM      9  C   LIG d   1       2.953   0.160  -6.555  0.00  0.00    -0.053 C 
ATOM     10  C   LIG d   1       3.887   0.021  -5.647  0.00  0.00    -0.054 C 
ATOM     11  C   LIG d   1       3.509  -0.242  -4.212  0.00  0.00     0.082 C 
ATOM     12  C   LIG d   1       4.561  -1.145  -3.565  0.00  0.00    -0.011 C 
ATOM     13  C   LIG d   1       4.516  -2.529  -4.216  0.00  0.00     0.048 C 
ATOM     14  C   LIG d   1       5.921  -3.039  -4.409  0.00  0.00     0.307 C 
ATOM     15  O   LIG d   1       6.857  -2.406  -3.981  0.00  0.00    -0.251 OA
ATOM     16  O   LIG d   1       6.133  -4.195  -5.057  0.00  0.00    -0.461 OA
ATOM     17  C   LIG d   1       6.616  -4.106  -6.397  0.00  0.00     0.103 C 
ATOM     18  H   LIG d   1       6.764  -5.110  -6.796  0.00  0.00     0.073 H 
ATOM     19  H   LIG d   1       7.013  -3.142  -8.866  0.00  0.00     0.027 H 
ATOM     20  H   LIG d   1       5.905  -4.523  -9.047  0.00  0.00     0.027 H 
ATOM     21  H   LIG d   1       5.511  -2.431 -10.553  0.00  0.00     0.031 H 
ATOM     22  H   LIG d   1       4.104  -3.140  -9.723  0.00  0.00     0.031 H 
ATOM     23  H   LIG d   1       5.636  -0.715  -8.534  0.00  0.00     0.057 H 
ATOM     24  H   LIG d   1       1.912   0.087  -6.275  0.00  0.00     0.060 H 
ATOM     25  H   LIG d   1       4.927   0.095  -5.927  0.00  0.00     0.060 H 
ATOM     26  H   LIG d   1       5.550  -0.709  -3.706  0.00  0.00     0.030 H 
ATOM     27  H   LIG d   1       4.353  -1.238  -2.499  0.00  0.00     0.030 H 
ATOM     28  H   LIG d   1       3.966  -3.215  -3.572  0.00  0.00     0.038 H 
ATOM     29  H   LIG d   1       4.017  -2.460  -5.183  0.00  0.00     0.038 H 
ENDROOT
BRANCH   7  30
ATOM     30  O   LIG d   1       4.516   1.218  -8.033  0.00  0.00    -0.371 OA
BRANCH  30  31
ATOM     31  C   LIG d   1       4.521   2.197  -9.074  0.00  0.00     0.038 C 
ATOM     32  H   LIG d   1       5.082   1.817  -9.929  0.00  0.00     0.052 H 
ATOM     33  H   LIG d   1       3.496   2.409  -9.378  0.00  0.00     0.052 H 
ATOM     34  H   LIG d   1       4.990   3.112  -8.711  0.00  0.00     0.052 H 
ENDBRANCH  30  31
ENDBRANCH   7  30
BRANCH   6  35
ATOM     35  C   LIG d   1       2.414  -1.715  -9.174  0.00  0.00     0.068 C 
ATOM     36  H   LIG d   1       2.744  -2.373  -9.979  0.00  0.00     0.060 H 
ATOM     37  H   LIG d   1       2.028  -2.316  -8.350  0.00  0.00     0.060 H 
BRANCH  35  38
ATOM     38  O   LIG d   1       1.383  -0.851  -9.658  0.00  0.00    -0.391 OA
ATOM     39  H   LIG d   1       1.285  -0.856 -10.620  0.00  0.00     0.210 HD
ENDBRANCH  35  38
ENDBRANCH   6  35
BRANCH  11  40
ATOM     40  C   LIG d   1       3.437   1.083  -3.452  0.00  0.00    -0.032 C 
ATOM     41  H   LIG d   1       2.810   1.785  -4.004  0.00  0.00     0.026 H 
ATOM     42  H   LIG d   1       3.009   0.913  -2.464  0.00  0.00     0.026 H 
ATOM     43  H   LIG d   1       4.440   1.497  -3.348  0.00  0.00     0.026 H 
ENDBRANCH  11  40
BRANCH  11  44
ATOM     44  O   LIG d   1       2.235  -0.888  -4.166  0.00  0.00    -0.385 OA
ATOM     45  H   LIG d   1       2.203  -1.730  -4.640  0.00  0.00     0.211 HD
ENDBRANCH  11  44
BRANCH   1  46
ATOM     46  C   LIG d   1       4.208  -3.970  -7.048  0.00  0.00    -0.059 C 
ATOM     47  H   LIG d   1       3.985  -4.006  -5.981  0.00  0.00     0.023 H 
ATOM     48  H   LIG d   1       3.461  -3.357  -7.554  0.00  0.00     0.023 H 
ATOM     49  H   LIG d   1       4.188  -4.979  -7.457  0.00  0.00     0.023 H 
ENDBRANCH   1  46
BRANCH  17  50
ATOM     50  C   LIG d   1       7.946  -3.351  -6.413  0.00  0.00    -0.028 C 
ATOM     51  H   LIG d   1       8.053  -2.784  -5.487  0.00  0.00     0.026 H 
ATOM     52  H   LIG d   1       8.768  -4.062  -6.500  0.00  0.00     0.026 H 
ATOM     53  H   LIG d   1       7.966  -2.667  -7.261  0.00  0.00     0.026 H 
ENDBRANCH  17  50
TORSDOF 8
ENDMDL
MODEL 3
REMARK VINA RESULT:      -4.9      2.194      4.542
REMARK  8 active torsions:
REMARK  status: ('A' for Active; 'I' for Inactive)
REMARK    1  A    between atoms: C_1  and  C_2 
REMARK    2  A    between atoms: C_7  and  C_25 
REMARK    3  A    between atoms: C_8  and  O_23 
REMARK    4  A    between atoms: C_12  and  C_21 
REMARK    5  A    between atoms: C_12  and  O_22 
REMARK    6  A    between atoms: C_18  and  C_20 
REMARK    7  A    between atoms: O_23  and  C_24 
REMARK    8  A    between atoms: C_25  and  O_26 
ROOT
ATOM      1  C   LIG d   1       7.765   0.597  -6.536  0.00  0.00    -0.007 C 
ATOM      2  H   LIG d   1       6.744   0.906  -6.314  0.00  0.00     0.033 H 
ATOM      3  C   LIG d   1       8.211   1.220  -7.861  0.00  0.00    -0.044 C 
ATOM      4  C   LIG d   1       7.199   0.870  -8.954  0.00  0.00    -0.034 C 
ATOM      5  C   LIG d   1       5.802   0.978  -8.399  0.00  0.00    -0.080 C 
ATOM      6  C   LIG d   1       4.963  -0.018  -8.539  0.00  0.00    -0.016 C 
ATOM      7  C   LIG d   1       3.566   0.090  -7.983  0.00  0.00     0.100 C 
ATOM      8  H   LIG d   1       2.859  -0.344  -8.690  0.00  0.00     0.069 H 
ATOM      9  C   LIG d   1       3.488  -0.652  -6.674  0.00  0.00    -0.053 C 
ATOM     10  C   LIG d   1       3.818  -0.050  -5.559  0.00  0.00    -0.054 C 
ATOM     11  C   LIG d   1       3.740  -0.794  -4.250  0.00  0.00     0.082 C 
ATOM     12  C   LIG d   1       4.856  -0.310  -3.321  0.00  0.00    -0.011 C 
ATOM     13  C   LIG d   1       6.213  -0.721  -3.896  0.00  0.00     0.048 C 
ATOM     14  C   LIG d   1       7.197   0.405  -3.712  0.00  0.00     0.307 C 
ATOM     15  O   LIG d   1       6.876   1.395  -3.098  0.00  0.00    -0.251 OA
ATOM     16  O   LIG d   1       8.431   0.310  -4.232  0.00  0.00    -0.461 OA
ATOM     17  C   LIG d   1       8.695   1.065  -5.414  0.00  0.00     0.103 C 
ATOM     18  H   LIG d   1       9.732   0.914  -5.716  0.00  0.00     0.073 H 
ATOM     19  H   LIG d   1       8.268   2.302  -7.752  0.00  0.00     0.027 H 
ATOM     20  H   LIG d   1       9.191   0.830  -8.134  0.00  0.00     0.027 H 
ATOM     21  H   LIG d   1       7.314   1.561  -9.789  0.00  0.00     0.031 H 
ATOM     22  H   LIG d   1       7.376  -0.150  -9.299  0.00  0.00     0.031 H 
ATOM     23  H   LIG d   1       5.493   1.877  -7.887  0.00  0.00     0.057 H 
ATOM     24  H   LIG d   1       3.159  -1.681  -6.656  0.00  0.00     0.060 H 
ATOM     25  H   LIG d   1       4.146   0.978  -5.577  0.00  0.00     0.060 H 
ATOM     26  H   LIG d   1       4.811   0.776  -3.235  0.00  0.00     0.030 H 
ATOM     27  H   LIG d   1       4.727  -0.759  -2.336  0.00  0.00     0.030 H 
ATOM     28  H   LIG d   1       6.574  -1.608  -3.375  0.00  0.00     0.038 H 
ATOM     29  H   LIG d   1       6.106  -0.942  -4.958  0.00  0.00     0.038 H 
ENDROOT
BRANCH   7  30
ATOM     30  O   LIG d   1       3.244   1.466  -7.771  0.00  0.00    -0.371 OA
BRANCH  30  31
ATOM     31  C   LIG d   1       2.606   2.092  -8.886  0.00  0.00     0.038 C 
ATOM     32  H   LIG d   1       2.935   3.128  -8.959  0.00  0.00     0.052 H 
ATOM     33  H   LIG d   1       2.873   1.561  -9.801  0.00  0.00     0.052 H 
ATOM     34  H   LIG d   1       1.525   2.062  -8.751  0.00  0.00     0.052 H 
ENDBRANCH  30  31
ENDBRANCH   7  30
BRANCH   6  35
ATOM     35  C   LIG d   1       5.395  -1.273  -9.252  0.00  0.00     0.068 C 
ATOM     36  H   LIG d   1       6.217  -1.042  -9.930  0.00  0.00     0.060 H 
ATOM     37  H   LIG d   1       5.724  -2.013  -8.521  0.00  0.00     0.060 H 
BRANCH  35  38
ATOM     38  O   LIG d   1       4.295  -1.798  -9.999  0.00  0.00    -0.391 OA
ATOM     39  H   LIG d   1       4.336  -1.606 -10.947  0.00  0.00     0.210 HD
ENDBRANCH  35  38
ENDBRANCH   6  35
BRANCH  11  40
ATOM     40  C   LIG d   1       2.383  -0.533  -3.596  0.00  0.00    -0.032 C 
ATOM     41  H   LIG d   1       2.022   0.454  -3.887  0.00  0.00     0.026 H 
ATOM     42  H   LIG d   1       1.670  -1.291  -3.923  0.00  0.00     0.026 H 
ATOM     43  H   LIG d   1       2.488  -0.576  -2.512  0.00  0.00     0.026 H 
ENDBRANCH  11  40
BRANCH  11  44
ATOM     44  O   LIG d   1       3.894  -2.194  -4.488  0.00  0.00    -0.385 OA
ATOM     45  H   LIG d   1       3.573  -2.483  -5.354  0.00  0.00     0.211 HD
ENDBRANCH  11  44
BRANCH   1  46
ATOM     46  C   LIG d   1       7.823  -0.928  -6.644  0.00  0.00    -0.059 C 
ATOM     47  H   LIG d   1       7.316  -1.373  -5.787  0.00  0.00     0.023 H 
ATOM     48  H   LIG d   1       7.331  -1.246  -7.563  0.00  0.00     0.023 H 
ATOM     49  H   LIG d   1       8.864  -1.252  -6.658  0.00  0.00     0.023 H 
ENDBRANCH   1  46
BRANCH  17  50
ATOM     50  C   LIG d   1       8.455   2.550  -5.138  0.00  0.00    -0.028 C 
ATOM     51  H   LIG d   1       8.058   3.027  -6.035  0.00  0.00     0.026 H 
ATOM     52  H   LIG d   1       7.740   2.658  -4.323  0.00  0.00     0.026 H 
ATOM     53  H   LIG d   1       9.396   3.025  -4.861  0.00  0.00     0.026 H 
ENDBRANCH  17  50
TORSDOF 8
ENDMDL
MODEL 4
REMARK VINA RESULT:      -4.7      2.387      5.898
REMARK  8 active torsions:
REMARK  status: ('A' for Active; 'I' for Inactive)
REMARK    1  A    between atoms: C_1  and  C_2 
REMARK    2  A    between atoms: C_7  and  C_25 
REMARK    3  A    between atoms: C_8  and  O_23 
REMARK    4  A    between atoms: C_12  and  C_21 
REMARK    5  A    between atoms: C_12  and  O_22 
REMARK    6  A    between atoms: C_18  and  C_20 
REMARK    7  A    between atoms: O_23  and  C_24 
REMARK    8  A    between atoms: C_25  and  O_26 
ROOT
ATOM      1  C   LIG d   1       5.876  -0.224  -7.896  0.00  0.00    -0.007 C 
ATOM      2  H   LIG d   1       5.954   0.460  -7.051  0.00  0.00     0.033 H 
ATOM      3  C   LIG d   1       4.428  -0.696  -8.039  0.00  0.00    -0.044 C 
ATOM      4  C   LIG d   1       3.950  -1.285  -6.710  0.00  0.00    -0.034 C 
ATOM      5  C   LIG d   1       4.450  -0.431  -5.573  0.00  0.00    -0.080 C 
ATOM      6  C   LIG d   1       5.090  -0.983  -4.572  0.00  0.00    -0.016 C 
ATOM      7  C   LIG d   1       5.591  -0.129  -3.435  0.00  0.00     0.100 C 
ATOM      8  H   LIG d   1       5.424  -0.647  -2.491  0.00  0.00     0.069 H 
ATOM      9  C   LIG d   1       7.064   0.128  -3.613  0.00  0.00    -0.053 C 
ATOM     10  C   LIG d   1       7.470   1.132  -4.350  0.00  0.00    -0.054 C 
ATOM     11  C   LIG d   1       8.945   1.388  -4.528  0.00  0.00     0.082 C 
ATOM     12  C   LIG d   1       9.201   1.945  -5.930  0.00  0.00    -0.011 C 
ATOM     13  C   LIG d   1       8.887   0.869  -6.971  0.00  0.00     0.048 C 
ATOM     14  C   LIG d   1       8.180   1.497  -8.144  0.00  0.00     0.307 C 
ATOM     15  O   LIG d   1       8.030   2.696  -8.189  0.00  0.00    -0.251 OA
ATOM     16  O   LIG d   1       7.716   0.726  -9.140  0.00  0.00    -0.461 OA
ATOM     17  C   LIG d   1       6.307   0.495  -9.176  0.00  0.00     0.103 C 
ATOM     18  H   LIG d   1       6.064  -0.125 -10.040  0.00  0.00     0.073 H 
ATOM     19  H   LIG d   1       3.796   0.150  -8.309  0.00  0.00     0.027 H 
ATOM     20  H   LIG d   1       4.368  -1.457  -8.816  0.00  0.00     0.027 H 
ATOM     21  H   LIG d   1       2.860  -1.309  -6.695  0.00  0.00     0.031 H 
ATOM     22  H   LIG d   1       4.338  -2.298  -6.602  0.00  0.00     0.031 H 
ATOM     23  H   LIG d   1       4.281   0.635  -5.584  0.00  0.00     0.057 H 
ATOM     24  H   LIG d   1       7.787  -0.516  -3.133  0.00  0.00     0.060 H 
ATOM     25  H   LIG d   1       6.749   1.776  -4.830  0.00  0.00     0.060 H 
ATOM     26  H   LIG d   1       8.561   2.812  -6.098  0.00  0.00     0.030 H 
ATOM     27  H   LIG d   1      10.246   2.242  -6.017  0.00  0.00     0.030 H 
ATOM     28  H   LIG d   1       9.816   0.411  -7.310  0.00  0.00     0.038 H 
ATOM     29  H   LIG d   1       8.248   0.107  -6.526  0.00  0.00     0.038 H 
ENDROOT
BRANCH   7  30
ATOM     30  O   LIG d   1       4.887   1.114  -3.429  0.00  0.00    -0.371 OA
BRANCH  30  31
ATOM     31  C   LIG d   1       4.003   1.275  -2.317  0.00  0.00     0.038 C 
ATOM     32  H   LIG d   1       4.414   2.015  -1.630  0.00  0.00     0.052 H 
ATOM     33  H   LIG d   1       3.029   1.613  -2.674  0.00  0.00     0.052 H 
ATOM     34  H   LIG d   1       3.891   0.322  -1.801  0.00  0.00     0.052 H 
ENDBRANCH  30  31
ENDBRANCH   7  30
BRANCH   6  35
ATOM     35  C   LIG d   1       5.326  -2.471  -4.558  0.00  0.00     0.068 C 
ATOM     36  H   LIG d   1       5.275  -2.858  -5.575  0.00  0.00     0.060 H 
ATOM     37  H   LIG d   1       6.312  -2.679  -4.140  0.00  0.00     0.060 H 
BRANCH  35  38
ATOM     38  O   LIG d   1       4.327  -3.104  -3.756  0.00  0.00    -0.391 OA
ATOM     39  H   LIG d   1       4.467  -3.008  -2.803  0.00  0.00     0.210 HD
ENDBRANCH  35  38
ENDBRANCH   6  35
BRANCH  11  40
ATOM     40  C   LIG d   1       9.416   2.401  -3.483  0.00  0.00    -0.032 C 
ATOM     41  H   LIG d   1      10.482   2.589  -3.614  0.00  0.00     0.026 H 
ATOM     42  H   LIG d   1       8.865   3.334  -3.606  0.00  0.00     0.026 H 
ATOM     43  H   LIG d   1       9.238   2.002  -2.484  0.00  0.00     0.026 H 
ENDBRANCH  11  40
BRANCH  11  44
ATOM     44  O   LIG d   1       9.664   0.165  -4.364  0.00  0.00    -0.385 OA
ATOM     45  H   LIG d   1       9.833  -0.071  -3.441  0.00  0.00     0.211 HD
ENDBRANCH  11  44
BRANCH   1  46
ATOM     46  C   LIG d   1       6.785  -1.432  -7.658  0.00  0.00    -0.059 C 
ATOM     47  H   LIG d   1       7.364  -1.634  -8.560  0.00  0.00     0.023 H 
ATOM     48  H   LIG d   1       7.463  -1.220  -6.832  0.00  0.00     0.023 H 
ATOM     49  H   LIG d   1       6.176  -2.303  -7.415  0.00  0.00     0.023 H 
ENDBRANCH   1  46
BRANCH  17  50
ATOM     50  C   LIG d   1       5.571   1.831  -9.284  0.00  0.00    -0.028 C 
ATOM     51  H   LIG d   1       6.296   2.637  -9.400  0.00  0.00     0.026 H 
ATOM     52  H   LIG d   1       4.908   1.812 -10.148  0.00  0.00     0.026 H 
ATOM     53  H   LIG d   1       4.986   1.997  -8.380  0.00  0.00     0.026 H 
ENDBRANCH  17  50
TORSDOF 8
ENDMDL
MODEL 5
REMARK VINA RESULT:      -4.7      9.708     11.627
REMARK  8 active torsions:
REMARK  status: ('A' for Active; 'I' for Inactive)
REMARK    1  A    between atoms: C_1  and  C_2 
REMARK    2  A    between atoms: C_7  and  C_25 
REMARK    3  A    between atoms: C_8  and  O_23 
REMARK    4  A    between atoms: C_12  and  C_21 
REMARK    5  A    between atoms: C_12  and  O_22 
REMARK    6  A    between atoms: C_18  and  C_20 
REMARK    7  A    between atoms: O_23  and  C_24 
REMARK    8  A    between atoms: C_25  and  O_26 
ROOT
ATOM      1  C   LIG d   1      10.706   6.281  -2.841  0.00  0.00    -0.007 C 
ATOM      2  H   LIG d   1      11.132   7.284  -2.842  0.00  0.00     0.033 H 
ATOM      3  C   LIG d   1      11.354   5.451  -3.951  0.00  0.00    -0.044 C 
ATOM      4  C   LIG d   1      11.216   6.187  -5.285  0.00  0.00    -0.034 C 
ATOM      5  C   LIG d   1      11.469   7.658  -5.075  0.00  0.00    -0.080 C 
ATOM      6  C   LIG d   1      10.604   8.540  -5.510  0.00  0.00    -0.016 C 
ATOM      7  C   LIG d   1      10.857  10.011  -5.300  0.00  0.00     0.100 C 
ATOM      8  H   LIG d   1      10.568  10.561  -6.195  0.00  0.00     0.069 H 
ATOM      9  C   LIG d   1      10.043  10.497  -4.128  0.00  0.00    -0.053 C 
ATOM     10  C   LIG d   1      10.519  10.393  -2.912  0.00  0.00    -0.054 C 
ATOM     11  C   LIG d   1       9.704  10.879  -1.741  0.00  0.00     0.082 C 
ATOM     12  C   LIG d   1       9.972   9.986  -0.527  0.00  0.00    -0.011 C 
ATOM     13  C   LIG d   1       9.426   8.582  -0.796  0.00  0.00     0.048 C 
ATOM     14  C   LIG d   1      10.398   7.557  -0.271  0.00  0.00     0.307 C 
ATOM     15  O   LIG d   1      11.377   7.912   0.343  0.00  0.00    -0.251 OA
ATOM     16  O   LIG d   1      10.177   6.251  -0.484  0.00  0.00    -0.461 OA
ATOM     17  C   LIG d   1      10.970   5.617  -1.488  0.00  0.00     0.103 C 
ATOM     18  H   LIG d   1      10.705   4.560  -1.544  0.00  0.00     0.073 H 
ATOM     19  H   LIG d   1      12.410   5.304  -3.726  0.00  0.00     0.027 H 
ATOM     20  H   LIG d   1      10.858   4.482  -4.017  0.00  0.00     0.027 H 
ATOM     21  H   LIG d   1      11.942   5.791  -5.995  0.00  0.00     0.031 H 
ATOM     22  H   LIG d   1      10.208   6.044  -5.676  0.00  0.00     0.031 H 
ATOM     23  H   LIG d   1      12.363   7.985  -4.566  0.00  0.00     0.057 H 
ATOM     24  H   LIG d   1       9.068  10.932  -4.291  0.00  0.00     0.060 H 
ATOM     25  H   LIG d   1      11.494   9.959  -2.749  0.00  0.00     0.060 H 
ATOM     26  H   LIG d   1      11.046   9.931  -0.348  0.00  0.00     0.030 H 
ATOM     27  H   LIG d   1       9.478  10.407   0.349  0.00  0.00     0.030 H 
ATOM     28  H   LIG d   1       8.467   8.464  -0.294  0.00  0.00     0.038 H 
ATOM     29  H   LIG d   1       9.295   8.443  -1.869  0.00  0.00     0.038 H 
ENDROOT
BRANCH   7  30
ATOM     30  O   LIG d   1      12.245  10.222  -5.036  0.00  0.00    -0.371 OA
BRANCH  30  31
ATOM     31  C   LIG d   1      12.882  11.111  -5.956  0.00  0.00     0.038 C 
ATOM     32  H   LIG d   1      12.974  10.625  -6.927  0.00  0.00     0.052 H 
ATOM     33  H   LIG d   1      12.283  12.017  -6.059  0.00  0.00     0.052 H 
ATOM     34  H   LIG d   1      13.873  11.371  -5.585  0.00  0.00     0.052 H 
ENDBRANCH  30  31
ENDBRANCH   7  30
BRANCH   6  35
ATOM     35  C   LIG d   1       9.355   8.084  -6.219  0.00  0.00     0.068 C 
ATOM     36  H   LIG d   1       9.532   7.113  -6.680  0.00  0.00     0.060 H 
ATOM     37  H   LIG d   1       8.538   8.003  -5.502  0.00  0.00     0.060 H 
BRANCH  35  38
ATOM     38  O   LIG d   1       9.008   9.034  -7.229  0.00  0.00    -0.391 OA
ATOM     39  H   LIG d   1       8.747   9.899  -6.883  0.00  0.00     0.210 HD
ENDBRANCH  35  38
ENDBRANCH   6  35
BRANCH  11  40
ATOM     40  C   LIG d   1      10.096  12.320  -1.410  0.00  0.00    -0.032 C 
ATOM     41  H   LIG d   1      10.985  12.320  -0.780  0.00  0.00     0.026 H 
ATOM     42  H   LIG d   1      10.305  12.861  -2.334  0.00  0.00     0.026 H 
ATOM     43  H   LIG d   1       9.276  12.807  -0.882  0.00  0.00     0.026 H 
ENDBRANCH  11  40
BRANCH  11  44
ATOM     44  O   LIG d   1       8.315  10.827  -2.072  0.00  0.00    -0.385 OA
ATOM     45  H   LIG d   1       7.733  10.717  -1.307  0.00  0.00     0.211 HD
ENDBRANCH  11  44
BRANCH   1  46
ATOM     46  C   LIG d   1       9.198   6.366  -3.082  0.00  0.00    -0.059 C 
ATOM     47  H   LIG d   1       8.977   6.081  -4.111  0.00  0.00     0.023 H 
ATOM     48  H   LIG d   1       8.682   5.691  -2.399  0.00  0.00     0.023 H 
ATOM     49  H   LIG d   1       8.859   7.388  -2.907  0.00  0.00     0.023 H 
ENDBRANCH   1  46
BRANCH  17  50
ATOM     50  C   LIG d   1      12.451   5.753  -1.132  0.00  0.00    -0.028 C 
ATOM     51  H   LIG d   1      12.837   6.690  -1.536  0.00  0.00     0.026 H 
ATOM     52  H   LIG d   1      12.567   5.749  -0.048  0.00  0.00     0.026 H 
ATOM     53  H   LIG d   1      13.006   4.918  -1.560  0.00  0.00     0.026 H 
ENDBRANCH  17  50
TORSDOF 8
ENDMDL
MODEL 6
REMARK VINA RESULT:      -4.7      9.671     11.779
REMARK  8 active torsions:
REMARK  status: ('A' for Active; 'I' for Inactive)
REMARK    1  A    between atoms: C_1  and  C_2 
REMARK    2  A    between atoms: C_7  and  C_25 
REMARK    3  A    between atoms: C_8  and  O_23 
REMARK    4  A    between atoms: C_12  and  C_21 
REMARK    5  A    between atoms: C_12  and  O_22 
REMARK    6  A    between atoms: C_18  and  C_20 
REMARK    7  A    between atoms: O_23  and  C_24 
REMARK    8  A    between atoms: C_25  and  O_26 
ROOT
ATOM      1  C   LIG d   1      10.658   6.349  -4.309  0.00  0.00    -0.007 C 
ATOM      2  H   LIG d   1      11.080   7.200  -3.774  0.00  0.00     0.033 H 
ATOM      3  C   LIG d   1      11.381   6.180  -5.648  0.00  0.00    -0.044 C 
ATOM      4  C   LIG d   1      11.328   7.497  -6.425  0.00  0.00    -0.034 C 
ATOM      5  C   LIG d   1      11.562   8.648  -5.481  0.00  0.00    -0.080 C 
ATOM      6  C   LIG d   1      10.725   9.654  -5.455  0.00  0.00    -0.016 C 
ATOM      7  C   LIG d   1      10.959  10.805  -4.510  0.00  0.00     0.100 C 
ATOM      8  H   LIG d   1      10.729  11.743  -5.015  0.00  0.00     0.069 H 
ATOM      9  C   LIG d   1      10.068  10.653  -3.304  0.00  0.00    -0.053 C 
ATOM     10  C   LIG d   1      10.463   9.930  -2.286  0.00  0.00    -0.054 C 
ATOM     11  C   LIG d   1       9.571   9.777  -1.080  0.00  0.00     0.082 C 
ATOM     12  C   LIG d   1       9.761   8.384  -0.478  0.00  0.00    -0.011 C 
ATOM     13  C   LIG d   1       9.239   7.329  -1.456  0.00  0.00     0.048 C 
ATOM     14  C   LIG d   1      10.177   6.150  -1.470  0.00  0.00     0.307 C 
ATOM     15  O   LIG d   1      11.112   6.112  -0.706  0.00  0.00    -0.251 OA
ATOM     16  O   LIG d   1       9.975   5.142  -2.332  0.00  0.00    -0.461 OA
ATOM     17  C   LIG d   1      10.834   5.082  -3.471  0.00  0.00     0.103 C 
ATOM     18  H   LIG d   1      10.577   4.209  -4.073  0.00  0.00     0.073 H 
ATOM     19  H   LIG d   1      12.420   5.906  -5.467  0.00  0.00     0.027 H 
ATOM     20  H   LIG d   1      10.893   5.396  -6.227  0.00  0.00     0.027 H 
ATOM     21  H   LIG d   1      12.101   7.495  -7.195  0.00  0.00     0.031 H 
ATOM     22  H   LIG d   1      10.349   7.604  -6.893  0.00  0.00     0.031 H 
ATOM     23  H   LIG d   1      12.420   8.642  -4.825  0.00  0.00     0.057 H 
ATOM     24  H   LIG d   1       9.104  11.140  -3.280  0.00  0.00     0.060 H 
ATOM     25  H   LIG d   1      11.427   9.443  -2.309  0.00  0.00     0.060 H 
ATOM     26  H   LIG d   1      10.821   8.211  -0.289  0.00  0.00     0.030 H 
ATOM     27  H   LIG d   1       9.209   8.315   0.460  0.00  0.00     0.030 H 
ATOM     28  H   LIG d   1       8.249   7.002  -1.141  0.00  0.00     0.038 H 
ATOM     29  H   LIG d   1       9.179   7.759  -2.455  0.00  0.00     0.038 H 
ENDROOT
BRANCH   7  30
ATOM     30  O   LIG d   1      12.326  10.810  -4.095  0.00  0.00    -0.371 OA
BRANCH  30  31
ATOM     31  C   LIG d   1      13.008  12.039  -4.357  0.00  0.00     0.038 C 
ATOM     32  H   LIG d   1      12.500  12.853  -3.839  0.00  0.00     0.052 H 
ATOM     33  H   LIG d   1      14.036  11.966  -3.999  0.00  0.00     0.052 H 
ATOM     34  H   LIG d   1      13.008  12.234  -5.429  0.00  0.00     0.052 H 
ENDBRANCH  30  31
ENDBRANCH   7  30
BRANCH   6  35
ATOM     35  C   LIG d   1       9.527   9.662  -6.369  0.00  0.00     0.068 C 
ATOM     36  H   LIG d   1       9.573   8.802  -7.037  0.00  0.00     0.060 H 
ATOM     37  H   LIG d   1       8.615   9.611  -5.774  0.00  0.00     0.060 H 
BRANCH  35  38
ATOM     38  O   LIG d   1       9.525  10.864  -7.142  0.00  0.00    -0.391 OA
ATOM     39  H   LIG d   1       8.707  11.012  -7.638  0.00  0.00     0.210 HD
ENDBRANCH  35  38
ENDBRANCH   6  35
BRANCH  11  40
ATOM     40  C   LIG d   1       9.936  10.837  -0.039  0.00  0.00    -0.032 C 
ATOM     41  H   LIG d   1      10.014  11.811  -0.524  0.00  0.00     0.026 H 
ATOM     42  H   LIG d   1       9.162  10.874   0.728  0.00  0.00     0.026 H 
ATOM     43  H   LIG d   1      10.891  10.582   0.420  0.00  0.00     0.026 H 
ENDBRANCH  11  40
BRANCH  11  44
ATOM     44  O   LIG d   1       8.208   9.944  -1.472  0.00  0.00    -0.385 OA
ATOM     45  H   LIG d   1       7.848  10.822  -1.281  0.00  0.00     0.211 HD
ENDBRANCH  11  44
BRANCH   1  46
ATOM     46  C   LIG d   1       9.169   6.592  -4.561  0.00  0.00    -0.059 C 
ATOM     47  H   LIG d   1       8.590   5.770  -4.139  0.00  0.00     0.023 H 
ATOM     48  H   LIG d   1       8.868   7.527  -4.088  0.00  0.00     0.023 H 
ATOM     49  H   LIG d   1       8.986   6.653  -5.634  0.00  0.00     0.023 H 
ENDBRANCH   1  46
BRANCH  17  50
ATOM     50  C   LIG d   1      12.289   4.972  -3.010  0.00  0.00    -0.028 C 
ATOM     51  H   LIG d   1      12.805   4.223  -3.611  0.00  0.00     0.026 H 
ATOM     52  H   LIG d   1      12.782   5.936  -3.130  0.00  0.00     0.026 H 
ATOM     53  H   LIG d   1      12.316   4.677  -1.961  0.00  0.00     0.026 H 
ENDBRANCH  17  50
TORSDOF 8
ENDMDL
MODEL 7
REMARK VINA RESULT:      -4.4      9.727     12.464
REMARK  8 active torsions:
REMARK  status: ('A' for Active; 'I' for Inactive)
REMARK    1  A    between atoms: C_1  and  C_2 
REMARK    2  A    between atoms: C_7  and  C_25 
REMARK    3  A    between atoms: C_8  and  O_23 
REMARK    4  A    between atoms: C_12  and  C_21 
REMARK    5  A    between atoms: C_12  and  O_22 
REMARK    6  A    between atoms: C_18  and  C_20 
REMARK    7  A    between atoms: O_23  and  C_24 
REMARK    8  A    between atoms: C_25  and  O_26 
ROOT
ATOM      1  C   LIG d   1      10.703   8.438  -5.957  0.00  0.00    -0.007 C 
ATOM      2  H   LIG d   1      11.134   8.558  -4.963  0.00  0.00     0.033 H 
ATOM      3  C   LIG d   1      11.095   9.633  -6.830  0.00  0.00    -0.044 C 
ATOM      4  C   LIG d   1      10.697  10.931  -6.127  0.00  0.00    -0.034 C 
ATOM      5  C   LIG d   1      11.010  10.823  -4.657  0.00  0.00    -0.080 C 
ATOM      6  C   LIG d   1      10.088  11.098  -3.769  0.00  0.00    -0.016 C 
ATOM      7  C   LIG d   1      10.402  10.989  -2.298  0.00  0.00     0.100 C 
ATOM      8  H   LIG d   1       9.944  11.823  -1.766  0.00  0.00     0.069 H 
ATOM      9  C   LIG d   1       9.855   9.691  -1.764  0.00  0.00    -0.053 C 
ATOM     10  C   LIG d   1      10.569   8.596  -1.845  0.00  0.00    -0.054 C 
ATOM     11  C   LIG d   1      10.021   7.298  -1.311  0.00  0.00     0.082 C 
ATOM     12  C   LIG d   1      10.519   6.138  -2.176  0.00  0.00    -0.011 C 
ATOM     13  C   LIG d   1       9.908   6.246  -3.575  0.00  0.00     0.048 C 
ATOM     14  C   LIG d   1      10.951   5.900  -4.606  0.00  0.00     0.307 C 
ATOM     15  O   LIG d   1      12.040   5.512  -4.257  0.00  0.00    -0.251 OA
ATOM     16  O   LIG d   1      10.670   6.024  -5.913  0.00  0.00    -0.461 OA
ATOM     17  C   LIG d   1      11.229   7.149  -6.591  0.00  0.00     0.103 C 
ATOM     18  H   LIG d   1      10.942   7.117  -7.642  0.00  0.00     0.073 H 
ATOM     19  H   LIG d   1      12.172   9.624  -6.994  0.00  0.00     0.027 H 
ATOM     20  H   LIG d   1      10.581   9.566  -7.790  0.00  0.00     0.027 H 
ATOM     21  H   LIG d   1      11.254  11.763  -6.558  0.00  0.00     0.031 H 
ATOM     22  H   LIG d   1       9.628  11.103  -6.259  0.00  0.00     0.031 H 
ATOM     23  H   LIG d   1      11.995  10.519  -4.336  0.00  0.00     0.057 H 
ATOM     24  H   LIG d   1       8.874   9.663  -1.313  0.00  0.00     0.060 H 
ATOM     25  H   LIG d   1      11.550   8.623  -2.295  0.00  0.00     0.060 H 
ATOM     26  H   LIG d   1      11.606   6.181  -2.250  0.00  0.00     0.030 H 
ATOM     27  H   LIG d   1      10.222   5.193  -1.722  0.00  0.00     0.030 H 
ATOM     28  H   LIG d   1       9.070   5.554  -3.659  0.00  0.00     0.038 H 
ATOM     29  H   LIG d   1       9.556   7.264  -3.740  0.00  0.00     0.038 H 
ENDROOT
BRANCH   7  30
ATOM     30  O   LIG d   1      11.818  11.023  -2.110  0.00  0.00    -0.371 OA
BRANCH  30  31
ATOM     31  C   LIG d   1      12.255  12.006  -1.169  0.00  0.00     0.038 C 
ATOM     32  H   LIG d   1      13.183  12.457  -1.519  0.00  0.00     0.052 H 
ATOM     33  H   LIG d   1      11.491  12.778  -1.070  0.00  0.00     0.052 H 
ATOM     34  H   LIG d   1      12.423  11.533  -0.201  0.00  0.00     0.052 H 
ENDBRANCH  30  31
ENDBRANCH   7  30
BRANCH   6  35
ATOM     35  C   LIG d   1       8.713  11.521  -4.216  0.00  0.00     0.068 C 
ATOM     36  H   LIG d   1       8.766  12.512  -4.668  0.00  0.00     0.060 H 
ATOM     37  H   LIG d   1       8.333  10.808  -4.949  0.00  0.00     0.060 H 
BRANCH  35  38
ATOM     38  O   LIG d   1       7.835  11.558  -3.088  0.00  0.00    -0.391 OA
ATOM     39  H   LIG d   1       7.899  12.370  -2.567  0.00  0.00     0.210 HD
ENDBRANCH  35  38
ENDBRANCH   6  35
BRANCH  11  40
ATOM     40  C   LIG d   1      10.494   7.099   0.130  0.00  0.00    -0.032 C 
ATOM     41  H   LIG d   1      11.209   7.881   0.389  0.00  0.00     0.026 H 
ATOM     42  H   LIG d   1       9.639   7.150   0.805  0.00  0.00     0.026 H 
ATOM     43  H   LIG d   1      10.973   6.124   0.224  0.00  0.00     0.026 H 
ENDBRANCH  11  40
BRANCH  11  44
ATOM     44  O   LIG d   1       8.593   7.334  -1.342  0.00  0.00    -0.385 OA
ATOM     45  H   LIG d   1       8.202   6.834  -2.072  0.00  0.00     0.211 HD
ENDBRANCH  11  44
BRANCH   1  46
ATOM     46  C   LIG d   1       9.178   8.367  -5.846  0.00  0.00    -0.059 C 
ATOM     47  H   LIG d   1       8.757   9.363  -5.985  0.00  0.00     0.023 H 
ATOM     48  H   LIG d   1       8.789   7.698  -6.613  0.00  0.00     0.023 H 
ATOM     49  H   LIG d   1       8.903   7.990  -4.861  0.00  0.00     0.023 H 
ENDBRANCH   1  46
BRANCH  17  50
ATOM     50  C   LIG d   1      12.754   7.109  -6.477  0.00  0.00    -0.028 C 
ATOM     51  H   LIG d   1      13.049   7.356  -5.456  0.00  0.00     0.026 H 
ATOM     52  H   LIG d   1      13.112   6.111  -6.727  0.00  0.00     0.026 H 
ATOM     53  H   LIG d   1      13.188   7.834  -7.166  0.00  0.00     0.026 H 
ENDBRANCH  17  50
TORSDOF 8
ENDMDL
MODEL 8
REMARK VINA RESULT:      -4.3      2.260      5.101
REMARK  8 active torsions:
REMARK  status: ('A' for Active; 'I' for Inactive)
REMARK    1  A    between atoms: C_1  and  C_2 
REMARK    2  A    between atoms: C_7  and  C_25 
REMARK    3  A    between atoms: C_8  and  O_23 
REMARK    4  A    between atoms: C_12  and  C_21 
REMARK    5  A    between atoms: C_12  and  O_22 
REMARK    6  A    between atoms: C_18  and  C_20 
REMARK    7  A    between atoms: O_23  and  C_24 
REMARK    8  A    between atoms: C_25  and  O_26 
ROOT
ATOM      1  C   LIG d   1       5.476  -4.251  -7.456  0.00  0.00    -0.007 C 
ATOM      2  H   LIG d   1       4.712  -3.576  -7.070  0.00  0.00     0.033 H 
ATOM      3  C   LIG d   1       5.802  -5.309  -6.400  0.00  0.00    -0.044 C 
ATOM      4  C   LIG d   1       6.181  -4.620  -5.088  0.00  0.00    -0.034 C 
ATOM      5  C   LIG d   1       5.263  -3.448  -4.852  0.00  0.00    -0.080 C 
ATOM      6  C   LIG d   1       5.763  -2.267  -4.589  0.00  0.00    -0.016 C 
ATOM      7  C   LIG d   1       4.844  -1.095  -4.354  0.00  0.00     0.100 C 
ATOM      8  H   LIG d   1       5.230  -0.489  -3.534  0.00  0.00     0.069 H 
ATOM      9  C   LIG d   1       4.769  -0.258  -5.604  0.00  0.00    -0.053 C 
ATOM     10  C   LIG d   1       3.905  -0.557  -6.542  0.00  0.00    -0.054 C 
ATOM     11  C   LIG d   1       3.831   0.281  -7.793  0.00  0.00     0.082 C 
ATOM     12  C   LIG d   1       3.468  -0.610  -8.983  0.00  0.00    -0.011 C 
ATOM     13  C   LIG d   1       4.615  -1.583  -9.261  0.00  0.00     0.048 C 
ATOM     14  C   LIG d   1       4.052  -2.940  -9.597  0.00  0.00     0.307 C 
ATOM     15  O   LIG d   1       2.857  -3.089  -9.702  0.00  0.00    -0.251 OA
ATOM     16  O   LIG d   1       4.877  -3.982  -9.781  0.00  0.00    -0.461 OA
ATOM     17  C   LIG d   1       4.958  -4.937  -8.722  0.00  0.00     0.103 C 
ATOM     18  H   LIG d   1       5.642  -5.737  -9.008  0.00  0.00     0.073 H 
ATOM     19  H   LIG d   1       4.929  -5.942  -6.238  0.00  0.00     0.027 H 
ATOM     20  H   LIG d   1       6.636  -5.921  -6.743  0.00  0.00     0.027 H 
ATOM     21  H   LIG d   1       6.085  -5.328  -4.264  0.00  0.00     0.031 H 
ATOM     22  H   LIG d   1       7.211  -4.268  -5.147  0.00  0.00     0.031 H 
ATOM     23  H   LIG d   1       4.192  -3.583  -4.900  0.00  0.00     0.057 H 
ATOM     24  H   LIG d   1       5.428   0.589  -5.727  0.00  0.00     0.060 H 
ATOM     25  H   LIG d   1       3.245  -1.403  -6.419  0.00  0.00     0.060 H 
ATOM     26  H   LIG d   1       2.562  -1.171  -8.753  0.00  0.00     0.030 H 
ATOM     27  H   LIG d   1       3.297   0.012  -9.862  0.00  0.00     0.030 H 
ATOM     28  H   LIG d   1       5.206  -1.217 -10.099  0.00  0.00     0.038 H 
ATOM     29  H   LIG d   1       5.248  -1.660  -8.377  0.00  0.00     0.038 H 
ENDROOT
BRANCH   7  30
ATOM     30  O   LIG d   1       3.539  -1.573  -4.021  0.00  0.00    -0.371 OA
BRANCH  30  31
ATOM     31  C   LIG d   1       2.919  -0.865  -2.946  0.00  0.00     0.038 C 
ATOM     32  H   LIG d   1       2.947   0.205  -3.150  0.00  0.00     0.052 H 
ATOM     33  H   LIG d   1       1.882  -1.189  -2.849  0.00  0.00     0.052 H 
ATOM     34  H   LIG d   1       3.452  -1.072  -2.018  0.00  0.00     0.052 H 
ENDBRANCH  30  31
ENDBRANCH   7  30
BRANCH   6  35
ATOM     35  C   LIG d   1       7.256  -2.078  -4.523  0.00  0.00     0.068 C 
ATOM     36  H   LIG d   1       7.753  -2.988  -4.858  0.00  0.00     0.060 H 
ATOM     37  H   LIG d   1       7.547  -1.248  -5.167  0.00  0.00     0.060 H 
BRANCH  35  38
ATOM     38  O   LIG d   1       7.641  -1.793  -3.176  0.00  0.00    -0.391 OA
ATOM     39  H   LIG d   1       6.988  -1.278  -2.681  0.00  0.00     0.210 HD
ENDBRANCH  35  38
ENDBRANCH   6  35
BRANCH  11  40
ATOM     40  C   LIG d   1       2.763   1.362  -7.620  0.00  0.00    -0.032 C 
ATOM     41  H   LIG d   1       3.042   2.245  -8.196  0.00  0.00     0.026 H 
ATOM     42  H   LIG d   1       1.803   0.985  -7.975  0.00  0.00     0.026 H 
ATOM     43  H   LIG d   1       2.681   1.627  -6.566  0.00  0.00     0.026 H 
ENDBRANCH  11  40
BRANCH  11  44
ATOM     44  O   LIG d   1       5.098   0.897  -8.029  0.00  0.00    -0.385 OA
ATOM     45  H   LIG d   1       5.599   0.500  -8.756  0.00  0.00     0.211 HD
ENDBRANCH  11  44
BRANCH   1  46
ATOM     46  C   LIG d   1       6.740  -3.455  -7.788  0.00  0.00    -0.059 C 
ATOM     47  H   LIG d   1       7.552  -4.144  -8.020  0.00  0.00     0.023 H 
ATOM     48  H   LIG d   1       6.550  -2.814  -8.648  0.00  0.00     0.023 H 
ATOM     49  H   LIG d   1       7.018  -2.841  -6.931  0.00  0.00     0.023 H 
ENDBRANCH   1  46
BRANCH  17  50
ATOM     50  C   LIG d   1       3.571  -5.524  -8.454  0.00  0.00    -0.028 C 
ATOM     51  H   LIG d   1       2.905  -4.735  -8.101  0.00  0.00     0.026 H 
ATOM     52  H   LIG d   1       3.172  -5.951  -9.374  0.00  0.00     0.026 H 
ATOM     53  H   LIG d   1       3.646  -6.302  -7.694  0.00  0.00     0.026 H 
ENDBRANCH  17  50
TORSDOF 8
ENDMDL
MODEL 9
REMARK VINA RESULT:      -4.1     10.746     13.152
REMARK  8 active torsions:
REMARK  status: ('A' for Active; 'I' for Inactive)
REMARK    1  A    between atoms: C_1  and  C_2 
REMARK    2  A    between atoms: C_7  and  C_25 
REMARK    3  A    between atoms: C_8  and  O_23 
REMARK    4  A    between atoms: C_12  and  C_21 
REMARK    5  A    between atoms: C_12  and  O_22 
REMARK    6  A    between atoms: C_18  and  C_20 
REMARK    7  A    between atoms: O_23  and  C_24 
REMARK    8  A    between atoms: C_25  and  O_26 
ROOT
ATOM      1  C   LIG d   1      10.094   7.224  -2.118  0.00  0.00    -0.007 C 
ATOM      2  H   LIG d   1      10.950   7.886  -1.989  0.00  0.00     0.033 H 
ATOM      3  C   LIG d   1       9.896   6.928  -3.606  0.00  0.00    -0.044 C 
ATOM      4  C   LIG d   1       9.791   8.245  -4.378  0.00  0.00    -0.034 C 
ATOM      5  C   LIG d   1      10.803   9.224  -3.841  0.00  0.00    -0.080 C 
ATOM      6  C   LIG d   1      10.425  10.427  -3.486  0.00  0.00    -0.016 C 
ATOM      7  C   LIG d   1      11.436  11.407  -2.947  0.00  0.00     0.100 C 
ATOM      8  H   LIG d   1      11.234  12.398  -3.353  0.00  0.00     0.069 H 
ATOM      9  C   LIG d   1      11.341  11.451  -1.445  0.00  0.00    -0.053 C 
ATOM     10  C   LIG d   1      12.010  10.589  -0.719  0.00  0.00    -0.054 C 
ATOM     11  C   LIG d   1      11.913  10.634   0.784  0.00  0.00     0.082 C 
ATOM     12  C   LIG d   1      12.011   9.214   1.344  0.00  0.00    -0.011 C 
ATOM     13  C   LIG d   1      10.779   8.411   0.921  0.00  0.00     0.048 C 
ATOM     14  C   LIG d   1      11.196   7.014   0.541  0.00  0.00     0.307 C 
ATOM     15  O   LIG d   1      12.344   6.665   0.688  0.00  0.00    -0.251 OA
ATOM     16  O   LIG d   1      10.293   6.157   0.040  0.00  0.00    -0.461 OA
ATOM     17  C   LIG d   1      10.343   5.915  -1.366  0.00  0.00     0.103 C 
ATOM     18  H   LIG d   1       9.575   5.189  -1.636  0.00  0.00     0.073 H 
ATOM     19  H   LIG d   1      10.745   6.356  -3.979  0.00  0.00     0.027 H 
ATOM     20  H   LIG d   1       8.981   6.352  -3.744  0.00  0.00     0.027 H 
ATOM     21  H   LIG d   1       9.988   8.063  -5.435  0.00  0.00     0.031 H 
ATOM     22  H   LIG d   1       8.788   8.656  -4.260  0.00  0.00     0.031 H 
ATOM     23  H   LIG d   1      11.839   8.935  -3.748  0.00  0.00     0.057 H 
ATOM     24  H   LIG d   1      10.720  12.194  -0.964  0.00  0.00     0.060 H 
ATOM     25  H   LIG d   1      12.631   9.847  -1.199  0.00  0.00     0.060 H 
ATOM     26  H   LIG d   1      12.910   8.732   0.957  0.00  0.00     0.030 H 
ATOM     27  H   LIG d   1      12.062   9.256   2.432  0.00  0.00     0.030 H 
ATOM     28  H   LIG d   1      10.073   8.367   1.750  0.00  0.00     0.038 H 
ATOM     29  H   LIG d   1      10.306   8.896   0.067  0.00  0.00     0.038 H 
ENDROOT
BRANCH   7  30
ATOM     30  O   LIG d   1      12.749  10.993  -3.329  0.00  0.00    -0.371 OA
BRANCH  30  31
ATOM     31  C   LIG d   1      13.432  11.928  -4.167  0.00  0.00     0.038 C 
ATOM     32  H   LIG d   1      12.735  12.337  -4.899  0.00  0.00     0.052 H 
ATOM     33  H   LIG d   1      13.833  12.737  -3.556  0.00  0.00     0.052 H 
ATOM     34  H   LIG d   1      14.248  11.424  -4.686  0.00  0.00     0.052 H 
ENDBRANCH  30  31
ENDBRANCH   7  30
BRANCH   6  35
ATOM     35  C   LIG d   1       8.979  10.832  -3.614  0.00  0.00     0.068 C 
ATOM     36  H   LIG d   1       8.910  11.764  -4.173  0.00  0.00     0.060 H 
ATOM     37  H   LIG d   1       8.428  10.051  -4.141  0.00  0.00     0.060 H 
BRANCH  35  38
ATOM     38  O   LIG d   1       8.418  11.014  -2.312  0.00  0.00    -0.391 OA
ATOM     39  H   LIG d   1       7.457  11.122  -2.309  0.00  0.00     0.210 HD
ENDBRANCH  35  38
ENDBRANCH   6  35
BRANCH  11  40
ATOM     40  C   LIG d   1      13.055  11.483   1.343  0.00  0.00    -0.032 C 
ATOM     41  H   LIG d   1      13.860  11.540   0.609  0.00  0.00     0.026 H 
ATOM     42  H   LIG d   1      12.690  12.488   1.560  0.00  0.00     0.026 H 
ATOM     43  H   LIG d   1      13.432  11.028   2.259  0.00  0.00     0.026 H 
ENDBRANCH  11  40
BRANCH  11  44
ATOM     44  O   LIG d   1      10.662  11.209   1.164  0.00  0.00    -0.385 OA
ATOM     45  H   LIG d   1      10.313  10.873   2.002  0.00  0.00     0.211 HD
ENDBRANCH  11  44
BRANCH   1  46
ATOM     46  C   LIG d   1       8.839   7.901  -1.562  0.00  0.00    -0.059 C 
ATOM     47  H   LIG d   1       8.384   7.259  -0.807  0.00  0.00     0.023 H 
ATOM     48  H   LIG d   1       9.111   8.855  -1.110  0.00  0.00     0.023 H 
ATOM     49  H   LIG d   1       8.129   8.071  -2.371  0.00  0.00     0.023 H 
ENDBRANCH   1  46
BRANCH  17  50
ATOM     50  C   LIG d   1      11.719   5.364  -1.743  0.00  0.00    -0.028 C 
ATOM     51  H   LIG d   1      11.640   4.296  -1.947  0.00  0.00     0.026 H 
ATOM     52  H   LIG d   1      12.086   5.877  -2.632  0.00  0.00     0.026 H 
ATOM     53  H   LIG d   1      12.413   5.525  -0.918  0.00  0.00     0.026 H 
ENDBRANCH  17  50
TORSDOF 8
ENDMDL
