MODEL 1
REMARK VINA RESULT:      -6.3      0.000      0.000
REMARK  8 active torsions:
REMARK  status: ('A' for Active; 'I' for Inactive)
REMARK    1  A    between atoms: C_1  and  C_2 
REMARK    2  A    between atoms: C_2  and  O_4 
REMARK    3  A    between atoms: O_4  and  C_5 
REMARK    4  A    between atoms: C_5  and  C_6 
REMARK    5  A    between atoms: C_6  and  C_8 
REMARK    6  A    between atoms: C_8  and  O_30 
REMARK    7  A    between atoms: C_13  and  C_29 
REMARK    8  A    between atoms: C_27  and  C_28 
ROOT
ATOM      1  C   LIG d   1       4.495  -2.154  -4.850  0.00  0.00     0.133 C 
ATOM      2  C   LIG d   1       3.430  -1.167  -4.314  0.00  0.00    -0.016 C 
ATOM      3  C   LIG d   1       3.247  -0.083  -5.410  0.00  0.00    -0.046 C 
ATOM      4  C   LIG d   1       3.694  -0.803  -6.695  0.00  0.00    -0.026 C 
ATOM      5  H   LIG d   1       2.935  -1.502  -7.048  0.00  0.00     0.031 H 
ATOM      6  C   LIG d   1       4.952  -1.577  -6.189  0.00  0.00     0.011 C 
ATOM      7  C   LIG d   1       5.274  -2.605  -7.263  0.00  0.00    -0.026 C 
ATOM      8  C   LIG d   1       5.521  -1.833  -8.538  0.00  0.00    -0.083 C 
ATOM      9  C   LIG d   1       5.033  -0.646  -8.771  0.00  0.00    -0.056 C 
ATOM     10  C   LIG d   1       4.124   0.103  -7.825  0.00  0.00    -0.015 C 
ATOM     11  H   LIG d   1       4.659   0.960  -7.416  0.00  0.00     0.035 H 
ATOM     12  C   LIG d   1       2.885   0.594  -8.578  0.00  0.00    -0.043 C 
ATOM     13  C   LIG d   1       3.297   1.476  -9.758  0.00  0.00    -0.030 C 
ATOM     14  C   LIG d   1       4.197   0.660 -10.667  0.00  0.00    -0.052 A 
ATOM     15  C   LIG d   1       3.859   0.499 -11.939  0.00  0.00    -0.015 A 
ATOM     16  C   LIG d   1       4.673  -0.348 -12.824  0.00  0.00     0.179 A 
ATOM     17  O   LIG d   1       4.413  -0.441 -14.009  0.00  0.00    -0.288 OA
ATOM     18  C   LIG d   1       5.811  -1.081 -12.243  0.00  0.00    -0.018 A 
ATOM     19  C   LIG d   1       6.137  -0.895 -10.973  0.00  0.00    -0.067 A 
ATOM     20  C   LIG d   1       5.425   0.044 -10.064  0.00  0.00     0.029 A 
ATOM     21  H   LIG d   1       2.489  -1.690  -4.145  0.00  0.00     0.030 H 
ATOM     22  H   LIG d   1       3.777  -0.709  -3.388  0.00  0.00     0.030 H 
ATOM     23  H   LIG d   1       2.201   0.213  -5.489  0.00  0.00     0.027 H 
ATOM     24  H   LIG d   1       3.878   0.783  -5.204  0.00  0.00     0.027 H 
ATOM     25  H   LIG d   1       4.430  -3.283  -7.395  0.00  0.00     0.031 H 
ATOM     26  H   LIG d   1       6.166  -3.167  -6.987  0.00  0.00     0.031 H 
ATOM     27  H   LIG d   1       6.137  -2.289  -9.299  0.00  0.00     0.057 H 
ATOM     28  H   LIG d   1       2.330  -0.264  -8.958  0.00  0.00     0.027 H 
ATOM     29  H   LIG d   1       2.248   1.159  -7.896  0.00  0.00     0.027 H 
ATOM     30  H   LIG d   1       3.839   2.349  -9.393  0.00  0.00     0.031 H 
ATOM     31  H   LIG d   1       2.412   1.795 -10.306  0.00  0.00     0.031 H 
ATOM     32  H   LIG d   1       2.980   0.992 -12.327  0.00  0.00     0.066 H 
ATOM     33  H   LIG d   1       6.379  -1.769 -12.851  0.00  0.00     0.065 H 
ATOM     34  H   LIG d   1       6.969  -1.456 -10.574  0.00  0.00     0.059 H 
ENDROOT
BRANCH   1  35
ATOM     35  C   LIG d   1       5.658  -2.236  -3.894  0.00  0.00     0.202 C 
ATOM     36  O   LIG d   1       6.611  -2.927  -4.161  0.00  0.00    -0.291 OA
BRANCH  35  37
ATOM     37  C   LIG d   1       5.630  -1.457  -2.605  0.00  0.00     0.153 C 
ATOM     38  H   LIG d   1       4.684  -1.243  -2.364  0.00  0.00     0.078 H 
ATOM     39  H   LIG d   1       6.081  -2.052  -1.810  0.00  0.00     0.078 H 
BRANCH  37  40
ATOM     40  O   LIG d   1       6.379  -0.224  -2.768  0.00  0.00    -0.457 OA
BRANCH  40  41
ATOM     41  C   LIG d   1       5.697   0.925  -2.644  0.00  0.00     0.304 C 
ATOM     42  O   LIG d   1       6.023   1.895  -3.287  0.00  0.00    -0.251 OA
BRANCH  41  43
ATOM     43  C   LIG d   1       4.522   1.006  -1.704  0.00  0.00     0.033 C 
ATOM     44  H   LIG d   1       4.660   1.846  -1.022  0.00  0.00     0.034 H 
ATOM     45  H   LIG d   1       3.606   1.151  -2.277  0.00  0.00     0.034 H 
ATOM     46  H   LIG d   1       4.451   0.081  -1.131  0.00  0.00     0.034 H 
ENDBRANCH  41  43
ENDBRANCH  40  41
ENDBRANCH  37  40
ENDBRANCH  35  37
ENDBRANCH   1  35
BRANCH   1  47
ATOM     47  O   LIG d   1       3.919  -3.449  -5.041  0.00  0.00    -0.380 OA
ATOM     48  H   LIG d   1       3.899  -3.991  -4.240  0.00  0.00     0.211 HD
ENDBRANCH   1  47
BRANCH   6  49
ATOM     49  C   LIG d   1       6.141  -0.636  -5.983  0.00  0.00    -0.056 C 
ATOM     50  H   LIG d   1       7.067  -1.211  -5.998  0.00  0.00     0.024 H 
ATOM     51  H   LIG d   1       6.161   0.105  -6.781  0.00  0.00     0.024 H 
ATOM     52  H   LIG d   1       6.044  -0.131  -5.022  0.00  0.00     0.024 H 
ENDBRANCH   6  49
BRANCH  20  53
ATOM     53  C   LIG d   1       6.397   1.174  -9.718  0.00  0.00    -0.049 C 
ATOM     54  H   LIG d   1       6.696   1.089  -8.673  0.00  0.00     0.024 H 
ATOM     55  H   LIG d   1       7.279   1.102 -10.355  0.00  0.00     0.024 H 
ATOM     56  H   LIG d   1       5.911   2.136  -9.879  0.00  0.00     0.024 H 
ENDBRANCH  20  53
TORSDOF 8
ENDMDL
MODEL 2
REMARK VINA RESULT:      -6.2      8.442     10.487
REMARK  8 active torsions:
REMARK  status: ('A' for Active; 'I' for Inactive)
REMARK    1  A    between atoms: C_1  and  C_2 
REMARK    2  A    between atoms: C_2  and  O_4 
REMARK    3  A    between atoms: O_4  and  C_5 
REMARK    4  A    between atoms: C_5  and  C_6 
REMARK    5  A    between atoms: C_6  and  C_8 
REMARK    6  A    between atoms: C_8  and  O_30 
REMARK    7  A    between atoms: C_13  and  C_29 
REMARK    8  A    between atoms: C_27  and  C_28 
ROOT
ATOM      1  C   LIG d   1       9.668   7.960  -1.557  0.00  0.00     0.133 C 
ATOM      2  C   LIG d   1       9.907   9.487  -1.633  0.00  0.00    -0.016 C 
ATOM      3  C   LIG d   1      10.305   9.795  -3.102  0.00  0.00    -0.046 C 
ATOM      4  C   LIG d   1       9.685   8.625  -3.887  0.00  0.00    -0.026 C 
ATOM      5  H   LIG d   1       8.607   8.742  -3.997  0.00  0.00     0.031 H 
ATOM      6  C   LIG d   1      10.009   7.422  -2.946  0.00  0.00     0.011 C 
ATOM      7  C   LIG d   1       9.140   6.268  -3.425  0.00  0.00    -0.026 C 
ATOM      8  C   LIG d   1       9.517   6.017  -4.867  0.00  0.00    -0.083 C 
ATOM      9  C   LIG d   1      10.044   6.920  -5.646  0.00  0.00    -0.056 C 
ATOM     10  C   LIG d   1      10.312   8.348  -5.233  0.00  0.00    -0.015 C 
ATOM     11  H   LIG d   1      11.389   8.508  -5.169  0.00  0.00     0.035 H 
ATOM     12  C   LIG d   1       9.721   9.307  -6.271  0.00  0.00    -0.043 C 
ATOM     13  C   LIG d   1      10.306   9.014  -7.655  0.00  0.00    -0.030 C 
ATOM     14  C   LIG d   1       9.992   7.573  -8.006  0.00  0.00    -0.052 A 
ATOM     15  C   LIG d   1       9.318   7.308  -9.116  0.00  0.00    -0.015 A 
ATOM     16  C   LIG d   1       8.936   5.925  -9.444  0.00  0.00     0.179 A 
ATOM     17  O   LIG d   1       8.383   5.664 -10.496  0.00  0.00    -0.288 OA
ATOM     18  C   LIG d   1       9.237   4.863  -8.468  0.00  0.00    -0.018 A 
ATOM     19  C   LIG d   1       9.922   5.150  -7.371  0.00  0.00    -0.067 A 
ATOM     20  C   LIG d   1      10.442   6.507  -7.050  0.00  0.00     0.029 A 
ATOM     21  H   LIG d   1       8.993  10.021  -1.374  0.00  0.00     0.030 H 
ATOM     22  H   LIG d   1      10.714   9.774  -0.958  0.00  0.00     0.030 H 
ATOM     23  H   LIG d   1       9.870  10.740  -3.429  0.00  0.00     0.027 H 
ATOM     24  H   LIG d   1      11.390   9.812  -3.211  0.00  0.00     0.027 H 
ATOM     25  H   LIG d   1       8.087   6.540  -3.357  0.00  0.00     0.031 H 
ATOM     26  H   LIG d   1       9.337   5.378  -2.827  0.00  0.00     0.031 H 
ATOM     27  H   LIG d   1       9.340   5.032  -5.276  0.00  0.00     0.057 H 
ATOM     28  H   LIG d   1       8.640   9.172  -6.311  0.00  0.00     0.027 H 
ATOM     29  H   LIG d   1       9.945  10.334  -5.982  0.00  0.00     0.027 H 
ATOM     30  H   LIG d   1      11.386   9.161  -7.636  0.00  0.00     0.031 H 
ATOM     31  H   LIG d   1       9.857   9.679  -8.392  0.00  0.00     0.031 H 
ATOM     32  H   LIG d   1       9.047   8.112  -9.785  0.00  0.00     0.066 H 
ATOM     33  H   LIG d   1       8.901   3.853  -8.647  0.00  0.00     0.065 H 
ATOM     34  H   LIG d   1      10.117   4.352  -6.670  0.00  0.00     0.059 H 
ENDROOT
BRANCH   1  35
ATOM     35  C   LIG d   1      10.573   7.342  -0.522  0.00  0.00     0.202 C 
ATOM     36  O   LIG d   1      10.344   6.232  -0.105  0.00  0.00    -0.291 OA
BRANCH  35  37
ATOM     37  C   LIG d   1      11.765   8.108  -0.008  0.00  0.00     0.153 C 
ATOM     38  H   LIG d   1      12.598   7.753  -0.430  0.00  0.00     0.078 H 
ATOM     39  H   LIG d   1      11.652   9.164  -0.257  0.00  0.00     0.078 H 
BRANCH  37  40
ATOM     40  O   LIG d   1      11.851   7.959   1.434  0.00  0.00    -0.457 OA
BRANCH  40  41
ATOM     41  C   LIG d   1      11.936   9.084   2.159  0.00  0.00     0.304 C 
ATOM     42  O   LIG d   1      12.187   9.026   3.340  0.00  0.00    -0.251 OA
BRANCH  41  43
ATOM     43  C   LIG d   1      11.720  10.423   1.502  0.00  0.00     0.033 C 
ATOM     44  H   LIG d   1      12.137  11.209   2.132  0.00  0.00     0.034 H 
ATOM     45  H   LIG d   1      12.214  10.436   0.530  0.00  0.00     0.034 H 
ATOM     46  H   LIG d   1      10.651  10.594   1.368  0.00  0.00     0.034 H 
ENDBRANCH  41  43
ENDBRANCH  40  41
ENDBRANCH  37  40
ENDBRANCH  35  37
ENDBRANCH   1  35
BRANCH   1  47
ATOM     47  O   LIG d   1       8.300   7.688  -1.243  0.00  0.00    -0.380 OA
ATOM     48  H   LIG d   1       8.181   6.998  -0.576  0.00  0.00     0.211 HD
ENDBRANCH   1  47
BRANCH   6  49
ATOM     49  C   LIG d   1      11.488   7.038  -3.018  0.00  0.00    -0.056 C 
ATOM     50  H   LIG d   1      12.006   7.414  -2.136  0.00  0.00     0.024 H 
ATOM     51  H   LIG d   1      11.580   5.953  -3.058  0.00  0.00     0.024 H 
ATOM     52  H   LIG d   1      11.933   7.473  -3.913  0.00  0.00     0.024 H 
ENDBRANCH   6  49
BRANCH  20  53
ATOM     53  C   LIG d   1      11.969   6.439  -7.105  0.00  0.00    -0.049 C 
ATOM     54  H   LIG d   1      12.322   6.915  -8.020  0.00  0.00     0.024 H 
ATOM     55  H   LIG d   1      12.388   6.957  -6.241  0.00  0.00     0.024 H 
ATOM     56  H   LIG d   1      12.288   5.397  -7.092  0.00  0.00     0.024 H 
ENDBRANCH  20  53
TORSDOF 8
ENDMDL
MODEL 3
REMARK VINA RESULT:      -6.0      2.252      7.292
REMARK  8 active torsions:
REMARK  status: ('A' for Active; 'I' for Inactive)
REMARK    1  A    between atoms: C_1  and  C_2 
REMARK    2  A    between atoms: C_2  and  O_4 
REMARK    3  A    between atoms: O_4  and  C_5 
REMARK    4  A    between atoms: C_5  and  C_6 
REMARK    5  A    between atoms: C_6  and  C_8 
REMARK    6  A    between atoms: C_8  and  O_30 
REMARK    7  A    between atoms: C_13  and  C_29 
REMARK    8  A    between atoms: C_27  and  C_28 
ROOT
ATOM      1  C   LIG d   1       4.565  -0.037 -10.264  0.00  0.00     0.133 C 
ATOM      2  C   LIG d   1       3.046   0.055 -10.548  0.00  0.00    -0.016 C 
ATOM      3  C   LIG d   1       2.332  -0.164  -9.187  0.00  0.00    -0.046 C 
ATOM      4  C   LIG d   1       3.400   0.251  -8.159  0.00  0.00    -0.026 C 
ATOM      5  H   LIG d   1       3.502   1.335  -8.101  0.00  0.00     0.031 H 
ATOM      6  C   LIG d   1       4.684  -0.384  -8.781  0.00  0.00     0.011 C 
ATOM      7  C   LIG d   1       5.861   0.255  -8.058  0.00  0.00    -0.026 C 
ATOM      8  C   LIG d   1       5.688  -0.063  -6.590  0.00  0.00    -0.083 C 
ATOM      9  C   LIG d   1       4.538  -0.332  -6.039  0.00  0.00    -0.056 C 
ATOM     10  C   LIG d   1       3.218  -0.323  -6.773  0.00  0.00    -0.015 C 
ATOM     11  H   LIG d   1       2.843  -1.344  -6.852  0.00  0.00     0.035 H 
ATOM     12  C   LIG d   1       2.203   0.528  -6.005  0.00  0.00    -0.043 C 
ATOM     13  C   LIG d   1       2.036  -0.005  -4.580  0.00  0.00    -0.030 C 
ATOM     14  C   LIG d   1       3.393   0.023  -3.902  0.00  0.00    -0.052 A 
ATOM     15  C   LIG d   1       3.540   0.704  -2.774  0.00  0.00    -0.015 A 
ATOM     16  C   LIG d   1       4.862   0.810  -2.135  0.00  0.00     0.179 A 
ATOM     17  O   LIG d   1       4.991   1.368  -1.062  0.00  0.00    -0.288 OA
ATOM     18  C   LIG d   1       6.024   0.223  -2.825  0.00  0.00    -0.018 A 
ATOM     19  C   LIG d   1       5.850  -0.462  -3.945  0.00  0.00    -0.067 A 
ATOM     20  C   LIG d   1       4.522  -0.707  -4.569  0.00  0.00     0.029 A 
ATOM     21  H   LIG d   1       2.801   1.041 -10.945  0.00  0.00     0.030 H 
ATOM     22  H   LIG d   1       2.750  -0.719 -11.256  0.00  0.00     0.030 H 
ATOM     23  H   LIG d   1       1.458   0.482  -9.102  0.00  0.00     0.027 H 
ATOM     24  H   LIG d   1       2.051  -1.211  -9.064  0.00  0.00     0.027 H 
ATOM     25  H   LIG d   1       5.851   1.334  -8.209  0.00  0.00     0.031 H 
ATOM     26  H   LIG d   1       6.797  -0.167  -8.424  0.00  0.00     0.031 H 
ATOM     27  H   LIG d   1       6.568  -0.068  -5.963  0.00  0.00     0.057 H 
ATOM     28  H   LIG d   1       2.560   1.557  -5.955  0.00  0.00     0.027 H 
ATOM     29  H   LIG d   1       1.245   0.505  -6.525  0.00  0.00     0.027 H 
ATOM     30  H   LIG d   1       1.663  -1.029  -4.612  0.00  0.00     0.031 H 
ATOM     31  H   LIG d   1       1.337   0.624  -4.031  0.00  0.00     0.031 H 
ATOM     32  H   LIG d   1       2.685   1.184  -2.322  0.00  0.00     0.066 H 
ATOM     33  H   LIG d   1       7.016   0.352  -2.418  0.00  0.00     0.065 H 
ATOM     34  H   LIG d   1       6.724  -0.869  -4.432  0.00  0.00     0.059 H 
ENDROOT
BRANCH   1  35
ATOM     35  C   LIG d   1       5.187  -1.123 -11.105  0.00  0.00     0.202 C 
ATOM     36  O   LIG d   1       6.381  -1.300 -11.074  0.00  0.00    -0.291 OA
BRANCH  35  37
ATOM     37  C   LIG d   1       4.319  -1.988 -11.982  0.00  0.00     0.153 C 
ATOM     38  H   LIG d   1       3.359  -1.853 -11.739  0.00  0.00     0.078 H 
ATOM     39  H   LIG d   1       4.472  -1.716 -13.026  0.00  0.00     0.078 H 
BRANCH  37  40
ATOM     40  O   LIG d   1       4.675  -3.383 -11.790  0.00  0.00    -0.457 OA
BRANCH  40  41
ATOM     41  C   LIG d   1       3.709  -4.203 -11.349  0.00  0.00     0.304 C 
ATOM     42  O   LIG d   1       3.912  -5.392 -11.276  0.00  0.00    -0.251 OA
BRANCH  41  43
ATOM     43  C   LIG d   1       2.370  -3.642 -10.943  0.00  0.00     0.033 C 
ATOM     44  H   LIG d   1       2.271  -3.687  -9.859  0.00  0.00     0.034 H 
ATOM     45  H   LIG d   1       2.294  -2.606 -11.273  0.00  0.00     0.034 H 
ATOM     46  H   LIG d   1       1.575  -4.230 -11.405  0.00  0.00     0.034 H 
ENDBRANCH  41  43
ENDBRANCH  40  41
ENDBRANCH  37  40
ENDBRANCH  35  37
ENDBRANCH   1  35
BRANCH   1  47
ATOM     47  O   LIG d   1       5.196   1.217 -10.531  0.00  0.00    -0.380 OA
ATOM     48  H   LIG d   1       4.796   1.710 -11.260  0.00  0.00     0.211 HD
ENDBRANCH   1  47
BRANCH   6  49
ATOM     49  C   LIG d   1       4.705  -1.902  -8.590  0.00  0.00    -0.056 C 
ATOM     50  H   LIG d   1       3.929  -2.191  -7.881  0.00  0.00     0.024 H 
ATOM     51  H   LIG d   1       4.524  -2.391  -9.547  0.00  0.00     0.024 H 
ATOM     52  H   LIG d   1       5.679  -2.207  -8.206  0.00  0.00     0.024 H 
ENDBRANCH   6  49
BRANCH  20  53
ATOM     53  C   LIG d   1       4.237  -2.207  -4.469  0.00  0.00    -0.049 C 
ATOM     54  H   LIG d   1       3.187  -2.393  -4.697  0.00  0.00     0.024 H 
ATOM     55  H   LIG d   1       4.864  -2.744  -5.182  0.00  0.00     0.024 H 
ATOM     56  H   LIG d   1       4.456  -2.553  -3.460  0.00  0.00     0.024 H 
ENDBRANCH  20  53
TORSDOF 8
ENDMDL
MODEL 4
REMARK VINA RESULT:      -5.9      1.739      2.661
REMARK  8 active torsions:
REMARK  status: ('A' for Active; 'I' for Inactive)
REMARK    1  A    between atoms: C_1  and  C_2 
REMARK    2  A    between atoms: C_2  and  O_4 
REMARK    3  A    between atoms: O_4  and  C_5 
REMARK    4  A    between atoms: C_5  and  C_6 
REMARK    5  A    between atoms: C_6  and  C_8 
REMARK    6  A    between atoms: C_8  and  O_30 
REMARK    7  A    between atoms: C_13  and  C_29 
REMARK    8  A    between atoms: C_27  and  C_28 
ROOT
ATOM      1  C   LIG d   1       6.515  -1.901  -5.307  0.00  0.00     0.133 C 
ATOM      2  C   LIG d   1       5.843  -3.207  -4.818  0.00  0.00    -0.016 C 
ATOM      3  C   LIG d   1       4.652  -3.473  -5.777  0.00  0.00    -0.046 C 
ATOM      4  C   LIG d   1       5.062  -2.729  -7.060  0.00  0.00    -0.026 C 
ATOM      5  H   LIG d   1       5.825  -3.275  -7.615  0.00  0.00     0.031 H 
ATOM      6  C   LIG d   1       5.656  -1.410  -6.471  0.00  0.00     0.011 C 
ATOM      7  C   LIG d   1       6.422  -0.749  -7.609  0.00  0.00    -0.026 C 
ATOM      8  C   LIG d   1       5.423  -0.511  -8.718  0.00  0.00    -0.083 C 
ATOM      9  C   LIG d   1       4.327  -1.202  -8.866  0.00  0.00    -0.056 C 
ATOM     10  C   LIG d   1       3.923  -2.358  -7.982  0.00  0.00    -0.015 C 
ATOM     11  H   LIG d   1       3.057  -2.070  -7.386  0.00  0.00     0.035 H 
ATOM     12  C   LIG d   1       3.560  -3.569  -8.846  0.00  0.00    -0.043 C 
ATOM     13  C   LIG d   1       2.439  -3.205  -9.823  0.00  0.00    -0.030 C 
ATOM     14  C   LIG d   1       2.916  -2.048 -10.681  0.00  0.00    -0.052 A 
ATOM     15  C   LIG d   1       2.933  -2.183 -11.999  0.00  0.00    -0.015 A 
ATOM     16  C   LIG d   1       3.460  -1.106 -12.851  0.00  0.00     0.179 A 
ATOM     17  O   LIG d   1       3.411  -1.190 -14.064  0.00  0.00    -0.288 OA
ATOM     18  C   LIG d   1       4.050   0.078 -12.202  0.00  0.00    -0.018 A 
ATOM     19  C   LIG d   1       4.011   0.196 -10.883  0.00  0.00    -0.067 A 
ATOM     20  C   LIG d   1       3.379  -0.804  -9.981  0.00  0.00     0.029 A 
ATOM     21  H   LIG d   1       6.554  -4.032  -4.866  0.00  0.00     0.030 H 
ATOM     22  H   LIG d   1       5.482  -3.082  -3.797  0.00  0.00     0.030 H 
ATOM     23  H   LIG d   1       4.550  -4.540  -5.977  0.00  0.00     0.027 H 
ATOM     24  H   LIG d   1       3.728  -3.068  -5.364  0.00  0.00     0.027 H 
ATOM     25  H   LIG d   1       7.216  -1.410  -7.957  0.00  0.00     0.031 H 
ATOM     26  H   LIG d   1       6.843   0.199  -7.274  0.00  0.00     0.031 H 
ATOM     27  H   LIG d   1       5.629   0.277  -9.428  0.00  0.00     0.057 H 
ATOM     28  H   LIG d   1       4.435  -3.880  -9.417  0.00  0.00     0.027 H 
ATOM     29  H   LIG d   1       3.241  -4.389  -8.203  0.00  0.00     0.027 H 
ATOM     30  H   LIG d   1       1.549  -2.907  -9.267  0.00  0.00     0.031 H 
ATOM     31  H   LIG d   1       2.209  -4.062 -10.455  0.00  0.00     0.031 H 
ATOM     32  H   LIG d   1       2.558  -3.090 -12.451  0.00  0.00     0.066 H 
ATOM     33  H   LIG d   1       4.513   0.849 -12.800  0.00  0.00     0.065 H 
ATOM     34  H   LIG d   1       4.462   1.070 -10.437  0.00  0.00     0.059 H 
ENDROOT
BRANCH   1  35
ATOM     35  C   LIG d   1       6.529  -0.876  -4.201  0.00  0.00     0.202 C 
ATOM     36  O   LIG d   1       7.109   0.171  -4.357  0.00  0.00    -0.291 OA
BRANCH  35  37
ATOM     37  C   LIG d   1       5.820  -1.159  -2.902  0.00  0.00     0.153 C 
ATOM     38  H   LIG d   1       5.078  -1.810  -3.061  0.00  0.00     0.078 H 
ATOM     39  H   LIG d   1       6.526  -1.579  -2.187  0.00  0.00     0.078 H 
BRANCH  37  40
ATOM     40  O   LIG d   1       5.273   0.077  -2.371  0.00  0.00    -0.457 OA
BRANCH  40  41
ATOM     41  C   LIG d   1       3.936   0.185  -2.333  0.00  0.00     0.304 C 
ATOM     42  O   LIG d   1       3.423   1.231  -2.013  0.00  0.00    -0.251 OA
BRANCH  41  43
ATOM     43  C   LIG d   1       3.073  -0.998  -2.690  0.00  0.00     0.033 C 
ATOM     44  H   LIG d   1       3.208  -1.783  -1.946  0.00  0.00     0.034 H 
ATOM     45  H   LIG d   1       2.027  -0.692  -2.711  0.00  0.00     0.034 H 
ATOM     46  H   LIG d   1       3.362  -1.374  -3.672  0.00  0.00     0.034 H 
ENDBRANCH  41  43
ENDBRANCH  40  41
ENDBRANCH  37  40
ENDBRANCH  35  37
ENDBRANCH   1  35
BRANCH   1  47
ATOM     47  O   LIG d   1       7.847  -2.166  -5.752  0.00  0.00    -0.380 OA
ATOM     48  H   LIG d   1       7.963  -3.043  -6.143  0.00  0.00     0.211 HD
ENDBRANCH   1  47
BRANCH   6  49
ATOM     49  C   LIG d   1       4.554  -0.479  -5.963  0.00  0.00    -0.056 C 
ATOM     50  H   LIG d   1       4.691  -0.302  -4.896  0.00  0.00     0.024 H 
ATOM     51  H   LIG d   1       4.604   0.469  -6.498  0.00  0.00     0.024 H 
ATOM     52  H   LIG d   1       3.581  -0.940  -6.132  0.00  0.00     0.024 H 
ENDBRANCH   6  49
BRANCH  20  53
ATOM     53  C   LIG d   1       2.157  -0.140  -9.343  0.00  0.00    -0.049 C 
ATOM     54  H   LIG d   1       1.574   0.365 -10.114  0.00  0.00     0.024 H 
ATOM     55  H   LIG d   1       1.540  -0.900  -8.861  0.00  0.00     0.024 H 
ATOM     56  H   LIG d   1       2.483   0.587  -8.600  0.00  0.00     0.024 H 
ENDBRANCH  20  53
TORSDOF 8
ENDMDL
MODEL 5
REMARK VINA RESULT:      -5.9      1.121      2.170
REMARK  8 active torsions:
REMARK  status: ('A' for Active; 'I' for Inactive)
REMARK    1  A    between atoms: C_1  and  C_2 
REMARK    2  A    between atoms: C_2  and  O_4 
REMARK    3  A    between atoms: O_4  and  C_5 
REMARK    4  A    between atoms: C_5  and  C_6 
REMARK    5  A    between atoms: C_6  and  C_8 
REMARK    6  A    between atoms: C_8  and  O_30 
REMARK    7  A    between atoms: C_13  and  C_29 
REMARK    8  A    between atoms: C_27  and  C_28 
ROOT
ATOM      1  C   LIG d   1       4.056  -1.267  -4.241  0.00  0.00     0.133 C 
ATOM      2  C   LIG d   1       2.883  -0.305  -3.934  0.00  0.00    -0.016 C 
ATOM      3  C   LIG d   1       2.747   0.629  -5.166  0.00  0.00    -0.046 C 
ATOM      4  C   LIG d   1       3.367  -0.200  -6.305  0.00  0.00    -0.026 C 
ATOM      5  H   LIG d   1       2.693  -0.988  -6.641  0.00  0.00     0.031 H 
ATOM      6  C   LIG d   1       4.612  -0.816  -5.591  0.00  0.00     0.011 C 
ATOM      7  C   LIG d   1       5.105  -1.935  -6.497  0.00  0.00    -0.026 C 
ATOM      8  C   LIG d   1       5.433  -1.299  -7.828  0.00  0.00    -0.083 C 
ATOM      9  C   LIG d   1       4.901  -0.186  -8.249  0.00  0.00    -0.056 C 
ATOM     10  C   LIG d   1       3.855   0.599  -7.491  0.00  0.00    -0.015 C 
ATOM     11  H   LIG d   1       4.291   1.534  -7.141  0.00  0.00     0.035 H 
ATOM     12  C   LIG d   1       2.671   0.907  -8.412  0.00  0.00    -0.043 C 
ATOM     13  C   LIG d   1       3.148   1.676  -9.647  0.00  0.00    -0.030 C 
ATOM     14  C   LIG d   1       4.185   0.829 -10.361  0.00  0.00    -0.052 A 
ATOM     15  C   LIG d   1       3.990   0.498 -11.629  0.00  0.00    -0.015 A 
ATOM     16  C   LIG d   1       4.942  -0.384 -12.323  0.00  0.00     0.179 A 
ATOM     17  O   LIG d   1       4.811  -0.632 -13.507  0.00  0.00    -0.288 OA
ATOM     18  C   LIG d   1       6.057  -0.960 -11.552  0.00  0.00    -0.018 A 
ATOM     19  C   LIG d   1       6.238  -0.605 -10.289  0.00  0.00    -0.067 A 
ATOM     20  C   LIG d   1       5.380   0.378  -9.573  0.00  0.00     0.029 A 
ATOM     21  H   LIG d   1       1.963  -0.873  -3.791  0.00  0.00     0.030 H 
ATOM     22  H   LIG d   1       3.104   0.280  -3.041  0.00  0.00     0.030 H 
ATOM     23  H   LIG d   1       1.698   0.836  -5.379  0.00  0.00     0.027 H 
ATOM     24  H   LIG d   1       3.299   1.557  -5.008  0.00  0.00     0.027 H 
ATOM     25  H   LIG d   1       4.322  -2.684  -6.625  0.00  0.00     0.031 H 
ATOM     26  H   LIG d   1       5.997  -2.395  -6.071  0.00  0.00     0.031 H 
ATOM     27  H   LIG d   1       6.151  -1.794  -8.465  0.00  0.00     0.057 H 
ATOM     28  H   LIG d   1       2.213  -0.027  -8.736  0.00  0.00     0.027 H 
ATOM     29  H   LIG d   1       1.935   1.499  -7.868  0.00  0.00     0.027 H 
ATOM     30  H   LIG d   1       3.595   2.622  -9.341  0.00  0.00     0.031 H 
ATOM     31  H   LIG d   1       2.306   1.864 -10.311  0.00  0.00     0.031 H 
ATOM     32  H   LIG d   1       3.127   0.877 -12.156  0.00  0.00     0.066 H 
ATOM     33  H   LIG d   1       6.726  -1.670 -12.015  0.00  0.00     0.065 H 
ATOM     34  H   LIG d   1       7.057  -1.054  -9.747  0.00  0.00     0.059 H 
ENDROOT
BRANCH   1  35
ATOM     35  C   LIG d   1       5.116  -1.153  -3.176  0.00  0.00     0.202 C 
ATOM     36  O   LIG d   1       5.170  -0.167  -2.481  0.00  0.00    -0.291 OA
BRANCH  35  37
ATOM     37  C   LIG d   1       6.109  -2.270  -2.979  0.00  0.00     0.153 C 
ATOM     38  H   LIG d   1       6.147  -2.516  -2.011  0.00  0.00     0.078 H 
ATOM     39  H   LIG d   1       5.800  -3.138  -3.562  0.00  0.00     0.078 H 
BRANCH  37  40
ATOM     40  O   LIG d   1       7.422  -1.834  -3.419  0.00  0.00    -0.457 OA
BRANCH  40  41
ATOM     41  C   LIG d   1       8.029  -2.580  -4.354  0.00  0.00     0.304 C 
ATOM     42  O   LIG d   1       7.949  -3.785  -4.313  0.00  0.00    -0.251 OA
BRANCH  41  43
ATOM     43  C   LIG d   1       8.813  -1.916  -5.458  0.00  0.00     0.033 C 
ATOM     44  H   LIG d   1       9.265  -0.998  -5.081  0.00  0.00     0.034 H 
ATOM     45  H   LIG d   1       9.595  -2.590  -5.805  0.00  0.00     0.034 H 
ATOM     46  H   LIG d   1       8.143  -1.678  -6.285  0.00  0.00     0.034 H 
ENDBRANCH  41  43
ENDBRANCH  40  41
ENDBRANCH  37  40
ENDBRANCH  35  37
ENDBRANCH   1  35
BRANCH   1  47
ATOM     47  O   LIG d   1       3.583  -2.614  -4.327  0.00  0.00    -0.380 OA
ATOM     48  H   LIG d   1       4.128  -3.186  -4.884  0.00  0.00     0.211 HD
ENDBRANCH   1  47
BRANCH   6  49
ATOM     49  C   LIG d   1       5.713   0.226  -5.390  0.00  0.00    -0.056 C 
ATOM     50  H   LIG d   1       5.324   1.059  -4.804  0.00  0.00     0.024 H 
ATOM     51  H   LIG d   1       6.551  -0.228  -4.862  0.00  0.00     0.024 H 
ATOM     52  H   LIG d   1       6.051   0.592  -6.360  0.00  0.00     0.024 H 
ENDBRANCH   6  49
BRANCH  20  53
ATOM     53  C   LIG d   1       6.240   1.608  -9.276  0.00  0.00    -0.049 C 
ATOM     54  H   LIG d   1       5.597   2.442  -8.994  0.00  0.00     0.024 H 
ATOM     55  H   LIG d   1       6.925   1.384  -8.458  0.00  0.00     0.024 H 
ATOM     56  H   LIG d   1       6.812   1.875 -10.165  0.00  0.00     0.024 H 
ENDBRANCH  20  53
TORSDOF 8
ENDMDL
MODEL 6
REMARK VINA RESULT:      -5.9      7.953     10.105
REMARK  8 active torsions:
REMARK  status: ('A' for Active; 'I' for Inactive)
REMARK    1  A    between atoms: C_1  and  C_2 
REMARK    2  A    between atoms: C_2  and  O_4 
REMARK    3  A    between atoms: O_4  and  C_5 
REMARK    4  A    between atoms: C_5  and  C_6 
REMARK    5  A    between atoms: C_6  and  C_8 
REMARK    6  A    between atoms: C_8  and  O_30 
REMARK    7  A    between atoms: C_13  and  C_29 
REMARK    8  A    between atoms: C_27  and  C_28 
ROOT
ATOM      1  C   LIG d   1       9.844   8.257  -1.627  0.00  0.00     0.133 C 
ATOM      2  C   LIG d   1       9.811   9.758  -2.004  0.00  0.00    -0.016 C 
ATOM      3  C   LIG d   1      10.061   9.830  -3.534  0.00  0.00    -0.046 C 
ATOM      4  C   LIG d   1       9.606   8.446  -4.030  0.00  0.00    -0.026 C 
ATOM      5  H   LIG d   1       8.519   8.368  -4.061  0.00  0.00     0.031 H 
ATOM      6  C   LIG d   1      10.189   7.517  -2.918  0.00  0.00     0.011 C 
ATOM      7  C   LIG d   1       9.505   6.169  -3.096  0.00  0.00    -0.026 C 
ATOM      8  C   LIG d   1       9.832   5.703  -4.496  0.00  0.00    -0.083 C 
ATOM      9  C   LIG d   1      10.148   6.507  -5.472  0.00  0.00    -0.056 C 
ATOM     10  C   LIG d   1      10.190   8.013  -5.355  0.00  0.00    -0.015 C 
ATOM     11  H   LIG d   1      11.225   8.350  -5.421  0.00  0.00     0.035 H 
ATOM     12  C   LIG d   1       9.381   8.643  -6.493  0.00  0.00    -0.043 C 
ATOM     13  C   LIG d   1       9.923   8.181  -7.847  0.00  0.00    -0.030 C 
ATOM     14  C   LIG d   1       9.843   6.667  -7.898  0.00  0.00    -0.052 A 
ATOM     15  C   LIG d   1       9.159   6.087  -8.873  0.00  0.00    -0.015 A 
ATOM     16  C   LIG d   1       9.002   4.624  -8.905  0.00  0.00     0.179 A 
ATOM     17  O   LIG d   1       8.441   4.078  -9.836  0.00  0.00    -0.288 OA
ATOM     18  C   LIG d   1       9.540   3.836  -7.783  0.00  0.00    -0.018 A 
ATOM     19  C   LIG d   1      10.230   4.437  -6.825  0.00  0.00    -0.067 A 
ATOM     20  C   LIG d   1      10.526   5.895  -6.807  0.00  0.00     0.029 A 
ATOM     21  H   LIG d   1       8.835  10.181  -1.764  0.00  0.00     0.030 H 
ATOM     22  H   LIG d   1      10.595  10.295  -1.470  0.00  0.00     0.030 H 
ATOM     23  H   LIG d   1       9.451  10.612  -3.988  0.00  0.00     0.027 H 
ATOM     24  H   LIG d   1      11.118   9.997  -3.744  0.00  0.00     0.027 H 
ATOM     25  H   LIG d   1       8.426   6.280  -2.983  0.00  0.00     0.031 H 
ATOM     26  H   LIG d   1       9.888   5.457  -2.365  0.00  0.00     0.031 H 
ATOM     27  H   LIG d   1       9.804   4.642  -4.699  0.00  0.00     0.057 H 
ATOM     28  H   LIG d   1       8.339   8.335  -6.408  0.00  0.00     0.027 H 
ATOM     29  H   LIG d   1       9.441   9.730  -6.419  0.00  0.00     0.027 H 
ATOM     30  H   LIG d   1      10.962   8.497  -7.955  0.00  0.00     0.031 H 
ATOM     31  H   LIG d   1       9.323   8.609  -8.649  0.00  0.00     0.031 H 
ATOM     32  H   LIG d   1       8.714   6.691  -9.650  0.00  0.00     0.066 H 
ATOM     33  H   LIG d   1       9.373   2.770  -7.741  0.00  0.00     0.065 H 
ATOM     34  H   LIG d   1      10.601   3.833  -6.010  0.00  0.00     0.059 H 
ENDROOT
BRANCH   1  35
ATOM     35  C   LIG d   1      10.903   8.005  -0.584  0.00  0.00     0.202 C 
ATOM     36  O   LIG d   1      11.766   8.826  -0.390  0.00  0.00    -0.291 OA
BRANCH  35  37
ATOM     37  C   LIG d   1      10.883   6.729   0.217  0.00  0.00     0.153 C 
ATOM     38  H   LIG d   1       9.950   6.374   0.257  0.00  0.00     0.078 H 
ATOM     39  H   LIG d   1      11.532   5.992  -0.257  0.00  0.00     0.078 H 
BRANCH  37  40
ATOM     40  O   LIG d   1      11.358   6.995   1.564  0.00  0.00    -0.457 OA
BRANCH  40  41
ATOM     41  C   LIG d   1      10.972   6.142   2.525  0.00  0.00     0.304 C 
ATOM     42  O   LIG d   1      10.551   5.049   2.231  0.00  0.00    -0.251 OA
BRANCH  41  43
ATOM     43  C   LIG d   1      11.064   6.548   3.974  0.00  0.00     0.033 C 
ATOM     44  H   LIG d   1      10.616   5.773   4.597  0.00  0.00     0.034 H 
ATOM     45  H   LIG d   1      12.111   6.676   4.250  0.00  0.00     0.034 H 
ATOM     46  H   LIG d   1      10.531   7.487   4.122  0.00  0.00     0.034 H 
ENDBRANCH  41  43
ENDBRANCH  40  41
ENDBRANCH  37  40
ENDBRANCH  35  37
ENDBRANCH   1  35
BRANCH   1  47
ATOM     47  O   LIG d   1       8.565   7.839  -1.144  0.00  0.00    -0.380 OA
ATOM     48  H   LIG d   1       7.931   7.628  -1.844  0.00  0.00     0.211 HD
ENDBRANCH   1  47
BRANCH   6  49
ATOM     49  C   LIG d   1      11.705   7.365  -3.055  0.00  0.00    -0.056 C 
ATOM     50  H   LIG d   1      12.098   6.843  -2.182  0.00  0.00     0.024 H 
ATOM     51  H   LIG d   1      11.933   6.793  -3.953  0.00  0.00     0.024 H 
ATOM     52  H   LIG d   1      12.165   8.351  -3.126  0.00  0.00     0.024 H 
ENDBRANCH   6  49
BRANCH  20  53
ATOM     53  C   LIG d   1      12.036   6.059  -6.989  0.00  0.00    -0.049 C 
ATOM     54  H   LIG d   1      12.267   7.106  -7.189  0.00  0.00     0.024 H 
ATOM     55  H   LIG d   1      12.548   5.742  -6.080  0.00  0.00     0.024 H 
ATOM     56  H   LIG d   1      12.371   5.447  -7.826  0.00  0.00     0.024 H 
ENDBRANCH  20  53
TORSDOF 8
ENDMDL
MODEL 7
REMARK VINA RESULT:      -5.8      4.202      7.252
REMARK  8 active torsions:
REMARK  status: ('A' for Active; 'I' for Inactive)
REMARK    1  A    between atoms: C_1  and  C_2 
REMARK    2  A    between atoms: C_2  and  O_4 
REMARK    3  A    between atoms: O_4  and  C_5 
REMARK    4  A    between atoms: C_5  and  C_6 
REMARK    5  A    between atoms: C_6  and  C_8 
REMARK    6  A    between atoms: C_8  and  O_30 
REMARK    7  A    between atoms: C_13  and  C_29 
REMARK    8  A    between atoms: C_27  and  C_28 
ROOT
ATOM      1  C   LIG d   1      10.163   3.191  -5.986  0.00  0.00     0.133 C 
ATOM      2  C   LIG d   1      10.251   2.720  -7.457  0.00  0.00    -0.016 C 
ATOM      3  C   LIG d   1       9.331   1.476  -7.575  0.00  0.00    -0.046 C 
ATOM      4  C   LIG d   1       8.328   1.670  -6.424  0.00  0.00    -0.026 C 
ATOM      5  H   LIG d   1       7.583   2.430  -6.663  0.00  0.00     0.031 H 
ATOM      6  C   LIG d   1       9.268   2.171  -5.282  0.00  0.00     0.011 C 
ATOM      7  C   LIG d   1       8.356   2.741  -4.206  0.00  0.00    -0.026 C 
ATOM      8  C   LIG d   1       7.442   1.616  -3.777  0.00  0.00    -0.083 C 
ATOM      9  C   LIG d   1       7.148   0.595  -4.531  0.00  0.00    -0.056 C 
ATOM     10  C   LIG d   1       7.642   0.411  -5.947  0.00  0.00    -0.015 C 
ATOM     11  H   LIG d   1       8.350  -0.418  -5.976  0.00  0.00     0.035 H 
ATOM     12  C   LIG d   1       6.461   0.099  -6.871  0.00  0.00    -0.043 C 
ATOM     13  C   LIG d   1       5.721  -1.147  -6.380  0.00  0.00    -0.030 C 
ATOM     14  C   LIG d   1       5.247  -0.889  -4.963  0.00  0.00    -0.052 A 
ATOM     15  C   LIG d   1       3.956  -0.989  -4.682  0.00  0.00    -0.015 A 
ATOM     16  C   LIG d   1       3.460  -0.672  -3.333  0.00  0.00     0.179 A 
ATOM     17  O   LIG d   1       2.289  -0.834  -3.046  0.00  0.00    -0.288 OA
ATOM     18  C   LIG d   1       4.415  -0.155  -2.337  0.00  0.00    -0.018 A 
ATOM     19  C   LIG d   1       5.702  -0.075  -2.637  0.00  0.00    -0.067 A 
ATOM     20  C   LIG d   1       6.277  -0.499  -3.943  0.00  0.00     0.029 A 
ATOM     21  H   LIG d   1       9.901   3.510  -8.123  0.00  0.00     0.030 H 
ATOM     22  H   LIG d   1      11.278   2.451  -7.702  0.00  0.00     0.030 H 
ATOM     23  H   LIG d   1       8.808   1.473  -8.532  0.00  0.00     0.027 H 
ATOM     24  H   LIG d   1       9.906   0.558  -7.447  0.00  0.00     0.027 H 
ATOM     25  H   LIG d   1       7.768   3.564  -4.612  0.00  0.00     0.031 H 
ATOM     26  H   LIG d   1       8.948   3.086  -3.358  0.00  0.00     0.031 H 
ATOM     27  H   LIG d   1       7.008   1.662  -2.788  0.00  0.00     0.057 H 
ATOM     28  H   LIG d   1       5.770   0.942  -6.869  0.00  0.00     0.027 H 
ATOM     29  H   LIG d   1       6.829  -0.061  -7.885  0.00  0.00     0.027 H 
ATOM     30  H   LIG d   1       6.395  -2.004  -6.393  0.00  0.00     0.031 H 
ATOM     31  H   LIG d   1       4.864  -1.343  -7.024  0.00  0.00     0.031 H 
ATOM     32  H   LIG d   1       3.263  -1.305  -5.448  0.00  0.00     0.066 H 
ATOM     33  H   LIG d   1       4.066   0.157  -1.365  0.00  0.00     0.065 H 
ATOM     34  H   LIG d   1       6.375   0.319  -1.890  0.00  0.00     0.059 H 
ENDROOT
BRANCH   1  35
ATOM     35  C   LIG d   1      11.533   3.202  -5.358  0.00  0.00     0.202 C 
ATOM     36  O   LIG d   1      12.487   2.809  -5.986  0.00  0.00    -0.291 OA
BRANCH  35  37
ATOM     37  C   LIG d   1      11.713   3.704  -3.949  0.00  0.00     0.153 C 
ATOM     38  H   LIG d   1      11.096   3.210  -3.337  0.00  0.00     0.078 H 
ATOM     39  H   LIG d   1      12.744   3.541  -3.634  0.00  0.00     0.078 H 
BRANCH  37  40
ATOM     40  O   LIG d   1      11.411   5.124  -3.898  0.00  0.00    -0.457 OA
BRANCH  40  41
ATOM     41  C   LIG d   1      10.525   5.525  -2.975  0.00  0.00     0.304 C 
ATOM     42  O   LIG d   1       9.515   6.095  -3.314  0.00  0.00    -0.251 OA
BRANCH  41  43
ATOM     43  C   LIG d   1      10.787   5.266  -1.514  0.00  0.00     0.033 C 
ATOM     44  H   LIG d   1      10.527   6.153  -0.935  0.00  0.00     0.034 H 
ATOM     45  H   LIG d   1      10.183   4.423  -1.179  0.00  0.00     0.034 H 
ATOM     46  H   LIG d   1      11.844   5.036  -1.370  0.00  0.00     0.034 H 
ENDBRANCH  41  43
ENDBRANCH  40  41
ENDBRANCH  37  40
ENDBRANCH  35  37
ENDBRANCH   1  35
BRANCH   1  47
ATOM     47  O   LIG d   1       9.576   4.493  -5.916  0.00  0.00    -0.380 OA
ATOM     48  H   LIG d   1      10.056   5.166  -6.419  0.00  0.00     0.211 HD
ENDBRANCH   1  47
BRANCH   6  49
ATOM     49  C   LIG d   1      10.112   1.029  -4.712  0.00  0.00    -0.056 C 
ATOM     50  H   LIG d   1       9.704   0.722  -3.748  0.00  0.00     0.024 H 
ATOM     51  H   LIG d   1      10.093   0.185  -5.400  0.00  0.00     0.024 H 
ATOM     52  H   LIG d   1      11.140   1.367  -4.580  0.00  0.00     0.024 H 
ENDBRANCH   6  49
BRANCH  20  53
ATOM     53  C   LIG d   1       7.165  -1.717  -3.680  0.00  0.00    -0.049 C 
ATOM     54  H   LIG d   1       7.880  -1.482  -2.892  0.00  0.00     0.024 H 
ATOM     55  H   LIG d   1       6.545  -2.559  -3.369  0.00  0.00     0.024 H 
ATOM     56  H   LIG d   1       7.702  -1.980  -4.591  0.00  0.00     0.024 H 
ENDBRANCH  20  53
TORSDOF 8
ENDMDL
MODEL 8
REMARK VINA RESULT:      -5.8      8.000     10.780
REMARK  8 active torsions:
REMARK  status: ('A' for Active; 'I' for Inactive)
REMARK    1  A    between atoms: C_1  and  C_2 
REMARK    2  A    between atoms: C_2  and  O_4 
REMARK    3  A    between atoms: O_4  and  C_5 
REMARK    4  A    between atoms: C_5  and  C_6 
REMARK    5  A    between atoms: C_6  and  C_8 
REMARK    6  A    between atoms: C_8  and  O_30 
REMARK    7  A    between atoms: C_13  and  C_29 
REMARK    8  A    between atoms: C_27  and  C_28 
ROOT
ATOM      1  C   LIG d   1      10.249   9.518  -2.200  0.00  0.00     0.133 C 
ATOM      2  C   LIG d   1      10.586  10.314  -3.484  0.00  0.00    -0.016 C 
ATOM      3  C   LIG d   1      10.810   9.263  -4.605  0.00  0.00    -0.046 C 
ATOM      4  C   LIG d   1      10.010   8.045  -4.110  0.00  0.00    -0.026 C 
ATOM      5  H   LIG d   1       8.938   8.185  -4.249  0.00  0.00     0.031 H 
ATOM      6  C   LIG d   1      10.366   8.045  -2.589  0.00  0.00     0.011 C 
ATOM      7  C   LIG d   1       9.361   7.116  -1.922  0.00  0.00    -0.026 C 
ATOM      8  C   LIG d   1       9.528   5.763  -2.575  0.00  0.00    -0.083 C 
ATOM      9  C   LIG d   1      10.012   5.592  -3.773  0.00  0.00    -0.056 C 
ATOM     10  C   LIG d   1      10.435   6.716  -4.690  0.00  0.00    -0.015 C 
ATOM     11  H   LIG d   1      11.519   6.701  -4.801  0.00  0.00     0.035 H 
ATOM     12  C   LIG d   1       9.784   6.535  -6.064  0.00  0.00    -0.043 C 
ATOM     13  C   LIG d   1      10.161   5.174  -6.653  0.00  0.00    -0.030 C 
ATOM     14  C   LIG d   1       9.700   4.097  -5.689  0.00  0.00    -0.052 A 
ATOM     15  C   LIG d   1       8.870   3.157  -6.116  0.00  0.00    -0.015 A 
ATOM     16  C   LIG d   1       8.349   2.144  -5.184  0.00  0.00     0.179 A 
ATOM     17  O   LIG d   1       7.647   1.234  -5.582  0.00  0.00    -0.288 OA
ATOM     18  C   LIG d   1       8.698   2.258  -3.757  0.00  0.00    -0.018 A 
ATOM     19  C   LIG d   1       9.539   3.199  -3.356  0.00  0.00    -0.067 A 
ATOM     20  C   LIG d   1      10.193   4.171  -4.273  0.00  0.00     0.029 A 
ATOM     21  H   LIG d   1       9.754  10.968  -3.746  0.00  0.00     0.030 H 
ATOM     22  H   LIG d   1      11.492  10.900  -3.333  0.00  0.00     0.030 H 
ATOM     23  H   LIG d   1      10.406   9.619  -5.553  0.00  0.00     0.027 H 
ATOM     24  H   LIG d   1      11.870   9.026  -4.703  0.00  0.00     0.027 H 
ATOM     25  H   LIG d   1       8.348   7.485  -2.083  0.00  0.00     0.031 H 
ATOM     26  H   LIG d   1       9.570   7.045  -0.855  0.00  0.00     0.031 H 
ATOM     27  H   LIG d   1       9.229   4.888  -2.016  0.00  0.00     0.057 H 
ATOM     28  H   LIG d   1       8.700   6.585  -5.959  0.00  0.00     0.027 H 
ATOM     29  H   LIG d   1      10.117   7.333  -6.729  0.00  0.00     0.027 H 
ATOM     30  H   LIG d   1      11.242   5.115  -6.781  0.00  0.00     0.031 H 
ATOM     31  H   LIG d   1       9.669   5.041  -7.616  0.00  0.00     0.031 H 
ATOM     32  H   LIG d   1       8.573   3.134  -7.154  0.00  0.00     0.066 H 
ATOM     33  H   LIG d   1       8.269   1.574  -3.039  0.00  0.00     0.065 H 
ATOM     34  H   LIG d   1       9.765   3.263  -2.302  0.00  0.00     0.059 H 
ENDROOT
BRANCH   1  35
ATOM     35  C   LIG d   1      11.235   9.848  -1.108  0.00  0.00     0.202 C 
ATOM     36  O   LIG d   1      12.285  10.376  -1.383  0.00  0.00    -0.291 OA
BRANCH  35  37
ATOM     37  C   LIG d   1      10.909   9.521   0.326  0.00  0.00     0.153 C 
ATOM     38  H   LIG d   1      10.882  10.363   0.863  0.00  0.00     0.078 H 
ATOM     39  H   LIG d   1       9.937   9.028   0.374  0.00  0.00     0.078 H 
BRANCH  37  40
ATOM     40  O   LIG d   1      11.926   8.634   0.863  0.00  0.00    -0.457 OA
BRANCH  40  41
ATOM     41  C   LIG d   1      11.514   7.673   1.704  0.00  0.00     0.304 C 
ATOM     42  O   LIG d   1      11.484   7.883   2.893  0.00  0.00    -0.251 OA
BRANCH  41  43
ATOM     43  C   LIG d   1      11.088   6.331   1.165  0.00  0.00     0.033 C 
ATOM     44  H   LIG d   1      11.893   5.910   0.562  0.00  0.00     0.034 H 
ATOM     45  H   LIG d   1      10.866   5.660   1.995  0.00  0.00     0.034 H 
ATOM     46  H   LIG d   1      10.198   6.454   0.548  0.00  0.00     0.034 H 
ENDBRANCH  41  43
ENDBRANCH  40  41
ENDBRANCH  37  40
ENDBRANCH  35  37
ENDBRANCH   1  35
BRANCH   1  47
ATOM     47  O   LIG d   1       8.918   9.811  -1.770  0.00  0.00    -0.380 OA
ATOM     48  H   LIG d   1       8.269   9.136  -2.013  0.00  0.00     0.211 HD
ENDBRANCH   1  47
BRANCH   6  49
ATOM     49  C   LIG d   1      11.791   7.544  -2.349  0.00  0.00    -0.056 C 
ATOM     50  H   LIG d   1      12.361   8.307  -1.819  0.00  0.00     0.024 H 
ATOM     51  H   LIG d   1      11.761   6.633  -1.751  0.00  0.00     0.024 H 
ATOM     52  H   LIG d   1      12.269   7.333  -3.306  0.00  0.00     0.024 H 
ENDBRANCH   6  49
BRANCH  20  53
ATOM     53  C   LIG d   1      11.691   3.862  -4.279  0.00  0.00    -0.049 C 
ATOM     54  H   LIG d   1      11.855   2.864  -4.687  0.00  0.00     0.024 H 
ATOM     55  H   LIG d   1      12.212   4.596  -4.894  0.00  0.00     0.024 H 
ATOM     56  H   LIG d   1      12.076   3.904  -3.260  0.00  0.00     0.024 H 
ENDBRANCH  20  53
TORSDOF 8
ENDMDL
MODEL 9
REMARK VINA RESULT:      -5.7      3.879      7.820
REMARK  8 active torsions:
REMARK  status: ('A' for Active; 'I' for Inactive)
REMARK    1  A    between atoms: C_1  and  C_2 
REMARK    2  A    between atoms: C_2  and  O_4 
REMARK    3  A    between atoms: O_4  and  C_5 
REMARK    4  A    between atoms: C_5  and  C_6 
REMARK    5  A    between atoms: C_6  and  C_8 
REMARK    6  A    between atoms: C_8  and  O_30 
REMARK    7  A    between atoms: C_13  and  C_29 
REMARK    8  A    between atoms: C_27  and  C_28 
ROOT
ATOM      1  C   LIG d   1       4.789  -1.854  -6.086  0.00  0.00     0.133 C 
ATOM      2  C   LIG d   1       4.298  -2.761  -7.239  0.00  0.00    -0.016 C 
ATOM      3  C   LIG d   1       5.288  -3.955  -7.310  0.00  0.00    -0.046 C 
ATOM      4  C   LIG d   1       5.868  -4.014  -5.885  0.00  0.00    -0.026 C 
ATOM      5  H   LIG d   1       5.159  -4.449  -5.181  0.00  0.00     0.031 H 
ATOM      6  C   LIG d   1       6.079  -2.497  -5.579  0.00  0.00     0.011 C 
ATOM      7  C   LIG d   1       6.307  -2.400  -4.077  0.00  0.00    -0.026 C 
ATOM      8  C   LIG d   1       7.521  -3.246  -3.771  0.00  0.00    -0.083 C 
ATOM      9  C   LIG d   1       7.919  -4.238  -4.517  0.00  0.00    -0.056 C 
ATOM     10  C   LIG d   1       7.205  -4.707  -5.763  0.00  0.00    -0.015 C 
ATOM     11  H   LIG d   1       7.814  -4.472  -6.636  0.00  0.00     0.035 H 
ATOM     12  C   LIG d   1       6.984  -6.221  -5.694  0.00  0.00    -0.043 C 
ATOM     13  C   LIG d   1       8.322  -6.943  -5.521  0.00  0.00    -0.030 C 
ATOM     14  C   LIG d   1       8.976  -6.432  -4.252  0.00  0.00    -0.052 A 
ATOM     15  C   LIG d   1       9.299  -7.292  -3.297  0.00  0.00    -0.015 A 
ATOM     16  C   LIG d   1       9.866  -6.816  -2.026  0.00  0.00     0.179 A 
ATOM     17  O   LIG d   1      10.235  -7.603  -1.174  0.00  0.00    -0.288 OA
ATOM     18  C   LIG d   1       9.978  -5.363  -1.807  0.00  0.00    -0.018 A 
ATOM     19  C   LIG d   1       9.659  -4.523  -2.780  0.00  0.00    -0.067 A 
ATOM     20  C   LIG d   1       9.199  -4.953  -4.129  0.00  0.00     0.029 A 
ATOM     21  H   LIG d   1       3.291  -3.121  -7.028  0.00  0.00     0.030 H 
ATOM     22  H   LIG d   1       4.309  -2.209  -8.179  0.00  0.00     0.030 H 
ATOM     23  H   LIG d   1       4.759  -4.880  -7.539  0.00  0.00     0.027 H 
ATOM     24  H   LIG d   1       6.069  -3.764  -8.046  0.00  0.00     0.027 H 
ATOM     25  H   LIG d   1       5.439  -2.786  -3.542  0.00  0.00     0.031 H 
ATOM     26  H   LIG d   1       6.491  -1.364  -3.794  0.00  0.00     0.031 H 
ATOM     27  H   LIG d   1       8.092  -3.014  -2.883  0.00  0.00     0.057 H 
ATOM     28  H   LIG d   1       6.347  -6.453  -4.841  0.00  0.00     0.027 H 
ATOM     29  H   LIG d   1       6.495  -6.556  -6.609  0.00  0.00     0.027 H 
ATOM     30  H   LIG d   1       8.966  -6.734  -6.376  0.00  0.00     0.031 H 
ATOM     31  H   LIG d   1       8.153  -8.017  -5.442  0.00  0.00     0.031 H 
ATOM     32  H   LIG d   1       9.145  -8.350  -3.453  0.00  0.00     0.066 H 
ATOM     33  H   LIG d   1      10.318  -4.984  -0.855  0.00  0.00     0.065 H 
ATOM     34  H   LIG d   1       9.741  -3.464  -2.585  0.00  0.00     0.059 H 
ENDROOT
BRANCH   1  35
ATOM     35  C   LIG d   1       5.067  -0.463  -6.597  0.00  0.00     0.202 C 
ATOM     36  O   LIG d   1       5.516   0.375  -5.853  0.00  0.00    -0.291 OA
BRANCH  35  37
ATOM     37  C   LIG d   1       4.784  -0.119  -8.036  0.00  0.00     0.153 C 
ATOM     38  H   LIG d   1       5.596  -0.301  -8.589  0.00  0.00     0.078 H 
ATOM     39  H   LIG d   1       3.954  -0.727  -8.399  0.00  0.00     0.078 H 
BRANCH  37  40
ATOM     40  O   LIG d   1       4.434   1.286  -8.139  0.00  0.00    -0.457 OA
BRANCH  40  41
ATOM     41  C   LIG d   1       4.729   1.906  -9.291  0.00  0.00     0.304 C 
ATOM     42  O   LIG d   1       5.679   2.651  -9.352  0.00  0.00    -0.251 OA
BRANCH  41  43
ATOM     43  C   LIG d   1       3.877   1.673 -10.513  0.00  0.00     0.033 C 
ATOM     44  H   LIG d   1       3.062   0.992 -10.263  0.00  0.00     0.034 H 
ATOM     45  H   LIG d   1       3.466   2.622 -10.856  0.00  0.00     0.034 H 
ATOM     46  H   LIG d   1       4.487   1.233 -11.302  0.00  0.00     0.034 H 
ENDBRANCH  41  43
ENDBRANCH  40  41
ENDBRANCH  37  40
ENDBRANCH  35  37
ENDBRANCH   1  35
BRANCH   1  47
ATOM     47  O   LIG d   1       3.815  -1.811  -5.040  0.00  0.00    -0.380 OA
ATOM     48  H   LIG d   1       3.041  -1.268  -5.247  0.00  0.00     0.211 HD
ENDBRANCH   1  47
BRANCH   6  49
ATOM     49  C   LIG d   1       7.285  -1.937  -6.335  0.00  0.00    -0.056 C 
ATOM     50  H   LIG d   1       7.169  -0.860  -6.459  0.00  0.00     0.024 H 
ATOM     51  H   LIG d   1       8.194  -2.142  -5.772  0.00  0.00     0.024 H 
ATOM     52  H   LIG d   1       7.351  -2.409  -7.316  0.00  0.00     0.024 H 
ENDBRANCH   6  49
BRANCH  20  53
ATOM     53  C   LIG d   1      10.283  -4.555  -5.133  0.00  0.00    -0.049 C 
ATOM     54  H   LIG d   1      11.103  -4.066  -4.607  0.00  0.00     0.024 H 
ATOM     55  H   LIG d   1      10.656  -5.447  -5.638  0.00  0.00     0.024 H 
ATOM     56  H   LIG d   1       9.864  -3.870  -5.869  0.00  0.00     0.024 H 
ENDBRANCH  20  53
TORSDOF 8
ENDMDL
MODEL 10
REMARK VINA RESULT:      -5.7      8.359     12.373
REMARK  8 active torsions:
REMARK  status: ('A' for Active; 'I' for Inactive)
REMARK    1  A    between atoms: C_1  and  C_2 
REMARK    2  A    between atoms: C_2  and  O_4 
REMARK    3  A    between atoms: O_4  and  C_5 
REMARK    4  A    between atoms: C_5  and  C_6 
REMARK    5  A    between atoms: C_6  and  C_8 
REMARK    6  A    between atoms: C_8  and  O_30 
REMARK    7  A    between atoms: C_13  and  C_29 
REMARK    8  A    between atoms: C_27  and  C_28 
ROOT
ATOM      1  C   LIG d   1       9.536   8.221  -8.749  0.00  0.00     0.133 C 
ATOM      2  C   LIG d   1       9.195   6.842  -9.363  0.00  0.00    -0.016 C 
ATOM      3  C   LIG d   1       9.620   5.779  -8.316  0.00  0.00    -0.046 C 
ATOM      4  C   LIG d   1       9.579   6.557  -6.988  0.00  0.00    -0.026 C 
ATOM      5  H   LIG d   1       8.556   6.707  -6.642  0.00  0.00     0.031 H 
ATOM      6  C   LIG d   1      10.214   7.919  -7.414  0.00  0.00     0.011 C 
ATOM      7  C   LIG d   1       9.902   8.897  -6.291  0.00  0.00    -0.026 C 
ATOM      8  C   LIG d   1      10.513   8.320  -5.035  0.00  0.00    -0.083 C 
ATOM      9  C   LIG d   1      10.753   7.050  -4.865  0.00  0.00    -0.056 C 
ATOM     10  C   LIG d   1      10.418   5.977  -5.874  0.00  0.00    -0.015 C 
ATOM     11  H   LIG d   1      11.342   5.575  -6.291  0.00  0.00     0.035 H 
ATOM     12  C   LIG d   1       9.640   4.849  -5.192  0.00  0.00    -0.043 C 
ATOM     13  C   LIG d   1      10.451   4.275  -4.027  0.00  0.00    -0.030 C 
ATOM     14  C   LIG d   1      10.741   5.401  -3.053  0.00  0.00    -0.052 A 
ATOM     15  C   LIG d   1      10.351   5.284  -1.792  0.00  0.00    -0.015 A 
ATOM     16  C   LIG d   1      10.554   6.391  -0.844  0.00  0.00     0.179 A 
ATOM     17  O   LIG d   1      10.267   6.264   0.332  0.00  0.00    -0.288 OA
ATOM     18  C   LIG d   1      11.112   7.656  -1.351  0.00  0.00    -0.018 A 
ATOM     19  C   LIG d   1      11.505   7.746  -2.612  0.00  0.00    -0.067 A 
ATOM     20  C   LIG d   1      11.439   6.619  -3.582  0.00  0.00     0.029 A 
ATOM     21  H   LIG d   1       8.124   6.773  -9.553  0.00  0.00     0.030 H 
ATOM     22  H   LIG d   1       9.751   6.698 -10.290  0.00  0.00     0.030 H 
ATOM     23  H   LIG d   1       8.906   4.955  -8.291  0.00  0.00     0.027 H 
ATOM     24  H   LIG d   1      10.625   5.411  -8.526  0.00  0.00     0.027 H 
ATOM     25  H   LIG d   1       8.823   8.995  -6.170  0.00  0.00     0.031 H 
ATOM     26  H   LIG d   1      10.344   9.870  -6.509  0.00  0.00     0.031 H 
ATOM     27  H   LIG d   1      10.766   8.998  -4.233  0.00  0.00     0.057 H 
ATOM     28  H   LIG d   1       8.700   5.242  -4.805  0.00  0.00     0.027 H 
ATOM     29  H   LIG d   1       9.428   4.064  -5.919  0.00  0.00     0.027 H 
ATOM     30  H   LIG d   1      11.388   3.861  -4.401  0.00  0.00     0.031 H 
ATOM     31  H   LIG d   1       9.877   3.495  -3.528  0.00  0.00     0.031 H 
ATOM     32  H   LIG d   1       9.881   4.371  -1.458  0.00  0.00     0.066 H 
ATOM     33  H   LIG d   1      11.200   8.510  -0.695  0.00  0.00     0.065 H 
ATOM     34  H   LIG d   1      11.899   8.691  -2.956  0.00  0.00     0.059 H 
ENDROOT
BRANCH   1  35
ATOM     35  C   LIG d   1      10.477   8.976  -9.653  0.00  0.00     0.202 C 
ATOM     36  O   LIG d   1      10.912  10.049  -9.309  0.00  0.00    -0.291 OA
BRANCH  35  37
ATOM     37  C   LIG d   1      10.875   8.393 -10.983  0.00  0.00     0.153 C 
ATOM     38  H   LIG d   1      11.861   8.229 -10.995  0.00  0.00     0.078 H 
ATOM     39  H   LIG d   1      10.348   7.451 -11.139  0.00  0.00     0.078 H 
BRANCH  37  40
ATOM     40  O   LIG d   1      10.527   9.322 -12.044  0.00  0.00    -0.457 OA
BRANCH  40  41
ATOM     41  C   LIG d   1       9.737   8.858 -13.024  0.00  0.00     0.304 C 
ATOM     42  O   LIG d   1       9.230   7.766 -12.928  0.00  0.00    -0.251 OA
BRANCH  41  43
ATOM     43  C   LIG d   1       9.480   9.701 -14.248  0.00  0.00     0.033 C 
ATOM     44  H   LIG d   1      10.420  10.131 -14.596  0.00  0.00     0.034 H 
ATOM     45  H   LIG d   1       9.050   9.080 -15.033  0.00  0.00     0.034 H 
ATOM     46  H   LIG d   1       8.786  10.503 -13.996  0.00  0.00     0.034 H 
ENDBRANCH  41  43
ENDBRANCH  40  41
ENDBRANCH  37  40
ENDBRANCH  35  37
ENDBRANCH   1  35
BRANCH   1  47
ATOM     47  O   LIG d   1       8.341   8.977  -8.536  0.00  0.00    -0.380 OA
ATOM     48  H   LIG d   1       8.499   9.887  -8.248  0.00  0.00     0.211 HD
ENDBRANCH   1  47
BRANCH   6  49
ATOM     49  C   LIG d   1      11.727   7.794  -7.603  0.00  0.00    -0.056 C 
ATOM     50  H   LIG d   1      12.142   8.767  -7.870  0.00  0.00     0.024 H 
ATOM     51  H   LIG d   1      12.182   7.447  -6.677  0.00  0.00     0.024 H 
ATOM     52  H   LIG d   1      11.937   7.080  -8.400  0.00  0.00     0.024 H 
ENDBRANCH   6  49
BRANCH  20  53
ATOM     53  C   LIG d   1      12.877   6.226  -3.928  0.00  0.00    -0.049 C 
ATOM     54  H   LIG d   1      13.540   7.070  -3.737  0.00  0.00     0.024 H 
ATOM     55  H   LIG d   1      13.180   5.379  -3.312  0.00  0.00     0.024 H 
ATOM     56  H   LIG d   1      12.936   5.948  -4.980  0.00  0.00     0.024 H 
ENDBRANCH  20  53
TORSDOF 8
ENDMDL
