MODEL 1
REMARK VINA RESULT:      -7.3      0.000      0.000
REMARK  9 active torsions:
REMARK  status: ('A' for Active; 'I' for Inactive)
REMARK    1  A    between atoms: C_1  and  O_2 
REMARK    2  A    between atoms: O_2  and  C_3 
REMARK    3  A    between atoms: C_8  and  N_9 
REMARK       I    between atoms: N_12  and  C_15 
REMARK    4  A    between atoms: C_15  and  C_17 
REMARK    5  A    between atoms: C_17  and  C_18 
REMARK    6  A    between atoms: C_24  and  C_26 
REMARK    7  A    between atoms: C_26  and  C_27 
REMARK    8  A    between atoms: C_29  and  C_32 
REMARK    9  A    between atoms: C_32  and  N_33 
ROOT
ATOM      1  C   LIG d   1       6.874  -7.963  -5.232  0.00  0.00    -0.020 C 
ATOM      2  H   LIG d   1       7.262  -8.002  -4.203  0.00  0.00     0.031 H 
ATOM      3  C   LIG d   1       7.306  -9.222  -5.991  0.00  0.00    -0.009 C 
ATOM      4  C   LIG d   1       6.695 -10.453  -5.317  0.00  0.00    -0.033 C 
ATOM      5  N   LIG d   1       5.232 -10.338  -5.317  0.00  0.00     0.227 N 
ATOM      6  C   LIG d   1       4.792  -9.164  -4.553  0.00  0.00    -0.030 C 
ATOM      7  C   LIG d   1       5.345  -7.892  -5.203  0.00  0.00     0.008 C 
ATOM      8  H   LIG d   1       5.027  -7.013  -4.623  0.00  0.00     0.036 H 
ATOM      9  H   LIG d   1       6.955  -9.160  -7.031  0.00  0.00     0.032 H 
ATOM     10  H   LIG d   1       8.403  -9.300  -5.978  0.00  0.00     0.032 H 
ATOM     11  H   LIG d   1       6.992 -11.358  -5.869  0.00  0.00     0.081 H 
ATOM     12  H   LIG d   1       7.058 -10.521  -4.280  0.00  0.00     0.081 H 
ATOM     13  H   LIG d   1       4.872 -10.239  -6.351  0.00  0.00     0.201 HD
ATOM     14  H   LIG d   1       3.693  -9.121  -4.545  0.00  0.00     0.082 H 
ATOM     15  H   LIG d   1       5.163  -9.237  -3.520  0.00  0.00     0.082 H 
ATOM     16  H   LIG d   1       4.794 -11.238  -4.860  0.00  0.00     0.201 HD
ENDROOT
BRANCH   1  17
ATOM     17  C   LIG d   1       7.431  -6.725  -5.937  0.00  0.00     0.028 C 
ATOM     18  H   LIG d   1       6.599  -6.124  -6.332  0.00  0.00     0.036 H 
ATOM     19  H   LIG d   1       8.084  -7.037  -6.765  0.00  0.00     0.036 H 
BRANCH  17  20
ATOM     20  C   LIG d   1       8.222  -5.901  -4.954  0.00  0.00     0.216 C 
ATOM     21  N   LIG d   1       8.021  -4.571  -4.874  0.00  0.00    -0.298 N 
ATOM     22  C   LIG d   1       7.033  -3.904  -5.736  0.00  0.00     0.030 C 
ATOM     23  C   LIG d   1       8.783  -3.748  -3.923  0.00  0.00     0.030 C 
ATOM     24  C   LIG d   1       6.115  -3.051  -4.854  0.00  0.00     0.028 C 
ATOM     25  H   LIG d   1       6.434  -4.655  -6.271  0.00  0.00     0.048 H 
ATOM     26  H   LIG d   1       7.546  -3.258  -6.464  0.00  0.00     0.048 H 
ATOM     27  N   LIG d   1       6.932  -2.149  -4.031  0.00  0.00    -0.324 NA
ATOM     28  H   LIG d   1       5.521  -3.706  -4.200  0.00  0.00     0.048 H 
ATOM     29  H   LIG d   1       5.441  -2.458  -5.490  0.00  0.00     0.048 H 
ATOM     30  C   LIG d   1       7.796  -2.902  -3.112  0.00  0.00     0.028 C 
ATOM     31  H   LIG d   1       8.352  -2.199  -2.473  0.00  0.00     0.048 H 
ATOM     32  H   LIG d   1       7.178  -3.559  -2.483  0.00  0.00     0.048 H 
ATOM     33  H   LIG d   1       9.356  -4.402  -3.250  0.00  0.00     0.048 H 
ATOM     34  H   LIG d   1       9.473  -3.093  -4.474  0.00  0.00     0.048 H 
ATOM     35  O   LIG d   1       9.041  -6.435  -4.235  0.00  0.00    -0.276 OA
BRANCH  27  36
ATOM     36  C   LIG d   1       6.127  -1.241  -3.332  0.00  0.00     0.072 A 
ATOM     37  C   LIG d   1       6.395   0.124  -3.399  0.00  0.00     0.141 A 
ATOM     38  C   LIG d   1       5.595   1.018  -2.705  0.00  0.00    -0.018 A 
ATOM     39  C   LIG d   1       4.535   0.555  -1.950  0.00  0.00    -0.058 A 
ATOM     40  H   LIG d   1       5.801   2.077  -2.756  0.00  0.00     0.066 H 
ATOM     41  C   LIG d   1       4.268  -0.801  -1.884  0.00  0.00    -0.060 A 
ATOM     42  H   LIG d   1       3.912   1.253  -1.411  0.00  0.00     0.062 H 
ATOM     43  C   LIG d   1       5.064  -1.699  -2.567  0.00  0.00    -0.037 A 
ATOM     44  H   LIG d   1       3.437  -1.158  -1.292  0.00  0.00     0.062 H 
ATOM     45  H   LIG d   1       4.857  -2.758  -2.510  0.00  0.00     0.064 H 
BRANCH  37  46
ATOM     46  O   LIG d   1       7.438   0.579  -4.143  0.00  0.00    -0.493 OA
BRANCH  46  47
ATOM     47  C   LIG d   1       7.896   1.906  -3.877  0.00  0.00     0.079 C 
ATOM     48  H   LIG d   1       7.185   2.631  -4.299  0.00  0.00     0.066 H 
ATOM     49  H   LIG d   1       8.885   2.052  -4.335  0.00  0.00     0.066 H 
ATOM     50  H   LIG d   1       7.971   2.057  -2.789  0.00  0.00     0.066 H 
ENDBRANCH  46  47
ENDBRANCH  37  46
ENDBRANCH  27  36
ENDBRANCH  17  20
ENDBRANCH   1  17
BRANCH   7  51
ATOM     51  C   LIG d   1       4.812  -7.778  -6.632  0.00  0.00     0.001 C 
ATOM     52  H   LIG d   1       5.611  -8.034  -7.343  0.00  0.00     0.033 H 
ATOM     53  H   LIG d   1       3.967  -8.470  -6.765  0.00  0.00     0.033 H 
BRANCH  51  54
ATOM     54  C   LIG d   1       4.347  -6.366  -6.884  0.00  0.00     0.084 A 
ATOM     55  N   LIG d   1       3.746  -5.580  -6.038  0.00  0.00    -0.083 NA
ATOM     56  O   LIG d   1       3.500  -4.503  -6.528  0.00  0.00    -0.358 OA
ATOM     57  C   LIG d   1       3.909  -4.437  -7.804  0.00  0.00     0.151 A 
ATOM     58  C   LIG d   1       4.473  -5.636  -8.088  0.00  0.00     0.005 A 
ATOM     59  H   LIG d   1       4.917  -5.958  -9.018  0.00  0.00     0.067 H 
BRANCH  57  60
ATOM     60  C   LIG d   1       3.770  -3.262  -8.736  0.00  0.00     0.060 C 
ATOM     61  H   LIG d   1       4.567  -3.298  -9.493  0.00  0.00     0.051 H 
ATOM     62  H   LIG d   1       2.790  -3.302  -9.234  0.00  0.00     0.051 H 
BRANCH  60  63
ATOM     63  N   LIG d   1       3.879  -2.014  -7.970  0.00  0.00    -0.291 N 
ATOM     64  C   LIG d   1       5.245  -1.474  -8.032  0.00  0.00     0.023 C 
ATOM     65  C   LIG d   1       5.329  -0.209  -7.175  0.00  0.00     0.060 C 
ATOM     66  H   LIG d   1       5.954  -2.225  -7.652  0.00  0.00     0.045 H 
ATOM     67  H   LIG d   1       5.496  -1.229  -9.075  0.00  0.00     0.045 H 
ATOM     68  O   LIG d   1       4.354   0.733  -7.628  0.00  0.00    -0.377 OA
ATOM     69  H   LIG d   1       6.333   0.231  -7.263  0.00  0.00     0.057 H 
ATOM     70  H   LIG d   1       5.132  -0.463  -6.122  0.00  0.00     0.057 H 
ATOM     71  C   LIG d   1       3.011   0.242  -7.580  0.00  0.00     0.060 C 
ATOM     72  C   LIG d   1       2.905  -1.019  -8.442  0.00  0.00     0.023 C 
ATOM     73  H   LIG d   1       2.324   1.010  -7.966  0.00  0.00     0.057 H 
ATOM     74  H   LIG d   1       2.744  -0.001  -6.541  0.00  0.00     0.057 H 
ATOM     75  H   LIG d   1       3.118  -0.766  -9.491  0.00  0.00     0.045 H 
ATOM     76  H   LIG d   1       1.889  -1.434  -8.363  0.00  0.00     0.045 H 
ENDBRANCH  60  63
ENDBRANCH  57  60
ENDBRANCH  51  54
ENDBRANCH   7  51
TORSDOF 9
ENDMDL
MODEL 2
REMARK VINA RESULT:      -6.7      6.604     12.275
REMARK  9 active torsions:
REMARK  status: ('A' for Active; 'I' for Inactive)
REMARK    1  A    between atoms: C_1  and  O_2 
REMARK    2  A    between atoms: O_2  and  C_3 
REMARK    3  A    between atoms: C_8  and  N_9 
REMARK       I    between atoms: N_12  and  C_15 
REMARK    4  A    between atoms: C_15  and  C_17 
REMARK    5  A    between atoms: C_17  and  C_18 
REMARK    6  A    between atoms: C_24  and  C_26 
REMARK    7  A    between atoms: C_26  and  C_27 
REMARK    8  A    between atoms: C_29  and  C_32 
REMARK    9  A    between atoms: C_32  and  N_33 
ROOT
ATOM      1  C   LIG d   1       9.848   5.600  -6.408  0.00  0.00    -0.020 C 
ATOM      2  H   LIG d   1       8.917   5.467  -6.978  0.00  0.00     0.031 H 
ATOM      3  C   LIG d   1      10.925   6.201  -7.317  0.00  0.00    -0.009 C 
ATOM      4  C   LIG d   1      10.473   7.587  -7.787  0.00  0.00    -0.033 C 
ATOM      5  N   LIG d   1      10.251   8.452  -6.622  0.00  0.00     0.227 N 
ATOM      6  C   LIG d   1       9.188   7.920  -5.761  0.00  0.00    -0.030 C 
ATOM      7  C   LIG d   1       9.599   6.544  -5.229  0.00  0.00     0.008 C 
ATOM      8  H   LIG d   1       8.797   6.138  -4.594  0.00  0.00     0.036 H 
ATOM      9  H   LIG d   1      11.867   6.292  -6.757  0.00  0.00     0.032 H 
ATOM     10  H   LIG d   1      11.077   5.548  -8.187  0.00  0.00     0.032 H 
ATOM     11  H   LIG d   1      11.251   8.028  -8.428  0.00  0.00     0.081 H 
ATOM     12  H   LIG d   1       9.538   7.493  -8.357  0.00  0.00     0.081 H 
ATOM     13  H   LIG d   1      11.178   8.521  -6.034  0.00  0.00     0.201 HD
ATOM     14  H   LIG d   1       9.023   8.604  -4.915  0.00  0.00     0.082 H 
ATOM     15  H   LIG d   1       8.257   7.824  -6.341  0.00  0.00     0.082 H 
ATOM     16  H   LIG d   1       9.956   9.456  -6.963  0.00  0.00     0.201 HD
ENDROOT
BRANCH   1  17
ATOM     17  C   LIG d   1      10.320   4.242  -5.886  0.00  0.00     0.028 C 
ATOM     18  H   LIG d   1      10.178   4.199  -4.796  0.00  0.00     0.036 H 
ATOM     19  H   LIG d   1      11.386   4.109  -6.122  0.00  0.00     0.036 H 
BRANCH  17  20
ATOM     20  C   LIG d   1       9.519   3.146  -6.540  0.00  0.00     0.216 C 
ATOM     21  N   LIG d   1       9.114   2.084  -5.816  0.00  0.00    -0.298 N 
ATOM     22  C   LIG d   1       9.441   1.976  -4.386  0.00  0.00     0.030 C 
ATOM     23  C   LIG d   1       8.331   1.003  -6.435  0.00  0.00     0.030 C 
ATOM     24  C   LIG d   1       8.151   1.687  -3.612  0.00  0.00     0.028 C 
ATOM     25  H   LIG d   1       9.881   2.918  -4.029  0.00  0.00     0.048 H 
ATOM     26  H   LIG d   1      10.156   1.155  -4.226  0.00  0.00     0.048 H 
ATOM     27  N   LIG d   1       7.489   0.510  -4.189  0.00  0.00    -0.324 NA
ATOM     28  H   LIG d   1       7.479   2.556  -3.681  0.00  0.00     0.048 H 
ATOM     29  H   LIG d   1       8.391   1.493  -2.556  0.00  0.00     0.048 H 
ATOM     30  C   LIG d   1       7.085   0.754  -5.580  0.00  0.00     0.028 C 
ATOM     31  H   LIG d   1       6.545  -0.125  -5.964  0.00  0.00     0.048 H 
ATOM     32  H   LIG d   1       6.428   1.635  -5.621  0.00  0.00     0.048 H 
ATOM     33  H   LIG d   1       8.035   1.301  -7.451  0.00  0.00     0.048 H 
ATOM     34  H   LIG d   1       8.942   0.089  -6.483  0.00  0.00     0.048 H 
ATOM     35  O   LIG d   1       9.240   3.219  -7.718  0.00  0.00    -0.276 OA
BRANCH  27  36
ATOM     36  C   LIG d   1       6.395   0.117  -3.410  0.00  0.00     0.072 A 
ATOM     37  C   LIG d   1       6.127  -1.236  -3.214  0.00  0.00     0.141 A 
ATOM     38  C   LIG d   1       5.042  -1.619  -2.442  0.00  0.00    -0.018 A 
ATOM     39  C   LIG d   1       4.230  -0.660  -1.867  0.00  0.00    -0.058 A 
ATOM     40  H   LIG d   1       4.833  -2.668  -2.289  0.00  0.00     0.066 H 
ATOM     41  C   LIG d   1       4.496   0.683  -2.060  0.00  0.00    -0.060 A 
ATOM     42  H   LIG d   1       3.386  -0.961  -1.264  0.00  0.00     0.062 H 
ATOM     43  C   LIG d   1       5.572   1.074  -2.834  0.00  0.00    -0.037 A 
ATOM     44  H   LIG d   1       3.858   1.429  -1.608  0.00  0.00     0.062 H 
ATOM     45  H   LIG d   1       5.774   2.123  -2.987  0.00  0.00     0.064 H 
BRANCH  37  46
ATOM     46  O   LIG d   1       6.928  -2.179  -3.779  0.00  0.00    -0.493 OA
BRANCH  46  47
ATOM     47  C   LIG d   1       6.301  -3.135  -4.636  0.00  0.00     0.079 C 
ATOM     48  H   LIG d   1       5.836  -2.616  -5.487  0.00  0.00     0.066 H 
ATOM     49  H   LIG d   1       5.529  -3.681  -4.074  0.00  0.00     0.066 H 
ATOM     50  H   LIG d   1       7.055  -3.845  -5.007  0.00  0.00     0.066 H 
ENDBRANCH  46  47
ENDBRANCH  37  46
ENDBRANCH  27  36
ENDBRANCH  17  20
ENDBRANCH   1  17
BRANCH   7  51
ATOM     51  C   LIG d   1      10.880   6.679  -4.403  0.00  0.00     0.001 C 
ATOM     52  H   LIG d   1      11.479   5.762  -4.505  0.00  0.00     0.033 H 
ATOM     53  H   LIG d   1      11.461   7.540  -4.766  0.00  0.00     0.033 H 
BRANCH  51  54
ATOM     54  C   LIG d   1      10.523   6.890  -2.954  0.00  0.00     0.084 A 
ATOM     55  N   LIG d   1       9.356   6.720  -2.405  0.00  0.00    -0.083 NA
ATOM     56  O   LIG d   1       9.380   6.964  -1.222  0.00  0.00    -0.358 OA
ATOM     57  C   LIG d   1      10.600   7.348  -0.823  0.00  0.00     0.151 A 
ATOM     58  C   LIG d   1      11.391   7.317  -1.922  0.00  0.00     0.005 A 
ATOM     59  H   LIG d   1      12.440   7.561  -1.995  0.00  0.00     0.067 H 
BRANCH  57  60
ATOM     60  C   LIG d   1      11.012   7.738   0.573  0.00  0.00     0.060 C 
ATOM     61  H   LIG d   1      10.188   7.528   1.271  0.00  0.00     0.051 H 
ATOM     62  H   LIG d   1      11.899   7.158   0.870  0.00  0.00     0.051 H 
BRANCH  60  63
ATOM     63  N   LIG d   1      11.331   9.171   0.608  0.00  0.00    -0.291 N 
ATOM     64  C   LIG d   1      10.139   9.983   0.323  0.00  0.00     0.023 C 
ATOM     65  C   LIG d   1      10.526  11.463   0.311  0.00  0.00     0.060 C 
ATOM     66  H   LIG d   1       9.729   9.701  -0.658  0.00  0.00     0.045 H 
ATOM     67  H   LIG d   1       9.380   9.807   1.101  0.00  0.00     0.045 H 
ATOM     68  O   LIG d   1      11.126  11.804   1.564  0.00  0.00    -0.377 OA
ATOM     69  H   LIG d   1       9.628  12.079   0.155  0.00  0.00     0.057 H 
ATOM     70  H   LIG d   1      11.244  11.650  -0.502  0.00  0.00     0.057 H 
ATOM     71  C   LIG d   1      12.291  11.034   1.873  0.00  0.00     0.060 C 
ATOM     72  C   LIG d   1      11.920   9.548   1.901  0.00  0.00     0.023 C 
ATOM     73  H   LIG d   1      12.680  11.334   2.857  0.00  0.00     0.057 H 
ATOM     74  H   LIG d   1      13.061  11.205   1.107  0.00  0.00     0.057 H 
ATOM     75  H   LIG d   1      11.191   9.366   2.704  0.00  0.00     0.045 H 
ATOM     76  H   LIG d   1      12.823   8.947   2.082  0.00  0.00     0.045 H 
ENDBRANCH  60  63
ENDBRANCH  57  60
ENDBRANCH  51  54
ENDBRANCH   7  51
TORSDOF 9
ENDMDL
MODEL 3
REMARK VINA RESULT:      -6.3      6.262     11.572
REMARK  9 active torsions:
REMARK  status: ('A' for Active; 'I' for Inactive)
REMARK    1  A    between atoms: C_1  and  O_2 
REMARK    2  A    between atoms: O_2  and  C_3 
REMARK    3  A    between atoms: C_8  and  N_9 
REMARK       I    between atoms: N_12  and  C_15 
REMARK    4  A    between atoms: C_15  and  C_17 
REMARK    5  A    between atoms: C_17  and  C_18 
REMARK    6  A    between atoms: C_24  and  C_26 
REMARK    7  A    between atoms: C_26  and  C_27 
REMARK    8  A    between atoms: C_29  and  C_32 
REMARK    9  A    between atoms: C_32  and  N_33 
ROOT
ATOM      1  C   LIG d   1      10.829   4.461  -5.220  0.00  0.00    -0.020 C 
ATOM      2  H   LIG d   1      11.123   4.906  -6.182  0.00  0.00     0.031 H 
ATOM      3  C   LIG d   1      11.547   3.122  -5.032  0.00  0.00    -0.009 C 
ATOM      4  C   LIG d   1      13.059   3.361  -4.981  0.00  0.00    -0.033 C 
ATOM      5  N   LIG d   1      13.375   4.268  -3.871  0.00  0.00     0.227 N 
ATOM      6  C   LIG d   1      12.735   5.576  -4.055  0.00  0.00    -0.030 C 
ATOM      7  C   LIG d   1      11.214   5.404  -4.078  0.00  0.00     0.008 C 
ATOM      8  H   LIG d   1      10.734   6.383  -4.229  0.00  0.00     0.036 H 
ATOM      9  H   LIG d   1      11.216   2.658  -4.091  0.00  0.00     0.032 H 
ATOM     10  H   LIG d   1      11.307   2.455  -5.873  0.00  0.00     0.032 H 
ATOM     11  H   LIG d   1      13.577   2.403  -4.831  0.00  0.00     0.081 H 
ATOM     12  H   LIG d   1      13.389   3.813  -5.928  0.00  0.00     0.081 H 
ATOM     13  H   LIG d   1      13.016   3.831  -2.927  0.00  0.00     0.201 HD
ATOM     14  H   LIG d   1      13.015   6.242  -3.224  0.00  0.00     0.082 H 
ATOM     15  H   LIG d   1      13.068   6.018  -5.006  0.00  0.00     0.082 H 
ATOM     16  H   LIG d   1      14.464   4.414  -3.817  0.00  0.00     0.201 HD
ENDROOT
BRANCH   1  17
ATOM     17  C   LIG d   1       9.316   4.236  -5.209  0.00  0.00     0.028 C 
ATOM     18  H   LIG d   1       8.817   5.074  -5.717  0.00  0.00     0.036 H 
ATOM     19  H   LIG d   1       8.961   4.173  -4.170  0.00  0.00     0.036 H 
BRANCH  17  20
ATOM     20  C   LIG d   1       8.995   2.951  -5.928  0.00  0.00     0.216 C 
ATOM     21  N   LIG d   1       8.563   1.880  -5.233  0.00  0.00    -0.298 N 
ATOM     22  C   LIG d   1       8.399   1.944  -3.773  0.00  0.00     0.030 C 
ATOM     23  C   LIG d   1       8.245   0.616  -5.914  0.00  0.00     0.030 C 
ATOM     24  C   LIG d   1       6.995   1.440  -3.419  0.00  0.00     0.028 C 
ATOM     25  H   LIG d   1       8.515   2.981  -3.427  0.00  0.00     0.048 H 
ATOM     26  H   LIG d   1       9.151   1.309  -3.282  0.00  0.00     0.048 H 
ATOM     27  N   LIG d   1       6.791   0.111  -4.009  0.00  0.00    -0.324 NA
ATOM     28  H   LIG d   1       6.243   2.138  -3.817  0.00  0.00     0.048 H 
ATOM     29  H   LIG d   1       6.893   1.376  -2.325  0.00  0.00     0.048 H 
ATOM     30  C   LIG d   1       6.847   0.165  -5.476  0.00  0.00     0.028 C 
ATOM     31  H   LIG d   1       6.636  -0.833  -5.888  0.00  0.00     0.048 H 
ATOM     32  H   LIG d   1       6.097   0.881  -5.845  0.00  0.00     0.048 H 
ATOM     33  H   LIG d   1       8.264   0.771  -7.003  0.00  0.00     0.048 H 
ATOM     34  H   LIG d   1       8.988  -0.147  -5.640  0.00  0.00     0.048 H 
ATOM     35  O   LIG d   1       9.124   2.880  -7.132  0.00  0.00    -0.276 OA
BRANCH  27  36
ATOM     36  C   LIG d   1       5.586  -0.452  -3.574  0.00  0.00     0.072 A 
ATOM     37  C   LIG d   1       5.464  -1.834  -3.454  0.00  0.00     0.141 A 
ATOM     38  C   LIG d   1       4.269  -2.386  -3.022  0.00  0.00    -0.018 A 
ATOM     39  C   LIG d   1       3.201  -1.565  -2.711  0.00  0.00    -0.058 A 
ATOM     40  H   LIG d   1       4.172  -3.457  -2.929  0.00  0.00     0.066 H 
ATOM     41  C   LIG d   1       3.322  -0.192  -2.828  0.00  0.00    -0.060 A 
ATOM     42  H   LIG d   1       2.271  -1.997  -2.373  0.00  0.00     0.062 H 
ATOM     43  C   LIG d   1       4.509   0.366  -3.265  0.00  0.00    -0.037 A 
ATOM     44  H   LIG d   1       2.485   0.445  -2.583  0.00  0.00     0.062 H 
ATOM     45  H   LIG d   1       4.598   1.437  -3.360  0.00  0.00     0.064 H 
BRANCH  37  46
ATOM     46  O   LIG d   1       6.515  -2.641  -3.760  0.00  0.00    -0.493 OA
BRANCH  46  47
ATOM     47  C   LIG d   1       6.357  -3.519  -4.875  0.00  0.00     0.079 C 
ATOM     48  H   LIG d   1       5.772  -4.399  -4.569  0.00  0.00     0.066 H 
ATOM     49  H   LIG d   1       7.347  -3.842  -5.231  0.00  0.00     0.066 H 
ATOM     50  H   LIG d   1       5.831  -2.992  -5.685  0.00  0.00     0.066 H 
ENDBRANCH  46  47
ENDBRANCH  37  46
ENDBRANCH  27  36
ENDBRANCH  17  20
ENDBRANCH   1  17
BRANCH   7  51
ATOM     51  C   LIG d   1      10.748   4.812  -2.746  0.00  0.00     0.001 C 
ATOM     52  H   LIG d   1       9.911   4.121  -2.926  0.00  0.00     0.033 H 
ATOM     53  H   LIG d   1      11.580   4.266  -2.277  0.00  0.00     0.033 H 
BRANCH  51  54
ATOM     54  C   LIG d   1      10.297   5.922  -1.832  0.00  0.00     0.084 A 
ATOM     55  N   LIG d   1      10.409   5.959  -0.536  0.00  0.00    -0.083 NA
ATOM     56  O   LIG d   1       9.959   6.983  -0.079  0.00  0.00    -0.358 OA
ATOM     57  C   LIG d   1       9.467   7.777  -1.040  0.00  0.00     0.151 A 
ATOM     58  C   LIG d   1       9.664   7.127  -2.212  0.00  0.00     0.005 A 
ATOM     59  H   LIG d   1       9.399   7.454  -3.207  0.00  0.00     0.067 H 
BRANCH  57  60
ATOM     60  C   LIG d   1       8.823   9.127  -0.854  0.00  0.00     0.060 C 
ATOM     61  H   LIG d   1       8.050   9.273  -1.623  0.00  0.00     0.051 H 
ATOM     62  H   LIG d   1       8.362   9.179   0.144  0.00  0.00     0.051 H 
BRANCH  60  63
ATOM     63  N   LIG d   1       9.842  10.177  -0.979  0.00  0.00    -0.291 N 
ATOM     64  C   LIG d   1       9.525  11.090  -2.087  0.00  0.00     0.023 C 
ATOM     65  C   LIG d   1      10.639  12.131  -2.219  0.00  0.00     0.060 C 
ATOM     66  H   LIG d   1       9.443  10.517  -3.022  0.00  0.00     0.045 H 
ATOM     67  H   LIG d   1       8.570  11.597  -1.883  0.00  0.00     0.045 H 
ATOM     68  O   LIG d   1      10.790  12.821  -0.975  0.00  0.00    -0.377 OA
ATOM     69  H   LIG d   1      10.380  12.851  -3.008  0.00  0.00     0.057 H 
ATOM     70  H   LIG d   1      11.584  11.629  -2.477  0.00  0.00     0.057 H 
ATOM     71  C   LIG d   1      11.101  11.962   0.126  0.00  0.00     0.060 C 
ATOM     72  C   LIG d   1       9.990  10.919   0.281  0.00  0.00     0.023 C 
ATOM     73  H   LIG d   1      11.176  12.558   1.047  0.00  0.00     0.057 H 
ATOM     74  H   LIG d   1      12.057  11.453  -0.061  0.00  0.00     0.057 H 
ATOM     75  H   LIG d   1       9.043  11.424   0.523  0.00  0.00     0.045 H 
ATOM     76  H   LIG d   1      10.251  10.222   1.090  0.00  0.00     0.045 H 
ENDBRANCH  60  63
ENDBRANCH  57  60
ENDBRANCH  51  54
ENDBRANCH   7  51
TORSDOF 9
ENDMDL
MODEL 4
REMARK VINA RESULT:      -6.2      3.455      6.302
REMARK  9 active torsions:
REMARK  status: ('A' for Active; 'I' for Inactive)
REMARK    1  A    between atoms: C_1  and  O_2 
REMARK    2  A    between atoms: O_2  and  C_3 
REMARK    3  A    between atoms: C_8  and  N_9 
REMARK       I    between atoms: N_12  and  C_15 
REMARK    4  A    between atoms: C_15  and  C_17 
REMARK    5  A    between atoms: C_17  and  C_18 
REMARK    6  A    between atoms: C_24  and  C_26 
REMARK    7  A    between atoms: C_26  and  C_27 
REMARK    8  A    between atoms: C_29  and  C_32 
REMARK    9  A    between atoms: C_32  and  N_33 
ROOT
ATOM      1  C   LIG d   1       2.713  -2.601 -10.041  0.00  0.00    -0.020 C 
ATOM      2  H   LIG d   1       2.091  -3.105  -9.287  0.00  0.00     0.031 H 
ATOM      3  C   LIG d   1       2.293  -3.058 -11.442  0.00  0.00    -0.009 C 
ATOM      4  C   LIG d   1       0.841  -2.643 -11.695  0.00  0.00    -0.033 C 
ATOM      5  N   LIG d   1       0.721  -1.185 -11.579  0.00  0.00     0.227 N 
ATOM      6  C   LIG d   1       1.072  -0.728 -10.228  0.00  0.00    -0.030 C 
ATOM      7  C   LIG d   1       2.531  -1.086  -9.929  0.00  0.00     0.008 C 
ATOM      8  H   LIG d   1       2.791  -0.756  -8.913  0.00  0.00     0.036 H 
ATOM      9  H   LIG d   1       2.947  -2.587 -12.191  0.00  0.00     0.032 H 
ATOM     10  H   LIG d   1       2.382  -4.151 -11.513  0.00  0.00     0.032 H 
ATOM     11  H   LIG d   1       0.542  -2.956 -12.706  0.00  0.00     0.081 H 
ATOM     12  H   LIG d   1       0.188  -3.125 -10.952  0.00  0.00     0.081 H 
ATOM     13  H   LIG d   1       1.397  -0.702 -12.299  0.00  0.00     0.201 HD
ATOM     14  H   LIG d   1       0.943   0.362 -10.163  0.00  0.00     0.082 H 
ATOM     15  H   LIG d   1       0.418  -1.219  -9.492  0.00  0.00     0.082 H 
ATOM     16  H   LIG d   1      -0.317  -0.885 -11.791  0.00  0.00     0.201 HD
ENDROOT
BRANCH   1  17
ATOM     17  C   LIG d   1       4.182  -2.959  -9.806  0.00  0.00     0.028 C 
ATOM     18  H   LIG d   1       4.787  -2.041  -9.806  0.00  0.00     0.036 H 
ATOM     19  H   LIG d   1       4.529  -3.627 -10.607  0.00  0.00     0.036 H 
BRANCH  17  20
ATOM     20  C   LIG d   1       4.323  -3.653  -8.475  0.00  0.00     0.216 C 
ATOM     21  N   LIG d   1       4.905  -3.014  -7.441  0.00  0.00    -0.298 N 
ATOM     22  C   LIG d   1       5.409  -1.640  -7.590  0.00  0.00     0.030 C 
ATOM     23  C   LIG d   1       5.054  -3.672  -6.134  0.00  0.00     0.030 C 
ATOM     24  C   LIG d   1       4.840  -0.788  -6.451  0.00  0.00     0.028 C 
ATOM     25  H   LIG d   1       5.088  -1.225  -8.556  0.00  0.00     0.048 H 
ATOM     26  H   LIG d   1       6.508  -1.636  -7.537  0.00  0.00     0.048 H 
ATOM     27  N   LIG d   1       5.146  -1.426  -5.164  0.00  0.00    -0.324 NA
ATOM     28  H   LIG d   1       3.749  -0.701  -6.567  0.00  0.00     0.048 H 
ATOM     29  H   LIG d   1       5.293   0.215  -6.481  0.00  0.00     0.048 H 
ATOM     30  C   LIG d   1       4.497  -2.739  -5.054  0.00  0.00     0.028 C 
ATOM     31  H   LIG d   1       4.700  -3.166  -4.060  0.00  0.00     0.048 H 
ATOM     32  H   LIG d   1       3.412  -2.625  -5.189  0.00  0.00     0.048 H 
ATOM     33  H   LIG d   1       4.494  -4.620  -6.136  0.00  0.00     0.048 H 
ATOM     34  H   LIG d   1       6.118  -3.875  -5.944  0.00  0.00     0.048 H 
ATOM     35  O   LIG d   1       3.912  -4.786  -8.335  0.00  0.00    -0.276 OA
BRANCH  27  36
ATOM     36  C   LIG d   1       4.786  -0.597  -4.095  0.00  0.00     0.072 A 
ATOM     37  C   LIG d   1       5.749   0.188  -3.466  0.00  0.00     0.141 A 
ATOM     38  C   LIG d   1       5.388   1.007  -2.408  0.00  0.00    -0.018 A 
ATOM     39  C   LIG d   1       4.074   1.042  -1.980  0.00  0.00    -0.058 A 
ATOM     40  H   LIG d   1       6.133   1.617  -1.920  0.00  0.00     0.066 H 
ATOM     41  C   LIG d   1       3.117   0.263  -2.604  0.00  0.00    -0.060 A 
ATOM     42  H   LIG d   1       3.794   1.682  -1.156  0.00  0.00     0.062 H 
ATOM     43  C   LIG d   1       3.471  -0.561  -3.656  0.00  0.00    -0.037 A 
ATOM     44  H   LIG d   1       2.092   0.295  -2.265  0.00  0.00     0.062 H 
ATOM     45  H   LIG d   1       2.723  -1.172  -4.138  0.00  0.00     0.064 H 
BRANCH  37  46
ATOM     46  O   LIG d   1       7.041   0.153  -3.890  0.00  0.00    -0.493 OA
BRANCH  46  47
ATOM     47  C   LIG d   1       7.783   1.372  -3.812  0.00  0.00     0.079 C 
ATOM     48  H   LIG d   1       8.246   1.457  -2.818  0.00  0.00     0.066 H 
ATOM     49  H   LIG d   1       7.108   2.224  -3.977  0.00  0.00     0.066 H 
ATOM     50  H   LIG d   1       8.568   1.372  -4.583  0.00  0.00     0.066 H 
ENDBRANCH  46  47
ENDBRANCH  37  46
ENDBRANCH  27  36
ENDBRANCH  17  20
ENDBRANCH   1  17
BRANCH   7  51
ATOM     51  C   LIG d   1       3.443  -0.386 -10.938  0.00  0.00     0.001 C 
ATOM     52  H   LIG d   1       4.095  -1.130 -11.421  0.00  0.00     0.033 H 
ATOM     53  H   LIG d   1       2.830   0.115 -11.702  0.00  0.00     0.033 H 
BRANCH  51  54
ATOM     54  C   LIG d   1       4.290   0.637 -10.225  0.00  0.00     0.084 A 
ATOM     55  N   LIG d   1       3.875   1.727  -9.648  0.00  0.00    -0.083 NA
ATOM     56  O   LIG d   1       4.789   2.347  -9.156  0.00  0.00    -0.358 OA
ATOM     57  C   LIG d   1       5.965   1.734  -9.358  0.00  0.00     0.151 A 
ATOM     58  C   LIG d   1       5.693   0.605 -10.056  0.00  0.00     0.005 A 
ATOM     59  H   LIG d   1       6.387  -0.146 -10.402  0.00  0.00     0.067 H 
BRANCH  57  60
ATOM     60  C   LIG d   1       7.319   2.206  -8.898  0.00  0.00     0.060 C 
ATOM     61  H   LIG d   1       7.748   2.880  -9.653  0.00  0.00     0.051 H 
ATOM     62  H   LIG d   1       7.216   2.744  -7.943  0.00  0.00     0.051 H 
BRANCH  60  63
ATOM     63  N   LIG d   1       8.205   1.049  -8.715  0.00  0.00    -0.291 N 
ATOM     64  C   LIG d   1       9.530   1.302  -9.300  0.00  0.00     0.023 C 
ATOM     65  C   LIG d   1      10.400   0.053  -9.139  0.00  0.00     0.060 C 
ATOM     66  H   LIG d   1       9.420   1.539 -10.368  0.00  0.00     0.045 H 
ATOM     67  H   LIG d   1      10.004   2.150  -8.784  0.00  0.00     0.045 H 
ATOM     68  O   LIG d   1      10.477  -0.293  -7.754  0.00  0.00    -0.377 OA
ATOM     69  H   LIG d   1      11.410   0.254  -9.524  0.00  0.00     0.057 H 
ATOM     70  H   LIG d   1       9.954  -0.782  -9.701  0.00  0.00     0.057 H 
ATOM     71  C   LIG d   1       9.205  -0.548  -7.151  0.00  0.00     0.060 C 
ATOM     72  C   LIG d   1       8.323   0.697  -7.292  0.00  0.00     0.023 C 
ATOM     73  H   LIG d   1       9.343  -0.781  -6.085  0.00  0.00     0.057 H 
ATOM     74  H   LIG d   1       8.722  -1.398  -7.654  0.00  0.00     0.057 H 
ATOM     75  H   LIG d   1       8.778   1.534  -6.743  0.00  0.00     0.045 H 
ATOM     76  H   LIG d   1       7.325   0.488  -6.881  0.00  0.00     0.045 H 
ENDBRANCH  60  63
ENDBRANCH  57  60
ENDBRANCH  51  54
ENDBRANCH   7  51
TORSDOF 9
ENDMDL
MODEL 5
REMARK VINA RESULT:      -6.2      2.633      3.559
REMARK  9 active torsions:
REMARK  status: ('A' for Active; 'I' for Inactive)
REMARK    1  A    between atoms: C_1  and  O_2 
REMARK    2  A    between atoms: O_2  and  C_3 
REMARK    3  A    between atoms: C_8  and  N_9 
REMARK       I    between atoms: N_12  and  C_15 
REMARK    4  A    between atoms: C_15  and  C_17 
REMARK    5  A    between atoms: C_17  and  C_18 
REMARK    6  A    between atoms: C_24  and  C_26 
REMARK    7  A    between atoms: C_26  and  C_27 
REMARK    8  A    between atoms: C_29  and  C_32 
REMARK    9  A    between atoms: C_32  and  N_33 
ROOT
ATOM      1  C   LIG d   1       6.642  -7.559  -5.132  0.00  0.00    -0.020 C 
ATOM      2  H   LIG d   1       6.645  -7.158  -4.108  0.00  0.00     0.031 H 
ATOM      3  C   LIG d   1       7.522  -8.811  -5.196  0.00  0.00    -0.009 C 
ATOM      4  C   LIG d   1       6.935  -9.889  -4.281  0.00  0.00    -0.033 C 
ATOM      5  N   LIG d   1       5.568 -10.207  -4.711  0.00  0.00     0.227 N 
ATOM      6  C   LIG d   1       4.693  -9.032  -4.612  0.00  0.00    -0.030 C 
ATOM      7  C   LIG d   1       5.212  -7.927  -5.537  0.00  0.00     0.008 C 
ATOM      8  H   LIG d   1       4.565  -7.041  -5.453  0.00  0.00     0.036 H 
ATOM      9  H   LIG d   1       7.553  -9.184  -6.230  0.00  0.00     0.032 H 
ATOM     10  H   LIG d   1       8.540  -8.561  -4.865  0.00  0.00     0.032 H 
ATOM     11  H   LIG d   1       7.556 -10.795  -4.336  0.00  0.00     0.081 H 
ATOM     12  H   LIG d   1       6.916  -9.519  -3.245  0.00  0.00     0.081 H 
ATOM     13  H   LIG d   1       5.582 -10.547  -5.757  0.00  0.00     0.201 HD
ATOM     14  H   LIG d   1       3.671  -9.308  -4.911  0.00  0.00     0.082 H 
ATOM     15  H   LIG d   1       4.684  -8.666  -3.575  0.00  0.00     0.082 H 
ATOM     16  H   LIG d   1       5.158 -11.004  -4.072  0.00  0.00     0.201 HD
ENDROOT
BRANCH   1  17
ATOM     17  C   LIG d   1       7.189  -6.500  -6.091  0.00  0.00     0.028 C 
ATOM     18  H   LIG d   1       6.352  -5.947  -6.542  0.00  0.00     0.036 H 
ATOM     19  H   LIG d   1       7.773  -6.990  -6.884  0.00  0.00     0.036 H 
BRANCH  17  20
ATOM     20  C   LIG d   1       8.073  -5.544  -5.333  0.00  0.00     0.216 C 
ATOM     21  N   LIG d   1       7.747  -4.239  -5.260  0.00  0.00    -0.298 N 
ATOM     22  C   LIG d   1       6.533  -3.727  -5.913  0.00  0.00     0.030 C 
ATOM     23  C   LIG d   1       8.596  -3.288  -4.525  0.00  0.00     0.030 C 
ATOM     24  C   LIG d   1       5.732  -2.919  -4.887  0.00  0.00     0.028 C 
ATOM     25  H   LIG d   1       5.921  -4.564  -6.279  0.00  0.00     0.048 H 
ATOM     26  H   LIG d   1       6.807  -3.077  -6.758  0.00  0.00     0.048 H 
ATOM     27  N   LIG d   1       6.598  -1.892  -4.292  0.00  0.00    -0.324 NA
ATOM     28  H   LIG d   1       5.364  -3.590  -4.097  0.00  0.00     0.048 H 
ATOM     29  H   LIG d   1       4.878  -2.436  -5.385  0.00  0.00     0.048 H 
ATOM     30  C   LIG d   1       7.713  -2.499  -3.553  0.00  0.00     0.028 C 
ATOM     31  H   LIG d   1       8.310  -1.707  -3.075  0.00  0.00     0.048 H 
ATOM     32  H   LIG d   1       7.317  -3.176  -2.782  0.00  0.00     0.048 H 
ATOM     33  H   LIG d   1       9.366  -3.841  -3.968  0.00  0.00     0.048 H 
ATOM     34  H   LIG d   1       9.078  -2.602  -5.236  0.00  0.00     0.048 H 
ATOM     35  O   LIG d   1       9.078  -5.950  -4.787  0.00  0.00    -0.276 OA
BRANCH  27  36
ATOM     36  C   LIG d   1       5.862  -1.030  -3.471  0.00  0.00     0.072 A 
ATOM     37  C   LIG d   1       6.023   0.349  -3.585  0.00  0.00     0.141 A 
ATOM     38  C   LIG d   1       5.292   1.198  -2.769  0.00  0.00    -0.018 A 
ATOM     39  C   LIG d   1       4.406   0.676  -1.846  0.00  0.00    -0.058 A 
ATOM     40  H   LIG d   1       5.415   2.268  -2.856  0.00  0.00     0.066 H 
ATOM     41  C   LIG d   1       4.246  -0.693  -1.732  0.00  0.00    -0.060 A 
ATOM     42  H   LIG d   1       3.837   1.340  -1.212  0.00  0.00     0.062 H 
ATOM     43  C   LIG d   1       4.976  -1.546  -2.537  0.00  0.00    -0.037 A 
ATOM     44  H   LIG d   1       3.552  -1.095  -1.009  0.00  0.00     0.062 H 
ATOM     45  H   LIG d   1       4.852  -2.615  -2.443  0.00  0.00     0.064 H 
BRANCH  37  46
ATOM     46  O   LIG d   1       6.894   0.861  -4.495  0.00  0.00    -0.493 OA
BRANCH  46  47
ATOM     47  C   LIG d   1       8.046   1.535  -3.984  0.00  0.00     0.079 C 
ATOM     48  H   LIG d   1       8.899   1.366  -4.657  0.00  0.00     0.066 H 
ATOM     49  H   LIG d   1       8.285   1.146  -2.983  0.00  0.00     0.066 H 
ATOM     50  H   LIG d   1       7.840   2.614  -3.917  0.00  0.00     0.066 H 
ENDBRANCH  46  47
ENDBRANCH  37  46
ENDBRANCH  27  36
ENDBRANCH  17  20
ENDBRANCH   1  17
BRANCH   7  51
ATOM     51  C   LIG d   1       5.203  -8.427  -6.983  0.00  0.00     0.001 C 
ATOM     52  H   LIG d   1       6.218  -8.356  -7.401  0.00  0.00     0.033 H 
ATOM     53  H   LIG d   1       4.868  -9.475  -7.006  0.00  0.00     0.033 H 
BRANCH  51  54
ATOM     54  C   LIG d   1       4.261  -7.581  -7.801  0.00  0.00     0.084 A 
ATOM     55  N   LIG d   1       3.877  -6.366  -7.539  0.00  0.00    -0.083 NA
ATOM     56  O   LIG d   1       3.120  -5.946  -8.383  0.00  0.00    -0.358 OA
ATOM     57  C   LIG d   1       2.890  -6.860  -9.337  0.00  0.00     0.151 A 
ATOM     58  C   LIG d   1       3.616  -7.954  -9.002  0.00  0.00     0.005 A 
ATOM     59  H   LIG d   1       3.686  -8.892  -9.532  0.00  0.00     0.067 H 
BRANCH  57  60
ATOM     60  C   LIG d   1       2.000  -6.701 -10.542  0.00  0.00     0.060 C 
ATOM     61  H   LIG d   1       2.356  -5.859 -11.152  0.00  0.00     0.051 H 
ATOM     62  H   LIG d   1       2.025  -7.624 -11.141  0.00  0.00     0.051 H 
BRANCH  60  63
ATOM     63  N   LIG d   1       0.623  -6.440 -10.103  0.00  0.00    -0.291 N 
ATOM     64  C   LIG d   1       0.031  -5.327 -10.858  0.00  0.00     0.023 C 
ATOM     65  C   LIG d   1      -1.379  -5.051 -10.331  0.00  0.00     0.060 C 
ATOM     66  H   LIG d   1       0.653  -4.428 -10.736  0.00  0.00     0.045 H 
ATOM     67  H   LIG d   1      -0.021  -5.593 -11.925  0.00  0.00     0.045 H 
ATOM     68  O   LIG d   1      -2.160  -6.245 -10.425  0.00  0.00    -0.377 OA
ATOM     69  H   LIG d   1      -1.849  -4.257 -10.930  0.00  0.00     0.057 H 
ATOM     70  H   LIG d   1      -1.323  -4.731  -9.279  0.00  0.00     0.057 H 
ATOM     71  C   LIG d   1      -1.614  -7.350  -9.699  0.00  0.00     0.060 C 
ATOM     72  C   LIG d   1      -0.206  -7.649 -10.222  0.00  0.00     0.023 C 
ATOM     73  H   LIG d   1      -2.253  -8.234  -9.840  0.00  0.00     0.057 H 
ATOM     74  H   LIG d   1      -1.562  -7.100  -8.630  0.00  0.00     0.057 H 
ATOM     75  H   LIG d   1      -0.262  -7.953 -11.278  0.00  0.00     0.045 H 
ATOM     76  H   LIG d   1       0.241  -8.461  -9.630  0.00  0.00     0.045 H 
ENDBRANCH  60  63
ENDBRANCH  57  60
ENDBRANCH  51  54
ENDBRANCH   7  51
TORSDOF 9
ENDMDL
MODEL 6
REMARK VINA RESULT:      -6.2      5.607     10.938
REMARK  9 active torsions:
REMARK  status: ('A' for Active; 'I' for Inactive)
REMARK    1  A    between atoms: C_1  and  O_2 
REMARK    2  A    between atoms: O_2  and  C_3 
REMARK    3  A    between atoms: C_8  and  N_9 
REMARK       I    between atoms: N_12  and  C_15 
REMARK    4  A    between atoms: C_15  and  C_17 
REMARK    5  A    between atoms: C_17  and  C_18 
REMARK    6  A    between atoms: C_24  and  C_26 
REMARK    7  A    between atoms: C_26  and  C_27 
REMARK    8  A    between atoms: C_29  and  C_32 
REMARK    9  A    between atoms: C_32  and  N_33 
ROOT
ATOM      1  C   LIG d   1       9.126   4.314  -8.983  0.00  0.00    -0.020 C 
ATOM      2  H   LIG d   1       8.160   4.218  -9.500  0.00  0.00     0.031 H 
ATOM      3  C   LIG d   1      10.267   4.125  -9.988  0.00  0.00    -0.009 C 
ATOM      4  C   LIG d   1      10.200   5.232 -11.043  0.00  0.00    -0.033 C 
ATOM      5  N   LIG d   1      10.312   6.541 -10.388  0.00  0.00     0.227 N 
ATOM      6  C   LIG d   1       9.201   6.765  -9.454  0.00  0.00    -0.030 C 
ATOM      7  C   LIG d   1       9.237   5.703  -8.351  0.00  0.00     0.008 C 
ATOM      8  H   LIG d   1       8.397   5.862  -7.659  0.00  0.00     0.036 H 
ATOM      9  H   LIG d   1      11.231   4.176  -9.461  0.00  0.00     0.032 H 
ATOM     10  H   LIG d   1      10.168   3.144 -10.476  0.00  0.00     0.032 H 
ATOM     11  H   LIG d   1      11.027   5.108 -11.758  0.00  0.00     0.081 H 
ATOM     12  H   LIG d   1       9.241   5.171 -11.577  0.00  0.00     0.081 H 
ATOM     13  H   LIG d   1      11.257   6.591  -9.827  0.00  0.00     0.201 HD
ATOM     14  H   LIG d   1       9.296   7.764  -9.003  0.00  0.00     0.082 H 
ATOM     15  H   LIG d   1       8.246   6.697  -9.996  0.00  0.00     0.082 H 
ATOM     16  H   LIG d   1      10.295   7.335 -11.150  0.00  0.00     0.201 HD
ENDROOT
BRANCH   1  17
ATOM     17  C   LIG d   1       9.225   3.246  -7.892  0.00  0.00     0.028 C 
ATOM     18  H   LIG d   1       9.061   3.711  -6.909  0.00  0.00     0.036 H 
ATOM     19  H   LIG d   1      10.223   2.785  -7.918  0.00  0.00     0.036 H 
BRANCH  17  20
ATOM     20  C   LIG d   1       8.177   2.189  -8.128  0.00  0.00     0.216 C 
ATOM     21  N   LIG d   1       7.933   1.259  -7.183  0.00  0.00    -0.298 N 
ATOM     22  C   LIG d   1       8.678   1.259  -5.915  0.00  0.00     0.030 C 
ATOM     23  C   LIG d   1       6.915   0.218  -7.392  0.00  0.00     0.030 C 
ATOM     24  C   LIG d   1       7.673   1.200  -4.760  0.00  0.00     0.028 C 
ATOM     25  H   LIG d   1       9.280   2.176  -5.832  0.00  0.00     0.048 H 
ATOM     26  H   LIG d   1       9.341   0.382  -5.869  0.00  0.00     0.048 H 
ATOM     27  N   LIG d   1       6.775   0.054  -4.953  0.00  0.00    -0.324 NA
ATOM     28  H   LIG d   1       7.083   2.129  -4.739  0.00  0.00     0.048 H 
ATOM     29  H   LIG d   1       8.213   1.087  -3.808  0.00  0.00     0.048 H 
ATOM     30  C   LIG d   1       5.979   0.202  -6.180  0.00  0.00     0.028 C 
ATOM     31  H   LIG d   1       5.280  -0.643  -6.266  0.00  0.00     0.048 H 
ATOM     32  H   LIG d   1       5.413   1.144  -6.138  0.00  0.00     0.048 H 
ATOM     33  H   LIG d   1       6.343   0.444  -8.304  0.00  0.00     0.048 H 
ATOM     34  H   LIG d   1       7.407  -0.760  -7.500  0.00  0.00     0.048 H 
ATOM     35  O   LIG d   1       7.553   2.175  -9.168  0.00  0.00    -0.276 OA
BRANCH  27  36
ATOM     36  C   LIG d   1       5.949  -0.129  -3.839  0.00  0.00     0.072 A 
ATOM     37  C   LIG d   1       5.524  -1.408  -3.487  0.00  0.00     0.141 A 
ATOM     38  C   LIG d   1       4.706  -1.585  -2.383  0.00  0.00    -0.018 A 
ATOM     39  C   LIG d   1       4.314  -0.493  -1.632  0.00  0.00    -0.058 A 
ATOM     40  H   LIG d   1       4.376  -2.576  -2.109  0.00  0.00     0.066 H 
ATOM     41  C   LIG d   1       4.736   0.778  -1.980  0.00  0.00    -0.060 A 
ATOM     42  H   LIG d   1       3.677  -0.632  -0.771  0.00  0.00     0.062 H 
ATOM     43  C   LIG d   1       5.546   0.963  -3.084  0.00  0.00    -0.037 A 
ATOM     44  H   LIG d   1       4.427   1.628  -1.389  0.00  0.00     0.062 H 
ATOM     45  H   LIG d   1       5.870   1.956  -3.355  0.00  0.00     0.064 H 
BRANCH  37  46
ATOM     46  O   LIG d   1       5.911  -2.483  -4.226  0.00  0.00    -0.493 OA
BRANCH  46  47
ATOM     47  C   LIG d   1       4.902  -3.435  -4.567  0.00  0.00     0.079 C 
ATOM     48  H   LIG d   1       5.367  -4.417  -4.739  0.00  0.00     0.066 H 
ATOM     49  H   LIG d   1       4.384  -3.109  -5.481  0.00  0.00     0.066 H 
ATOM     50  H   LIG d   1       4.177  -3.511  -3.743  0.00  0.00     0.066 H 
ENDBRANCH  46  47
ENDBRANCH  37  46
ENDBRANCH  27  36
ENDBRANCH  17  20
ENDBRANCH   1  17
BRANCH   7  51
ATOM     51  C   LIG d   1      10.555   5.812  -7.582  0.00  0.00     0.001 C 
ATOM     52  H   LIG d   1      11.003   4.813  -7.481  0.00  0.00     0.033 H 
ATOM     53  H   LIG d   1      11.246   6.470  -8.130  0.00  0.00     0.033 H 
BRANCH  51  54
ATOM     54  C   LIG d   1      10.293   6.388  -6.214  0.00  0.00     0.084 A 
ATOM     55  N   LIG d   1      10.350   7.642  -5.872  0.00  0.00    -0.083 NA
ATOM     56  O   LIG d   1      10.085   7.796  -4.702  0.00  0.00    -0.358 OA
ATOM     57  C   LIG d   1       9.819   6.629  -4.098  0.00  0.00     0.151 A 
ATOM     58  C   LIG d   1       9.943   5.670  -5.047  0.00  0.00     0.005 A 
ATOM     59  H   LIG d   1       9.804   4.605  -4.938  0.00  0.00     0.067 H 
BRANCH  57  60
ATOM     60  C   LIG d   1       9.456   6.425  -2.651  0.00  0.00     0.060 C 
ATOM     61  H   LIG d   1       8.684   7.152  -2.360  0.00  0.00     0.051 H 
ATOM     62  H   LIG d   1       9.070   5.404  -2.510  0.00  0.00     0.051 H 
BRANCH  60  63
ATOM     63  N   LIG d   1      10.649   6.616  -1.815  0.00  0.00    -0.291 N 
ATOM     64  C   LIG d   1      10.345   7.457  -0.648  0.00  0.00     0.023 C 
ATOM     65  C   LIG d   1      11.624   7.679   0.162  0.00  0.00     0.060 C 
ATOM     66  H   LIG d   1       9.949   8.426  -0.986  0.00  0.00     0.045 H 
ATOM     67  H   LIG d   1       9.594   6.955  -0.019  0.00  0.00     0.045 H 
ATOM     68  O   LIG d   1      12.172   6.412   0.536  0.00  0.00    -0.377 OA
ATOM     69  H   LIG d   1      11.392   8.259   1.068  0.00  0.00     0.057 H 
ATOM     70  H   LIG d   1      12.356   8.230  -0.448  0.00  0.00     0.057 H 
ATOM     71  C   LIG d   1      12.482   5.568  -0.577  0.00  0.00     0.060 C 
ATOM     72  C   LIG d   1      11.210   5.324  -1.394  0.00  0.00     0.023 C 
ATOM     73  H   LIG d   1      12.874   4.607  -0.212  0.00  0.00     0.057 H 
ATOM     74  H   LIG d   1      13.237   6.055  -1.211  0.00  0.00     0.057 H 
ATOM     75  H   LIG d   1      10.474   4.788  -0.777  0.00  0.00     0.045 H 
ATOM     76  H   LIG d   1      11.453   4.723  -2.282  0.00  0.00     0.045 H 
ENDBRANCH  60  63
ENDBRANCH  57  60
ENDBRANCH  51  54
ENDBRANCH   7  51
TORSDOF 9
ENDMDL
MODEL 7
REMARK VINA RESULT:      -6.0      3.565      6.623
REMARK  9 active torsions:
REMARK  status: ('A' for Active; 'I' for Inactive)
REMARK    1  A    between atoms: C_1  and  O_2 
REMARK    2  A    between atoms: O_2  and  C_3 
REMARK    3  A    between atoms: C_8  and  N_9 
REMARK       I    between atoms: N_12  and  C_15 
REMARK    4  A    between atoms: C_15  and  C_17 
REMARK    5  A    between atoms: C_17  and  C_18 
REMARK    6  A    between atoms: C_24  and  C_26 
REMARK    7  A    between atoms: C_26  and  C_27 
REMARK    8  A    between atoms: C_29  and  C_32 
REMARK    9  A    between atoms: C_32  and  N_33 
ROOT
ATOM      1  C   LIG d   1       3.817  -2.539 -10.190  0.00  0.00    -0.020 C 
ATOM      2  H   LIG d   1       3.040  -2.976  -9.546  0.00  0.00     0.031 H 
ATOM      3  C   LIG d   1       3.587  -2.974 -11.641  0.00  0.00    -0.009 C 
ATOM      4  C   LIG d   1       2.237  -2.437 -12.122  0.00  0.00    -0.033 C 
ATOM      5  N   LIG d   1       2.230  -0.972 -12.025  0.00  0.00     0.227 N 
ATOM      6  C   LIG d   1       2.400  -0.531 -10.635  0.00  0.00    -0.030 C 
ATOM      7  C   LIG d   1       3.755  -1.012 -10.107  0.00  0.00     0.008 C 
ATOM      8  H   LIG d   1       3.877  -0.693  -9.061  0.00  0.00     0.036 H 
ATOM      9  H   LIG d   1       4.391  -2.573 -12.275  0.00  0.00     0.032 H 
ATOM     10  H   LIG d   1       3.589  -4.072 -11.698  0.00  0.00     0.032 H 
ATOM     11  H   LIG d   1       2.076  -2.736 -13.169  0.00  0.00     0.081 H 
ATOM     12  H   LIG d   1       1.434  -2.850 -11.495  0.00  0.00     0.081 H 
ATOM     13  H   LIG d   1       3.053  -0.560 -12.628  0.00  0.00     0.201 HD
ATOM     14  H   LIG d   1       2.359   0.567 -10.590  0.00  0.00     0.082 H 
ATOM     15  H   LIG d   1       1.595  -0.953 -10.014  0.00  0.00     0.082 H 
ATOM     16  H   LIG d   1       1.270  -0.585 -12.401  0.00  0.00     0.201 HD
ENDROOT
BRANCH   1  17
ATOM     17  C   LIG d   1       5.192  -3.021  -9.723  0.00  0.00     0.028 C 
ATOM     18  H   LIG d   1       5.866  -2.158  -9.618  0.00  0.00     0.036 H 
ATOM     19  H   LIG d   1       5.606  -3.721 -10.463  0.00  0.00     0.036 H 
BRANCH  17  20
ATOM     20  C   LIG d   1       5.055  -3.716  -8.393  0.00  0.00     0.216 C 
ATOM     21  N   LIG d   1       5.476  -3.107  -7.268  0.00  0.00    -0.298 N 
ATOM     22  C   LIG d   1       6.073  -1.763  -7.315  0.00  0.00     0.030 C 
ATOM     23  C   LIG d   1       5.353  -3.767  -5.960  0.00  0.00     0.030 C 
ATOM     24  C   LIG d   1       5.356  -0.876  -6.291  0.00  0.00     0.028 C 
ATOM     25  H   LIG d   1       5.952  -1.334  -8.321  0.00  0.00     0.048 H 
ATOM     26  H   LIG d   1       7.143  -1.818  -7.067  0.00  0.00     0.048 H 
ATOM     27  N   LIG d   1       5.392  -1.526  -4.974  0.00  0.00    -0.324 NA
ATOM     28  H   LIG d   1       4.310  -0.731  -6.600  0.00  0.00     0.048 H 
ATOM     29  H   LIG d   1       5.860   0.100  -6.233  0.00  0.00     0.048 H 
ATOM     30  C   LIG d   1       4.664  -2.802  -4.990  0.00  0.00     0.028 C 
ATOM     31  H   LIG d   1       4.662  -3.235  -3.978  0.00  0.00     0.048 H 
ATOM     32  H   LIG d   1       3.628  -2.629  -5.317  0.00  0.00     0.048 H 
ATOM     33  H   LIG d   1       4.753  -4.683  -6.067  0.00  0.00     0.048 H 
ATOM     34  H   LIG d   1       6.353  -4.027  -5.583  0.00  0.00     0.048 H 
ATOM     35  O   LIG d   1       4.565  -4.825  -8.336  0.00  0.00    -0.276 OA
BRANCH  27  36
ATOM     36  C   LIG d   1       4.892  -0.675  -3.982  0.00  0.00     0.072 A 
ATOM     37  C   LIG d   1       5.756   0.159  -3.277  0.00  0.00     0.141 A 
ATOM     38  C   LIG d   1       5.256   0.999  -2.295  0.00  0.00    -0.018 A 
ATOM     39  C   LIG d   1       3.903   1.008  -2.017  0.00  0.00    -0.058 A 
ATOM     40  H   LIG d   1       5.925   1.647  -1.748  0.00  0.00     0.066 H 
ATOM     41  C   LIG d   1       3.043   0.181  -2.717  0.00  0.00    -0.060 A 
ATOM     42  H   LIG d   1       3.514   1.664  -1.253  0.00  0.00     0.062 H 
ATOM     43  C   LIG d   1       3.535  -0.665  -3.693  0.00  0.00    -0.037 A 
ATOM     44  H   LIG d   1       1.986   0.192  -2.496  0.00  0.00     0.062 H 
ATOM     45  H   LIG d   1       2.863  -1.314  -4.234  0.00  0.00     0.064 H 
BRANCH  37  46
ATOM     46  O   LIG d   1       7.088   0.150  -3.552  0.00  0.00    -0.493 OA
BRANCH  46  47
ATOM     47  C   LIG d   1       7.685   1.396  -3.918  0.00  0.00     0.079 C 
ATOM     48  H   LIG d   1       8.587   1.563  -3.311  0.00  0.00     0.066 H 
ATOM     49  H   LIG d   1       6.968   2.211  -3.742  0.00  0.00     0.066 H 
ATOM     50  H   LIG d   1       7.959   1.372  -4.983  0.00  0.00     0.066 H 
ENDBRANCH  46  47
ENDBRANCH  37  46
ENDBRANCH  27  36
ENDBRANCH  17  20
ENDBRANCH   1  17
BRANCH   7  51
ATOM     51  C   LIG d   1       4.875  -0.407 -10.956  0.00  0.00     0.001 C 
ATOM     52  H   LIG d   1       5.596  -1.194 -11.224  0.00  0.00     0.033 H 
ATOM     53  H   LIG d   1       4.448   0.027 -11.872  0.00  0.00     0.033 H 
BRANCH  51  54
ATOM     54  C   LIG d   1       5.576   0.671 -10.169  0.00  0.00     0.084 A 
ATOM     55  N   LIG d   1       5.095   1.834  -9.840  0.00  0.00    -0.083 NA
ATOM     56  O   LIG d   1       5.892   2.483  -9.204  0.00  0.00    -0.358 OA
ATOM     57  C   LIG d   1       7.043   1.817  -9.033  0.00  0.00     0.151 A 
ATOM     58  C   LIG d   1       6.889   0.620  -9.648  0.00  0.00     0.005 A 
ATOM     59  H   LIG d   1       7.603  -0.187  -9.722  0.00  0.00     0.067 H 
BRANCH  57  60
ATOM     60  C   LIG d   1       8.267   2.304  -8.301  0.00  0.00     0.060 C 
ATOM     61  H   LIG d   1       8.005   2.527  -7.256  0.00  0.00     0.051 H 
ATOM     62  H   LIG d   1       9.044   1.525  -8.325  0.00  0.00     0.051 H 
BRANCH  60  63
ATOM     63  N   LIG d   1       8.773   3.521  -8.949  0.00  0.00    -0.291 N 
ATOM     64  C   LIG d   1       9.502   4.365  -7.990  0.00  0.00     0.023 C 
ATOM     65  C   LIG d   1       9.960   5.646  -8.690  0.00  0.00     0.060 C 
ATOM     66  H   LIG d   1       8.840   4.620  -7.149  0.00  0.00     0.045 H 
ATOM     67  H   LIG d   1      10.379   3.818  -7.613  0.00  0.00     0.045 H 
ATOM     68  O   LIG d   1      10.758   5.303  -9.826  0.00  0.00    -0.377 OA
ATOM     69  H   LIG d   1      10.555   6.255  -7.994  0.00  0.00     0.057 H 
ATOM     70  H   LIG d   1       9.081   6.221  -9.020  0.00  0.00     0.057 H 
ATOM     71  C   LIG d   1      10.079   4.484 -10.782  0.00  0.00     0.060 C 
ATOM     72  C   LIG d   1       9.623   3.190 -10.101  0.00  0.00     0.023 C 
ATOM     73  H   LIG d   1      10.761   4.242 -11.610  0.00  0.00     0.057 H 
ATOM     74  H   LIG d   1       9.203   5.021 -11.173  0.00  0.00     0.057 H 
ATOM     75  H   LIG d   1      10.502   2.624  -9.759  0.00  0.00     0.045 H 
ATOM     76  H   LIG d   1       9.051   2.581 -10.816  0.00  0.00     0.045 H 
ENDBRANCH  60  63
ENDBRANCH  57  60
ENDBRANCH  51  54
ENDBRANCH   7  51
TORSDOF 9
ENDMDL
MODEL 8
REMARK VINA RESULT:      -5.9     10.139     14.847
REMARK  9 active torsions:
REMARK  status: ('A' for Active; 'I' for Inactive)
REMARK    1  A    between atoms: C_1  and  O_2 
REMARK    2  A    between atoms: O_2  and  C_3 
REMARK    3  A    between atoms: C_8  and  N_9 
REMARK       I    between atoms: N_12  and  C_15 
REMARK    4  A    between atoms: C_15  and  C_17 
REMARK    5  A    between atoms: C_17  and  C_18 
REMARK    6  A    between atoms: C_24  and  C_26 
REMARK    7  A    between atoms: C_26  and  C_27 
REMARK    8  A    between atoms: C_29  and  C_32 
REMARK    9  A    between atoms: C_32  and  N_33 
ROOT
ATOM      1  C   LIG d   1      10.292   5.388  -3.841  0.00  0.00    -0.020 C 
ATOM      2  H   LIG d   1      11.149   5.257  -4.518  0.00  0.00     0.031 H 
ATOM      3  C   LIG d   1       9.751   4.016  -3.427  0.00  0.00    -0.009 C 
ATOM      4  C   LIG d   1      10.834   3.259  -2.653  0.00  0.00    -0.033 C 
ATOM      5  N   LIG d   1      11.220   4.032  -1.466  0.00  0.00     0.227 N 
ATOM      6  C   LIG d   1      11.786   5.334  -1.842  0.00  0.00    -0.030 C 
ATOM      7  C   LIG d   1      10.734   6.154  -2.592  0.00  0.00     0.008 C 
ATOM      8  H   LIG d   1      11.161   7.124  -2.885  0.00  0.00     0.036 H 
ATOM      9  H   LIG d   1       8.867   4.150  -2.787  0.00  0.00     0.032 H 
ATOM     10  H   LIG d   1       9.472   3.445  -4.324  0.00  0.00     0.032 H 
ATOM     11  H   LIG d   1      10.443   2.279  -2.341  0.00  0.00     0.081 H 
ATOM     12  H   LIG d   1      11.713   3.115  -3.298  0.00  0.00     0.081 H 
ATOM     13  H   LIG d   1      10.335   4.203  -0.836  0.00  0.00     0.201 HD
ATOM     14  H   LIG d   1      12.094   5.876  -0.935  0.00  0.00     0.082 H 
ATOM     15  H   LIG d   1      12.661   5.180  -2.491  0.00  0.00     0.082 H 
ATOM     16  H   LIG d   1      11.976   3.472  -0.894  0.00  0.00     0.201 HD
ENDROOT
BRANCH   1  17
ATOM     17  C   LIG d   1       9.194   6.173  -4.562  0.00  0.00     0.028 C 
ATOM     18  H   LIG d   1       9.071   7.155  -4.081  0.00  0.00     0.036 H 
ATOM     19  H   LIG d   1       8.248   5.616  -4.506  0.00  0.00     0.036 H 
BRANCH  17  20
ATOM     20  C   LIG d   1       9.580   6.366  -6.006  0.00  0.00     0.216 C 
ATOM     21  N   LIG d   1       9.707   7.610  -6.509  0.00  0.00    -0.298 N 
ATOM     22  C   LIG d   1       9.474   8.793  -5.665  0.00  0.00     0.030 C 
ATOM     23  C   LIG d   1      10.082   7.821  -7.915  0.00  0.00     0.030 C 
ATOM     24  C   LIG d   1      10.676   9.732  -5.802  0.00  0.00     0.028 C 
ATOM     25  H   LIG d   1       9.363   8.489  -4.614  0.00  0.00     0.048 H 
ATOM     26  H   LIG d   1       8.562   9.313  -5.993  0.00  0.00     0.048 H 
ATOM     27  N   LIG d   1      10.911  10.020  -7.223  0.00  0.00    -0.324 NA
ATOM     28  H   LIG d   1      11.568   9.253  -5.373  0.00  0.00     0.048 H 
ATOM     29  H   LIG d   1      10.471  10.672  -5.267  0.00  0.00     0.048 H 
ATOM     30  C   LIG d   1      11.261   8.799  -7.963  0.00  0.00     0.028 C 
ATOM     31  H   LIG d   1      11.484   9.056  -9.009  0.00  0.00     0.048 H 
ATOM     32  H   LIG d   1      12.145   8.333  -7.503  0.00  0.00     0.048 H 
ATOM     33  H   LIG d   1      10.374   6.861  -8.365  0.00  0.00     0.048 H 
ATOM     34  H   LIG d   1       9.226   8.239  -8.465  0.00  0.00     0.048 H 
ATOM     35  O   LIG d   1       9.777   5.402  -6.715  0.00  0.00    -0.276 OA
BRANCH  27  36
ATOM     36  C   LIG d   1      11.896  11.001  -7.381  0.00  0.00     0.072 A 
ATOM     37  C   LIG d   1      11.565  12.243  -7.916  0.00  0.00     0.141 A 
ATOM     38  C   LIG d   1      12.544  13.212  -8.071  0.00  0.00    -0.018 A 
ATOM     39  C   LIG d   1      13.846  12.944  -7.692  0.00  0.00    -0.058 A 
ATOM     40  H   LIG d   1      12.288  14.176  -8.485  0.00  0.00     0.066 H 
ATOM     41  C   LIG d   1      14.176  11.711  -7.160  0.00  0.00    -0.060 A 
ATOM     42  H   LIG d   1      14.607  13.700  -7.812  0.00  0.00     0.062 H 
ATOM     43  C   LIG d   1      13.206  10.738  -7.009  0.00  0.00    -0.037 A 
ATOM     44  H   LIG d   1      15.195  11.507  -6.865  0.00  0.00     0.062 H 
ATOM     45  H   LIG d   1      13.468   9.774  -6.598  0.00  0.00     0.064 H 
BRANCH  37  46
ATOM     46  O   LIG d   1      10.283  12.506  -8.287  0.00  0.00    -0.493 OA
BRANCH  46  47
ATOM     47  C   LIG d   1       9.832  13.855  -8.155  0.00  0.00     0.079 C 
ATOM     48  H   LIG d   1      10.483  14.393  -7.450  0.00  0.00     0.066 H 
ATOM     49  H   LIG d   1       8.799  13.861  -7.777  0.00  0.00     0.066 H 
ATOM     50  H   LIG d   1       9.865  14.351  -9.137  0.00  0.00     0.066 H 
ENDBRANCH  46  47
ENDBRANCH  37  46
ENDBRANCH  27  36
ENDBRANCH  17  20
ENDBRANCH   1  17
BRANCH   7  51
ATOM     51  C   LIG d   1       9.526   6.387  -1.682  0.00  0.00     0.001 C 
ATOM     52  H   LIG d   1       8.612   6.053  -2.194  0.00  0.00     0.033 H 
ATOM     53  H   LIG d   1       9.654   5.817  -0.750  0.00  0.00     0.033 H 
BRANCH  51  54
ATOM     54  C   LIG d   1       9.415   7.856  -1.360  0.00  0.00     0.084 A 
ATOM     55  N   LIG d   1       8.426   8.449  -0.758  0.00  0.00    -0.083 NA
ATOM     56  O   LIG d   1       8.625   9.635  -0.638  0.00  0.00    -0.358 OA
ATOM     57  C   LIG d   1       9.802   9.994  -1.171  0.00  0.00     0.151 A 
ATOM     58  C   LIG d   1      10.362   8.862  -1.660  0.00  0.00     0.005 A 
ATOM     59  H   LIG d   1      11.312   8.752  -2.161  0.00  0.00     0.067 H 
BRANCH  57  60
ATOM     60  C   LIG d   1      10.386  11.382  -1.216  0.00  0.00     0.060 C 
ATOM     61  H   LIG d   1       9.715  12.080  -0.695  0.00  0.00     0.051 H 
ATOM     62  H   LIG d   1      11.370  11.383  -0.723  0.00  0.00     0.051 H 
BRANCH  60  63
ATOM     63  N   LIG d   1      10.539  11.803  -2.615  0.00  0.00    -0.291 N 
ATOM     64  C   LIG d   1       9.343  12.515  -3.086  0.00  0.00     0.023 C 
ATOM     65  C   LIG d   1       9.520  12.883  -4.560  0.00  0.00     0.060 C 
ATOM     66  H   LIG d   1       8.461  11.867  -2.971  0.00  0.00     0.045 H 
ATOM     67  H   LIG d   1       9.203  13.431  -2.492  0.00  0.00     0.045 H 
ATOM     68  O   LIG d   1      10.709  13.664  -4.712  0.00  0.00    -0.377 OA
ATOM     69  H   LIG d   1       8.653  13.467  -4.903  0.00  0.00     0.057 H 
ATOM     70  H   LIG d   1       9.604  11.965  -5.162  0.00  0.00     0.057 H 
ATOM     71  C   LIG d   1      11.895  13.000  -4.266  0.00  0.00     0.060 C 
ATOM     72  C   LIG d   1      11.740  12.633  -2.787  0.00  0.00     0.023 C 
ATOM     73  H   LIG d   1      12.759  13.668  -4.390  0.00  0.00     0.057 H 
ATOM     74  H   LIG d   1      12.050  12.085  -4.855  0.00  0.00     0.057 H 
ATOM     75  H   LIG d   1      11.640  13.551  -2.189  0.00  0.00     0.045 H 
ATOM     76  H   LIG d   1      12.625  12.073  -2.452  0.00  0.00     0.045 H 
ENDBRANCH  60  63
ENDBRANCH  57  60
ENDBRANCH  51  54
ENDBRANCH   7  51
TORSDOF 9
ENDMDL
MODEL 9
REMARK VINA RESULT:      -5.9      5.846     11.292
REMARK  9 active torsions:
REMARK  status: ('A' for Active; 'I' for Inactive)
REMARK    1  A    between atoms: C_1  and  O_2 
REMARK    2  A    between atoms: O_2  and  C_3 
REMARK    3  A    between atoms: C_8  and  N_9 
REMARK       I    between atoms: N_12  and  C_15 
REMARK    4  A    between atoms: C_15  and  C_17 
REMARK    5  A    between atoms: C_17  and  C_18 
REMARK    6  A    between atoms: C_24  and  C_26 
REMARK    7  A    between atoms: C_26  and  C_27 
REMARK    8  A    between atoms: C_29  and  C_32 
REMARK    9  A    between atoms: C_32  and  N_33 
ROOT
ATOM      1  C   LIG d   1       9.850   4.518  -8.081  0.00  0.00    -0.020 C 
ATOM      2  H   LIG d   1       8.911   4.338  -8.624  0.00  0.00     0.031 H 
ATOM      3  C   LIG d   1      11.011   4.602  -9.076  0.00  0.00    -0.009 C 
ATOM      4  C   LIG d   1      10.789   5.792 -10.013  0.00  0.00    -0.033 C 
ATOM      5  N   LIG d   1      10.706   7.028  -9.226  0.00  0.00     0.227 N 
ATOM      6  C   LIG d   1       9.569   6.990  -8.298  0.00  0.00    -0.030 C 
ATOM      7  C   LIG d   1       9.753   5.836  -7.308  0.00  0.00     0.008 C 
ATOM      8  H   LIG d   1       8.895   5.799  -6.621  0.00  0.00     0.036 H 
ATOM      9  H   LIG d   1      11.955   4.737  -8.527  0.00  0.00     0.032 H 
ATOM     10  H   LIG d   1      11.059   3.673  -9.663  0.00  0.00     0.032 H 
ATOM     11  H   LIG d   1      11.630   5.863 -10.720  0.00  0.00     0.081 H 
ATOM     12  H   LIG d   1       9.852   5.648 -10.571  0.00  0.00     0.081 H 
ATOM     13  H   LIG d   1      11.630   7.155  -8.644  0.00  0.00     0.201 HD
ATOM     14  H   LIG d   1       9.514   7.940  -7.745  0.00  0.00     0.082 H 
ATOM     15  H   LIG d   1       8.637   6.842  -8.864  0.00  0.00     0.082 H 
ATOM     16  H   LIG d   1      10.577   7.886  -9.904  0.00  0.00     0.201 HD
ENDROOT
BRANCH   1  17
ATOM     17  C   LIG d   1      10.097   3.369  -7.102  0.00  0.00     0.028 C 
ATOM     18  H   LIG d   1       9.864   3.701  -6.080  0.00  0.00     0.036 H 
ATOM     19  H   LIG d   1      11.151   3.061  -7.156  0.00  0.00     0.036 H 
BRANCH  17  20
ATOM     20  C   LIG d   1       9.214   2.202  -7.464  0.00  0.00     0.216 C 
ATOM     21  N   LIG d   1       8.851   1.313  -6.519  0.00  0.00    -0.298 N 
ATOM     22  C   LIG d   1       9.305   1.463  -5.128  0.00  0.00     0.030 C 
ATOM     23  C   LIG d   1       7.990   0.168  -6.851  0.00  0.00     0.030 C 
ATOM     24  C   LIG d   1       8.084   1.378  -4.206  0.00  0.00     0.028 C 
ATOM     25  H   LIG d   1       9.798   2.437  -4.996  0.00  0.00     0.048 H 
ATOM     26  H   LIG d   1      10.012   0.659  -4.876  0.00  0.00     0.048 H 
ATOM     27  N   LIG d   1       7.346   0.140  -4.489  0.00  0.00    -0.324 NA
ATOM     28  H   LIG d   1       7.430   2.244  -4.382  0.00  0.00     0.048 H 
ATOM     29  H   LIG d   1       8.416   1.376  -3.157  0.00  0.00     0.048 H 
ATOM     30  C   LIG d   1       6.821   0.134  -5.861  0.00  0.00     0.028 C 
ATOM     31  H   LIG d   1       6.228  -0.778  -6.023  0.00  0.00     0.048 H 
ATOM     32  H   LIG d   1       6.184   1.018  -6.014  0.00  0.00     0.048 H 
ATOM     33  H   LIG d   1       7.610   0.280  -7.877  0.00  0.00     0.048 H 
ATOM     34  H   LIG d   1       8.572  -0.763  -6.775  0.00  0.00     0.048 H 
ATOM     35  O   LIG d   1       8.830   2.064  -8.607  0.00  0.00    -0.276 OA
BRANCH  27  36
ATOM     36  C   LIG d   1       6.318  -0.055  -3.559  0.00  0.00     0.072 A 
ATOM     37  C   LIG d   1       5.888  -1.343  -3.252  0.00  0.00     0.141 A 
ATOM     38  C   LIG d   1       4.871  -1.530  -2.331  0.00  0.00    -0.018 A 
ATOM     39  C   LIG d   1       4.285  -0.439  -1.717  0.00  0.00    -0.058 A 
ATOM     40  H   LIG d   1       4.537  -2.529  -2.091  0.00  0.00     0.066 H 
ATOM     41  C   LIG d   1       4.712   0.841  -2.020  0.00  0.00    -0.060 A 
ATOM     42  H   LIG d   1       3.493  -0.587  -0.998  0.00  0.00     0.062 H 
ATOM     43  C   LIG d   1       5.721   1.036  -2.943  0.00  0.00    -0.037 A 
ATOM     44  H   LIG d   1       4.251   1.690  -1.538  0.00  0.00     0.062 H 
ATOM     45  H   LIG d   1       6.049   2.037  -3.182  0.00  0.00     0.064 H 
BRANCH  37  46
ATOM     46  O   LIG d   1       6.466  -2.416  -3.856  0.00  0.00    -0.493 OA
BRANCH  46  47
ATOM     47  C   LIG d   1       5.633  -3.215  -4.698  0.00  0.00     0.079 C 
ATOM     48  H   LIG d   1       4.939  -2.564  -5.251  0.00  0.00     0.066 H 
ATOM     49  H   LIG d   1       5.060  -3.924  -4.083  0.00  0.00     0.066 H 
ATOM     50  H   LIG d   1       6.260  -3.772  -5.411  0.00  0.00     0.066 H 
ENDBRANCH  46  47
ENDBRANCH  37  46
ENDBRANCH  27  36
ENDBRANCH  17  20
ENDBRANCH   1  17
BRANCH   7  51
ATOM     51  C   LIG d   1      11.037   6.054  -6.505  0.00  0.00     0.001 C 
ATOM     52  H   LIG d   1      11.674   5.161  -6.584  0.00  0.00     0.033 H 
ATOM     53  H   LIG d   1      11.576   6.925  -6.905  0.00  0.00     0.033 H 
BRANCH  51  54
ATOM     54  C   LIG d   1      10.690   6.299  -5.059  0.00  0.00     0.084 A 
ATOM     55  N   LIG d   1      10.489   5.398  -4.142  0.00  0.00    -0.083 NA
ATOM     56  O   LIG d   1      10.230   5.901  -3.073  0.00  0.00    -0.358 OA
ATOM     57  C   LIG d   1      10.216   7.239  -3.148  0.00  0.00     0.151 A 
ATOM     58  C   LIG d   1      10.511   7.554  -4.432  0.00  0.00     0.005 A 
ATOM     59  H   LIG d   1      10.593   8.536  -4.875  0.00  0.00     0.067 H 
BRANCH  57  60
ATOM     60  C   LIG d   1       9.929   8.203  -2.027  0.00  0.00     0.060 C 
ATOM     61  H   LIG d   1      10.103   9.232  -2.373  0.00  0.00     0.051 H 
ATOM     62  H   LIG d   1       8.881   8.096  -1.709  0.00  0.00     0.051 H 
BRANCH  60  63
ATOM     63  N   LIG d   1      10.816   7.912  -0.893  0.00  0.00    -0.291 N 
ATOM     64  C   LIG d   1      11.014   9.106  -0.058  0.00  0.00     0.023 C 
ATOM     65  C   LIG d   1      11.988   8.776   1.075  0.00  0.00     0.060 C 
ATOM     66  H   LIG d   1      11.426   9.920  -0.673  0.00  0.00     0.045 H 
ATOM     67  H   LIG d   1      10.048   9.422   0.366  0.00  0.00     0.045 H 
ATOM     68  O   LIG d   1      11.480   7.669   1.826  0.00  0.00    -0.377 OA
ATOM     69  H   LIG d   1      12.095   9.648   1.736  0.00  0.00     0.057 H 
ATOM     70  H   LIG d   1      12.969   8.513   0.653  0.00  0.00     0.057 H 
ATOM     71  C   LIG d   1      11.277   6.488   1.045  0.00  0.00     0.060 C 
ATOM     72  C   LIG d   1      10.295   6.797  -0.089  0.00  0.00     0.023 C 
ATOM     73  H   LIG d   1      10.864   5.692   1.682  0.00  0.00     0.057 H 
ATOM     74  H   LIG d   1      12.236   6.157   0.619  0.00  0.00     0.057 H 
ATOM     75  H   LIG d   1       9.319   7.074   0.335  0.00  0.00     0.045 H 
ATOM     76  H   LIG d   1      10.178   5.908  -0.727  0.00  0.00     0.045 H 
ENDBRANCH  60  63
ENDBRANCH  57  60
ENDBRANCH  51  54
ENDBRANCH   7  51
TORSDOF 9
ENDMDL
