MODEL 1
REMARK VINA RESULT:      -4.3      0.000      0.000
REMARK  7 active torsions:
REMARK  status: ('A' for Active; 'I' for Inactive)
REMARK    1  A    between atoms: C_1  and  O_2 
REMARK    2  A    between atoms: O_2  and  C_3 
REMARK    3  A    between atoms: C_6  and  C_9 
REMARK    4  A    between atoms: C_9  and  C_11 
REMARK    5  A    between atoms: C_9  and  O_12 
REMARK    6  A    between atoms: C_11  and  N_28 
REMARK    7  A    between atoms: O_12  and  C_13 
ROOT
ATOM      1  C   LIG d   1       4.831  -0.745  -2.410  0.00  0.00     0.120 A 
ATOM      2  C   LIG d   1       3.908  -1.779  -2.447  0.00  0.00    -0.020 A 
ATOM      3  C   LIG d   1       4.103  -2.849  -3.300  0.00  0.00    -0.052 A 
ATOM      4  C   LIG d   1       5.217  -2.888  -4.117  0.00  0.00    -0.014 A 
ATOM      5  C   LIG d   1       6.143  -1.861  -4.078  0.00  0.00    -0.052 A 
ATOM      6  C   LIG d   1       5.950  -0.787  -3.231  0.00  0.00    -0.020 A 
ATOM      7  H   LIG d   1       3.037  -1.748  -1.810  0.00  0.00     0.065 H 
ATOM      8  H   LIG d   1       3.384  -3.654  -3.330  0.00  0.00     0.062 H 
ATOM      9  H   LIG d   1       7.016  -1.897  -4.713  0.00  0.00     0.062 H 
ATOM     10  H   LIG d   1       6.670   0.017  -3.204  0.00  0.00     0.065 H 
ENDROOT
BRANCH   4  11
ATOM     11  C   LIG d   1       5.428  -4.055  -5.046  0.00  0.00     0.123 C 
ATOM     12  H   LIG d   1       5.100  -4.973  -4.558  0.00  0.00     0.070 H 
BRANCH  11  13
ATOM     13  C   LIG d   1       4.617  -3.841  -6.326  0.00  0.00    -0.004 C 
ATOM     14  H   LIG d   1       5.253  -4.022  -7.193  0.00  0.00     0.084 H 
ATOM     15  H   LIG d   1       4.246  -2.817  -6.354  0.00  0.00     0.084 H 
BRANCH  13  16
ATOM     16  N   LIG d   1       3.495  -4.796  -6.349  0.00  0.00     0.221 N 
ATOM     17  H   LIG d   1       3.847  -5.750  -6.283  0.00  0.00     0.200 HD
ATOM     18  H   LIG d   1       2.865  -4.613  -5.570  0.00  0.00     0.200 HD
ATOM     19  H   LIG d   1       2.978  -4.690  -7.230  0.00  0.00     0.200 HD
ENDBRANCH  13  16
ENDBRANCH  11  13
BRANCH  11  20
ATOM     20  O   LIG d   1       6.815  -4.161  -5.373  0.00  0.00    -0.370 OA
BRANCH  20  21
ATOM     21  C   LIG d   1       7.287  -5.504  -5.481  0.00  0.00     0.037 C 
ATOM     22  H   LIG d   1       8.212  -5.520  -6.058  0.00  0.00     0.052 H 
ATOM     23  H   LIG d   1       7.475  -5.905  -4.484  0.00  0.00     0.052 H 
ATOM     24  H   LIG d   1       6.536  -6.115  -5.982  0.00  0.00     0.052 H 
ENDBRANCH  20  21
ENDBRANCH  11  20
ENDBRANCH   4  11
BRANCH   1  25
ATOM     25  O   LIG d   1       4.642   0.308  -1.572  0.00  0.00    -0.495 OA
BRANCH  25  26
ATOM     26  C   LIG d   1       3.896   1.416  -2.080  0.00  0.00     0.079 C 
ATOM     27  H   LIG d   1       4.574   2.121  -2.560  0.00  0.00     0.066 H 
ATOM     28  H   LIG d   1       3.167   1.060  -2.807  0.00  0.00     0.066 H 
ATOM     29  H   LIG d   1       3.378   1.912  -1.258  0.00  0.00     0.066 H 
ENDBRANCH  25  26
ENDBRANCH   1  25
TORSDOF 7
ENDMDL
MODEL 2
REMARK VINA RESULT:      -4.1      3.591      5.414
REMARK  7 active torsions:
REMARK  status: ('A' for Active; 'I' for Inactive)
REMARK    1  A    between atoms: C_1  and  O_2 
REMARK    2  A    between atoms: O_2  and  C_3 
REMARK    3  A    between atoms: C_6  and  C_9 
REMARK    4  A    between atoms: C_9  and  C_11 
REMARK    5  A    between atoms: C_9  and  O_12 
REMARK    6  A    between atoms: C_11  and  N_28 
REMARK    7  A    between atoms: O_12  and  C_13 
ROOT
ATOM      1  C   LIG d   1       3.618   0.013  -7.020  0.00  0.00     0.120 A 
ATOM      2  C   LIG d   1       4.588  -0.621  -6.258  0.00  0.00    -0.020 A 
ATOM      3  C   LIG d   1       4.426  -0.733  -4.890  0.00  0.00    -0.052 A 
ATOM      4  C   LIG d   1       3.299  -0.214  -4.282  0.00  0.00    -0.014 A 
ATOM      5  C   LIG d   1       2.327   0.413  -5.040  0.00  0.00    -0.052 A 
ATOM      6  C   LIG d   1       2.487   0.533  -6.407  0.00  0.00    -0.020 A 
ATOM      7  H   LIG d   1       5.469  -1.026  -6.732  0.00  0.00     0.065 H 
ATOM      8  H   LIG d   1       5.181  -1.226  -4.296  0.00  0.00     0.062 H 
ATOM      9  H   LIG d   1       1.444   0.813  -4.563  0.00  0.00     0.062 H 
ATOM     10  H   LIG d   1       1.730   1.026  -6.999  0.00  0.00     0.065 H 
ENDROOT
BRANCH   4  11
ATOM     11  C   LIG d   1       3.124  -0.338  -2.790  0.00  0.00     0.123 C 
ATOM     12  H   LIG d   1       2.123  -0.707  -2.570  0.00  0.00     0.070 H 
BRANCH  11  13
ATOM     13  C   LIG d   1       4.162  -1.317  -2.235  0.00  0.00    -0.004 C 
ATOM     14  H   LIG d   1       4.336  -1.102  -1.181  0.00  0.00     0.084 H 
ATOM     15  H   LIG d   1       5.095  -1.209  -2.787  0.00  0.00     0.084 H 
BRANCH  13  16
ATOM     16  N   LIG d   1       3.643  -2.690  -2.364  0.00  0.00     0.221 N 
ATOM     17  H   LIG d   1       3.339  -3.035  -1.456  0.00  0.00     0.200 HD
ATOM     18  H   LIG d   1       2.859  -2.708  -3.014  0.00  0.00     0.200 HD
ATOM     19  H   LIG d   1       4.388  -3.301  -2.722  0.00  0.00     0.200 HD
ENDBRANCH  13  16
ENDBRANCH  11  13
BRANCH  11  20
ATOM     20  O   LIG d   1       3.304   0.942  -2.181  0.00  0.00    -0.370 OA
BRANCH  20  21
ATOM     21  C   LIG d   1       4.603   1.144  -1.623  0.00  0.00     0.037 C 
ATOM     22  H   LIG d   1       4.601   2.048  -1.014  0.00  0.00     0.052 H 
ATOM     23  H   LIG d   1       4.869   0.288  -1.001  0.00  0.00     0.052 H 
ATOM     24  H   LIG d   1       5.332   1.249  -2.427  0.00  0.00     0.052 H 
ENDBRANCH  20  21
ENDBRANCH  11  20
ENDBRANCH   4  11
BRANCH   1  25
ATOM     25  O   LIG d   1       3.774   0.124  -8.366  0.00  0.00    -0.495 OA
BRANCH  25  26
ATOM     26  C   LIG d   1       2.971   1.099  -9.034  0.00  0.00     0.079 C 
ATOM     27  H   LIG d   1       3.547   1.552  -9.841  0.00  0.00     0.066 H 
ATOM     28  H   LIG d   1       2.084   0.618  -9.446  0.00  0.00     0.066 H 
ATOM     29  H   LIG d   1       2.671   1.870  -8.324  0.00  0.00     0.066 H 
ENDBRANCH  25  26
ENDBRANCH   1  25
TORSDOF 7
ENDMDL
MODEL 3
REMARK VINA RESULT:      -4.1      4.061      4.676
REMARK  7 active torsions:
REMARK  status: ('A' for Active; 'I' for Inactive)
REMARK    1  A    between atoms: C_1  and  O_2 
REMARK    2  A    between atoms: O_2  and  C_3 
REMARK    3  A    between atoms: C_6  and  C_9 
REMARK    4  A    between atoms: C_9  and  C_11 
REMARK    5  A    between atoms: C_9  and  O_12 
REMARK    6  A    between atoms: C_11  and  N_28 
REMARK    7  A    between atoms: O_12  and  C_13 
ROOT
ATOM      1  C   LIG d   1       3.996  -0.268  -3.692  0.00  0.00     0.120 A 
ATOM      2  C   LIG d   1       4.787  -0.816  -4.690  0.00  0.00    -0.020 A 
ATOM      3  C   LIG d   1       4.401  -0.709  -6.013  0.00  0.00    -0.052 A 
ATOM      4  C   LIG d   1       3.227  -0.056  -6.341  0.00  0.00    -0.014 A 
ATOM      5  C   LIG d   1       2.440   0.497  -5.347  0.00  0.00    -0.052 A 
ATOM      6  C   LIG d   1       2.818   0.388  -4.024  0.00  0.00    -0.020 A 
ATOM      7  H   LIG d   1       5.703  -1.327  -4.435  0.00  0.00     0.065 H 
ATOM      8  H   LIG d   1       5.015  -1.136  -6.791  0.00  0.00     0.062 H 
ATOM      9  H   LIG d   1       1.526   1.012  -5.606  0.00  0.00     0.062 H 
ATOM     10  H   LIG d   1       2.201   0.815  -3.247  0.00  0.00     0.065 H 
ENDROOT
BRANCH   4  11
ATOM     11  C   LIG d   1       2.809   0.060  -7.784  0.00  0.00     0.123 C 
ATOM     12  H   LIG d   1       1.790   0.444  -7.838  0.00  0.00     0.070 H 
BRANCH  11  13
ATOM     13  C   LIG d   1       3.754   1.017  -8.513  0.00  0.00    -0.004 C 
ATOM     14  H   LIG d   1       3.805   0.744  -9.567  0.00  0.00     0.084 H 
ATOM     15  H   LIG d   1       4.749   0.952  -8.072  0.00  0.00     0.084 H 
BRANCH  13  16
ATOM     16  N   LIG d   1       3.230   2.390  -8.400  0.00  0.00     0.221 N 
ATOM     17  H   LIG d   1       2.859   2.545  -7.464  0.00  0.00     0.200 HD
ATOM     18  H   LIG d   1       3.970   3.063  -8.587  0.00  0.00     0.200 HD
ATOM     19  H   LIG d   1       2.476   2.521  -9.085  0.00  0.00     0.200 HD
ENDBRANCH  13  16
ENDBRANCH  11  13
BRANCH  11  20
ATOM     20  O   LIG d   1       2.864  -1.227  -8.401  0.00  0.00    -0.370 OA
BRANCH  20  21
ATOM     21  C   LIG d   1       2.035  -1.354  -9.557  0.00  0.00     0.037 C 
ATOM     22  H   LIG d   1       2.063  -2.384  -9.914  0.00  0.00     0.052 H 
ATOM     23  H   LIG d   1       1.010  -1.086  -9.301  0.00  0.00     0.052 H 
ATOM     24  H   LIG d   1       2.400  -0.689 -10.341  0.00  0.00     0.052 H 
ENDBRANCH  20  21
ENDBRANCH  11  20
ENDBRANCH   4  11
BRANCH   1  25
ATOM     25  O   LIG d   1       4.373  -0.372  -2.390  0.00  0.00    -0.495 OA
BRANCH  25  26
ATOM     26  C   LIG d   1       4.603   0.848  -1.681  0.00  0.00     0.079 C 
ATOM     27  H   LIG d   1       3.667   1.400  -1.597  0.00  0.00     0.066 H 
ATOM     28  H   LIG d   1       4.983   0.623  -0.685  0.00  0.00     0.066 H 
ATOM     29  H   LIG d   1       5.334   1.450  -2.222  0.00  0.00     0.066 H 
ENDBRANCH  25  26
ENDBRANCH   1  25
TORSDOF 7
ENDMDL
MODEL 4
REMARK VINA RESULT:      -4.0      4.124      4.744
REMARK  7 active torsions:
REMARK  status: ('A' for Active; 'I' for Inactive)
REMARK    1  A    between atoms: C_1  and  O_2 
REMARK    2  A    between atoms: O_2  and  C_3 
REMARK    3  A    between atoms: C_6  and  C_9 
REMARK    4  A    between atoms: C_9  and  C_11 
REMARK    5  A    between atoms: C_9  and  O_12 
REMARK    6  A    between atoms: C_11  and  N_28 
REMARK    7  A    between atoms: O_12  and  C_13 
ROOT
ATOM      1  C   LIG d   1       3.306  -0.744  -3.922  0.00  0.00     0.120 A 
ATOM      2  C   LIG d   1       2.434   0.164  -4.505  0.00  0.00    -0.020 A 
ATOM      3  C   LIG d   1       2.569   0.488  -5.842  0.00  0.00    -0.052 A 
ATOM      4  C   LIG d   1       3.571  -0.092  -6.598  0.00  0.00    -0.014 A 
ATOM      5  C   LIG d   1       4.436  -1.003  -6.020  0.00  0.00    -0.052 A 
ATOM      6  C   LIG d   1       4.310  -1.325  -4.683  0.00  0.00    -0.020 A 
ATOM      7  H   LIG d   1       1.652   0.618  -3.916  0.00  0.00     0.065 H 
ATOM      8  H   LIG d   1       1.892   1.195  -6.297  0.00  0.00     0.062 H 
ATOM      9  H   LIG d   1       5.215  -1.459  -6.614  0.00  0.00     0.062 H 
ATOM     10  H   LIG d   1       4.989  -2.033  -4.231  0.00  0.00     0.065 H 
ENDROOT
BRANCH   4  11
ATOM     11  C   LIG d   1       3.715   0.262  -8.055  0.00  0.00     0.123 C 
ATOM     12  H   LIG d   1       4.532  -0.312  -8.491  0.00  0.00     0.070 H 
BRANCH  11  13
ATOM     13  C   LIG d   1       2.413  -0.066  -8.790  0.00  0.00    -0.004 C 
ATOM     14  H   LIG d   1       2.339   0.549  -9.688  0.00  0.00     0.084 H 
ATOM     15  H   LIG d   1       1.565   0.140  -8.138  0.00  0.00     0.084 H 
BRANCH  13  16
ATOM     16  N   LIG d   1       2.428  -1.486  -9.183  0.00  0.00     0.221 N 
ATOM     17  H   LIG d   1       1.652  -1.978  -8.744  0.00  0.00     0.200 HD
ATOM     18  H   LIG d   1       2.353  -1.569 -10.195  0.00  0.00     0.200 HD
ATOM     19  H   LIG d   1       3.311  -1.912  -8.876  0.00  0.00     0.200 HD
ENDBRANCH  13  16
ENDBRANCH  11  13
BRANCH  11  20
ATOM     20  O   LIG d   1       3.994   1.658  -8.181  0.00  0.00    -0.370 OA
BRANCH  20  21
ATOM     21  C   LIG d   1       3.602   2.219  -9.435  0.00  0.00     0.037 C 
ATOM     22  H   LIG d   1       4.454   2.728  -9.888  0.00  0.00     0.052 H 
ATOM     23  H   LIG d   1       3.259   1.424 -10.098  0.00  0.00     0.052 H 
ATOM     24  H   LIG d   1       2.794   2.934  -9.277  0.00  0.00     0.052 H 
ENDBRANCH  20  21
ENDBRANCH  11  20
ENDBRANCH   4  11
BRANCH   1  25
ATOM     25  O   LIG d   1       3.175  -1.065  -2.608  0.00  0.00    -0.495 OA
BRANCH  25  26
ATOM     26  C   LIG d   1       4.341  -1.555  -1.941  0.00  0.00     0.079 C 
ATOM     27  H   LIG d   1       4.429  -1.077  -0.965  0.00  0.00     0.066 H 
ATOM     28  H   LIG d   1       4.257  -2.634  -1.811  0.00  0.00     0.066 H 
ATOM     29  H   LIG d   1       5.224  -1.328  -2.539  0.00  0.00     0.066 H 
ENDBRANCH  25  26
ENDBRANCH   1  25
TORSDOF 7
ENDMDL
MODEL 5
REMARK VINA RESULT:      -3.8      1.846      4.980
REMARK  7 active torsions:
REMARK  status: ('A' for Active; 'I' for Inactive)
REMARK    1  A    between atoms: C_1  and  O_2 
REMARK    2  A    between atoms: O_2  and  C_3 
REMARK    3  A    between atoms: C_6  and  C_9 
REMARK    4  A    between atoms: C_9  and  C_11 
REMARK    5  A    between atoms: C_9  and  O_12 
REMARK    6  A    between atoms: C_11  and  N_28 
REMARK    7  A    between atoms: O_12  and  C_13 
ROOT
ATOM      1  C   LIG d   1       7.257  -3.726  -4.602  0.00  0.00     0.120 A 
ATOM      2  C   LIG d   1       5.922  -3.792  -4.976  0.00  0.00    -0.020 A 
ATOM      3  C   LIG d   1       5.036  -2.824  -4.540  0.00  0.00    -0.052 A 
ATOM      4  C   LIG d   1       5.479  -1.793  -3.733  0.00  0.00    -0.014 A 
ATOM      5  C   LIG d   1       6.810  -1.722  -3.365  0.00  0.00    -0.052 A 
ATOM      6  C   LIG d   1       7.698  -2.689  -3.792  0.00  0.00    -0.020 A 
ATOM      7  H   LIG d   1       5.576  -4.597  -5.605  0.00  0.00     0.065 H 
ATOM      8  H   LIG d   1       3.997  -2.875  -4.830  0.00  0.00     0.062 H 
ATOM      9  H   LIG d   1       7.154  -0.912  -2.738  0.00  0.00     0.062 H 
ATOM     10  H   LIG d   1       8.737  -2.637  -3.501  0.00  0.00     0.065 H 
ENDROOT
BRANCH   4  11
ATOM     11  C   LIG d   1       4.511  -0.740  -3.260  0.00  0.00     0.123 C 
ATOM     12  H   LIG d   1       4.524   0.103  -3.951  0.00  0.00     0.070 H 
BRANCH  11  13
ATOM     13  C   LIG d   1       3.100  -1.331  -3.205  0.00  0.00    -0.004 C 
ATOM     14  H   LIG d   1       2.715  -1.257  -2.188  0.00  0.00     0.084 H 
ATOM     15  H   LIG d   1       3.133  -2.378  -3.505  0.00  0.00     0.084 H 
BRANCH  13  16
ATOM     16  N   LIG d   1       2.222  -0.565  -4.107  0.00  0.00     0.221 N 
ATOM     17  H   LIG d   1       2.516   0.410  -4.135  0.00  0.00     0.200 HD
ATOM     18  H   LIG d   1       2.259  -0.956  -5.046  0.00  0.00     0.200 HD
ATOM     19  H   LIG d   1       1.256  -0.614  -3.761  0.00  0.00     0.200 HD
ENDBRANCH  13  16
ENDBRANCH  11  13
BRANCH  11  20
ATOM     20  O   LIG d   1       4.891  -0.292  -1.958  0.00  0.00    -0.370 OA
BRANCH  20  21
ATOM     21  C   LIG d   1       4.517   1.056  -1.673  0.00  0.00     0.037 C 
ATOM     22  H   LIG d   1       4.414   1.610  -2.607  0.00  0.00     0.052 H 
ATOM     23  H   LIG d   1       3.566   1.066  -1.139  0.00  0.00     0.052 H 
ATOM     24  H   LIG d   1       5.284   1.525  -1.057  0.00  0.00     0.052 H 
ENDBRANCH  20  21
ENDBRANCH  11  20
ENDBRANCH   4  11
BRANCH   1  25
ATOM     25  O   LIG d   1       8.131  -4.676  -5.029  0.00  0.00    -0.495 OA
BRANCH  25  26
ATOM     26  C   LIG d   1       9.054  -5.188  -4.066  0.00  0.00     0.079 C 
ATOM     27  H   LIG d   1      10.032  -4.734  -4.223  0.00  0.00     0.066 H 
ATOM     28  H   LIG d   1       8.701  -4.951  -3.063  0.00  0.00     0.066 H 
ATOM     29  H   LIG d   1       9.132  -6.270  -4.178  0.00  0.00     0.066 H 
ENDBRANCH  25  26
ENDBRANCH   1  25
TORSDOF 7
ENDMDL
MODEL 6
REMARK VINA RESULT:      -3.8      3.743      5.214
REMARK  7 active torsions:
REMARK  status: ('A' for Active; 'I' for Inactive)
REMARK    1  A    between atoms: C_1  and  O_2 
REMARK    2  A    between atoms: O_2  and  C_3 
REMARK    3  A    between atoms: C_6  and  C_9 
REMARK    4  A    between atoms: C_9  and  C_11 
REMARK    5  A    between atoms: C_9  and  O_12 
REMARK    6  A    between atoms: C_11  and  N_28 
REMARK    7  A    between atoms: O_12  and  C_13 
ROOT
ATOM      1  C   LIG d   1       3.063   0.080  -7.124  0.00  0.00     0.120 A 
ATOM      2  C   LIG d   1       2.441   0.451  -5.941  0.00  0.00    -0.020 A 
ATOM      3  C   LIG d   1       3.039   0.165  -4.728  0.00  0.00    -0.052 A 
ATOM      4  C   LIG d   1       4.256  -0.491  -4.695  0.00  0.00    -0.014 A 
ATOM      5  C   LIG d   1       4.881  -0.855  -5.873  0.00  0.00    -0.052 A 
ATOM      6  C   LIG d   1       4.285  -0.578  -7.087  0.00  0.00    -0.020 A 
ATOM      7  H   LIG d   1       1.490   0.962  -5.967  0.00  0.00     0.065 H 
ATOM      8  H   LIG d   1       2.556   0.453  -3.807  0.00  0.00     0.062 H 
ATOM      9  H   LIG d   1       5.834  -1.363  -5.844  0.00  0.00     0.062 H 
ATOM     10  H   LIG d   1       4.770  -0.867  -8.007  0.00  0.00     0.065 H 
ENDROOT
BRANCH   4  11
ATOM     11  C   LIG d   1       4.906  -0.800  -3.371  0.00  0.00     0.123 C 
ATOM     12  H   LIG d   1       4.175  -1.256  -2.704  0.00  0.00     0.070 H 
BRANCH  11  13
ATOM     13  C   LIG d   1       6.071  -1.769  -3.589  0.00  0.00    -0.004 C 
ATOM     14  H   LIG d   1       6.119  -2.047  -4.642  0.00  0.00     0.084 H 
ATOM     15  H   LIG d   1       5.918  -2.663  -2.984  0.00  0.00     0.084 H 
BRANCH  13  16
ATOM     16  N   LIG d   1       7.329  -1.101  -3.213  0.00  0.00     0.221 N 
ATOM     17  H   LIG d   1       7.904  -0.949  -4.039  0.00  0.00     0.200 HD
ATOM     18  H   LIG d   1       7.129  -0.206  -2.770  0.00  0.00     0.200 HD
ATOM     19  H   LIG d   1       7.842  -1.695  -2.551  0.00  0.00     0.200 HD
ENDBRANCH  13  16
ENDBRANCH  11  13
BRANCH  11  20
ATOM     20  O   LIG d   1       5.396   0.408  -2.786  0.00  0.00    -0.370 OA
BRANCH  20  21
ATOM     21  C   LIG d   1       4.646   0.850  -1.653  0.00  0.00     0.037 C 
ATOM     22  H   LIG d   1       3.922   1.603  -1.967  0.00  0.00     0.052 H 
ATOM     23  H   LIG d   1       4.121   0.004  -1.211  0.00  0.00     0.052 H 
ATOM     24  H   LIG d   1       5.323   1.283  -0.916  0.00  0.00     0.052 H 
ENDBRANCH  20  21
ENDBRANCH  11  20
ENDBRANCH   4  11
BRANCH   1  25
ATOM     25  O   LIG d   1       2.477   0.360  -8.318  0.00  0.00    -0.495 OA
BRANCH  25  26
ATOM     26  C   LIG d   1       2.106  -0.751  -9.137  0.00  0.00     0.079 C 
ATOM     27  H   LIG d   1       1.289  -0.460  -9.796  0.00  0.00     0.066 H 
ATOM     28  H   LIG d   1       2.963  -1.062  -9.735  0.00  0.00     0.066 H 
ATOM     29  H   LIG d   1       1.786  -1.578  -8.502  0.00  0.00     0.066 H 
ENDBRANCH  25  26
ENDBRANCH   1  25
TORSDOF 7
ENDMDL
MODEL 7
REMARK VINA RESULT:      -3.7      1.867      2.220
REMARK  7 active torsions:
REMARK  status: ('A' for Active; 'I' for Inactive)
REMARK    1  A    between atoms: C_1  and  O_2 
REMARK    2  A    between atoms: O_2  and  C_3 
REMARK    3  A    between atoms: C_6  and  C_9 
REMARK    4  A    between atoms: C_9  and  C_11 
REMARK    5  A    between atoms: C_9  and  O_12 
REMARK    6  A    between atoms: C_11  and  N_28 
REMARK    7  A    between atoms: O_12  and  C_13 
ROOT
ATOM      1  C   LIG d   1       3.680  -0.602  -2.987  0.00  0.00     0.120 A 
ATOM      2  C   LIG d   1       3.894  -0.334  -4.331  0.00  0.00    -0.020 A 
ATOM      3  C   LIG d   1       4.327  -1.341  -5.174  0.00  0.00    -0.052 A 
ATOM      4  C   LIG d   1       4.546  -2.613  -4.678  0.00  0.00    -0.014 A 
ATOM      5  C   LIG d   1       4.327  -2.883  -3.340  0.00  0.00    -0.052 A 
ATOM      6  C   LIG d   1       3.901  -1.879  -2.492  0.00  0.00    -0.020 A 
ATOM      7  H   LIG d   1       3.724   0.659  -4.718  0.00  0.00     0.065 H 
ATOM      8  H   LIG d   1       4.494  -1.133  -6.220  0.00  0.00     0.062 H 
ATOM      9  H   LIG d   1       4.493  -3.879  -2.956  0.00  0.00     0.062 H 
ATOM     10  H   LIG d   1       3.734  -2.089  -1.446  0.00  0.00     0.065 H 
ENDROOT
BRANCH   4  11
ATOM     11  C   LIG d   1       5.016  -3.708  -5.600  0.00  0.00     0.123 C 
ATOM     12  H   LIG d   1       5.049  -3.334  -6.623  0.00  0.00     0.070 H 
BRANCH  11  13
ATOM     13  C   LIG d   1       6.415  -4.163  -5.178  0.00  0.00    -0.004 C 
ATOM     14  H   LIG d   1       6.484  -5.248  -5.259  0.00  0.00     0.084 H 
ATOM     15  H   LIG d   1       6.600  -3.863  -4.147  0.00  0.00     0.084 H 
BRANCH  13  16
ATOM     16  N   LIG d   1       7.410  -3.552  -6.078  0.00  0.00     0.221 N 
ATOM     17  H   LIG d   1       7.855  -2.759  -5.619  0.00  0.00     0.200 HD
ATOM     18  H   LIG d   1       8.118  -4.238  -6.333  0.00  0.00     0.200 HD
ATOM     19  H   LIG d   1       6.939  -3.225  -6.930  0.00  0.00     0.200 HD
ENDBRANCH  13  16
ENDBRANCH  11  13
BRANCH  11  20
ATOM     20  O   LIG d   1       4.113  -4.813  -5.526  0.00  0.00    -0.370 OA
BRANCH  20  21
ATOM     21  C   LIG d   1       4.753  -6.090  -5.560  0.00  0.00     0.037 C 
ATOM     22  H   LIG d   1       5.238  -6.279  -4.602  0.00  0.00     0.052 H 
ATOM     23  H   LIG d   1       4.010  -6.865  -5.750  0.00  0.00     0.052 H 
ATOM     24  H   LIG d   1       5.500  -6.101  -6.354  0.00  0.00     0.052 H 
ENDBRANCH  20  21
ENDBRANCH  11  20
ENDBRANCH   4  11
BRANCH   1  25
ATOM     25  O   LIG d   1       3.255   0.386  -2.156  0.00  0.00    -0.495 OA
BRANCH  25  26
ATOM     26  C   LIG d   1       3.710   1.712  -2.436  0.00  0.00     0.079 C 
ATOM     27  H   LIG d   1       3.221   2.080  -3.337  0.00  0.00     0.066 H 
ATOM     28  H   LIG d   1       3.466   2.364  -1.598  0.00  0.00     0.066 H 
ATOM     29  H   LIG d   1       4.790   1.701  -2.586  0.00  0.00     0.066 H 
ENDBRANCH  25  26
ENDBRANCH   1  25
TORSDOF 7
ENDMDL
MODEL 8
REMARK VINA RESULT:      -3.7      4.790      6.384
REMARK  7 active torsions:
REMARK  status: ('A' for Active; 'I' for Inactive)
REMARK    1  A    between atoms: C_1  and  O_2 
REMARK    2  A    between atoms: O_2  and  C_3 
REMARK    3  A    between atoms: C_6  and  C_9 
REMARK    4  A    between atoms: C_9  and  C_11 
REMARK    5  A    between atoms: C_9  and  O_12 
REMARK    6  A    between atoms: C_11  and  N_28 
REMARK    7  A    between atoms: O_12  and  C_13 
ROOT
ATOM      1  C   LIG d   1       4.355   0.980  -9.248  0.00  0.00     0.120 A 
ATOM      2  C   LIG d   1       5.172   0.177  -8.464  0.00  0.00    -0.020 A 
ATOM      3  C   LIG d   1       4.782  -0.157  -7.181  0.00  0.00    -0.052 A 
ATOM      4  C   LIG d   1       3.581   0.307  -6.678  0.00  0.00    -0.014 A 
ATOM      5  C   LIG d   1       2.763   1.102  -7.460  0.00  0.00    -0.052 A 
ATOM      6  C   LIG d   1       3.150   1.445  -8.741  0.00  0.00    -0.020 A 
ATOM      7  H   LIG d   1       6.110  -0.185  -8.856  0.00  0.00     0.065 H 
ATOM      8  H   LIG d   1       5.417  -0.781  -6.570  0.00  0.00     0.062 H 
ATOM      9  H   LIG d   1       1.822   1.459  -7.067  0.00  0.00     0.062 H 
ATOM     10  H   LIG d   1       2.513   2.069  -9.350  0.00  0.00     0.065 H 
ENDROOT
BRANCH   4  11
ATOM     11  C   LIG d   1       3.159  -0.060  -5.279  0.00  0.00     0.123 C 
ATOM     12  H   LIG d   1       2.230  -0.629  -5.317  0.00  0.00     0.070 H 
BRANCH  11  13
ATOM     13  C   LIG d   1       4.251  -0.908  -4.623  0.00  0.00    -0.004 C 
ATOM     14  H   LIG d   1       4.510  -0.481  -3.655  0.00  0.00     0.084 H 
ATOM     15  H   LIG d   1       5.133  -0.922  -5.263  0.00  0.00     0.084 H 
BRANCH  13  16
ATOM     16  N   LIG d   1       3.740  -2.276  -4.421  0.00  0.00     0.221 N 
ATOM     17  H   LIG d   1       2.873  -2.405  -4.941  0.00  0.00     0.200 HD
ATOM     18  H   LIG d   1       4.429  -2.956  -4.736  0.00  0.00     0.200 HD
ATOM     19  H   LIG d   1       3.556  -2.423  -3.422  0.00  0.00     0.200 HD
ENDBRANCH  13  16
ENDBRANCH  11  13
BRANCH  11  20
ATOM     20  O   LIG d   1       2.957   1.130  -4.514  0.00  0.00    -0.370 OA
BRANCH  20  21
ATOM     21  C   LIG d   1       3.536   1.088  -3.209  0.00  0.00     0.037 C 
ATOM     22  H   LIG d   1       4.391   1.764  -3.170  0.00  0.00     0.052 H 
ATOM     23  H   LIG d   1       2.795   1.397  -2.472  0.00  0.00     0.052 H 
ATOM     24  H   LIG d   1       3.865   0.072  -2.990  0.00  0.00     0.052 H 
ENDBRANCH  20  21
ENDBRANCH  11  20
ENDBRANCH   4  11
BRANCH   1  25
ATOM     25  O   LIG d   1       4.735   1.311 -10.510  0.00  0.00    -0.495 OA
BRANCH  25  26
ATOM     26  C   LIG d   1       4.157   0.560 -11.580  0.00  0.00     0.079 C 
ATOM     27  H   LIG d   1       4.948   0.168 -12.219  0.00  0.00     0.066 H 
ATOM     28  H   LIG d   1       3.577  -0.267 -11.171  0.00  0.00     0.066 H 
ATOM     29  H   LIG d   1       3.503   1.208 -12.166  0.00  0.00     0.066 H 
ENDBRANCH  25  26
ENDBRANCH   1  25
TORSDOF 7
ENDMDL
MODEL 9
REMARK VINA RESULT:      -3.6      2.989      3.538
REMARK  7 active torsions:
REMARK  status: ('A' for Active; 'I' for Inactive)
REMARK    1  A    between atoms: C_1  and  O_2 
REMARK    2  A    between atoms: O_2  and  C_3 
REMARK    3  A    between atoms: C_6  and  C_9 
REMARK    4  A    between atoms: C_9  and  C_11 
REMARK    5  A    between atoms: C_9  and  O_12 
REMARK    6  A    between atoms: C_11  and  N_28 
REMARK    7  A    between atoms: O_12  and  C_13 
ROOT
ATOM      1  C   LIG d   1       4.516  -2.249  -3.453  0.00  0.00     0.120 A 
ATOM      2  C   LIG d   1       5.579  -1.539  -2.915  0.00  0.00    -0.020 A 
ATOM      3  C   LIG d   1       6.872  -1.829  -3.307  0.00  0.00    -0.052 A 
ATOM      4  C   LIG d   1       7.106  -2.828  -4.234  0.00  0.00    -0.014 A 
ATOM      5  C   LIG d   1       6.048  -3.534  -4.777  0.00  0.00    -0.052 A 
ATOM      6  C   LIG d   1       4.754  -3.251  -4.384  0.00  0.00    -0.020 A 
ATOM      7  H   LIG d   1       5.397  -0.759  -2.191  0.00  0.00     0.065 H 
ATOM      8  H   LIG d   1       7.700  -1.277  -2.889  0.00  0.00     0.062 H 
ATOM      9  H   LIG d   1       6.233  -4.310  -5.505  0.00  0.00     0.062 H 
ATOM     10  H   LIG d   1       3.928  -3.805  -4.803  0.00  0.00     0.065 H 
ENDROOT
BRANCH   4  11
ATOM     11  C   LIG d   1       8.517  -3.143  -4.661  0.00  0.00     0.123 C 
ATOM     12  H   LIG d   1       8.503  -3.938  -5.406  0.00  0.00     0.070 H 
BRANCH  11  13
ATOM     13  C   LIG d   1       9.159  -1.890  -5.262  0.00  0.00    -0.004 C 
ATOM     14  H   LIG d   1       8.510  -1.032  -5.090  0.00  0.00     0.084 H 
ATOM     15  H   LIG d   1       9.297  -2.032  -6.334  0.00  0.00     0.084 H 
BRANCH  13  16
ATOM     16  N   LIG d   1      10.454  -1.651  -4.602  0.00  0.00     0.221 N 
ATOM     17  H   LIG d   1      10.553  -2.264  -3.795  0.00  0.00     0.200 HD
ATOM     18  H   LIG d   1      11.216  -1.824  -5.255  0.00  0.00     0.200 HD
ATOM     19  H   LIG d   1      10.498  -0.674  -4.288  0.00  0.00     0.200 HD
ENDBRANCH  13  16
ENDBRANCH  11  13
BRANCH  11  20
ATOM     20  O   LIG d   1       9.274  -3.568  -3.526  0.00  0.00    -0.370 OA
BRANCH  20  21
ATOM     21  C   LIG d   1       9.352  -4.986  -3.376  0.00  0.00     0.037 C 
ATOM     22  H   LIG d   1       9.637  -5.229  -2.352  0.00  0.00     0.052 H 
ATOM     23  H   LIG d   1       8.380  -5.429  -3.597  0.00  0.00     0.052 H 
ATOM     24  H   LIG d   1      10.097  -5.384  -4.065  0.00  0.00     0.052 H 
ENDBRANCH  20  21
ENDBRANCH  11  20
ENDBRANCH   4  11
BRANCH   1  25
ATOM     25  O   LIG d   1       3.243  -1.965  -3.069  0.00  0.00    -0.495 OA
BRANCH  25  26
ATOM     26  C   LIG d   1       2.844  -0.594  -3.110  0.00  0.00     0.079 C 
ATOM     27  H   LIG d   1       2.741  -0.276  -4.148  0.00  0.00     0.066 H 
ATOM     28  H   LIG d   1       1.888  -0.479  -2.599  0.00  0.00     0.066 H 
ATOM     29  H   LIG d   1       3.597   0.019  -2.615  0.00  0.00     0.066 H 
ENDBRANCH  25  26
ENDBRANCH   1  25
TORSDOF 7
ENDMDL
MODEL 10
REMARK VINA RESULT:      -3.6      9.587     11.450
REMARK  7 active torsions:
REMARK  status: ('A' for Active; 'I' for Inactive)
REMARK    1  A    between atoms: C_1  and  O_2 
REMARK    2  A    between atoms: O_2  and  C_3 
REMARK    3  A    between atoms: C_6  and  C_9 
REMARK    4  A    between atoms: C_9  and  C_11 
REMARK    5  A    between atoms: C_9  and  O_12 
REMARK    6  A    between atoms: C_11  and  N_28 
REMARK    7  A    between atoms: O_12  and  C_13 
ROOT
ATOM      1  C   LIG d   1      11.257   7.765   1.144  0.00  0.00     0.120 A 
ATOM      2  C   LIG d   1      10.787   8.592   0.134  0.00  0.00    -0.020 A 
ATOM      3  C   LIG d   1      10.307   8.041  -1.040  0.00  0.00    -0.052 A 
ATOM      4  C   LIG d   1      10.297   6.669  -1.207  0.00  0.00    -0.014 A 
ATOM      5  C   LIG d   1      10.760   5.843  -0.199  0.00  0.00    -0.052 A 
ATOM      6  C   LIG d   1      11.246   6.388   0.973  0.00  0.00    -0.020 A 
ATOM      7  H   LIG d   1      10.796   9.663   0.264  0.00  0.00     0.065 H 
ATOM      8  H   LIG d   1       9.941   8.683  -1.827  0.00  0.00     0.062 H 
ATOM      9  H   LIG d   1      10.746   4.771  -0.330  0.00  0.00     0.062 H 
ATOM     10  H   LIG d   1      11.612   5.744   1.759  0.00  0.00     0.065 H 
ENDROOT
BRANCH   4  11
ATOM     11  C   LIG d   1       9.773   6.072  -2.487  0.00  0.00     0.123 C 
ATOM     12  H   LIG d   1       8.727   5.795  -2.359  0.00  0.00     0.070 H 
BRANCH  11  13
ATOM     13  C   LIG d   1       9.894   7.098  -3.616  0.00  0.00    -0.004 C 
ATOM     14  H   LIG d   1      10.821   6.927  -4.164  0.00  0.00     0.084 H 
ATOM     15  H   LIG d   1       9.902   8.103  -3.194  0.00  0.00     0.084 H 
BRANCH  13  16
ATOM     16  N   LIG d   1       8.756   6.935  -4.538  0.00  0.00     0.221 N 
ATOM     17  H   LIG d   1       7.959   7.477  -4.208  0.00  0.00     0.200 HD
ATOM     18  H   LIG d   1       9.015   7.248  -5.471  0.00  0.00     0.200 HD
ATOM     19  H   LIG d   1       8.493   5.943  -4.578  0.00  0.00     0.200 HD
ENDBRANCH  13  16
ENDBRANCH  11  13
BRANCH  11  20
ATOM     20  O   LIG d   1      10.535   4.908  -2.818  0.00  0.00    -0.370 OA
BRANCH  20  21
ATOM     21  C   LIG d   1       9.741   3.760  -3.119  0.00  0.00     0.037 C 
ATOM     22  H   LIG d   1       9.378   3.316  -2.191  0.00  0.00     0.052 H 
ATOM     23  H   LIG d   1       8.892   4.055  -3.736  0.00  0.00     0.052 H 
ATOM     24  H   LIG d   1      10.346   3.031  -3.658  0.00  0.00     0.052 H 
ENDBRANCH  20  21
ENDBRANCH  11  20
ENDBRANCH   4  11
BRANCH   1  25
ATOM     25  O   LIG d   1      11.729   8.304   2.300  0.00  0.00    -0.495 OA
BRANCH  25  26
ATOM     26  C   LIG d   1      12.173   9.661   2.249  0.00  0.00     0.079 C 
ATOM     27  H   LIG d   1      13.213   9.692   1.925  0.00  0.00     0.066 H 
ATOM     28  H   LIG d   1      11.557  10.219   1.545  0.00  0.00     0.066 H 
ATOM     29  H   LIG d   1      12.088  10.108   3.240  0.00  0.00     0.066 H 
ENDBRANCH  25  26
ENDBRANCH   1  25
TORSDOF 7
ENDMDL
