MODEL 1
REMARK VINA RESULT:      -7.9      0.000      0.000
REMARK  6 active torsions:
REMARK  status: ('A' for Active; 'I' for Inactive)
REMARK    1  A    between atoms: C_5  and  C_7 
REMARK    2  A    between atoms: C_7  and  N_49 
REMARK    3  A    between atoms: C_16  and  C_18 
REMARK    4  A    between atoms: C_20  and  C_23 
REMARK    5  A    between atoms: C_26  and  O_29 
REMARK    6  A    between atoms: O_29  and  C_30 
ROOT
ATOM      1  C   LIG d   1       6.650  -0.045  -6.172  0.00  0.00     0.012 C 
ATOM      2  C   LIG d   1       6.685   0.471  -7.589  0.00  0.00     0.084 A 
ATOM      3  C   LIG d   1       7.445   1.520  -7.978  0.00  0.00     0.073 A 
ATOM      4  N   LIG d   1       7.224   1.705  -9.306  0.00  0.00    -0.240 NA
ATOM      5  H   LIG d   1       5.382  -0.743  -8.663  0.00  0.00     0.167 HD
ATOM      6  C   LIG d   1       6.334   0.760  -9.693  0.00  0.00     0.094 A 
ATOM      7  N   LIG d   1       6.019   0.027  -8.657  0.00  0.00    -0.344 N 
ATOM      8  C   LIG d   1       8.345   2.286  -7.044  0.00  0.00     0.043 C 
ATOM      9  C   LIG d   1       8.530   1.445  -5.773  0.00  0.00     0.066 C 
ATOM     10  H   LIG d   1       9.156   0.582  -5.998  0.00  0.00     0.096 H 
ATOM     11  H   LIG d   1       7.240  -0.958  -6.099  0.00  0.00     0.088 H 
ATOM     12  H   LIG d   1       5.620  -0.249  -5.881  0.00  0.00     0.088 H 
ATOM     13  H   LIG d   1       5.949   0.633 -10.694  0.00  0.00     0.103 H 
ATOM     14  H   LIG d   1       7.885   3.242  -6.790  0.00  0.00     0.039 H 
ATOM     15  H   LIG d   1       9.311   2.456  -7.519  0.00  0.00     0.039 H 
ATOM     16  N   LIG d   1       7.200   1.012  -5.288  0.00  0.00     0.253 N 
ATOM     17  H   LIG d   1       6.565   1.819  -5.300  0.00  0.00     0.205 HD
ENDROOT
BRANCH   9  18
ATOM     18  C   LIG d   1       9.193   2.282  -4.709  0.00  0.00     0.276 A 
ATOM     19  O   LIG d   1      10.081   1.859  -3.805  0.00  0.00    -0.332 OA
ATOM     20  N   LIG d   1      10.422   2.781  -3.094  0.00  0.00    -0.056 NA
ATOM     21  C   LIG d   1       9.806   3.877  -3.455  0.00  0.00     0.202 A 
ATOM     22  N   LIG d   1       9.012   3.563  -4.503  0.00  0.00    -0.186 NA
BRANCH  21  23
ATOM     23  C   LIG d   1       9.954   5.216  -2.832  0.00  0.00     0.023 A 
ATOM     24  C   LIG d   1       9.731   6.366  -3.587  0.00  0.00    -0.048 A 
ATOM     25  C   LIG d   1       9.868   7.609  -3.005  0.00  0.00    -0.019 A 
ATOM     26  H   LIG d   1       9.449   6.284  -4.627  0.00  0.00     0.063 H 
ATOM     27  C   LIG d   1      10.231   7.714  -1.669  0.00  0.00     0.130 A 
ATOM     28  H   LIG d   1       9.695   8.500  -3.590  0.00  0.00     0.065 H 
ATOM     29  C   LIG d   1      10.455   6.571  -0.915  0.00  0.00    -0.019 A 
ATOM     30  C   LIG d   1      10.312   5.326  -1.489  0.00  0.00    -0.048 A 
ATOM     31  H   LIG d   1      10.736   6.656   0.125  0.00  0.00     0.065 H 
ATOM     32  H   LIG d   1      10.481   4.436  -0.900  0.00  0.00     0.063 H 
BRANCH  27  33
ATOM     33  O   LIG d   1      10.367   8.940  -1.099  0.00  0.00    -0.406 OA
BRANCH  33  34
ATOM     34  C   LIG d   1       9.166   9.654  -0.802  0.00  0.00     0.575 C 
ATOM     35  F   LIG d   1       8.114   8.747  -0.633  0.00  0.00    -0.133 F 
ATOM     36  F   LIG d   1       9.340  10.390   0.374  0.00  0.00    -0.133 F 
ATOM     37  F   LIG d   1       8.866  10.523  -1.856  0.00  0.00    -0.133 F 
ENDBRANCH  33  34
ENDBRANCH  27  33
ENDBRANCH  21  23
ENDBRANCH   9  18
BRANCH  16  38
ATOM     38  C   LIG d   1       7.308   0.506  -3.905  0.00  0.00     0.013 C 
ATOM     39  H   LIG d   1       7.920   1.195  -3.322  0.00  0.00     0.088 H 
ATOM     40  H   LIG d   1       7.764  -0.484  -3.892  0.00  0.00     0.088 H 
BRANCH  38  41
ATOM     41  C   LIG d   1       5.927   0.432  -3.307  0.00  0.00     0.086 A 
ATOM     42  N   LIG d   1       5.157   1.502  -3.310  0.00  0.00    -0.255 NA
ATOM     43  C   LIG d   1       3.940   1.482  -2.801  0.00  0.00     0.028 A 
ATOM     44  C   LIG d   1       3.429   0.329  -2.235  0.00  0.00    -0.044 A 
ATOM     45  H   LIG d   1       3.337   2.377  -2.826  0.00  0.00     0.083 H 
ATOM     46  C   LIG d   1       4.212  -0.815  -2.209  0.00  0.00    -0.058 A 
ATOM     47  H   LIG d   1       2.434   0.320  -1.817  0.00  0.00     0.063 H 
ATOM     48  C   LIG d   1       5.484  -0.757  -2.757  0.00  0.00    -0.035 A 
ATOM     49  H   LIG d   1       3.839  -1.730  -1.774  0.00  0.00     0.062 H 
ATOM     50  H   LIG d   1       6.121  -1.629  -2.754  0.00  0.00     0.064 H 
ENDBRANCH  38  41
ENDBRANCH  16  38
TORSDOF 6
ENDMDL
MODEL 2
REMARK VINA RESULT:      -7.8      1.729      2.403
REMARK  6 active torsions:
REMARK  status: ('A' for Active; 'I' for Inactive)
REMARK    1  A    between atoms: C_5  and  C_7 
REMARK    2  A    between atoms: C_7  and  N_49 
REMARK    3  A    between atoms: C_16  and  C_18 
REMARK    4  A    between atoms: C_20  and  C_23 
REMARK    5  A    between atoms: C_26  and  O_29 
REMARK    6  A    between atoms: O_29  and  C_30 
ROOT
ATOM      1  C   LIG d   1       4.887  -0.903  -7.197  0.00  0.00     0.012 C 
ATOM      2  C   LIG d   1       4.501  -0.135  -8.437  0.00  0.00     0.084 A 
ATOM      3  C   LIG d   1       5.192   0.934  -8.893  0.00  0.00     0.073 A 
ATOM      4  N   LIG d   1       4.561   1.371 -10.014  0.00  0.00    -0.240 NA
ATOM      5  H   LIG d   1       2.795  -1.072  -9.170  0.00  0.00     0.167 HD
ATOM      6  C   LIG d   1       3.500   0.554 -10.214  0.00  0.00     0.094 A 
ATOM      7  N   LIG d   1       3.474  -0.344  -9.263  0.00  0.00    -0.344 N 
ATOM      8  C   LIG d   1       6.427   1.475  -8.220  0.00  0.00     0.043 C 
ATOM      9  C   LIG d   1       6.938   0.405  -7.244  0.00  0.00     0.066 C 
ATOM     10  H   LIG d   1       7.358  -0.428  -7.806  0.00  0.00     0.096 H 
ATOM     11  H   LIG d   1       5.370  -1.838  -7.480  0.00  0.00     0.088 H 
ATOM     12  H   LIG d   1       3.998  -1.112  -6.603  0.00  0.00     0.088 H 
ATOM     13  H   LIG d   1       2.791   0.631 -11.025  0.00  0.00     0.103 H 
ATOM     14  H   LIG d   1       6.181   2.385  -7.674  0.00  0.00     0.039 H 
ATOM     15  H   LIG d   1       7.191   1.687  -8.968  0.00  0.00     0.039 H 
ATOM     16  N   LIG d   1       5.808  -0.052  -6.403  0.00  0.00     0.253 N 
ATOM     17  H   LIG d   1       5.293   0.769  -6.064  0.00  0.00     0.205 HD
ENDROOT
BRANCH   9  18
ATOM     18  C   LIG d   1       8.001   1.001  -6.358  0.00  0.00     0.276 A 
ATOM     19  O   LIG d   1       9.126   0.403  -5.956  0.00  0.00    -0.332 OA
ATOM     20  N   LIG d   1       9.768   1.154  -5.252  0.00  0.00    -0.056 NA
ATOM     21  C   LIG d   1       9.141   2.295  -5.126  0.00  0.00     0.202 A 
ATOM     22  N   LIG d   1       7.999   2.205  -5.843  0.00  0.00    -0.186 NA
BRANCH  21  23
ATOM     23  C   LIG d   1       9.601   3.470  -4.345  0.00  0.00     0.023 A 
ATOM     24  C   LIG d   1       9.465   4.755  -4.870  0.00  0.00    -0.048 A 
ATOM     25  C   LIG d   1       9.893   5.845  -4.142  0.00  0.00    -0.019 A 
ATOM     26  H   LIG d   1       9.025   4.896  -5.846  0.00  0.00     0.063 H 
ATOM     27  C   LIG d   1      10.459   5.664  -2.887  0.00  0.00     0.130 A 
ATOM     28  H   LIG d   1       9.788   6.840  -4.548  0.00  0.00     0.065 H 
ATOM     29  C   LIG d   1      10.596   4.386  -2.362  0.00  0.00    -0.019 A 
ATOM     30  C   LIG d   1      10.164   3.293  -3.082  0.00  0.00    -0.048 A 
ATOM     31  H   LIG d   1      11.037   4.248  -1.385  0.00  0.00     0.065 H 
ATOM     32  H   LIG d   1      10.266   2.299  -2.671  0.00  0.00     0.063 H 
BRANCH  27  33
ATOM     33  O   LIG d   1      10.881   6.740  -2.172  0.00  0.00    -0.406 OA
BRANCH  33  34
ATOM     34  C   LIG d   1      10.017   7.207  -1.135  0.00  0.00     0.575 C 
ATOM     35  F   LIG d   1      10.290   8.554  -0.872  0.00  0.00    -0.133 F 
ATOM     36  F   LIG d   1       8.685   7.072  -1.541  0.00  0.00    -0.133 F 
ATOM     37  F   LIG d   1      10.230   6.454   0.024  0.00  0.00    -0.133 F 
ENDBRANCH  33  34
ENDBRANCH  27  33
ENDBRANCH  21  23
ENDBRANCH   9  18
BRANCH  16  38
ATOM     38  C   LIG d   1       6.319  -0.810  -5.243  0.00  0.00     0.013 C 
ATOM     39  H   LIG d   1       7.387  -0.620  -5.136  0.00  0.00     0.088 H 
ATOM     40  H   LIG d   1       6.153  -1.879  -5.378  0.00  0.00     0.088 H 
BRANCH  38  41
ATOM     41  C   LIG d   1       5.599  -0.342  -4.004  0.00  0.00     0.086 A 
ATOM     42  N   LIG d   1       5.513   0.948  -3.748  0.00  0.00    -0.255 NA
ATOM     43  C   LIG d   1       4.890   1.403  -2.679  0.00  0.00     0.028 A 
ATOM     44  C   LIG d   1       4.307   0.534  -1.777  0.00  0.00    -0.044 A 
ATOM     45  H   LIG d   1       4.836   2.467  -2.505  0.00  0.00     0.083 H 
ATOM     46  C   LIG d   1       4.382  -0.832  -2.009  0.00  0.00    -0.058 A 
ATOM     47  H   LIG d   1       3.801   0.912  -0.901  0.00  0.00     0.063 H 
ATOM     48  C   LIG d   1       5.041  -1.272  -3.146  0.00  0.00    -0.035 A 
ATOM     49  H   LIG d   1       3.935  -1.534  -1.322  0.00  0.00     0.062 H 
ATOM     50  H   LIG d   1       5.118  -2.328  -3.359  0.00  0.00     0.064 H 
ENDBRANCH  38  41
ENDBRANCH  16  38
TORSDOF 6
ENDMDL
MODEL 3
REMARK VINA RESULT:      -7.4      7.212      9.767
REMARK  6 active torsions:
REMARK  status: ('A' for Active; 'I' for Inactive)
REMARK    1  A    between atoms: C_5  and  C_7 
REMARK    2  A    between atoms: C_7  and  N_49 
REMARK    3  A    between atoms: C_16  and  C_18 
REMARK    4  A    between atoms: C_20  and  C_23 
REMARK    5  A    between atoms: C_26  and  O_29 
REMARK    6  A    between atoms: O_29  and  C_30 
ROOT
ATOM      1  C   LIG d   1       7.448  -9.388  -5.203  0.00  0.00     0.012 C 
ATOM      2  C   LIG d   1       6.097 -10.045  -5.070  0.00  0.00     0.084 A 
ATOM      3  C   LIG d   1       4.929  -9.381  -5.234  0.00  0.00     0.073 A 
ATOM      4  N   LIG d   1       3.927 -10.277  -5.035  0.00  0.00    -0.240 NA
ATOM      5  H   LIG d   1       6.482 -12.036  -4.608  0.00  0.00     0.167 HD
ATOM      6  C   LIG d   1       4.511 -11.467  -4.756  0.00  0.00     0.094 A 
ATOM      7  N   LIG d   1       5.810 -11.315  -4.780  0.00  0.00    -0.344 N 
ATOM      8  C   LIG d   1       4.847  -7.916  -5.575  0.00  0.00     0.043 C 
ATOM      9  C   LIG d   1       6.230  -7.470  -6.071  0.00  0.00     0.066 C 
ATOM     10  H   LIG d   1       6.418  -7.899  -7.055  0.00  0.00     0.096 H 
ATOM     11  H   LIG d   1       7.892  -9.655  -6.163  0.00  0.00     0.088 H 
ATOM     12  H   LIG d   1       8.098  -9.716  -4.393  0.00  0.00     0.088 H 
ATOM     13  H   LIG d   1       3.990 -12.389  -4.549  0.00  0.00     0.103 H 
ATOM     14  H   LIG d   1       4.571  -7.346  -4.688  0.00  0.00     0.039 H 
ATOM     15  H   LIG d   1       4.106  -7.762  -6.359  0.00  0.00     0.039 H 
ATOM     16  N   LIG d   1       7.254  -7.921  -5.101  0.00  0.00     0.253 N 
ATOM     17  H   LIG d   1       6.934  -7.693  -4.152  0.00  0.00     0.205 HD
ENDROOT
BRANCH   9  18
ATOM     18  C   LIG d   1       6.268  -5.966  -6.164  0.00  0.00     0.276 A 
ATOM     19  O   LIG d   1       6.791  -5.246  -7.160  0.00  0.00    -0.332 OA
ATOM     20  N   LIG d   1       6.659  -4.061  -6.931  0.00  0.00    -0.056 NA
ATOM     21  C   LIG d   1       6.050  -3.892  -5.786  0.00  0.00     0.202 A 
ATOM     22  N   LIG d   1       5.789  -5.121  -5.286  0.00  0.00    -0.186 NA
BRANCH  21  23
ATOM     23  C   LIG d   1       5.705  -2.593  -5.156  0.00  0.00     0.023 A 
ATOM     24  C   LIG d   1       4.819  -1.723  -5.790  0.00  0.00    -0.048 A 
ATOM     25  C   LIG d   1       4.500  -0.517  -5.202  0.00  0.00    -0.019 A 
ATOM     26  H   LIG d   1       4.382  -1.993  -6.740  0.00  0.00     0.063 H 
ATOM     27  C   LIG d   1       5.061  -0.169  -3.980  0.00  0.00     0.130 A 
ATOM     28  H   LIG d   1       3.814   0.157  -5.692  0.00  0.00     0.065 H 
ATOM     29  C   LIG d   1       5.945  -1.033  -3.348  0.00  0.00    -0.019 A 
ATOM     30  C   LIG d   1       6.261  -2.243  -3.927  0.00  0.00    -0.048 A 
ATOM     31  H   LIG d   1       6.379  -0.760  -2.397  0.00  0.00     0.065 H 
ATOM     32  H   LIG d   1       6.945  -2.918  -3.431  0.00  0.00     0.063 H 
BRANCH  27  33
ATOM     33  O   LIG d   1       4.746   1.020  -3.404  0.00  0.00    -0.406 OA
BRANCH  33  34
ATOM     34  C   LIG d   1       3.900   0.979  -2.254  0.00  0.00     0.575 C 
ATOM     35  F   LIG d   1       3.091   2.121  -2.229  0.00  0.00    -0.133 F 
ATOM     36  F   LIG d   1       3.094  -0.162  -2.309  0.00  0.00    -0.133 F 
ATOM     37  F   LIG d   1       4.686   0.939  -1.098  0.00  0.00    -0.133 F 
ENDBRANCH  33  34
ENDBRANCH  27  33
ENDBRANCH  21  23
ENDBRANCH   9  18
BRANCH  16  38
ATOM     38  C   LIG d   1       8.531  -7.225  -5.357  0.00  0.00     0.013 C 
ATOM     39  H   LIG d   1       8.380  -6.483  -6.142  0.00  0.00     0.088 H 
ATOM     40  H   LIG d   1       9.299  -7.932  -5.670  0.00  0.00     0.088 H 
BRANCH  38  41
ATOM     41  C   LIG d   1       8.969  -6.535  -4.091  0.00  0.00     0.086 A 
ATOM     42  N   LIG d   1       9.238  -7.252  -3.018  0.00  0.00    -0.255 NA
ATOM     43  C   LIG d   1       9.628  -6.691  -1.890  0.00  0.00     0.028 A 
ATOM     44  C   LIG d   1       9.760  -5.319  -1.790  0.00  0.00    -0.044 A 
ATOM     45  H   LIG d   1       9.844  -7.312  -1.033  0.00  0.00     0.083 H 
ATOM     46  C   LIG d   1       9.480  -4.532  -2.897  0.00  0.00    -0.058 A 
ATOM     47  H   LIG d   1      10.077  -4.866  -0.862  0.00  0.00     0.063 H 
ATOM     48  C   LIG d   1       9.077  -5.157  -4.067  0.00  0.00    -0.035 A 
ATOM     49  H   LIG d   1       9.575  -3.458  -2.849  0.00  0.00     0.062 H 
ATOM     50  H   LIG d   1       8.851  -4.574  -4.948  0.00  0.00     0.064 H 
ENDBRANCH  38  41
ENDBRANCH  16  38
TORSDOF 6
ENDMDL
MODEL 4
REMARK VINA RESULT:      -7.3      7.252      9.166
REMARK  6 active torsions:
REMARK  status: ('A' for Active; 'I' for Inactive)
REMARK    1  A    between atoms: C_5  and  C_7 
REMARK    2  A    between atoms: C_7  and  N_49 
REMARK    3  A    between atoms: C_16  and  C_18 
REMARK    4  A    between atoms: C_20  and  C_23 
REMARK    5  A    between atoms: C_26  and  O_29 
REMARK    6  A    between atoms: O_29  and  C_30 
ROOT
ATOM      1  C   LIG d   1       3.224   0.020  -7.243  0.00  0.00     0.012 C 
ATOM      2  C   LIG d   1       3.711   0.865  -8.394  0.00  0.00     0.084 A 
ATOM      3  C   LIG d   1       5.018   1.004  -8.713  0.00  0.00     0.073 A 
ATOM      4  N   LIG d   1       5.084   1.833  -9.787  0.00  0.00    -0.240 NA
ATOM      5  H   LIG d   1       2.002   1.674  -9.261  0.00  0.00     0.167 HD
ATOM      6  C   LIG d   1       3.811   2.177 -10.098  0.00  0.00     0.094 A 
ATOM      7  N   LIG d   1       2.998   1.592  -9.257  0.00  0.00    -0.344 N 
ATOM      8  C   LIG d   1       6.134   0.327  -7.959  0.00  0.00     0.043 C 
ATOM      9  C   LIG d   1       5.515  -0.787  -7.103  0.00  0.00     0.066 C 
ATOM     10  H   LIG d   1       5.181  -1.599  -7.750  0.00  0.00     0.096 H 
ATOM     11  H   LIG d   1       2.821  -0.919  -7.623  0.00  0.00     0.088 H 
ATOM     12  H   LIG d   1       2.453   0.557  -6.693  0.00  0.00     0.088 H 
ATOM     13  H   LIG d   1       3.517   2.828 -10.908  0.00  0.00     0.103 H 
ATOM     14  H   LIG d   1       6.637   1.049  -7.317  0.00  0.00     0.039 H 
ATOM     15  H   LIG d   1       6.847  -0.102  -8.664  0.00  0.00     0.039 H 
ATOM     16  N   LIG d   1       4.376  -0.227  -6.341  0.00  0.00     0.253 N 
ATOM     17  H   LIG d   1       4.665   0.664  -5.920  0.00  0.00     0.205 HD
ENDROOT
BRANCH   9  18
ATOM     18  C   LIG d   1       6.546  -1.308  -6.135  0.00  0.00     0.276 A 
ATOM     19  O   LIG d   1       7.297  -0.577  -5.307  0.00  0.00    -0.332 OA
ATOM     20  N   LIG d   1       8.027  -1.299  -4.661  0.00  0.00    -0.056 NA
ATOM     21  C   LIG d   1       7.830  -2.549  -4.994  0.00  0.00     0.202 A 
ATOM     22  N   LIG d   1       6.870  -2.563  -5.945  0.00  0.00    -0.186 NA
BRANCH  21  23
ATOM     23  C   LIG d   1       8.528  -3.731  -4.429  0.00  0.00     0.023 A 
ATOM     24  C   LIG d   1       9.120  -3.657  -3.169  0.00  0.00    -0.048 A 
ATOM     25  C   LIG d   1       9.767  -4.757  -2.647  0.00  0.00    -0.019 A 
ATOM     26  H   LIG d   1       9.071  -2.739  -2.602  0.00  0.00     0.063 H 
ATOM     27  C   LIG d   1       9.831  -5.937  -3.376  0.00  0.00     0.130 A 
ATOM     28  H   LIG d   1      10.226  -4.700  -1.671  0.00  0.00     0.065 H 
ATOM     29  C   LIG d   1       9.244  -6.013  -4.632  0.00  0.00    -0.019 A 
ATOM     30  C   LIG d   1       8.589  -4.919  -5.156  0.00  0.00    -0.048 A 
ATOM     31  H   LIG d   1       9.295  -6.933  -5.196  0.00  0.00     0.065 H 
ATOM     32  H   LIG d   1       8.127  -4.981  -6.131  0.00  0.00     0.063 H 
BRANCH  27  33
ATOM     33  O   LIG d   1      10.471  -7.018  -2.860  0.00  0.00    -0.406 OA
BRANCH  33  34
ATOM     34  C   LIG d   1       9.653  -8.064  -2.331  0.00  0.00     0.575 C 
ATOM     35  F   LIG d   1      10.280  -8.627  -1.214  0.00  0.00    -0.133 F 
ATOM     36  F   LIG d   1       8.412  -7.540  -1.955  0.00  0.00    -0.133 F 
ATOM     37  F   LIG d   1       9.467  -9.049  -3.307  0.00  0.00    -0.133 F 
ENDBRANCH  33  34
ENDBRANCH  27  33
ENDBRANCH  21  23
ENDBRANCH   9  18
BRANCH  16  38
ATOM     38  C   LIG d   1       3.982  -1.160  -5.266  0.00  0.00     0.013 C 
ATOM     39  H   LIG d   1       4.620  -2.043  -5.310  0.00  0.00     0.088 H 
ATOM     40  H   LIG d   1       2.940  -1.459  -5.378  0.00  0.00     0.088 H 
BRANCH  38  41
ATOM     41  C   LIG d   1       4.167  -0.473  -3.937  0.00  0.00     0.086 A 
ATOM     42  N   LIG d   1       4.166   0.844  -3.878  0.00  0.00    -0.255 NA
ATOM     43  C   LIG d   1       4.320   1.487  -2.737  0.00  0.00     0.028 A 
ATOM     44  C   LIG d   1       4.498   0.796  -1.554  0.00  0.00    -0.044 A 
ATOM     45  H   LIG d   1       4.309   2.567  -2.728  0.00  0.00     0.083 H 
ATOM     46  C   LIG d   1       4.510  -0.591  -1.577  0.00  0.00    -0.058 A 
ATOM     47  H   LIG d   1       4.628   1.328  -0.624  0.00  0.00     0.063 H 
ATOM     48  C   LIG d   1       4.341  -1.232  -2.795  0.00  0.00    -0.035 A 
ATOM     49  H   LIG d   1       4.647  -1.157  -0.669  0.00  0.00     0.062 H 
ATOM     50  H   LIG d   1       4.345  -2.311  -2.850  0.00  0.00     0.064 H 
ENDBRANCH  38  41
ENDBRANCH  16  38
TORSDOF 6
ENDMDL
MODEL 5
REMARK VINA RESULT:      -7.3      7.904     10.301
REMARK  6 active torsions:
REMARK  status: ('A' for Active; 'I' for Inactive)
REMARK    1  A    between atoms: C_5  and  C_7 
REMARK    2  A    between atoms: C_7  and  N_49 
REMARK    3  A    between atoms: C_16  and  C_18 
REMARK    4  A    between atoms: C_20  and  C_23 
REMARK    5  A    between atoms: C_26  and  O_29 
REMARK    6  A    between atoms: O_29  and  C_30 
ROOT
ATOM      1  C   LIG d   1       6.734  -9.531  -7.255  0.00  0.00     0.012 C 
ATOM      2  C   LIG d   1       6.407  -9.767  -8.709  0.00  0.00     0.084 A 
ATOM      3  C   LIG d   1       5.670  -8.910  -9.452  0.00  0.00     0.073 A 
ATOM      4  N   LIG d   1       5.574  -9.441 -10.699  0.00  0.00    -0.240 NA
ATOM      5  H   LIG d   1       7.302 -11.579  -9.201  0.00  0.00     0.167 HD
ATOM      6  C   LIG d   1       6.259 -10.610 -10.684  0.00  0.00     0.094 A 
ATOM      7  N   LIG d   1       6.753 -10.794  -9.487  0.00  0.00    -0.344 N 
ATOM      8  C   LIG d   1       5.099  -7.623  -8.916  0.00  0.00     0.043 C 
ATOM      9  C   LIG d   1       5.815  -7.304  -7.595  0.00  0.00     0.066 C 
ATOM     10  H   LIG d   1       6.842  -7.003  -7.803  0.00  0.00     0.096 H 
ATOM     11  H   LIG d   1       7.765  -9.190  -7.161  0.00  0.00     0.088 H 
ATOM     12  H   LIG d   1       6.599 -10.455  -6.694  0.00  0.00     0.088 H 
ATOM     13  H   LIG d   1       6.377 -11.279 -11.523  0.00  0.00     0.103 H 
ATOM     14  H   LIG d   1       4.030  -7.740  -8.737  0.00  0.00     0.039 H 
ATOM     15  H   LIG d   1       5.268  -6.818  -9.631  0.00  0.00     0.039 H 
ATOM     16  N   LIG d   1       5.791  -8.510  -6.736  0.00  0.00     0.253 N 
ATOM     17  H   LIG d   1       4.842  -8.901  -6.741  0.00  0.00     0.205 HD
ENDROOT
BRANCH   9  18
ATOM     18  C   LIG d   1       5.095  -6.183  -6.892  0.00  0.00     0.276 A 
ATOM     19  O   LIG d   1       3.798  -6.151  -6.571  0.00  0.00    -0.332 OA
ATOM     20  N   LIG d   1       3.534  -5.108  -6.011  0.00  0.00    -0.056 NA
ATOM     21  C   LIG d   1       4.609  -4.369  -5.910  0.00  0.00     0.202 A 
ATOM     22  N   LIG d   1       5.624  -5.061  -6.474  0.00  0.00    -0.186 NA
BRANCH  21  23
ATOM     23  C   LIG d   1       4.697  -3.024  -5.288  0.00  0.00     0.023 A 
ATOM     24  C   LIG d   1       5.081  -2.895  -3.954  0.00  0.00    -0.048 A 
ATOM     25  C   LIG d   1       5.163  -1.645  -3.379  0.00  0.00    -0.019 A 
ATOM     26  H   LIG d   1       5.314  -3.775  -3.371  0.00  0.00     0.063 H 
ATOM     27  C   LIG d   1       4.862  -0.514  -4.128  0.00  0.00     0.130 A 
ATOM     28  H   LIG d   1       5.460  -1.544  -2.346  0.00  0.00     0.065 H 
ATOM     29  C   LIG d   1       4.479  -0.640  -5.456  0.00  0.00    -0.019 A 
ATOM     30  C   LIG d   1       4.402  -1.887  -6.038  0.00  0.00    -0.048 A 
ATOM     31  H   LIG d   1       4.246   0.241  -6.036  0.00  0.00     0.065 H 
ATOM     32  H   LIG d   1       4.109  -1.984  -7.074  0.00  0.00     0.063 H 
BRANCH  27  33
ATOM     33  O   LIG d   1       4.942   0.717  -3.558  0.00  0.00    -0.406 OA
BRANCH  33  34
ATOM     34  C   LIG d   1       3.842   1.128  -2.746  0.00  0.00     0.575 C 
ATOM     35  F   LIG d   1       2.788   0.219  -2.893  0.00  0.00    -0.133 F 
ATOM     36  F   LIG d   1       4.240   1.168  -1.406  0.00  0.00    -0.133 F 
ATOM     37  F   LIG d   1       3.418   2.400  -3.145  0.00  0.00    -0.133 F 
ENDBRANCH  33  34
ENDBRANCH  27  33
ENDBRANCH  21  23
ENDBRANCH   9  18
BRANCH  16  38
ATOM     38  C   LIG d   1       6.154  -8.148  -5.351  0.00  0.00     0.013 C 
ATOM     39  H   LIG d   1       5.784  -7.145  -5.138  0.00  0.00     0.088 H 
ATOM     40  H   LIG d   1       7.235  -8.173  -5.217  0.00  0.00     0.088 H 
BRANCH  38  41
ATOM     41  C   LIG d   1       5.508  -9.131  -4.408  0.00  0.00     0.086 A 
ATOM     42  N   LIG d   1       4.202  -9.308  -4.445  0.00  0.00    -0.255 NA
ATOM     43  C   LIG d   1       3.595 -10.161  -3.643  0.00  0.00     0.028 A 
ATOM     44  C   LIG d   1       4.313 -10.898  -2.721  0.00  0.00    -0.044 A 
ATOM     45  H   LIG d   1       2.524 -10.282  -3.705  0.00  0.00     0.083 H 
ATOM     46  C   LIG d   1       5.689 -10.735  -2.649  0.00  0.00    -0.058 A 
ATOM     47  H   LIG d   1       3.810 -11.592  -2.064  0.00  0.00     0.063 H 
ATOM     48  C   LIG d   1       6.292  -9.833  -3.512  0.00  0.00    -0.035 A 
ATOM     49  H   LIG d   1       6.276 -11.297  -1.939  0.00  0.00     0.062 H 
ATOM     50  H   LIG d   1       7.361  -9.680  -3.483  0.00  0.00     0.064 H 
ENDBRANCH  38  41
ENDBRANCH  16  38
TORSDOF 6
ENDMDL
MODEL 6
REMARK VINA RESULT:      -7.1      4.561      8.421
REMARK  6 active torsions:
REMARK  status: ('A' for Active; 'I' for Inactive)
REMARK    1  A    between atoms: C_5  and  C_7 
REMARK    2  A    between atoms: C_7  and  N_49 
REMARK    3  A    between atoms: C_16  and  C_18 
REMARK    4  A    between atoms: C_20  and  C_23 
REMARK    5  A    between atoms: C_26  and  O_29 
REMARK    6  A    between atoms: O_29  and  C_30 
ROOT
ATOM      1  C   LIG d   1      10.414   7.630  -4.422  0.00  0.00     0.012 C 
ATOM      2  C   LIG d   1      11.283   7.676  -5.654  0.00  0.00     0.084 A 
ATOM      3  C   LIG d   1      11.583   6.583  -6.392  0.00  0.00     0.073 A 
ATOM      4  N   LIG d   1      12.383   6.994  -7.411  0.00  0.00    -0.240 NA
ATOM      5  H   LIG d   1      11.838   9.668  -5.878  0.00  0.00     0.167 HD
ATOM      6  C   LIG d   1      12.549   8.330  -7.268  0.00  0.00     0.094 A 
ATOM      7  N   LIG d   1      11.886   8.727  -6.213  0.00  0.00    -0.344 N 
ATOM      8  C   LIG d   1      11.078   5.200  -6.072  0.00  0.00     0.043 C 
ATOM      9  C   LIG d   1       9.917   5.341  -5.077  0.00  0.00     0.066 C 
ATOM     10  H   LIG d   1       9.052   5.763  -5.587  0.00  0.00     0.096 H 
ATOM     11  H   LIG d   1       9.421   8.010  -4.659  0.00  0.00     0.088 H 
ATOM     12  H   LIG d   1      10.862   8.236  -3.634  0.00  0.00     0.088 H 
ATOM     13  H   LIG d   1      13.132   8.964  -7.919  0.00  0.00     0.103 H 
ATOM     14  H   LIG d   1      11.878   4.610  -5.624  0.00  0.00     0.039 H 
ATOM     15  H   LIG d   1      10.727   4.716  -6.983  0.00  0.00     0.039 H 
ATOM     16  N   LIG d   1      10.346   6.220  -3.965  0.00  0.00     0.253 N 
ATOM     17  H   LIG d   1      11.278   5.927  -3.651  0.00  0.00     0.205 HD
ENDROOT
BRANCH   9  18
ATOM     18  C   LIG d   1       9.563   3.984  -4.524  0.00  0.00     0.276 A 
ATOM     19  O   LIG d   1      10.357   3.191  -3.800  0.00  0.00    -0.332 OA
ATOM     20  N   LIG d   1       9.771   2.169  -3.510  0.00  0.00    -0.056 NA
ATOM     21  C   LIG d   1       8.560   2.191  -4.003  0.00  0.00     0.202 A 
ATOM     22  N   LIG d   1       8.416   3.366  -4.657  0.00  0.00    -0.186 NA
BRANCH  21  23
ATOM     23  C   LIG d   1       7.534   1.128  -3.867  0.00  0.00     0.023 A 
ATOM     24  C   LIG d   1       7.848  -0.191  -4.190  0.00  0.00    -0.048 A 
ATOM     25  C   LIG d   1       6.892  -1.177  -4.061  0.00  0.00    -0.019 A 
ATOM     26  H   LIG d   1       8.839  -0.441  -4.539  0.00  0.00     0.063 H 
ATOM     27  C   LIG d   1       5.618  -0.856  -3.612  0.00  0.00     0.130 A 
ATOM     28  H   LIG d   1       7.135  -2.199  -4.311  0.00  0.00     0.065 H 
ATOM     29  C   LIG d   1       5.302   0.457  -3.290  0.00  0.00    -0.019 A 
ATOM     30  C   LIG d   1       6.255   1.445  -3.410  0.00  0.00    -0.048 A 
ATOM     31  H   LIG d   1       4.310   0.703  -2.940  0.00  0.00     0.065 H 
ATOM     32  H   LIG d   1       6.011   2.466  -3.154  0.00  0.00     0.063 H 
BRANCH  27  33
ATOM     33  O   LIG d   1       4.679  -1.830  -3.487  0.00  0.00    -0.406 OA
BRANCH  33  34
ATOM     34  C   LIG d   1       3.859  -1.794  -2.318  0.00  0.00     0.575 C 
ATOM     35  F   LIG d   1       2.713  -1.032  -2.574  0.00  0.00    -0.133 F 
ATOM     36  F   LIG d   1       3.485  -3.096  -1.971  0.00  0.00    -0.133 F 
ATOM     37  F   LIG d   1       4.575  -1.218  -1.264  0.00  0.00    -0.133 F 
ENDBRANCH  33  34
ENDBRANCH  27  33
ENDBRANCH  21  23
ENDBRANCH   9  18
BRANCH  16  38
ATOM     38  C   LIG d   1       9.399   6.102  -2.837  0.00  0.00     0.013 C 
ATOM     39  H   LIG d   1       8.917   5.125  -2.879  0.00  0.00     0.088 H 
ATOM     40  H   LIG d   1       8.641   6.883  -2.887  0.00  0.00     0.088 H 
BRANCH  38  41
ATOM     41  C   LIG d   1      10.167   6.229  -1.546  0.00  0.00     0.086 A 
ATOM     42  N   LIG d   1       9.941   7.256  -0.752  0.00  0.00    -0.255 NA
ATOM     43  C   LIG d   1      10.586   7.406   0.389  0.00  0.00     0.028 A 
ATOM     44  C   LIG d   1      11.536   6.486   0.790  0.00  0.00    -0.044 A 
ATOM     45  H   LIG d   1      10.371   8.259   1.015  0.00  0.00     0.083 H 
ATOM     46  C   LIG d   1      11.805   5.395  -0.022  0.00  0.00    -0.058 A 
ATOM     47  H   LIG d   1      12.064   6.616   1.723  0.00  0.00     0.063 H 
ATOM     48  C   LIG d   1      11.103   5.268  -1.212  0.00  0.00    -0.035 A 
ATOM     49  H   LIG d   1      12.541   4.659   0.265  0.00  0.00     0.062 H 
ATOM     50  H   LIG d   1      11.287   4.431  -1.868  0.00  0.00     0.064 H 
ENDBRANCH  38  41
ENDBRANCH  16  38
TORSDOF 6
ENDMDL
MODEL 7
REMARK VINA RESULT:      -7.0      7.803     10.961
REMARK  6 active torsions:
REMARK  status: ('A' for Active; 'I' for Inactive)
REMARK    1  A    between atoms: C_5  and  C_7 
REMARK    2  A    between atoms: C_7  and  N_49 
REMARK    3  A    between atoms: C_16  and  C_18 
REMARK    4  A    between atoms: C_20  and  C_23 
REMARK    5  A    between atoms: C_26  and  O_29 
REMARK    6  A    between atoms: O_29  and  C_30 
ROOT
ATOM      1  C   LIG d   1       3.060   0.399  -7.071  0.00  0.00     0.012 C 
ATOM      2  C   LIG d   1       3.501   0.898  -8.425  0.00  0.00     0.084 A 
ATOM      3  C   LIG d   1       4.460   0.294  -9.163  0.00  0.00     0.073 A 
ATOM      4  N   LIG d   1       4.598   1.013 -10.307  0.00  0.00    -0.240 NA
ATOM      5  H   LIG d   1       2.352   2.590  -8.801  0.00  0.00     0.167 HD
ATOM      6  C   LIG d   1       3.715   2.037 -10.238  0.00  0.00     0.094 A 
ATOM      7  N   LIG d   1       3.064   1.958  -9.107  0.00  0.00    -0.344 N 
ATOM      8  C   LIG d   1       5.192  -0.946  -8.720  0.00  0.00     0.043 C 
ATOM      9  C   LIG d   1       4.402  -1.571  -7.561  0.00  0.00     0.066 C 
ATOM     10  H   LIG d   1       3.478  -2.003  -7.944  0.00  0.00     0.096 H 
ATOM     11  H   LIG d   1       2.105  -0.118  -7.163  0.00  0.00     0.088 H 
ATOM     12  H   LIG d   1       2.961   1.238  -6.384  0.00  0.00     0.088 H 
ATOM     13  H   LIG d   1       3.572   2.795 -10.994  0.00  0.00     0.103 H 
ATOM     14  H   LIG d   1       6.195  -0.683  -8.383  0.00  0.00     0.039 H 
ATOM     15  H   LIG d   1       5.254  -1.653  -9.548  0.00  0.00     0.039 H 
ATOM     16  N   LIG d   1       4.109  -0.519  -6.561  0.00  0.00     0.253 N 
ATOM     17  H   LIG d   1       4.966   0.020  -6.386  0.00  0.00     0.205 HD
ENDROOT
BRANCH   9  18
ATOM     18  C   LIG d   1       5.230  -2.650  -6.913  0.00  0.00     0.276 A 
ATOM     19  O   LIG d   1       6.458  -2.510  -6.404  0.00  0.00    -0.332 OA
ATOM     20  N   LIG d   1       6.845  -3.569  -5.956  0.00  0.00    -0.056 NA
ATOM     21  C   LIG d   1       5.929  -4.488  -6.122  0.00  0.00     0.202 A 
ATOM     22  N   LIG d   1       4.879  -3.899  -6.736  0.00  0.00    -0.186 NA
BRANCH  21  23
ATOM     23  C   LIG d   1       6.024  -5.910  -5.708  0.00  0.00     0.023 A 
ATOM     24  C   LIG d   1       4.876  -6.698  -5.647  0.00  0.00    -0.048 A 
ATOM     25  C   LIG d   1       4.968  -8.019  -5.263  0.00  0.00    -0.019 A 
ATOM     26  H   LIG d   1       3.915  -6.274  -5.901  0.00  0.00     0.063 H 
ATOM     27  C   LIG d   1       6.202  -8.564  -4.936  0.00  0.00     0.130 A 
ATOM     28  H   LIG d   1       4.078  -8.630  -5.215  0.00  0.00     0.065 H 
ATOM     29  C   LIG d   1       7.347  -7.782  -4.995  0.00  0.00    -0.019 A 
ATOM     30  C   LIG d   1       7.263  -6.462  -5.385  0.00  0.00    -0.048 A 
ATOM     31  H   LIG d   1       8.307  -8.209  -4.741  0.00  0.00     0.065 H 
ATOM     32  H   LIG d   1       8.155  -5.855  -5.436  0.00  0.00     0.063 H 
BRANCH  27  33
ATOM     33  O   LIG d   1       6.289  -9.866  -4.557  0.00  0.00    -0.406 OA
BRANCH  33  34
ATOM     34  C   LIG d   1       6.012 -10.162  -3.187  0.00  0.00     0.575 C 
ATOM     35  F   LIG d   1       6.265 -11.516  -2.942  0.00  0.00    -0.133 F 
ATOM     36  F   LIG d   1       6.830  -9.378  -2.366  0.00  0.00    -0.133 F 
ATOM     37  F   LIG d   1       4.670  -9.881  -2.911  0.00  0.00    -0.133 F 
ENDBRANCH  33  34
ENDBRANCH  27  33
ENDBRANCH  21  23
ENDBRANCH   9  18
BRANCH  16  38
ATOM     38  C   LIG d   1       3.665  -1.138  -5.295  0.00  0.00     0.013 C 
ATOM     39  H   LIG d   1       4.098  -2.135  -5.216  0.00  0.00     0.088 H 
ATOM     40  H   LIG d   1       2.577  -1.211  -5.264  0.00  0.00     0.088 H 
BRANCH  38  41
ATOM     41  C   LIG d   1       4.145  -0.288  -4.147  0.00  0.00     0.086 A 
ATOM     42  N   LIG d   1       5.378   0.178  -4.152  0.00  0.00    -0.255 NA
ATOM     43  C   LIG d   1       5.840   0.928  -3.170  0.00  0.00     0.028 A 
ATOM     44  C   LIG d   1       5.042   1.247  -2.088  0.00  0.00    -0.044 A 
ATOM     45  H   LIG d   1       6.854   1.295  -3.211  0.00  0.00     0.083 H 
ATOM     46  C   LIG d   1       3.740   0.770  -2.045  0.00  0.00    -0.058 A 
ATOM     47  H   LIG d   1       5.427   1.858  -1.286  0.00  0.00     0.063 H 
ATOM     48  C   LIG d   1       3.288  -0.012  -3.097  0.00  0.00    -0.035 A 
ATOM     49  H   LIG d   1       3.093   1.003  -1.213  0.00  0.00     0.062 H 
ATOM     50  H   LIG d   1       2.281  -0.400  -3.097  0.00  0.00     0.064 H 
ENDBRANCH  38  41
ENDBRANCH  16  38
TORSDOF 6
ENDMDL
MODEL 8
REMARK VINA RESULT:      -6.8      2.550      3.829
REMARK  6 active torsions:
REMARK  status: ('A' for Active; 'I' for Inactive)
REMARK    1  A    between atoms: C_5  and  C_7 
REMARK    2  A    between atoms: C_7  and  N_49 
REMARK    3  A    between atoms: C_16  and  C_18 
REMARK    4  A    between atoms: C_20  and  C_23 
REMARK    5  A    between atoms: C_26  and  O_29 
REMARK    6  A    between atoms: O_29  and  C_30 
ROOT
ATOM      1  C   LIG d   1       4.003  -1.849  -7.440  0.00  0.00     0.012 C 
ATOM      2  C   LIG d   1       3.300  -1.042  -8.503  0.00  0.00     0.084 A 
ATOM      3  C   LIG d   1       3.826   0.074  -9.057  0.00  0.00     0.073 A 
ATOM      4  N   LIG d   1       2.924   0.537  -9.961  0.00  0.00    -0.240 NA
ATOM      5  H   LIG d   1       1.491  -2.011  -8.841  0.00  0.00     0.167 HD
ATOM      6  C   LIG d   1       1.869  -0.313  -9.937  0.00  0.00     0.094 A 
ATOM      7  N   LIG d   1       2.106  -1.253  -9.060  0.00  0.00    -0.344 N 
ATOM      8  C   LIG d   1       5.174   0.633  -8.681  0.00  0.00     0.043 C 
ATOM      9  C   LIG d   1       5.941  -0.459  -7.921  0.00  0.00     0.066 C 
ATOM     10  H   LIG d   1       6.231  -1.248  -8.614  0.00  0.00     0.096 H 
ATOM     11  H   LIG d   1       4.426  -2.750  -7.884  0.00  0.00     0.088 H 
ATOM     12  H   LIG d   1       3.296  -2.121  -6.657  0.00  0.00     0.088 H 
ATOM     13  H   LIG d   1       0.979  -0.227 -10.542  0.00  0.00     0.103 H 
ATOM     14  H   LIG d   1       5.046   1.507  -8.042  0.00  0.00     0.039 H 
ATOM     15  H   LIG d   1       5.722   0.910  -9.582  0.00  0.00     0.039 H 
ATOM     16  N   LIG d   1       5.068  -1.000  -6.853  0.00  0.00     0.253 N 
ATOM     17  H   LIG d   1       4.631  -0.216  -6.354  0.00  0.00     0.205 HD
ENDROOT
BRANCH   9  18
ATOM     18  C   LIG d   1       7.174   0.138  -7.294  0.00  0.00     0.276 A 
ATOM     19  O   LIG d   1       8.416  -0.348  -7.368  0.00  0.00    -0.332 OA
ATOM     20  N   LIG d   1       9.181   0.369  -6.756  0.00  0.00    -0.056 NA
ATOM     21  C   LIG d   1       8.529   1.375  -6.232  0.00  0.00     0.202 A 
ATOM     22  N   LIG d   1       7.230   1.234  -6.580  0.00  0.00    -0.186 NA
BRANCH  21  23
ATOM     23  C   LIG d   1       9.108   2.467  -5.412  0.00  0.00     0.023 A 
ATOM     24  C   LIG d   1       8.950   2.461  -4.027  0.00  0.00    -0.048 A 
ATOM     25  C   LIG d   1       9.490   3.477  -3.268  0.00  0.00    -0.019 A 
ATOM     26  H   LIG d   1       8.406   1.659  -3.549  0.00  0.00     0.063 H 
ATOM     27  C   LIG d   1      10.190   4.507  -3.882  0.00  0.00     0.130 A 
ATOM     28  H   LIG d   1       9.368   3.472  -2.195  0.00  0.00     0.065 H 
ATOM     29  C   LIG d   1      10.348   4.517  -5.261  0.00  0.00    -0.019 A 
ATOM     30  C   LIG d   1       9.817   3.500  -6.025  0.00  0.00    -0.048 A 
ATOM     31  H   LIG d   1      10.893   5.320  -5.736  0.00  0.00     0.065 H 
ATOM     32  H   LIG d   1       9.945   3.505  -7.097  0.00  0.00     0.063 H 
BRANCH  27  33
ATOM     33  O   LIG d   1      10.720   5.508  -3.131  0.00  0.00    -0.406 OA
BRANCH  33  34
ATOM     34  C   LIG d   1       9.893   6.649  -2.895  0.00  0.00     0.575 C 
ATOM     35  F   LIG d   1       9.433   6.626  -1.574  0.00  0.00    -0.133 F 
ATOM     36  F   LIG d   1      10.635   7.815  -3.111  0.00  0.00    -0.133 F 
ATOM     37  F   LIG d   1       8.801   6.623  -3.769  0.00  0.00    -0.133 F 
ENDBRANCH  33  34
ENDBRANCH  27  33
ENDBRANCH  21  23
ENDBRANCH   9  18
BRANCH  16  38
ATOM     38  C   LIG d   1       5.872  -1.789  -5.898  0.00  0.00     0.013 C 
ATOM     39  H   LIG d   1       6.906  -1.446  -5.936  0.00  0.00     0.088 H 
ATOM     40  H   LIG d   1       5.832  -2.850  -6.145  0.00  0.00     0.088 H 
BRANCH  38  41
ATOM     41  C   LIG d   1       5.323  -1.575  -4.511  0.00  0.00     0.086 A 
ATOM     42  N   LIG d   1       4.520  -2.477  -3.982  0.00  0.00    -0.255 NA
ATOM     43  C   LIG d   1       4.019  -2.334  -2.770  0.00  0.00     0.028 A 
ATOM     44  C   LIG d   1       4.315  -1.219  -2.010  0.00  0.00    -0.044 A 
ATOM     45  H   LIG d   1       3.368  -3.096  -2.369  0.00  0.00     0.083 H 
ATOM     46  C   LIG d   1       5.152  -0.246  -2.535  0.00  0.00    -0.058 A 
ATOM     47  H   LIG d   1       3.899  -1.105  -1.020  0.00  0.00     0.063 H 
ATOM     48  C   LIG d   1       5.664  -0.433  -3.810  0.00  0.00    -0.035 A 
ATOM     49  H   LIG d   1       5.402   0.636  -1.964  0.00  0.00     0.062 H 
ATOM     50  H   LIG d   1       6.319   0.304  -4.250  0.00  0.00     0.064 H 
ENDBRANCH  38  41
ENDBRANCH  16  38
TORSDOF 6
ENDMDL
MODEL 9
REMARK VINA RESULT:      -6.8      6.701      9.523
REMARK  6 active torsions:
REMARK  status: ('A' for Active; 'I' for Inactive)
REMARK    1  A    between atoms: C_5  and  C_7 
REMARK    2  A    between atoms: C_7  and  N_49 
REMARK    3  A    between atoms: C_16  and  C_18 
REMARK    4  A    between atoms: C_20  and  C_23 
REMARK    5  A    between atoms: C_26  and  O_29 
REMARK    6  A    between atoms: O_29  and  C_30 
ROOT
ATOM      1  C   LIG d   1       3.612  -5.805 -11.770  0.00  0.00     0.012 C 
ATOM      2  C   LIG d   1       5.011  -6.205 -12.171  0.00  0.00     0.084 A 
ATOM      3  C   LIG d   1       6.049  -6.242 -11.305  0.00  0.00     0.073 A 
ATOM      4  N   LIG d   1       7.143  -6.635 -12.008  0.00  0.00    -0.240 NA
ATOM      5  H   LIG d   1       4.912  -6.632 -14.204  0.00  0.00     0.167 HD
ATOM      6  C   LIG d   1       6.742  -6.829 -13.287  0.00  0.00     0.094 A 
ATOM      7  N   LIG d   1       5.463  -6.568 -13.372  0.00  0.00    -0.344 N 
ATOM      8  C   LIG d   1       5.926  -5.896  -9.844  0.00  0.00     0.043 C 
ATOM      9  C   LIG d   1       4.434  -5.904  -9.482  0.00  0.00     0.066 C 
ATOM     10  H   LIG d   1       4.066  -6.929  -9.482  0.00  0.00     0.096 H 
ATOM     11  H   LIG d   1       2.988  -6.694 -11.680  0.00  0.00     0.088 H 
ATOM     12  H   LIG d   1       3.192  -5.134 -12.519  0.00  0.00     0.088 H 
ATOM     13  H   LIG d   1       7.375  -7.147 -14.102  0.00  0.00     0.103 H 
ATOM     14  H   LIG d   1       6.344  -4.905  -9.663  0.00  0.00     0.039 H 
ATOM     15  H   LIG d   1       6.455  -6.636  -9.244  0.00  0.00     0.039 H 
ATOM     16  N   LIG d   1       3.698  -5.087 -10.474  0.00  0.00     0.253 N 
ATOM     17  H   LIG d   1       4.202  -4.204 -10.616  0.00  0.00     0.205 HD
ENDROOT
BRANCH   9  18
ATOM     18  C   LIG d   1       4.246  -5.302  -8.113  0.00  0.00     0.276 A 
ATOM     19  O   LIG d   1       3.562  -5.838  -7.098  0.00  0.00    -0.332 OA
ATOM     20  N   LIG d   1       3.605  -5.103  -6.134  0.00  0.00    -0.056 NA
ATOM     21  C   LIG d   1       4.307  -4.035  -6.415  0.00  0.00     0.202 A 
ATOM     22  N   LIG d   1       4.730  -4.160  -7.693  0.00  0.00    -0.186 NA
BRANCH  21  23
ATOM     23  C   LIG d   1       4.590  -2.902  -5.500  0.00  0.00     0.023 A 
ATOM     24  C   LIG d   1       4.574  -1.594  -5.982  0.00  0.00    -0.048 A 
ATOM     25  C   LIG d   1       4.837  -0.543  -5.129  0.00  0.00    -0.019 A 
ATOM     26  H   LIG d   1       4.355  -1.404  -7.022  0.00  0.00     0.063 H 
ATOM     27  C   LIG d   1       5.119  -0.787  -3.791  0.00  0.00     0.130 A 
ATOM     28  H   LIG d   1       4.825   0.470  -5.502  0.00  0.00     0.065 H 
ATOM     29  C   LIG d   1       5.137  -2.089  -3.309  0.00  0.00    -0.019 A 
ATOM     30  C   LIG d   1       4.867  -3.143  -4.155  0.00  0.00    -0.048 A 
ATOM     31  H   LIG d   1       5.356  -2.275  -2.267  0.00  0.00     0.065 H 
ATOM     32  H   LIG d   1       4.876  -4.155  -3.778  0.00  0.00     0.063 H 
BRANCH  27  33
ATOM     33  O   LIG d   1       5.379   0.250  -2.953  0.00  0.00    -0.406 OA
BRANCH  33  34
ATOM     34  C   LIG d   1       4.259   0.860  -2.310  0.00  0.00     0.575 C 
ATOM     35  F   LIG d   1       3.179  -0.030  -2.311  0.00  0.00    -0.133 F 
ATOM     36  F   LIG d   1       4.597   1.181  -0.991  0.00  0.00    -0.133 F 
ATOM     37  F   LIG d   1       3.903   2.025  -2.997  0.00  0.00    -0.133 F 
ENDBRANCH  33  34
ENDBRANCH  27  33
ENDBRANCH  21  23
ENDBRANCH   9  18
BRANCH  16  38
ATOM     38  C   LIG d   1       2.340  -4.789  -9.973  0.00  0.00     0.013 C 
ATOM     39  H   LIG d   1       2.337  -4.872  -8.886  0.00  0.00     0.088 H 
ATOM     40  H   LIG d   1       1.614  -5.486 -10.392  0.00  0.00     0.088 H 
BRANCH  38  41
ATOM     41  C   LIG d   1       1.975  -3.382 -10.371  0.00  0.00     0.086 A 
ATOM     42  N   LIG d   1       1.269  -3.177 -11.465  0.00  0.00    -0.255 NA
ATOM     43  C   LIG d   1       0.923  -1.964 -11.849  0.00  0.00     0.028 A 
ATOM     44  C   LIG d   1       1.301  -0.855 -11.117  0.00  0.00    -0.044 A 
ATOM     45  H   LIG d   1       0.340  -1.835 -12.749  0.00  0.00     0.083 H 
ATOM     46  C   LIG d   1       2.050  -1.031  -9.963  0.00  0.00    -0.058 A 
ATOM     47  H   LIG d   1       1.018   0.136 -11.439  0.00  0.00     0.063 H 
ATOM     48  C   LIG d   1       2.390  -2.322  -9.587  0.00  0.00    -0.035 A 
ATOM     49  H   LIG d   1       2.359  -0.184  -9.370  0.00  0.00     0.062 H 
ATOM     50  H   LIG d   1       2.973  -2.496  -8.695  0.00  0.00     0.064 H 
ENDBRANCH  38  41
ENDBRANCH  16  38
TORSDOF 6
ENDMDL
MODEL 10
REMARK VINA RESULT:      -6.8      4.476      8.779
REMARK  6 active torsions:
REMARK  status: ('A' for Active; 'I' for Inactive)
REMARK    1  A    between atoms: C_5  and  C_7 
REMARK    2  A    between atoms: C_7  and  N_49 
REMARK    3  A    between atoms: C_16  and  C_18 
REMARK    4  A    between atoms: C_20  and  C_23 
REMARK    5  A    between atoms: C_26  and  O_29 
REMARK    6  A    between atoms: O_29  and  C_30 
ROOT
ATOM      1  C   LIG d   1      11.562   6.919  -4.267  0.00  0.00     0.012 C 
ATOM      2  C   LIG d   1      11.022   7.610  -3.039  0.00  0.00     0.084 A 
ATOM      3  C   LIG d   1      10.230   6.997  -2.130  0.00  0.00     0.073 A 
ATOM      4  N   LIG d   1       9.934   7.915  -1.173  0.00  0.00    -0.240 NA
ATOM      5  H   LIG d   1      11.750   9.556  -3.124  0.00  0.00     0.167 HD
ATOM      6  C   LIG d   1      10.556   9.066  -1.524  0.00  0.00     0.094 A 
ATOM      7  N   LIG d   1      11.205   8.871  -2.643  0.00  0.00    -0.344 N 
ATOM      8  C   LIG d   1       9.804   5.556  -2.237  0.00  0.00     0.043 C 
ATOM      9  C   LIG d   1      10.714   4.870  -3.266  0.00  0.00     0.066 C 
ATOM     10  H   LIG d   1      11.714   4.758  -2.848  0.00  0.00     0.096 H 
ATOM     11  H   LIG d   1      12.611   6.666  -4.114  0.00  0.00     0.088 H 
ATOM     12  H   LIG d   1      11.463   7.574  -5.131  0.00  0.00     0.088 H 
ATOM     13  H   LIG d   1      10.522   9.992  -0.970  0.00  0.00     0.103 H 
ATOM     14  H   LIG d   1       8.766   5.502  -2.567  0.00  0.00     0.039 H 
ATOM     15  H   LIG d   1       9.909   5.068  -1.267  0.00  0.00     0.039 H 
ATOM     16  N   LIG d   1      10.752   5.696  -4.494  0.00  0.00     0.253 N 
ATOM     17  H   LIG d   1       9.794   5.973  -4.738  0.00  0.00     0.205 HD
ENDROOT
BRANCH   9  18
ATOM     18  C   LIG d   1      10.155   3.512  -3.603  0.00  0.00     0.276 A 
ATOM     19  O   LIG d   1      10.805   2.514  -4.208  0.00  0.00    -0.332 OA
ATOM     20  N   LIG d   1      10.073   1.554  -4.331  0.00  0.00    -0.056 NA
ATOM     21  C   LIG d   1       8.895   1.822  -3.830  0.00  0.00     0.202 A 
ATOM     22  N   LIG d   1       8.942   3.086  -3.352  0.00  0.00    -0.186 NA
BRANCH  21  23
ATOM     23  C   LIG d   1       7.727   0.908  -3.788  0.00  0.00     0.023 A 
ATOM     24  C   LIG d   1       7.892  -0.449  -4.065  0.00  0.00    -0.048 A 
ATOM     25  C   LIG d   1       6.805  -1.296  -4.025  0.00  0.00    -0.019 A 
ATOM     26  H   LIG d   1       8.871  -0.836  -4.310  0.00  0.00     0.063 H 
ATOM     27  C   LIG d   1       5.547  -0.800  -3.711  0.00  0.00     0.130 A 
ATOM     28  H   LIG d   1       6.933  -2.347  -4.240  0.00  0.00     0.065 H 
ATOM     29  C   LIG d   1       5.380   0.551  -3.437  0.00  0.00    -0.019 A 
ATOM     30  C   LIG d   1       6.464   1.402  -3.467  0.00  0.00    -0.048 A 
ATOM     31  H   LIG d   1       4.400   0.934  -3.192  0.00  0.00     0.065 H 
ATOM     32  H   LIG d   1       6.334   2.452  -3.248  0.00  0.00     0.063 H 
BRANCH  27  33
ATOM     33  O   LIG d   1       4.478  -1.637  -3.674  0.00  0.00    -0.406 OA
BRANCH  33  34
ATOM     34  C   LIG d   1       3.750  -1.705  -2.447  0.00  0.00     0.575 C 
ATOM     35  F   LIG d   1       2.521  -1.052  -2.597  0.00  0.00    -0.133 F 
ATOM     36  F   LIG d   1       3.529  -3.044  -2.110  0.00  0.00    -0.133 F 
ATOM     37  F   LIG d   1       4.487  -1.084  -1.433  0.00  0.00    -0.133 F 
ENDBRANCH  33  34
ENDBRANCH  27  33
ENDBRANCH  21  23
ENDBRANCH   9  18
BRANCH  16  38
ATOM     38  C   LIG d   1      11.324   4.914  -5.609  0.00  0.00     0.013 C 
ATOM     39  H   LIG d   1      11.321   3.857  -5.340  0.00  0.00     0.088 H 
ATOM     40  H   LIG d   1      12.346   5.231  -5.818  0.00  0.00     0.088 H 
BRANCH  38  41
ATOM     41  C   LIG d   1      10.472   5.122  -6.834  0.00  0.00     0.086 A 
ATOM     42  N   LIG d   1       9.954   4.080  -7.453  0.00  0.00    -0.255 NA
ATOM     43  C   LIG d   1       9.199   4.215  -8.526  0.00  0.00     0.028 A 
ATOM     44  C   LIG d   1       8.929   5.466  -9.048  0.00  0.00    -0.044 A 
ATOM     45  H   LIG d   1       8.789   3.338  -9.004  0.00  0.00     0.083 H 
ATOM     46  C   LIG d   1       9.461   6.586  -8.427  0.00  0.00    -0.058 A 
ATOM     47  H   LIG d   1       8.313   5.570  -9.929  0.00  0.00     0.063 H 
ATOM     48  C   LIG d   1      10.246   6.405  -7.298  0.00  0.00    -0.035 A 
ATOM     49  H   LIG d   1       9.267   7.576  -8.811  0.00  0.00     0.062 H 
ATOM     50  H   LIG d   1      10.676   7.254  -6.789  0.00  0.00     0.064 H 
ENDBRANCH  38  41
ENDBRANCH  16  38
TORSDOF 6
ENDMDL
