MODEL 1
REMARK VINA RESULT:      -6.4      0.000      0.000
REMARK  13 active torsions:
REMARK  status: ('A' for Active; 'I' for Inactive)
REMARK    1  A    between atoms: C_1  and  C_2 
REMARK    2  A    between atoms: C_3  and  C_4 
REMARK    3  A    between atoms: C_7  and  O_12 
REMARK    4  A    between atoms: C_8  and  O_10 
REMARK    5  A    between atoms: O_10  and  C_11 
REMARK    6  A    between atoms: O_12  and  C_13 
REMARK    7  A    between atoms: C_13  and  C_15 
REMARK    8  A    between atoms: C_13  and  C_16 
REMARK    9  A    between atoms: C_16  and  C_18 
REMARK   10  A    between atoms: C_16  and  O_27 
REMARK   11  A    between atoms: C_21  and  O_26 
REMARK   12  A    between atoms: C_22  and  O_24 
REMARK   13  A    between atoms: O_24  and  C_25 
ROOT
ATOM      1  C   LIG d   1       5.729  -2.718  -6.038  0.00  0.00     0.127 C 
ATOM      2  H   LIG d   1       5.222  -3.439  -6.680  0.00  0.00     0.076 H 
ENDROOT
BRANCH   1   3
ATOM      3  O   LIG d   1       5.118  -1.435  -6.189  0.00  0.00    -0.482 OA
BRANCH   3   4
ATOM      4  C   LIG d   1       4.208  -1.298  -7.191  0.00  0.00     0.163 A 
ATOM      5  C   LIG d   1       4.161  -2.232  -8.213  0.00  0.00    -0.016 A 
ATOM      6  C   LIG d   1       3.236  -2.100  -9.230  0.00  0.00    -0.051 A 
ATOM      7  H   LIG d   1       4.845  -3.068  -8.213  0.00  0.00     0.066 H 
ATOM      8  C   LIG d   1       2.351  -1.022  -9.231  0.00  0.00    -0.022 A 
ATOM      9  H   LIG d   1       3.197  -2.833 -10.022  0.00  0.00     0.062 H 
ATOM     10  C   LIG d   1       2.403  -0.078  -8.204  0.00  0.00    -0.009 A 
ATOM     11  C   LIG d   1       3.333  -0.215  -7.190  0.00  0.00     0.162 A 
ATOM     12  H   LIG d   1       1.720   0.759  -8.203  0.00  0.00     0.066 H 
BRANCH   8  13
ATOM     13  C   LIG d   1       1.359  -0.880 -10.318  0.00  0.00    -0.059 C 
ATOM     14  C   LIG d   1       1.337  -1.755 -11.314  0.00  0.00    -0.086 C 
ATOM     15  H   LIG d   1       2.044  -2.572 -11.331  0.00  0.00     0.057 H 
ATOM     16  H   LIG d   1       0.653  -0.063 -10.301  0.00  0.00     0.062 H 
BRANCH  14  17
ATOM     17  C   LIG d   1       0.327  -1.610 -12.422  0.00  0.00    -0.046 C 
ATOM     18  H   LIG d   1       0.788  -1.106 -13.271  0.00  0.00     0.027 H 
ATOM     19  H   LIG d   1      -0.020  -2.597 -12.730  0.00  0.00     0.027 H 
ATOM     20  H   LIG d   1      -0.520  -1.023 -12.067  0.00  0.00     0.027 H 
ENDBRANCH  14  17
ENDBRANCH   8  13
BRANCH  11  21
ATOM     21  O   LIG d   1       3.386   0.703  -6.188  0.00  0.00    -0.491 OA
BRANCH  21  22
ATOM     22  C   LIG d   1       2.546   0.478  -5.055  0.00  0.00     0.079 C 
ATOM     23  H   LIG d   1       2.098  -0.512  -5.125  0.00  0.00     0.066 H 
ATOM     24  H   LIG d   1       3.141   0.543  -4.143  0.00  0.00     0.066 H 
ATOM     25  H   LIG d   1       1.760   1.233  -5.030  0.00  0.00     0.066 H 
ENDBRANCH  21  22
ENDBRANCH  11  21
ENDBRANCH   3   4
ENDBRANCH   1   3
BRANCH   1  26
ATOM     26  C   LIG d   1       7.204  -2.629  -6.434  0.00  0.00    -0.025 C 
ATOM     27  H   LIG d   1       7.402  -1.657  -6.885  0.00  0.00     0.027 H 
ATOM     28  H   LIG d   1       7.826  -2.753  -5.548  0.00  0.00     0.027 H 
ATOM     29  H   LIG d   1       7.435  -3.416  -7.153  0.00  0.00     0.027 H 
ENDBRANCH   1  26
BRANCH   1  30
ATOM     30  C   LIG d   1       5.619  -3.168  -4.581  0.00  0.00     0.117 C 
ATOM     31  H   LIG d   1       6.548  -3.651  -4.278  0.00  0.00     0.068 H 
BRANCH  30  32
ATOM     32  C   LIG d   1       5.367  -1.970  -3.702  0.00  0.00    -0.012 A 
ATOM     33  C   LIG d   1       6.137  -0.831  -3.851  0.00  0.00    -0.011 A 
ATOM     34  C   LIG d   1       5.906   0.272  -3.044  0.00  0.00     0.162 A 
ATOM     35  H   LIG d   1       6.918  -0.801  -4.597  0.00  0.00     0.066 H 
ATOM     36  C   LIG d   1       4.900   0.230  -2.084  0.00  0.00     0.159 A 
ATOM     37  C   LIG d   1       4.133  -0.915  -1.940  0.00  0.00    -0.016 A 
ATOM     38  C   LIG d   1       4.363  -2.009  -2.752  0.00  0.00    -0.052 A 
ATOM     39  H   LIG d   1       3.350  -0.949  -1.197  0.00  0.00     0.066 H 
ATOM     40  H   LIG d   1       3.761  -2.899  -2.641  0.00  0.00     0.062 H 
BRANCH  34  41
ATOM     41  O   LIG d   1       6.664   1.393  -3.190  0.00  0.00    -0.491 OA
BRANCH  41  42
ATOM     42  C   LIG d   1       7.914   1.247  -3.864  0.00  0.00     0.079 C 
ATOM     43  H   LIG d   1       8.523   2.136  -3.700  0.00  0.00     0.066 H 
ATOM     44  H   LIG d   1       8.438   0.373  -3.476  0.00  0.00     0.066 H 
ATOM     45  H   LIG d   1       7.739   1.119  -4.933  0.00  0.00     0.066 H 
ENDBRANCH  41  42
ENDBRANCH  34  41
BRANCH  36  46
ATOM     46  O   LIG d   1       4.670   1.309  -1.291  0.00  0.00    -0.503 OA
ATOM     47  H   LIG d   1       4.409   2.105  -1.775  0.00  0.00     0.292 HD
ENDBRANCH  36  46
ENDBRANCH  30  32
BRANCH  30  48
ATOM     48  O   LIG d   1       4.537  -4.091  -4.447  0.00  0.00    -0.384 OA
ATOM     49  H   LIG d   1       3.710  -3.790  -4.848  0.00  0.00     0.210 HD
ENDBRANCH  30  48
ENDBRANCH   1  30
TORSDOF 13
ENDMDL
MODEL 2
REMARK VINA RESULT:      -6.0      2.435      7.361
REMARK  13 active torsions:
REMARK  status: ('A' for Active; 'I' for Inactive)
REMARK    1  A    between atoms: C_1  and  C_2 
REMARK    2  A    between atoms: C_3  and  C_4 
REMARK    3  A    between atoms: C_7  and  O_12 
REMARK    4  A    between atoms: C_8  and  O_10 
REMARK    5  A    between atoms: O_10  and  C_11 
REMARK    6  A    between atoms: O_12  and  C_13 
REMARK    7  A    between atoms: C_13  and  C_15 
REMARK    8  A    between atoms: C_13  and  C_16 
REMARK    9  A    between atoms: C_16  and  C_18 
REMARK   10  A    between atoms: C_16  and  O_27 
REMARK   11  A    between atoms: C_21  and  O_26 
REMARK   12  A    between atoms: C_22  and  O_24 
REMARK   13  A    between atoms: O_24  and  C_25 
ROOT
ATOM      1  C   LIG d   1       3.762  -0.186  -5.977  0.00  0.00     0.127 C 
ATOM      2  H   LIG d   1       3.701  -1.273  -6.031  0.00  0.00     0.076 H 
ENDROOT
BRANCH   1   3
ATOM      3  O   LIG d   1       4.975   0.190  -5.321  0.00  0.00    -0.482 OA
BRANCH   3   4
ATOM      4  C   LIG d   1       5.831  -0.812  -4.984  0.00  0.00     0.163 A 
ATOM      5  C   LIG d   1       6.392  -1.604  -5.974  0.00  0.00    -0.016 A 
ATOM      6  C   LIG d   1       7.266  -2.618  -5.637  0.00  0.00    -0.051 A 
ATOM      7  H   LIG d   1       6.150  -1.425  -7.011  0.00  0.00     0.066 H 
ATOM      8  C   LIG d   1       7.581  -2.850  -4.298  0.00  0.00    -0.022 A 
ATOM      9  H   LIG d   1       7.706  -3.230  -6.411  0.00  0.00     0.062 H 
ATOM     10  C   LIG d   1       7.011  -2.057  -3.302  0.00  0.00    -0.009 A 
ATOM     11  C   LIG d   1       6.136  -1.043  -3.646  0.00  0.00     0.162 A 
ATOM     12  H   LIG d   1       7.252  -2.235  -2.264  0.00  0.00     0.066 H 
BRANCH   8  13
ATOM     13  C   LIG d   1       8.517  -3.936  -3.936  0.00  0.00    -0.059 C 
ATOM     14  C   LIG d   1       9.190  -3.877  -2.794  0.00  0.00    -0.086 C 
ATOM     15  H   LIG d   1       9.054  -3.037  -2.130  0.00  0.00     0.057 H 
ATOM     16  H   LIG d   1       8.654  -4.776  -4.601  0.00  0.00     0.062 H 
BRANCH  14  17
ATOM     17  C   LIG d   1      10.144  -4.983  -2.425  0.00  0.00    -0.046 C 
ATOM     18  H   LIG d   1       9.615  -5.741  -1.847  0.00  0.00     0.027 H 
ATOM     19  H   LIG d   1      10.547  -5.434  -3.332  0.00  0.00     0.027 H 
ATOM     20  H   LIG d   1      10.960  -4.576  -1.829  0.00  0.00     0.027 H 
ENDBRANCH  14  17
ENDBRANCH   8  13
BRANCH  11  21
ATOM     21  O   LIG d   1       5.579  -0.268  -2.677  0.00  0.00    -0.491 OA
BRANCH  21  22
ATOM     22  C   LIG d   1       4.474  -0.821  -1.958  0.00  0.00     0.079 C 
ATOM     23  H   LIG d   1       4.815  -1.664  -1.359  0.00  0.00     0.066 H 
ATOM     24  H   LIG d   1       4.048  -0.059  -1.305  0.00  0.00     0.066 H 
ATOM     25  H   LIG d   1       3.715  -1.160  -2.664  0.00  0.00     0.066 H 
ENDBRANCH  21  22
ENDBRANCH  11  21
ENDBRANCH   3   4
ENDBRANCH   1   3
BRANCH   1  26
ATOM     26  C   LIG d   1       2.568   0.355  -5.189  0.00  0.00    -0.025 C 
ATOM     27  H   LIG d   1       1.750   0.578  -5.875  0.00  0.00     0.027 H 
ATOM     28  H   LIG d   1       2.242  -0.392  -4.466  0.00  0.00     0.027 H 
ATOM     29  H   LIG d   1       2.860   1.265  -4.664  0.00  0.00     0.027 H 
ENDBRANCH   1  26
BRANCH   1  30
ATOM     30  C   LIG d   1       3.745   0.396  -7.392  0.00  0.00     0.117 C 
ATOM     31  H   LIG d   1       4.768   0.584  -7.719  0.00  0.00     0.068 H 
BRANCH  30  32
ATOM     32  C   LIG d   1       3.092  -0.586  -8.331  0.00  0.00    -0.012 A 
ATOM     33  C   LIG d   1       3.501  -1.907  -8.341  0.00  0.00    -0.011 A 
ATOM     34  C   LIG d   1       2.900  -2.811  -9.204  0.00  0.00     0.162 A 
ATOM     35  H   LIG d   1       4.287  -2.234  -7.678  0.00  0.00     0.066 H 
ATOM     36  C   LIG d   1       1.888  -2.386 -10.058  0.00  0.00     0.159 A 
ATOM     37  C   LIG d   1       1.484  -1.060 -10.042  0.00  0.00    -0.016 A 
ATOM     38  C   LIG d   1       2.082  -0.165  -9.175  0.00  0.00    -0.052 A 
ATOM     39  H   LIG d   1       0.696  -0.728 -10.703  0.00  0.00     0.066 H 
ATOM     40  H   LIG d   1       1.762   0.866  -9.161  0.00  0.00     0.062 H 
BRANCH  34  41
ATOM     41  O   LIG d   1       3.302  -4.111  -9.215  0.00  0.00    -0.491 OA
BRANCH  41  42
ATOM     42  C   LIG d   1       3.722  -4.671  -7.971  0.00  0.00     0.079 C 
ATOM     43  H   LIG d   1       3.463  -3.991  -7.159  0.00  0.00     0.066 H 
ATOM     44  H   LIG d   1       3.223  -5.628  -7.815  0.00  0.00     0.066 H 
ATOM     45  H   LIG d   1       4.802  -4.823  -7.986  0.00  0.00     0.066 H 
ENDBRANCH  41  42
ENDBRANCH  34  41
BRANCH  36  46
ATOM     46  O   LIG d   1       1.296  -3.269 -10.905  0.00  0.00    -0.503 OA
ATOM     47  H   LIG d   1       1.462  -4.196 -10.686  0.00  0.00     0.292 HD
ENDBRANCH  36  46
ENDBRANCH  30  32
BRANCH  30  48
ATOM     48  O   LIG d   1       3.009   1.620  -7.396  0.00  0.00    -0.384 OA
ATOM     49  H   LIG d   1       2.641   1.861  -6.535  0.00  0.00     0.210 HD
ENDBRANCH  30  48
ENDBRANCH   1  30
TORSDOF 13
ENDMDL
MODEL 3
REMARK VINA RESULT:      -6.0      5.069      8.456
REMARK  13 active torsions:
REMARK  status: ('A' for Active; 'I' for Inactive)
REMARK    1  A    between atoms: C_1  and  C_2 
REMARK    2  A    between atoms: C_3  and  C_4 
REMARK    3  A    between atoms: C_7  and  O_12 
REMARK    4  A    between atoms: C_8  and  O_10 
REMARK    5  A    between atoms: O_10  and  C_11 
REMARK    6  A    between atoms: O_12  and  C_13 
REMARK    7  A    between atoms: C_13  and  C_15 
REMARK    8  A    between atoms: C_13  and  C_16 
REMARK    9  A    between atoms: C_16  and  C_18 
REMARK   10  A    between atoms: C_16  and  O_27 
REMARK   11  A    between atoms: C_21  and  O_26 
REMARK   12  A    between atoms: C_22  and  O_24 
REMARK   13  A    between atoms: O_24  and  C_25 
ROOT
ATOM      1  C   LIG d   1       4.941  -6.630  -6.385  0.00  0.00     0.127 C 
ATOM      2  H   LIG d   1       6.017  -6.506  -6.260  0.00  0.00     0.076 H 
ENDROOT
BRANCH   1   3
ATOM      3  O   LIG d   1       4.559  -7.937  -5.950  0.00  0.00    -0.482 OA
BRANCH   3   4
ATOM      4  C   LIG d   1       5.364  -8.544  -5.038  0.00  0.00     0.163 A 
ATOM      5  C   LIG d   1       6.706  -8.202  -4.964  0.00  0.00    -0.016 A 
ATOM      6  C   LIG d   1       7.525  -8.812  -4.036  0.00  0.00    -0.051 A 
ATOM      7  H   LIG d   1       7.109  -7.454  -5.630  0.00  0.00     0.066 H 
ATOM      8  C   LIG d   1       7.005  -9.778  -3.175  0.00  0.00    -0.022 A 
ATOM      9  H   LIG d   1       8.569  -8.540  -3.977  0.00  0.00     0.062 H 
ATOM     10  C   LIG d   1       5.656 -10.127  -3.254  0.00  0.00    -0.009 A 
ATOM     11  C   LIG d   1       4.840  -9.513  -4.186  0.00  0.00     0.162 A 
ATOM     12  H   LIG d   1       5.251 -10.876  -2.589  0.00  0.00     0.066 H 
BRANCH   8  13
ATOM     13  C   LIG d   1       7.882 -10.432  -2.180  0.00  0.00    -0.059 C 
ATOM     14  C   LIG d   1       8.519  -9.701  -1.275  0.00  0.00    -0.086 C 
ATOM     15  H   LIG d   1       8.396  -8.628  -1.265  0.00  0.00     0.057 H 
ATOM     16  H   LIG d   1       8.004 -11.505  -2.190  0.00  0.00     0.062 H 
BRANCH  14  17
ATOM     17  C   LIG d   1       9.412 -10.367  -0.261  0.00  0.00    -0.046 C 
ATOM     18  H   LIG d   1       8.822 -11.051   0.349  0.00  0.00     0.027 H 
ATOM     19  H   LIG d   1      10.196 -10.923  -0.776  0.00  0.00     0.027 H 
ATOM     20  H   LIG d   1       9.865  -9.609   0.378  0.00  0.00     0.027 H 
ENDBRANCH  14  17
ENDBRANCH   8  13
BRANCH  11  21
ATOM     21  O   LIG d   1       3.525  -9.851  -4.266  0.00  0.00    -0.491 OA
BRANCH  21  22
ATOM     22  C   LIG d   1       3.102 -10.994  -3.520  0.00  0.00     0.079 C 
ATOM     23  H   LIG d   1       2.635 -11.713  -4.192  0.00  0.00     0.066 H 
ATOM     24  H   LIG d   1       3.965 -11.454  -3.039  0.00  0.00     0.066 H 
ATOM     25  H   LIG d   1       2.383 -10.686  -2.760  0.00  0.00     0.066 H 
ENDBRANCH  21  22
ENDBRANCH  11  21
ENDBRANCH   3   4
ENDBRANCH   1   3
BRANCH   1  26
ATOM     26  C   LIG d   1       4.577  -6.457  -7.861  0.00  0.00    -0.025 C 
ATOM     27  H   LIG d   1       5.470  -6.578  -8.473  0.00  0.00     0.027 H 
ATOM     28  H   LIG d   1       3.839  -7.208  -8.143  0.00  0.00     0.027 H 
ATOM     29  H   LIG d   1       4.160  -5.462  -8.018  0.00  0.00     0.027 H 
ENDBRANCH   1  26
BRANCH   1  30
ATOM     30  C   LIG d   1       4.207  -5.579  -5.552  0.00  0.00     0.117 C 
ATOM     31  H   LIG d   1       3.761  -6.054  -4.678  0.00  0.00     0.068 H 
BRANCH  30  32
ATOM     32  C   LIG d   1       5.183  -4.522  -5.103  0.00  0.00    -0.012 A 
ATOM     33  C   LIG d   1       4.731  -3.415  -4.410  0.00  0.00    -0.011 A 
ATOM     34  C   LIG d   1       5.628  -2.442  -3.996  0.00  0.00     0.162 A 
ATOM     35  H   LIG d   1       3.680  -3.308  -4.189  0.00  0.00     0.066 H 
ATOM     36  C   LIG d   1       6.982  -2.582  -4.283  0.00  0.00     0.159 A 
ATOM     37  C   LIG d   1       7.428  -3.694  -4.979  0.00  0.00    -0.016 A 
ATOM     38  C   LIG d   1       6.530  -4.664  -5.383  0.00  0.00    -0.052 A 
ATOM     39  H   LIG d   1       8.480  -3.806  -5.201  0.00  0.00     0.066 H 
ATOM     40  H   LIG d   1       6.880  -5.532  -5.921  0.00  0.00     0.062 H 
BRANCH  34  41
ATOM     41  O   LIG d   1       5.184  -1.352  -3.314  0.00  0.00    -0.491 OA
BRANCH  41  42
ATOM     42  C   LIG d   1       4.400  -1.594  -2.145  0.00  0.00     0.079 C 
ATOM     43  H   LIG d   1       4.758  -2.495  -1.646  0.00  0.00     0.066 H 
ATOM     44  H   LIG d   1       4.486  -0.745  -1.467  0.00  0.00     0.066 H 
ATOM     45  H   LIG d   1       3.356  -1.728  -2.429  0.00  0.00     0.066 H 
ENDBRANCH  41  42
ENDBRANCH  34  41
BRANCH  36  46
ATOM     46  O   LIG d   1       7.866  -1.631  -3.879  0.00  0.00    -0.503 OA
ATOM     47  H   LIG d   1       8.641  -1.983  -3.421  0.00  0.00     0.292 HD
ENDBRANCH  36  46
ENDBRANCH  30  32
BRANCH  30  48
ATOM     48  O   LIG d   1       3.182  -4.975  -6.341  0.00  0.00    -0.384 OA
ATOM     49  H   LIG d   1       2.478  -5.583  -6.606  0.00  0.00     0.210 HD
ENDBRANCH  30  48
ENDBRANCH   1  30
TORSDOF 13
ENDMDL
MODEL 4
REMARK VINA RESULT:      -6.0      1.621      2.872
REMARK  13 active torsions:
REMARK  status: ('A' for Active; 'I' for Inactive)
REMARK    1  A    between atoms: C_1  and  C_2 
REMARK    2  A    between atoms: C_3  and  C_4 
REMARK    3  A    between atoms: C_7  and  O_12 
REMARK    4  A    between atoms: C_8  and  O_10 
REMARK    5  A    between atoms: O_10  and  C_11 
REMARK    6  A    between atoms: O_12  and  C_13 
REMARK    7  A    between atoms: C_13  and  C_15 
REMARK    8  A    between atoms: C_13  and  C_16 
REMARK    9  A    between atoms: C_16  and  C_18 
REMARK   10  A    between atoms: C_16  and  O_27 
REMARK   11  A    between atoms: C_21  and  O_26 
REMARK   12  A    between atoms: C_22  and  O_24 
REMARK   13  A    between atoms: O_24  and  C_25 
ROOT
ATOM      1  C   LIG d   1       7.135  -0.264  -6.488  0.00  0.00     0.127 C 
ATOM      2  H   LIG d   1       6.729  -1.258  -6.674  0.00  0.00     0.076 H 
ENDROOT
BRANCH   1   3
ATOM      3  O   LIG d   1       6.200   0.722  -6.933  0.00  0.00    -0.482 OA
BRANCH   3   4
ATOM      4  C   LIG d   1       5.135   0.281  -7.654  0.00  0.00     0.163 A 
ATOM      5  C   LIG d   1       5.304  -0.100  -8.976  0.00  0.00    -0.016 A 
ATOM      6  C   LIG d   1       4.226  -0.553  -9.709  0.00  0.00    -0.051 A 
ATOM      7  H   LIG d   1       6.282  -0.048  -9.431  0.00  0.00     0.066 H 
ATOM      8  C   LIG d   1       2.963  -0.623  -9.122  0.00  0.00    -0.022 A 
ATOM      9  H   LIG d   1       4.362  -0.855 -10.737  0.00  0.00     0.062 H 
ATOM     10  C   LIG d   1       2.791  -0.232  -7.793  0.00  0.00    -0.009 A 
ATOM     11  C   LIG d   1       3.875   0.221  -7.064  0.00  0.00     0.162 A 
ATOM     12  H   LIG d   1       1.814  -0.284  -7.336  0.00  0.00     0.066 H 
BRANCH   8  13
ATOM     13  C   LIG d   1       1.808  -1.108  -9.906  0.00  0.00    -0.059 C 
ATOM     14  C   LIG d   1       1.817  -1.012 -11.229  0.00  0.00    -0.086 C 
ATOM     15  H   LIG d   1       2.668  -0.579 -11.733  0.00  0.00     0.057 H 
ATOM     16  H   LIG d   1       0.956  -1.541  -9.402  0.00  0.00     0.062 H 
BRANCH  14  17
ATOM     17  C   LIG d   1       0.640  -1.507 -12.028  0.00  0.00    -0.046 C 
ATOM     18  H   LIG d   1       0.143  -0.662 -12.505  0.00  0.00     0.027 H 
ATOM     19  H   LIG d   1       0.986  -2.203 -12.793  0.00  0.00     0.027 H 
ATOM     20  H   LIG d   1      -0.062  -2.015 -11.366  0.00  0.00     0.027 H 
ENDBRANCH  14  17
ENDBRANCH   8  13
BRANCH  11  21
ATOM     21  O   LIG d   1       3.711   0.602  -5.769  0.00  0.00    -0.491 OA
BRANCH  21  22
ATOM     22  C   LIG d   1       2.486   0.231  -5.133  0.00  0.00     0.079 C 
ATOM     23  H   LIG d   1       2.449  -0.851  -5.019  0.00  0.00     0.066 H 
ATOM     24  H   LIG d   1       2.429   0.702  -4.151  0.00  0.00     0.066 H 
ATOM     25  H   LIG d   1       1.645   0.562  -5.744  0.00  0.00     0.066 H 
ENDBRANCH  21  22
ENDBRANCH  11  21
ENDBRANCH   3   4
ENDBRANCH   1   3
BRANCH   1  26
ATOM     26  C   LIG d   1       8.451  -0.099  -7.251  0.00  0.00    -0.025 C 
ATOM     27  H   LIG d   1       8.240   0.112  -8.299  0.00  0.00     0.027 H 
ATOM     28  H   LIG d   1       9.019   0.726  -6.821  0.00  0.00     0.027 H 
ATOM     29  H   LIG d   1       9.033  -1.018  -7.175  0.00  0.00     0.027 H 
ENDBRANCH   1  26
BRANCH   1  30
ATOM     30  C   LIG d   1       7.389  -0.088  -4.990  0.00  0.00     0.117 C 
ATOM     31  H   LIG d   1       7.375   0.973  -4.741  0.00  0.00     0.068 H 
BRANCH  30  32
ATOM     32  C   LIG d   1       6.311  -0.799  -4.212  0.00  0.00    -0.012 A 
ATOM     33  C   LIG d   1       5.817  -2.008  -4.664  0.00  0.00    -0.011 A 
ATOM     34  C   LIG d   1       4.826  -2.663  -3.949  0.00  0.00     0.162 A 
ATOM     35  H   LIG d   1       6.203  -2.443  -5.574  0.00  0.00     0.066 H 
ATOM     36  C   LIG d   1       4.330  -2.100  -2.778  0.00  0.00     0.159 A 
ATOM     37  C   LIG d   1       4.830  -0.887  -2.331  0.00  0.00    -0.016 A 
ATOM     38  C   LIG d   1       5.822  -0.242  -3.045  0.00  0.00    -0.052 A 
ATOM     39  H   LIG d   1       4.447  -0.449  -1.421  0.00  0.00     0.066 H 
ATOM     40  H   LIG d   1       6.213   0.701  -2.692  0.00  0.00     0.062 H 
BRANCH  34  41
ATOM     41  O   LIG d   1       4.339  -3.853  -4.394  0.00  0.00    -0.491 OA
BRANCH  41  42
ATOM     42  C   LIG d   1       4.742  -4.272  -5.699  0.00  0.00     0.079 C 
ATOM     43  H   LIG d   1       3.888  -4.229  -6.375  0.00  0.00     0.066 H 
ATOM     44  H   LIG d   1       5.529  -3.613  -6.066  0.00  0.00     0.066 H 
ATOM     45  H   LIG d   1       5.117  -5.295  -5.653  0.00  0.00     0.066 H 
ENDBRANCH  41  42
ENDBRANCH  34  41
BRANCH  36  46
ATOM     46  O   LIG d   1       3.359  -2.739  -2.074  0.00  0.00    -0.503 OA
ATOM     47  H   LIG d   1       3.633  -3.593  -1.711  0.00  0.00     0.292 HD
ENDBRANCH  36  46
ENDBRANCH  30  32
BRANCH  30  48
ATOM     48  O   LIG d   1       8.662  -0.641  -4.653  0.00  0.00    -0.384 OA
ATOM     49  H   LIG d   1       9.413  -0.094  -4.922  0.00  0.00     0.210 HD
ENDBRANCH  30  48
ENDBRANCH   1  30
TORSDOF 13
ENDMDL
MODEL 5
REMARK VINA RESULT:      -6.0      4.941      8.000
REMARK  13 active torsions:
REMARK  status: ('A' for Active; 'I' for Inactive)
REMARK    1  A    between atoms: C_1  and  C_2 
REMARK    2  A    between atoms: C_3  and  C_4 
REMARK    3  A    between atoms: C_7  and  O_12 
REMARK    4  A    between atoms: C_8  and  O_10 
REMARK    5  A    between atoms: O_10  and  C_11 
REMARK    6  A    between atoms: O_12  and  C_13 
REMARK    7  A    between atoms: C_13  and  C_15 
REMARK    8  A    between atoms: C_13  and  C_16 
REMARK    9  A    between atoms: C_16  and  C_18 
REMARK   10  A    between atoms: C_16  and  O_27 
REMARK   11  A    between atoms: C_21  and  O_26 
REMARK   12  A    between atoms: C_22  and  O_24 
REMARK   13  A    between atoms: O_24  and  C_25 
ROOT
ATOM      1  C   LIG d   1      11.210   2.193  -3.670  0.00  0.00     0.127 C 
ATOM      2  H   LIG d   1      10.642   2.148  -2.740  0.00  0.00     0.076 H 
ENDROOT
BRANCH   1   3
ATOM      3  O   LIG d   1      10.322   2.033  -4.778  0.00  0.00    -0.482 OA
BRANCH   3   4
ATOM      4  C   LIG d   1       9.147   1.391  -4.541  0.00  0.00     0.163 A 
ATOM      5  C   LIG d   1       8.171   2.000  -3.767  0.00  0.00    -0.016 A 
ATOM      6  C   LIG d   1       6.974   1.355  -3.528  0.00  0.00    -0.051 A 
ATOM      7  H   LIG d   1       8.344   2.983  -3.355  0.00  0.00     0.066 H 
ATOM      8  C   LIG d   1       6.748   0.086  -4.061  0.00  0.00    -0.022 A 
ATOM      9  H   LIG d   1       6.214   1.834  -2.929  0.00  0.00     0.062 H 
ATOM     10  C   LIG d   1       7.734  -0.530  -4.834  0.00  0.00    -0.009 A 
ATOM     11  C   LIG d   1       8.931   0.122  -5.069  0.00  0.00     0.162 A 
ATOM     12  H   LIG d   1       7.562  -1.513  -5.247  0.00  0.00     0.066 H 
BRANCH   8  13
ATOM     13  C   LIG d   1       5.467  -0.606  -3.806  0.00  0.00    -0.059 C 
ATOM     14  C   LIG d   1       5.301  -1.305  -2.691  0.00  0.00    -0.086 C 
ATOM     15  H   LIG d   1       6.101  -1.367  -1.969  0.00  0.00     0.057 H 
ATOM     16  H   LIG d   1       4.666  -0.544  -4.529  0.00  0.00     0.062 H 
BRANCH  14  17
ATOM     17  C   LIG d   1       3.995  -2.010  -2.432  0.00  0.00    -0.046 C 
ATOM     18  H   LIG d   1       3.544  -2.301  -3.381  0.00  0.00     0.027 H 
ATOM     19  H   LIG d   1       4.175  -2.899  -1.827  0.00  0.00     0.027 H 
ATOM     20  H   LIG d   1       3.319  -1.340  -1.899  0.00  0.00     0.027 H 
ENDBRANCH  14  17
ENDBRANCH   8  13
BRANCH  11  21
ATOM     21  O   LIG d   1       9.892  -0.476  -5.822  0.00  0.00    -0.491 OA
BRANCH  21  22
ATOM     22  C   LIG d   1      10.368  -1.748  -5.379  0.00  0.00     0.079 C 
ATOM     23  H   LIG d   1      11.287  -1.997  -5.908  0.00  0.00     0.066 H 
ATOM     24  H   LIG d   1      10.566  -1.708  -4.308  0.00  0.00     0.066 H 
ATOM     25  H   LIG d   1       9.614  -2.508  -5.581  0.00  0.00     0.066 H 
ENDBRANCH  21  22
ENDBRANCH  11  21
ENDBRANCH   3   4
ENDBRANCH   1   3
BRANCH   1  26
ATOM     26  C   LIG d   1      12.252   1.073  -3.686  0.00  0.00    -0.025 C 
ATOM     27  H   LIG d   1      12.196   0.511  -2.754  0.00  0.00     0.027 H 
ATOM     28  H   LIG d   1      12.056   0.406  -4.525  0.00  0.00     0.027 H 
ATOM     29  H   LIG d   1      13.248   1.504  -3.791  0.00  0.00     0.027 H 
ENDBRANCH   1  26
BRANCH   1  30
ATOM     30  C   LIG d   1      11.915   3.547  -3.771  0.00  0.00     0.117 C 
ATOM     31  H   LIG d   1      12.095   3.785  -4.820  0.00  0.00     0.068 H 
BRANCH  30  32
ATOM     32  C   LIG d   1      11.044   4.613  -3.157  0.00  0.00    -0.012 A 
ATOM     33  C   LIG d   1      11.081   4.833  -1.793  0.00  0.00    -0.011 A 
ATOM     34  C   LIG d   1      10.282   5.813  -1.227  0.00  0.00     0.162 A 
ATOM     35  H   LIG d   1      11.733   4.241  -1.168  0.00  0.00     0.066 H 
ATOM     36  C   LIG d   1       9.442   6.574  -2.034  0.00  0.00     0.159 A 
ATOM     37  C   LIG d   1       9.410   6.348  -3.401  0.00  0.00    -0.016 A 
ATOM     38  C   LIG d   1      10.215   5.373  -3.960  0.00  0.00    -0.052 A 
ATOM     39  H   LIG d   1       8.760   6.939  -4.031  0.00  0.00     0.066 H 
ATOM     40  H   LIG d   1      10.192   5.202  -5.027  0.00  0.00     0.062 H 
BRANCH  34  41
ATOM     41  O   LIG d   1      10.317   6.030   0.116  0.00  0.00    -0.491 OA
BRANCH  41  42
ATOM     42  C   LIG d   1      11.522   6.577   0.653  0.00  0.00     0.079 C 
ATOM     43  H   LIG d   1      12.362   6.303   0.015  0.00  0.00     0.066 H 
ATOM     44  H   LIG d   1      11.440   7.663   0.699  0.00  0.00     0.066 H 
ATOM     45  H   LIG d   1      11.685   6.182   1.657  0.00  0.00     0.066 H 
ENDBRANCH  41  42
ENDBRANCH  34  41
BRANCH  36  46
ATOM     46  O   LIG d   1       8.657   7.537  -1.484  0.00  0.00    -0.503 OA
ATOM     47  H   LIG d   1       8.873   7.744  -0.564  0.00  0.00     0.292 HD
ENDBRANCH  36  46
ENDBRANCH  30  32
BRANCH  30  48
ATOM     48  O   LIG d   1      13.160   3.490  -3.075  0.00  0.00    -0.384 OA
ATOM     49  H   LIG d   1      13.477   2.592  -2.905  0.00  0.00     0.210 HD
ENDBRANCH  30  48
ENDBRANCH   1  30
TORSDOF 13
ENDMDL
MODEL 6
REMARK VINA RESULT:      -5.9      3.255      6.923
REMARK  13 active torsions:
REMARK  status: ('A' for Active; 'I' for Inactive)
REMARK    1  A    between atoms: C_1  and  C_2 
REMARK    2  A    between atoms: C_3  and  C_4 
REMARK    3  A    between atoms: C_7  and  O_12 
REMARK    4  A    between atoms: C_8  and  O_10 
REMARK    5  A    between atoms: O_10  and  C_11 
REMARK    6  A    between atoms: O_12  and  C_13 
REMARK    7  A    between atoms: C_13  and  C_15 
REMARK    8  A    between atoms: C_13  and  C_16 
REMARK    9  A    between atoms: C_16  and  C_18 
REMARK   10  A    between atoms: C_16  and  O_27 
REMARK   11  A    between atoms: C_21  and  O_26 
REMARK   12  A    between atoms: C_22  and  O_24 
REMARK   13  A    between atoms: O_24  and  C_25 
ROOT
ATOM      1  C   LIG d   1       6.265  -2.671  -5.960  0.00  0.00     0.127 C 
ATOM      2  H   LIG d   1       6.844  -1.797  -5.662  0.00  0.00     0.076 H 
ENDROOT
BRANCH   1   3
ATOM      3  O   LIG d   1       7.155  -3.739  -6.293  0.00  0.00    -0.482 OA
BRANCH   3   4
ATOM      4  C   LIG d   1       7.913  -4.248  -5.286  0.00  0.00     0.163 A 
ATOM      5  C   LIG d   1       8.591  -3.392  -4.430  0.00  0.00    -0.016 A 
ATOM      6  C   LIG d   1       9.358  -3.904  -3.403  0.00  0.00    -0.051 A 
ATOM      7  H   LIG d   1       8.515  -2.323  -4.565  0.00  0.00     0.066 H 
ATOM      8  C   LIG d   1       9.455  -5.284  -3.227  0.00  0.00    -0.022 A 
ATOM      9  H   LIG d   1       9.880  -3.235  -2.735  0.00  0.00     0.062 H 
ATOM     10  C   LIG d   1       8.778  -6.145  -4.092  0.00  0.00    -0.009 A 
ATOM     11  C   LIG d   1       8.013  -5.626  -5.120  0.00  0.00     0.162 A 
ATOM     12  H   LIG d   1       8.853  -7.215  -3.959  0.00  0.00     0.066 H 
BRANCH   8  13
ATOM     13  C   LIG d   1      10.275  -5.834  -2.127  0.00  0.00    -0.059 C 
ATOM     14  C   LIG d   1      10.107  -7.091  -1.738  0.00  0.00    -0.086 C 
ATOM     15  H   LIG d   1       9.371  -7.713  -2.226  0.00  0.00     0.057 H 
ATOM     16  H   LIG d   1      11.011  -5.212  -1.639  0.00  0.00     0.062 H 
BRANCH  14  17
ATOM     17  C   LIG d   1      10.943  -7.651  -0.617  0.00  0.00    -0.046 C 
ATOM     18  H   LIG d   1      11.717  -8.299  -1.029  0.00  0.00     0.027 H 
ATOM     19  H   LIG d   1      11.410  -6.833  -0.067  0.00  0.00     0.027 H 
ATOM     20  H   LIG d   1      10.308  -8.226   0.057  0.00  0.00     0.027 H 
ENDBRANCH  14  17
ENDBRANCH   8  13
BRANCH  11  21
ATOM     21  O   LIG d   1       7.352  -6.463  -5.964  0.00  0.00    -0.491 OA
BRANCH  21  22
ATOM     22  C   LIG d   1       6.095  -6.976  -5.519  0.00  0.00     0.079 C 
ATOM     23  H   LIG d   1       5.363  -6.170  -5.490  0.00  0.00     0.066 H 
ATOM     24  H   LIG d   1       5.755  -7.751  -6.206  0.00  0.00     0.066 H 
ATOM     25  H   LIG d   1       6.209  -7.400  -4.521  0.00  0.00     0.066 H 
ENDBRANCH  21  22
ENDBRANCH  11  21
ENDBRANCH   3   4
ENDBRANCH   1   3
BRANCH   1  26
ATOM     26  C   LIG d   1       5.407  -2.323  -7.179  0.00  0.00    -0.025 C 
ATOM     27  H   LIG d   1       4.357  -2.495  -6.944  0.00  0.00     0.027 H 
ATOM     28  H   LIG d   1       5.556  -1.276  -7.440  0.00  0.00     0.027 H 
ATOM     29  H   LIG d   1       5.699  -2.952  -8.020  0.00  0.00     0.027 H 
ENDBRANCH   1  26
BRANCH   1  30
ATOM     30  C   LIG d   1       5.360  -3.101  -4.805  0.00  0.00     0.117 C 
ATOM     31  H   LIG d   1       5.813  -3.945  -4.283  0.00  0.00     0.068 H 
BRANCH  30  32
ATOM     32  C   LIG d   1       5.190  -1.951  -3.845  0.00  0.00    -0.012 A 
ATOM     33  C   LIG d   1       5.989  -0.830  -3.964  0.00  0.00    -0.011 A 
ATOM     34  C   LIG d   1       5.833   0.228  -3.082  0.00  0.00     0.162 A 
ATOM     35  H   LIG d   1       6.735  -0.778  -4.743  0.00  0.00     0.066 H 
ATOM     36  C   LIG d   1       4.873   0.158  -2.079  0.00  0.00     0.159 A 
ATOM     37  C   LIG d   1       4.075  -0.969  -1.966  0.00  0.00    -0.016 A 
ATOM     38  C   LIG d   1       4.231  -2.018  -2.852  0.00  0.00    -0.052 A 
ATOM     39  H   LIG d   1       3.327  -1.025  -1.188  0.00  0.00     0.066 H 
ATOM     40  H   LIG d   1       3.605  -2.895  -2.765  0.00  0.00     0.062 H 
BRANCH  34  41
ATOM     41  O   LIG d   1       6.620   1.332  -3.198  0.00  0.00    -0.491 OA
BRANCH  41  42
ATOM     42  C   LIG d   1       7.799   1.208  -3.994  0.00  0.00     0.079 C 
ATOM     43  H   LIG d   1       7.892   0.182  -4.350  0.00  0.00     0.066 H 
ATOM     44  H   LIG d   1       7.735   1.884  -4.847  0.00  0.00     0.066 H 
ATOM     45  H   LIG d   1       8.673   1.465  -3.394  0.00  0.00     0.066 H 
ENDBRANCH  41  42
ENDBRANCH  34  41
BRANCH  36  46
ATOM     46  O   LIG d   1       4.716   1.194  -1.212  0.00  0.00    -0.503 OA
ATOM     47  H   LIG d   1       5.035   1.011  -0.318  0.00  0.00     0.292 HD
ENDBRANCH  36  46
ENDBRANCH  30  32
BRANCH  30  48
ATOM     48  O   LIG d   1       4.084  -3.487  -5.316  0.00  0.00    -0.384 OA
ATOM     49  H   LIG d   1       3.337  -3.181  -4.783  0.00  0.00     0.210 HD
ENDBRANCH  30  48
ENDBRANCH   1  30
TORSDOF 13
ENDMDL
MODEL 7
REMARK VINA RESULT:      -5.9      3.453      5.983
REMARK  13 active torsions:
REMARK  status: ('A' for Active; 'I' for Inactive)
REMARK    1  A    between atoms: C_1  and  C_2 
REMARK    2  A    between atoms: C_3  and  C_4 
REMARK    3  A    between atoms: C_7  and  O_12 
REMARK    4  A    between atoms: C_8  and  O_10 
REMARK    5  A    between atoms: O_10  and  C_11 
REMARK    6  A    between atoms: O_12  and  C_13 
REMARK    7  A    between atoms: C_13  and  C_15 
REMARK    8  A    between atoms: C_13  and  C_16 
REMARK    9  A    between atoms: C_16  and  C_18 
REMARK   10  A    between atoms: C_16  and  O_27 
REMARK   11  A    between atoms: C_21  and  O_26 
REMARK   12  A    between atoms: C_22  and  O_24 
REMARK   13  A    between atoms: O_24  and  C_25 
ROOT
ATOM      1  C   LIG d   1       7.615  -3.491  -4.487  0.00  0.00     0.127 C 
ATOM      2  H   LIG d   1       6.943  -3.834  -3.700  0.00  0.00     0.076 H 
ENDROOT
BRANCH   1   3
ATOM      3  O   LIG d   1       7.354  -4.223  -5.687  0.00  0.00    -0.482 OA
BRANCH   3   4
ATOM      4  C   LIG d   1       6.720  -5.419  -5.555  0.00  0.00     0.163 A 
ATOM      5  C   LIG d   1       7.457  -6.570  -5.321  0.00  0.00    -0.016 A 
ATOM      6  C   LIG d   1       6.818  -7.785  -5.181  0.00  0.00    -0.051 A 
ATOM      7  H   LIG d   1       8.533  -6.515  -5.242  0.00  0.00     0.066 H 
ATOM      8  C   LIG d   1       5.428  -7.857  -5.281  0.00  0.00    -0.022 A 
ATOM      9  H   LIG d   1       7.394  -8.679  -4.993  0.00  0.00     0.062 H 
ATOM     10  C   LIG d   1       4.687  -6.699  -5.523  0.00  0.00    -0.009 A 
ATOM     11  C   LIG d   1       5.334  -5.485  -5.663  0.00  0.00     0.162 A 
ATOM     12  H   LIG d   1       3.611  -6.752  -5.603  0.00  0.00     0.066 H 
BRANCH   8  13
ATOM     13  C   LIG d   1       4.742  -9.158  -5.131  0.00  0.00    -0.059 C 
ATOM     14  C   LIG d   1       4.330  -9.556  -3.935  0.00  0.00    -0.086 C 
ATOM     15  H   LIG d   1       4.496  -8.929  -3.071  0.00  0.00     0.057 H 
ATOM     16  H   LIG d   1       4.576  -9.784  -5.995  0.00  0.00     0.062 H 
BRANCH  14  17
ATOM     17  C   LIG d   1       3.631 -10.881  -3.782  0.00  0.00    -0.046 C 
ATOM     18  H   LIG d   1       4.076 -11.434  -2.954  0.00  0.00     0.027 H 
ATOM     19  H   LIG d   1       2.572 -10.713  -3.578  0.00  0.00     0.027 H 
ATOM     20  H   LIG d   1       3.736 -11.456  -4.702  0.00  0.00     0.027 H 
ENDBRANCH  14  17
ENDBRANCH   8  13
BRANCH  11  21
ATOM     21  O   LIG d   1       4.614  -4.356  -5.900  0.00  0.00    -0.491 OA
BRANCH  21  22
ATOM     22  C   LIG d   1       4.285  -4.068  -7.260  0.00  0.00     0.079 C 
ATOM     23  H   LIG d   1       5.196  -4.034  -7.855  0.00  0.00     0.066 H 
ATOM     24  H   LIG d   1       3.627  -4.846  -7.647  0.00  0.00     0.066 H 
ATOM     25  H   LIG d   1       3.778  -3.104  -7.315  0.00  0.00     0.066 H 
ENDBRANCH  21  22
ENDBRANCH  11  21
ENDBRANCH   3   4
ENDBRANCH   1   3
BRANCH   1  26
ATOM     26  C   LIG d   1       9.065  -3.718  -4.056  0.00  0.00    -0.025 C 
ATOM     27  H   LIG d   1       9.722  -3.065  -4.630  0.00  0.00     0.027 H 
ATOM     28  H   LIG d   1       9.168  -3.495  -2.994  0.00  0.00     0.027 H 
ATOM     29  H   LIG d   1       9.339  -4.758  -4.236  0.00  0.00     0.027 H 
ENDBRANCH   1  26
BRANCH   1  30
ATOM     30  C   LIG d   1       7.385  -2.000  -4.738  0.00  0.00     0.117 C 
ATOM     31  H   LIG d   1       7.590  -1.772  -5.784  0.00  0.00     0.068 H 
BRANCH  30  32
ATOM     32  C   LIG d   1       5.953  -1.652  -4.421  0.00  0.00    -0.012 A 
ATOM     33  C   LIG d   1       5.255  -0.787  -5.243  0.00  0.00    -0.011 A 
ATOM     34  C   LIG d   1       3.938  -0.467  -4.952  0.00  0.00     0.162 A 
ATOM     35  H   LIG d   1       5.736  -0.361  -6.111  0.00  0.00     0.066 H 
ATOM     36  C   LIG d   1       3.322  -1.017  -3.833  0.00  0.00     0.159 A 
ATOM     37  C   LIG d   1       4.028  -1.884  -3.014  0.00  0.00    -0.016 A 
ATOM     38  C   LIG d   1       5.338  -2.204  -3.312  0.00  0.00    -0.052 A 
ATOM     39  H   LIG d   1       3.550  -2.314  -2.145  0.00  0.00     0.066 H 
ATOM     40  H   LIG d   1       5.885  -2.883  -2.675  0.00  0.00     0.062 H 
BRANCH  34  41
ATOM     41  O   LIG d   1       3.250   0.385  -5.760  0.00  0.00    -0.491 OA
BRANCH  41  42
ATOM     42  C   LIG d   1       3.192   0.058  -7.149  0.00  0.00     0.079 C 
ATOM     43  H   LIG d   1       2.378   0.609  -7.620  0.00  0.00     0.066 H 
ATOM     44  H   LIG d   1       4.135   0.325  -7.626  0.00  0.00     0.066 H 
ATOM     45  H   LIG d   1       3.019  -1.013  -7.263  0.00  0.00     0.066 H 
ENDBRANCH  41  42
ENDBRANCH  34  41
BRANCH  36  46
ATOM     46  O   LIG d   1       2.030  -0.706  -3.545  0.00  0.00    -0.503 OA
ATOM     47  H   LIG d   1       1.918   0.156  -3.121  0.00  0.00     0.292 HD
ENDBRANCH  36  46
ENDBRANCH  30  32
BRANCH  30  48
ATOM     48  O   LIG d   1       8.256  -1.235  -3.903  0.00  0.00    -0.384 OA
ATOM     49  H   LIG d   1       9.111  -1.032  -4.307  0.00  0.00     0.210 HD
ENDBRANCH  30  48
ENDBRANCH   1  30
TORSDOF 13
ENDMDL
MODEL 8
REMARK VINA RESULT:      -5.7      2.871      5.975
REMARK  13 active torsions:
REMARK  status: ('A' for Active; 'I' for Inactive)
REMARK    1  A    between atoms: C_1  and  C_2 
REMARK    2  A    between atoms: C_3  and  C_4 
REMARK    3  A    between atoms: C_7  and  O_12 
REMARK    4  A    between atoms: C_8  and  O_10 
REMARK    5  A    between atoms: O_10  and  C_11 
REMARK    6  A    between atoms: O_12  and  C_13 
REMARK    7  A    between atoms: C_13  and  C_15 
REMARK    8  A    between atoms: C_13  and  C_16 
REMARK    9  A    between atoms: C_16  and  C_18 
REMARK   10  A    between atoms: C_16  and  O_27 
REMARK   11  A    between atoms: C_21  and  O_26 
REMARK   12  A    between atoms: C_22  and  O_24 
REMARK   13  A    between atoms: O_24  and  C_25 
ROOT
ATOM      1  C   LIG d   1       6.275  -2.974  -5.268  0.00  0.00     0.127 C 
ATOM      2  H   LIG d   1       6.040  -2.115  -5.897  0.00  0.00     0.076 H 
ENDROOT
BRANCH   1   3
ATOM      3  O   LIG d   1       7.421  -2.677  -4.467  0.00  0.00    -0.482 OA
BRANCH   3   4
ATOM      4  C   LIG d   1       8.012  -1.468  -4.659  0.00  0.00     0.163 A 
ATOM      5  C   LIG d   1       7.448  -0.328  -4.107  0.00  0.00    -0.016 A 
ATOM      6  C   LIG d   1       8.048   0.902  -4.293  0.00  0.00    -0.051 A 
ATOM      7  H   LIG d   1       6.541  -0.402  -3.525  0.00  0.00     0.066 H 
ATOM      8  C   LIG d   1       9.221   0.998  -5.042  0.00  0.00    -0.022 A 
ATOM      9  H   LIG d   1       7.609   1.787  -3.858  0.00  0.00     0.062 H 
ATOM     10  C   LIG d   1       9.785  -0.148  -5.603  0.00  0.00    -0.009 A 
ATOM     11  C   LIG d   1       9.179  -1.377  -5.413  0.00  0.00     0.162 A 
ATOM     12  H   LIG d   1      10.692  -0.076  -6.185  0.00  0.00     0.066 H 
BRANCH   8  13
ATOM     13  C   LIG d   1       9.864   2.314  -5.242  0.00  0.00    -0.059 C 
ATOM     14  C   LIG d   1       9.149   3.426  -5.134  0.00  0.00    -0.086 C 
ATOM     15  H   LIG d   1       8.096   3.369  -4.898  0.00  0.00     0.057 H 
ATOM     16  H   LIG d   1      10.917   2.371  -5.478  0.00  0.00     0.062 H 
BRANCH  14  17
ATOM     17  C   LIG d   1       9.805   4.766  -5.337  0.00  0.00    -0.046 C 
ATOM     18  H   LIG d   1       9.107   5.441  -5.834  0.00  0.00     0.027 H 
ATOM     19  H   LIG d   1      10.087   5.184  -4.370  0.00  0.00     0.027 H 
ATOM     20  H   LIG d   1      10.695   4.646  -5.954  0.00  0.00     0.027 H 
ENDBRANCH  14  17
ENDBRANCH   8  13
BRANCH  11  21
ATOM     21  O   LIG d   1       9.726  -2.496  -5.959  0.00  0.00    -0.491 OA
BRANCH  21  22
ATOM     22  C   LIG d   1       9.733  -2.587  -7.385  0.00  0.00     0.079 C 
ATOM     23  H   LIG d   1       8.739  -2.359  -7.768  0.00  0.00     0.066 H 
ATOM     24  H   LIG d   1      10.451  -1.875  -7.791  0.00  0.00     0.066 H 
ATOM     25  H   LIG d   1      10.014  -3.598  -7.682  0.00  0.00     0.066 H 
ENDBRANCH  21  22
ENDBRANCH  11  21
ENDBRANCH   3   4
ENDBRANCH   1   3
BRANCH   1  26
ATOM     26  C   LIG d   1       6.569  -4.188  -6.151  0.00  0.00    -0.025 C 
ATOM     27  H   LIG d   1       7.620  -4.461  -6.055  0.00  0.00     0.027 H 
ATOM     28  H   LIG d   1       5.946  -5.025  -5.836  0.00  0.00     0.027 H 
ATOM     29  H   LIG d   1       6.350  -3.943  -7.190  0.00  0.00     0.027 H 
ENDBRANCH   1  26
BRANCH   1  30
ATOM     30  C   LIG d   1       5.083  -3.280  -4.359  0.00  0.00     0.117 C 
ATOM     31  H   LIG d   1       5.397  -3.960  -3.566  0.00  0.00     0.068 H 
BRANCH  30  32
ATOM     32  C   LIG d   1       4.574  -1.999  -3.750  0.00  0.00    -0.012 A 
ATOM     33  C   LIG d   1       3.964  -1.050  -4.549  0.00  0.00    -0.011 A 
ATOM     34  C   LIG d   1       3.495   0.128  -3.989  0.00  0.00     0.162 A 
ATOM     35  H   LIG d   1       3.853  -1.226  -5.608  0.00  0.00     0.066 H 
ATOM     36  C   LIG d   1       3.640   0.353  -2.624  0.00  0.00     0.159 A 
ATOM     37  C   LIG d   1       4.252  -0.603  -1.830  0.00  0.00    -0.016 A 
ATOM     38  C   LIG d   1       4.712  -1.779  -2.392  0.00  0.00    -0.052 A 
ATOM     39  H   LIG d   1       4.364  -0.432  -0.769  0.00  0.00     0.066 H 
ATOM     40  H   LIG d   1       5.185  -2.525  -1.770  0.00  0.00     0.062 H 
BRANCH  34  41
ATOM     41  O   LIG d   1       2.895   1.063  -4.775  0.00  0.00    -0.491 OA
BRANCH  41  42
ATOM     42  C   LIG d   1       2.591   0.684  -6.117  0.00  0.00     0.079 C 
ATOM     43  H   LIG d   1       3.166   1.299  -6.809  0.00  0.00     0.066 H 
ATOM     44  H   LIG d   1       2.847  -0.365  -6.266  0.00  0.00     0.066 H 
ATOM     45  H   LIG d   1       1.525   0.827  -6.303  0.00  0.00     0.066 H 
ENDBRANCH  41  42
ENDBRANCH  34  41
BRANCH  36  46
ATOM     46  O   LIG d   1       3.181   1.507  -2.071  0.00  0.00    -0.503 OA
ATOM     47  H   LIG d   1       2.400   1.870  -2.511  0.00  0.00     0.292 HD
ENDBRANCH  36  46
ENDBRANCH  30  32
BRANCH  30  48
ATOM     48  O   LIG d   1       4.043  -3.889  -5.125  0.00  0.00    -0.384 OA
ATOM     49  H   LIG d   1       3.255  -3.337  -5.229  0.00  0.00     0.210 HD
ENDBRANCH  30  48
ENDBRANCH   1  30
TORSDOF 13
ENDMDL
MODEL 9
REMARK VINA RESULT:      -5.6      8.827     11.796
REMARK  13 active torsions:
REMARK  status: ('A' for Active; 'I' for Inactive)
REMARK    1  A    between atoms: C_1  and  C_2 
REMARK    2  A    between atoms: C_3  and  C_4 
REMARK    3  A    between atoms: C_7  and  O_12 
REMARK    4  A    between atoms: C_8  and  O_10 
REMARK    5  A    between atoms: O_10  and  C_11 
REMARK    6  A    between atoms: O_12  and  C_13 
REMARK    7  A    between atoms: C_13  and  C_15 
REMARK    8  A    between atoms: C_13  and  C_16 
REMARK    9  A    between atoms: C_16  and  C_18 
REMARK   10  A    between atoms: C_16  and  O_27 
REMARK   11  A    between atoms: C_21  and  O_26 
REMARK   12  A    between atoms: C_22  and  O_24 
REMARK   13  A    between atoms: O_24  and  C_25 
ROOT
ATOM      1  C   LIG d   1      10.330  10.099  -2.913  0.00  0.00     0.127 C 
ATOM      2  H   LIG d   1      10.900   9.252  -3.295  0.00  0.00     0.076 H 
ENDROOT
BRANCH   1   3
ATOM      3  O   LIG d   1       9.521  10.640  -3.960  0.00  0.00    -0.482 OA
BRANCH   3   4
ATOM      4  C   LIG d   1       9.555  10.000  -5.159  0.00  0.00     0.163 A 
ATOM      5  C   LIG d   1       9.275   8.644  -5.228  0.00  0.00    -0.016 A 
ATOM      6  C   LIG d   1       9.303   7.992  -6.444  0.00  0.00    -0.051 A 
ATOM      7  H   LIG d   1       9.030   8.097  -4.329  0.00  0.00     0.066 H 
ATOM      8  C   LIG d   1       9.618   8.697  -7.606  0.00  0.00    -0.022 A 
ATOM      9  H   LIG d   1       9.079   6.937  -6.495  0.00  0.00     0.062 H 
ATOM     10  C   LIG d   1       9.906  10.060  -7.536  0.00  0.00    -0.009 A 
ATOM     11  C   LIG d   1       9.877  10.708  -6.314  0.00  0.00     0.162 A 
ATOM     12  H   LIG d   1      10.152  10.608  -8.433  0.00  0.00     0.066 H 
BRANCH   8  13
ATOM     13  C   LIG d   1       9.647   8.000  -8.909  0.00  0.00    -0.059 C 
ATOM     14  C   LIG d   1       9.001   6.851  -9.062  0.00  0.00    -0.086 C 
ATOM     15  H   LIG d   1       8.453   6.426  -8.234  0.00  0.00     0.057 H 
ATOM     16  H   LIG d   1      10.194   8.425  -9.737  0.00  0.00     0.062 H 
BRANCH  14  17
ATOM     17  C   LIG d   1       9.030   6.141 -10.390  0.00  0.00    -0.046 C 
ATOM     18  H   LIG d   1       9.597   5.215 -10.295  0.00  0.00     0.027 H 
ATOM     19  H   LIG d   1       8.011   5.913 -10.703  0.00  0.00     0.027 H 
ATOM     20  H   LIG d   1       9.504   6.781 -11.134  0.00  0.00     0.027 H 
ENDBRANCH  14  17
ENDBRANCH   8  13
BRANCH  11  21
ATOM     21  O   LIG d   1      10.158  12.036  -6.243  0.00  0.00    -0.491 OA
BRANCH  21  22
ATOM     22  C   LIG d   1       9.516  12.888  -7.194  0.00  0.00     0.079 C 
ATOM     23  H   LIG d   1       9.223  13.818  -6.709  0.00  0.00     0.066 H 
ATOM     24  H   LIG d   1      10.205  13.106  -8.010  0.00  0.00     0.066 H 
ATOM     25  H   LIG d   1       8.631  12.389  -7.589  0.00  0.00     0.066 H 
ENDBRANCH  21  22
ENDBRANCH  11  21
ENDBRANCH   3   4
ENDBRANCH   1   3
BRANCH   1  26
ATOM     26  C   LIG d   1      11.294  11.175  -2.406  0.00  0.00    -0.025 C 
ATOM     27  H   LIG d   1      11.470  11.032  -1.340  0.00  0.00     0.027 H 
ATOM     28  H   LIG d   1      12.238  11.099  -2.945  0.00  0.00     0.027 H 
ATOM     29  H   LIG d   1      10.858  12.161  -2.573  0.00  0.00     0.027 H 
ENDBRANCH   1  26
BRANCH   1  30
ATOM     30  C   LIG d   1       9.435   9.634  -1.764  0.00  0.00     0.117 C 
ATOM     31  H   LIG d   1       8.415   9.509  -2.126  0.00  0.00     0.068 H 
BRANCH  30  32
ATOM     32  C   LIG d   1       9.943   8.318  -1.232  0.00  0.00    -0.012 A 
ATOM     33  C   LIG d   1       9.772   7.163  -1.973  0.00  0.00    -0.011 A 
ATOM     34  C   LIG d   1      10.240   5.953  -1.485  0.00  0.00     0.162 A 
ATOM     35  H   LIG d   1       9.276   7.204  -2.931  0.00  0.00     0.066 H 
ATOM     36  C   LIG d   1      10.878   5.903  -0.251  0.00  0.00     0.159 A 
ATOM     37  C   LIG d   1      11.046   7.065   0.486  0.00  0.00    -0.016 A 
ATOM     38  C   LIG d   1      10.583   8.270  -0.008  0.00  0.00    -0.052 A 
ATOM     39  H   LIG d   1      11.543   7.028   1.445  0.00  0.00     0.066 H 
ATOM     40  H   LIG d   1      10.719   9.175   0.566  0.00  0.00     0.062 H 
BRANCH  34  41
ATOM     41  O   LIG d   1      10.072   4.815  -2.213  0.00  0.00    -0.491 OA
BRANCH  41  42
ATOM     42  C   LIG d   1       9.863   4.969  -3.618  0.00  0.00     0.079 C 
ATOM     43  H   LIG d   1      10.810   5.204  -4.104  0.00  0.00     0.066 H 
ATOM     44  H   LIG d   1       9.464   4.042  -4.030  0.00  0.00     0.066 H 
ATOM     45  H   LIG d   1       9.154   5.779  -3.793  0.00  0.00     0.066 H 
ENDBRANCH  41  42
ENDBRANCH  34  41
BRANCH  36  46
ATOM     46  O   LIG d   1      11.339   4.718   0.231  0.00  0.00    -0.503 OA
ATOM     47  H   LIG d   1      11.135   3.958  -0.333  0.00  0.00     0.292 HD
ENDBRANCH  36  46
ENDBRANCH  30  32
BRANCH  30  48
ATOM     48  O   LIG d   1       9.454  10.608  -0.719  0.00  0.00    -0.384 OA
ATOM     49  H   LIG d   1       9.079  11.463  -0.970  0.00  0.00     0.210 HD
ENDBRANCH  30  48
ENDBRANCH   1  30
TORSDOF 13
ENDMDL
MODEL 10
REMARK VINA RESULT:      -5.5      9.731     12.147
REMARK  13 active torsions:
REMARK  status: ('A' for Active; 'I' for Inactive)
REMARK    1  A    between atoms: C_1  and  C_2 
REMARK    2  A    between atoms: C_3  and  C_4 
REMARK    3  A    between atoms: C_7  and  O_12 
REMARK    4  A    between atoms: C_8  and  O_10 
REMARK    5  A    between atoms: O_10  and  C_11 
REMARK    6  A    between atoms: O_12  and  C_13 
REMARK    7  A    between atoms: C_13  and  C_15 
REMARK    8  A    between atoms: C_13  and  C_16 
REMARK    9  A    between atoms: C_16  and  C_18 
REMARK   10  A    between atoms: C_16  and  O_27 
REMARK   11  A    between atoms: C_21  and  O_26 
REMARK   12  A    between atoms: C_22  and  O_24 
REMARK   13  A    between atoms: O_24  and  C_25 
ROOT
ATOM      1  C   LIG d   1      10.324  10.234  -3.122  0.00  0.00     0.127 C 
ATOM      2  H   LIG d   1      10.830   9.321  -3.438  0.00  0.00     0.076 H 
ENDROOT
BRANCH   1   3
ATOM      3  O   LIG d   1       9.535  10.737  -4.202  0.00  0.00    -0.482 OA
BRANCH   3   4
ATOM      4  C   LIG d   1       9.573  10.043  -5.371  0.00  0.00     0.163 A 
ATOM      5  C   LIG d   1       9.230   8.700  -5.389  0.00  0.00    -0.016 A 
ATOM      6  C   LIG d   1       9.261   7.993  -6.574  0.00  0.00    -0.051 A 
ATOM      7  H   LIG d   1       8.932   8.207  -4.475  0.00  0.00     0.066 H 
ATOM      8  C   LIG d   1       9.644   8.629  -7.755  0.00  0.00    -0.022 A 
ATOM      9  H   LIG d   1       8.988   6.948  -6.586  0.00  0.00     0.062 H 
ATOM     10  C   LIG d   1       9.995   9.979  -7.736  0.00  0.00    -0.009 A 
ATOM     11  C   LIG d   1       9.962  10.682  -6.545  0.00  0.00     0.162 A 
ATOM     12  H   LIG d   1      10.293  10.474  -8.648  0.00  0.00     0.066 H 
BRANCH   8  13
ATOM     13  C   LIG d   1       9.677   7.873  -9.025  0.00  0.00    -0.059 C 
ATOM     14  C   LIG d   1       9.006   6.735  -9.137  0.00  0.00    -0.086 C 
ATOM     15  H   LIG d   1       8.435   6.360  -8.300  0.00  0.00     0.057 H 
ATOM     16  H   LIG d   1      10.248   8.248  -9.862  0.00  0.00     0.062 H 
BRANCH  14  17
ATOM     17  C   LIG d   1       9.040   5.965 -10.431  0.00  0.00    -0.046 C 
ATOM     18  H   LIG d   1       9.356   6.625 -11.239  0.00  0.00     0.027 H 
ATOM     19  H   LIG d   1       9.743   5.136 -10.344  0.00  0.00     0.027 H 
ATOM     20  H   LIG d   1       8.045   5.575 -10.649  0.00  0.00     0.027 H 
ENDBRANCH  14  17
ENDBRANCH   8  13
BRANCH  11  21
ATOM     21  O   LIG d   1      10.305  11.998  -6.524  0.00  0.00    -0.491 OA
BRANCH  21  22
ATOM     22  C   LIG d   1       9.523  12.886  -7.325  0.00  0.00     0.079 C 
ATOM     23  H   LIG d   1       9.663  12.644  -8.378  0.00  0.00     0.066 H 
ATOM     24  H   LIG d   1       8.470  12.779  -7.065  0.00  0.00     0.066 H 
ATOM     25  H   LIG d   1       9.840  13.913  -7.143  0.00  0.00     0.066 H 
ENDBRANCH  21  22
ENDBRANCH  11  21
ENDBRANCH   3   4
ENDBRANCH   1   3
BRANCH   1  26
ATOM     26  C   LIG d   1      11.364  11.281  -2.719  0.00  0.00    -0.025 C 
ATOM     27  H   LIG d   1      11.151  12.220  -3.229  0.00  0.00     0.027 H 
ATOM     28  H   LIG d   1      11.324  11.436  -1.641  0.00  0.00     0.027 H 
ATOM     29  H   LIG d   1      12.358  10.932  -2.999  0.00  0.00     0.027 H 
ENDBRANCH   1  26
BRANCH   1  30
ATOM     30  C   LIG d   1       9.419   9.927  -1.928  0.00  0.00     0.117 C 
ATOM     31  H   LIG d   1       8.395   9.787  -2.275  0.00  0.00     0.068 H 
BRANCH  30  32
ATOM     32  C   LIG d   1       9.895   8.669  -1.248  0.00  0.00    -0.012 A 
ATOM     33  C   LIG d   1      10.554   8.747  -0.036  0.00  0.00    -0.011 A 
ATOM     34  C   LIG d   1      10.992   7.591   0.591  0.00  0.00     0.162 A 
ATOM     35  H   LIG d   1      10.728   9.709   0.424  0.00  0.00     0.066 H 
ATOM     36  C   LIG d   1      10.767   6.353  -0.003  0.00  0.00     0.159 A 
ATOM     37  C   LIG d   1      10.105   6.282  -1.219  0.00  0.00    -0.016 A 
ATOM     38  C   LIG d   1       9.666   7.439  -1.835  0.00  0.00    -0.052 A 
ATOM     39  H   LIG d   1       9.927   5.322  -1.681  0.00  0.00     0.066 H 
ATOM     40  H   LIG d   1       9.146   7.381  -2.781  0.00  0.00     0.062 H 
BRANCH  34  41
ATOM     41  O   LIG d   1      11.641   7.667   1.784  0.00  0.00    -0.491 OA
BRANCH  41  42
ATOM     42  C   LIG d   1      11.889   8.973   2.306  0.00  0.00     0.079 C 
ATOM     43  H   LIG d   1      11.670   8.987   3.373  0.00  0.00     0.066 H 
ATOM     44  H   LIG d   1      12.935   9.236   2.146  0.00  0.00     0.066 H 
ATOM     45  H   LIG d   1      11.251   9.695   1.795  0.00  0.00     0.066 H 
ENDBRANCH  41  42
ENDBRANCH  34  41
BRANCH  36  46
ATOM     46  O   LIG d   1      11.193   5.216   0.608  0.00  0.00    -0.503 OA
ATOM     47  H   LIG d   1      11.029   5.196   1.561  0.00  0.00     0.292 HD
ENDBRANCH  36  46
ENDBRANCH  30  32
BRANCH  30  48
ATOM     48  O   LIG d   1       9.465  11.014  -1.003  0.00  0.00    -0.384 OA
ATOM     49  H   LIG d   1       8.902  11.762  -1.246  0.00  0.00     0.210 HD
ENDBRANCH  30  48
ENDBRANCH   1  30
TORSDOF 13
ENDMDL
