MODEL 1
REMARK VINA RESULT:      -6.7      0.000      0.000
REMARK  8 active torsions:
REMARK  status: ('A' for Active; 'I' for Inactive)
REMARK    1  A    between atoms: C_1  and  C_2 
REMARK    2  A    between atoms: C_17  and  C_20 
REMARK    3  A    between atoms: C_20  and  C_21 
REMARK    4  A    between atoms: C_21  and  S_22 
REMARK    5  A    between atoms: S_22  and  C_23 
REMARK    6  A    between atoms: N_26  and  C_29 
REMARK    7  A    between atoms: C_29  and  C_30 
REMARK    8  A    between atoms: C_30  and  C_31 
ROOT
ATOM      1  C   LIG d   1       8.158  -0.570  -8.639  0.00  0.00    -0.049 A 
ATOM      2  C   LIG d   1       6.802  -0.797  -8.800  0.00  0.00    -0.051 A 
ATOM      3  C   LIG d   1       5.938   0.263  -8.960  0.00  0.00     0.005 A 
ATOM      4  C   LIG d   1       6.413   1.571  -8.956  0.00  0.00     0.057 A 
ATOM      5  C   LIG d   1       7.780   1.792  -8.794  0.00  0.00     0.063 A 
ATOM      6  C   LIG d   1       8.642   0.726  -8.632  0.00  0.00    -0.039 A 
ATOM      7 CL   LIG d   1       8.399   3.413  -8.790  0.00  0.00    -0.082 Cl
ATOM      8  N   LIG d   1       5.358   2.468  -9.128  0.00  0.00    -0.282 N 
ATOM      9  C   LIG d   1       4.171   1.841  -9.251  0.00  0.00     0.243 A 
ATOM     10  O   LIG d   1       3.088   2.362  -9.409  0.00  0.00    -0.273 OA
ATOM     11  C   LIG d   1       4.453   0.365  -9.157  0.00  0.00     0.136 A 
ATOM     12  C   LIG d   1       3.682  -0.280  -8.000  0.00  0.00     0.080 A 
ATOM     13  H   LIG d   1       2.817   0.308  -7.695  0.00  0.00     0.043 H 
ATOM     14  C   LIG d   1       3.295  -1.691  -8.526  0.00  0.00     0.065 A 
ATOM     15  H   LIG d   1       2.220  -1.871  -8.503  0.00  0.00     0.042 H 
ATOM     16  C   LIG d   1       3.879  -1.755  -9.953  0.00  0.00     0.021 C 
ATOM     17  H   LIG d   1       4.859  -2.230  -9.942  0.00  0.00     0.047 H 
ATOM     18  N   LIG d   1       4.021  -0.343 -10.377  0.00  0.00    -0.295 N 
ATOM     19  C   LIG d   1       4.063  -2.623  -7.618  0.00  0.00     0.227 A 
ATOM     20  O   LIG d   1       4.046  -3.835  -7.681  0.00  0.00    -0.275 OA
ATOM     21  N   LIG d   1       4.765  -1.906  -6.734  0.00  0.00    -0.241 N 
ATOM     22  C   LIG d   1       4.624  -0.566  -6.852  0.00  0.00     0.228 A 
ATOM     23  O   LIG d   1       5.159   0.273  -6.160  0.00  0.00    -0.275 OA
ATOM     24  H   LIG d   1       6.422  -1.808  -8.802  0.00  0.00     0.062 H 
ATOM     25  H   LIG d   1       9.699   0.904  -8.503  0.00  0.00     0.064 H 
ATOM     26  H   LIG d   1       5.464   3.433  -9.155  0.00  0.00     0.155 HD
ATOM     27  H   LIG d   1       3.139   0.016 -10.710  0.00  0.00     0.123 HD
ENDROOT
BRANCH  16  28
ATOM     28  C   LIG d   1       2.931  -2.515 -10.883  0.00  0.00    -0.028 C 
ATOM     29  H   LIG d   1       2.993  -2.095 -11.887  0.00  0.00     0.029 H 
ATOM     30  H   LIG d   1       3.216  -3.567 -10.911  0.00  0.00     0.029 H 
BRANCH  28  31
ATOM     31  C   LIG d   1       1.497  -2.389 -10.364  0.00  0.00    -0.005 C 
ATOM     32  H   LIG d   1       1.515  -2.140  -9.304  0.00  0.00     0.038 H 
ATOM     33  H   LIG d   1       0.980  -1.603 -10.914  0.00  0.00     0.038 H 
BRANCH  31  34
ATOM     34  S   LIG d   1       0.628  -3.964 -10.601  0.00  0.00    -0.164 SA
BRANCH  34  35
ATOM     35  C   LIG d   1       1.890  -5.218 -10.251  0.00  0.00    -0.018 C 
ATOM     36  H   LIG d   1       2.840  -4.910 -10.687  0.00  0.00     0.034 H 
ATOM     37  H   LIG d   1       2.003  -5.329  -9.173  0.00  0.00     0.034 H 
ATOM     38  H   LIG d   1       1.584  -6.172 -10.683  0.00  0.00     0.034 H 
ENDBRANCH  34  35
ENDBRANCH  31  34
ENDBRANCH  28  31
ENDBRANCH  16  28
BRANCH   1  39
ATOM     39  C   LIG d   1       9.103  -1.730  -8.465  0.00  0.00    -0.040 C 
ATOM     40  H   LIG d   1      10.051  -1.370  -8.065  0.00  0.00     0.028 H 
ATOM     41  H   LIG d   1       8.668  -2.452  -7.774  0.00  0.00     0.028 H 
ATOM     42  H   LIG d   1       9.273  -2.207  -9.430  0.00  0.00     0.028 H 
ENDBRANCH   1  39
BRANCH  21  43
ATOM     43  C   LIG d   1       5.617  -2.520  -5.713  0.00  0.00     0.026 C 
ATOM     44  H   LIG d   1       6.111  -3.399  -6.131  0.00  0.00     0.047 H 
ATOM     45  H   LIG d   1       6.369  -1.802  -5.387  0.00  0.00     0.047 H 
BRANCH  43  46
ATOM     46  C   LIG d   1       4.759  -2.938  -4.517  0.00  0.00    -0.011 C 
ATOM     47  H   LIG d   1       3.818  -3.354  -4.873  0.00  0.00     0.033 H 
ATOM     48  H   LIG d   1       5.290  -3.690  -3.933  0.00  0.00     0.033 H 
BRANCH  46  49
ATOM     49  C   LIG d   1       4.482  -1.735  -3.652  0.00  0.00    -0.046 A 
ATOM     50  C   LIG d   1       3.184  -1.295  -3.477  0.00  0.00    -0.059 A 
ATOM     51  C   LIG d   1       2.930  -0.194  -2.680  0.00  0.00    -0.061 A 
ATOM     52  H   LIG d   1       2.368  -1.812  -3.959  0.00  0.00     0.062 H 
ATOM     53  C   LIG d   1       3.975   0.471  -2.066  0.00  0.00    -0.062 A 
ATOM     54  H   LIG d   1       1.915   0.148  -2.540  0.00  0.00     0.062 H 
ATOM     55  C   LIG d   1       5.273   0.034  -2.245  0.00  0.00    -0.061 A 
ATOM     56  H   LIG d   1       3.775   1.333  -1.446  0.00  0.00     0.062 H 
ATOM     57  C   LIG d   1       5.528  -1.069  -3.039  0.00  0.00    -0.059 A 
ATOM     58  H   LIG d   1       6.089   0.553  -1.765  0.00  0.00     0.062 H 
ATOM     59  H   LIG d   1       6.542  -1.412  -3.179  0.00  0.00     0.062 H 
ENDBRANCH  46  49
ENDBRANCH  43  46
ENDBRANCH  21  43
TORSDOF 8
ENDMDL
MODEL 2
REMARK VINA RESULT:      -6.4      3.835      6.881
REMARK  8 active torsions:
REMARK  status: ('A' for Active; 'I' for Inactive)
REMARK    1  A    between atoms: C_1  and  C_2 
REMARK    2  A    between atoms: C_17  and  C_20 
REMARK    3  A    between atoms: C_20  and  C_21 
REMARK    4  A    between atoms: C_21  and  S_22 
REMARK    5  A    between atoms: S_22  and  C_23 
REMARK    6  A    between atoms: N_26  and  C_29 
REMARK    7  A    between atoms: C_29  and  C_30 
REMARK    8  A    between atoms: C_30  and  C_31 
ROOT
ATOM      1  C   LIG d   1       5.353  -2.242  -3.945  0.00  0.00    -0.049 A 
ATOM      2  C   LIG d   1       6.517  -1.881  -4.600  0.00  0.00    -0.051 A 
ATOM      3  C   LIG d   1       7.095  -0.655  -4.356  0.00  0.00     0.005 A 
ATOM      4  C   LIG d   1       6.517   0.234  -3.455  0.00  0.00     0.057 A 
ATOM      5  C   LIG d   1       5.345  -0.137  -2.798  0.00  0.00     0.063 A 
ATOM      6  C   LIG d   1       4.767  -1.366  -3.049  0.00  0.00    -0.039 A 
ATOM      7 CL   LIG d   1       4.605   0.952  -1.667  0.00  0.00    -0.082 Cl
ATOM      8  N   LIG d   1       7.275   1.405  -3.378  0.00  0.00    -0.282 N 
ATOM      9  C   LIG d   1       8.353   1.366  -4.185  0.00  0.00     0.243 A 
ATOM     10  O   LIG d   1       9.185   2.237  -4.325  0.00  0.00    -0.273 OA
ATOM     11  C   LIG d   1       8.326   0.030  -4.878  0.00  0.00     0.136 A 
ATOM     12  C   LIG d   1       8.282   0.189  -6.401  0.00  0.00     0.080 A 
ATOM     13  H   LIG d   1       8.645   1.162  -6.730  0.00  0.00     0.043 H 
ATOM     14  C   LIG d   1       9.142  -0.988  -6.942  0.00  0.00     0.065 A 
ATOM     15  H   LIG d   1       9.970  -0.654  -7.569  0.00  0.00     0.042 H 
ATOM     16  C   LIG d   1       9.616  -1.743  -5.683  0.00  0.00     0.021 C 
ATOM     17  H   LIG d   1       8.946  -2.575  -5.464  0.00  0.00     0.047 H 
ATOM     18  N   LIG d   1       9.542  -0.751  -4.586  0.00  0.00    -0.295 N 
ATOM     19  C   LIG d   1       8.141  -1.832  -7.697  0.00  0.00     0.227 A 
ATOM     20  O   LIG d   1       8.395  -2.861  -8.286  0.00  0.00    -0.275 OA
ATOM     21  N   LIG d   1       6.931  -1.267  -7.617  0.00  0.00    -0.241 N 
ATOM     22  C   LIG d   1       6.891  -0.114  -6.910  0.00  0.00     0.228 A 
ATOM     23  O   LIG d   1       5.908   0.567  -6.710  0.00  0.00    -0.275 OA
ATOM     24  H   LIG d   1       6.973  -2.562  -5.303  0.00  0.00     0.062 H 
ATOM     25  H   LIG d   1       3.857  -1.646  -2.540  0.00  0.00     0.064 H 
ATOM     26  H   LIG d   1       7.051   2.159  -2.810  0.00  0.00     0.155 HD
ATOM     27  H   LIG d   1      10.360  -0.161  -4.589  0.00  0.00     0.123 HD
ENDROOT
BRANCH  16  28
ATOM     28  C   LIG d   1      11.047  -2.250  -5.872  0.00  0.00    -0.028 C 
ATOM     29  H   LIG d   1      11.314  -2.198  -6.927  0.00  0.00     0.029 H 
ATOM     30  H   LIG d   1      11.731  -1.629  -5.293  0.00  0.00     0.029 H 
BRANCH  28  31
ATOM     31  C   LIG d   1      11.143  -3.699  -5.390  0.00  0.00    -0.005 C 
ATOM     32  H   LIG d   1      10.167  -4.176  -5.476  0.00  0.00     0.038 H 
ATOM     33  H   LIG d   1      11.866  -4.237  -6.002  0.00  0.00     0.038 H 
BRANCH  31  34
ATOM     34  S   LIG d   1      11.680  -3.726  -3.657  0.00  0.00    -0.164 SA
BRANCH  34  35
ATOM     35  C   LIG d   1      10.202  -4.255  -2.749  0.00  0.00    -0.018 C 
ATOM     36  H   LIG d   1       9.372  -3.589  -2.986  0.00  0.00     0.034 H 
ATOM     37  H   LIG d   1       9.944  -5.274  -3.037  0.00  0.00     0.034 H 
ATOM     38  H   LIG d   1      10.401  -4.220  -1.678  0.00  0.00     0.034 H 
ENDBRANCH  34  35
ENDBRANCH  31  34
ENDBRANCH  28  31
ENDBRANCH  16  28
BRANCH   1  39
ATOM     39  C   LIG d   1       4.720  -3.583  -4.212  0.00  0.00    -0.040 C 
ATOM     40  H   LIG d   1       3.900  -3.744  -3.514  0.00  0.00     0.028 H 
ATOM     41  H   LIG d   1       4.339  -3.608  -5.233  0.00  0.00     0.028 H 
ATOM     42  H   LIG d   1       5.466  -4.368  -4.083  0.00  0.00     0.028 H 
ENDBRANCH   1  39
BRANCH  21  43
ATOM     43  C   LIG d   1       5.743  -1.845  -8.248  0.00  0.00     0.026 C 
ATOM     44  H   LIG d   1       5.872  -2.924  -8.347  0.00  0.00     0.047 H 
ATOM     45  H   LIG d   1       4.867  -1.640  -7.631  0.00  0.00     0.047 H 
BRANCH  43  46
ATOM     46  C   LIG d   1       5.547  -1.225  -9.633  0.00  0.00    -0.011 C 
ATOM     47  H   LIG d   1       6.499  -0.837  -9.994  0.00  0.00     0.033 H 
ATOM     48  H   LIG d   1       5.180  -1.984 -10.323  0.00  0.00     0.033 H 
BRANCH  46  49
ATOM     49  C   LIG d   1       4.547  -0.101  -9.544  0.00  0.00    -0.046 A 
ATOM     50  C   LIG d   1       4.869   1.149 -10.040  0.00  0.00    -0.059 A 
ATOM     51  C   LIG d   1       3.949   2.180  -9.962  0.00  0.00    -0.061 A 
ATOM     52  H   LIG d   1       5.834   1.320 -10.491  0.00  0.00     0.062 H 
ATOM     53  C   LIG d   1       2.714   1.962  -9.381  0.00  0.00    -0.062 A 
ATOM     54  H   LIG d   1       4.198   3.155 -10.353  0.00  0.00     0.062 H 
ATOM     55  C   LIG d   1       2.396   0.714  -8.881  0.00  0.00    -0.061 A 
ATOM     56  H   LIG d   1       1.998   2.768  -9.318  0.00  0.00     0.062 H 
ATOM     57  C   LIG d   1       3.313  -0.318  -8.961  0.00  0.00    -0.059 A 
ATOM     58  H   LIG d   1       1.431   0.543  -8.427  0.00  0.00     0.062 H 
ATOM     59  H   LIG d   1       3.065  -1.294  -8.571  0.00  0.00     0.062 H 
ENDBRANCH  46  49
ENDBRANCH  43  46
ENDBRANCH  21  43
TORSDOF 8
ENDMDL
MODEL 3
REMARK VINA RESULT:      -6.4      2.846      6.525
REMARK  8 active torsions:
REMARK  status: ('A' for Active; 'I' for Inactive)
REMARK    1  A    between atoms: C_1  and  C_2 
REMARK    2  A    between atoms: C_17  and  C_20 
REMARK    3  A    between atoms: C_20  and  C_21 
REMARK    4  A    between atoms: C_21  and  S_22 
REMARK    5  A    between atoms: S_22  and  C_23 
REMARK    6  A    between atoms: N_26  and  C_29 
REMARK    7  A    between atoms: C_29  and  C_30 
REMARK    8  A    between atoms: C_30  and  C_31 
ROOT
ATOM      1  C   LIG d   1       8.010   0.004  -6.903  0.00  0.00    -0.049 A 
ATOM      2  C   LIG d   1       6.653  -0.195  -6.726  0.00  0.00    -0.051 A 
ATOM      3  C   LIG d   1       6.158  -1.468  -6.551  0.00  0.00     0.005 A 
ATOM      4  C   LIG d   1       7.013  -2.567  -6.554  0.00  0.00     0.057 A 
ATOM      5  C   LIG d   1       8.379  -2.359  -6.733  0.00  0.00     0.063 A 
ATOM      6  C   LIG d   1       8.870  -1.080  -6.911  0.00  0.00    -0.039 A 
ATOM      7 CL   LIG d   1       9.467  -3.711  -6.738  0.00  0.00    -0.082 Cl
ATOM      8  N   LIG d   1       6.286  -3.744  -6.365  0.00  0.00    -0.282 N 
ATOM      9  C   LIG d   1       4.966  -3.511  -6.230  0.00  0.00     0.243 A 
ATOM     10  O   LIG d   1       4.097  -4.339  -6.056  0.00  0.00    -0.273 OA
ATOM     11  C   LIG d   1       4.778  -2.021  -6.334  0.00  0.00     0.136 A 
ATOM     12  C   LIG d   1       3.834  -1.654  -7.484  0.00  0.00     0.080 A 
ATOM     13  H   LIG d   1       3.189  -2.482  -7.776  0.00  0.00     0.043 H 
ATOM     14  C   LIG d   1       3.038  -0.426  -6.959  0.00  0.00     0.065 A 
ATOM     15  H   LIG d   1       1.959  -0.586  -6.970  0.00  0.00     0.042 H 
ATOM     16  C   LIG d   1       3.589  -0.174  -5.540  0.00  0.00     0.021 C 
ATOM     17  H   LIG d   1       4.375   0.579  -5.566  0.00  0.00     0.047 H 
ATOM     18  N   LIG d   1       4.163  -1.470  -5.112  0.00  0.00    -0.295 N 
ATOM     19  C   LIG d   1       3.472   0.690  -7.881  0.00  0.00     0.227 A 
ATOM     20  O   LIG d   1       3.083   1.838  -7.824  0.00  0.00    -0.275 OA
ATOM     21  N   LIG d   1       4.351   0.217  -8.771  0.00  0.00    -0.241 N 
ATOM     22  C   LIG d   1       4.630  -1.101  -8.645  0.00  0.00     0.228 A 
ATOM     23  O   LIG d   1       5.390  -1.740  -9.340  0.00  0.00    -0.275 OA
ATOM     24  H   LIG d   1       5.979   0.649  -6.724  0.00  0.00     0.062 H 
ATOM     25  H   LIG d   1       9.928  -0.925  -7.052  0.00  0.00     0.064 H 
ATOM     26  H   LIG d   1       6.685  -4.629  -6.335  0.00  0.00     0.155 HD
ATOM     27  H   LIG d   1       3.438  -2.080  -4.767  0.00  0.00     0.123 HD
ENDROOT
BRANCH  16  28
ATOM     28  C   LIG d   1       2.463   0.265  -4.602  0.00  0.00    -0.028 C 
ATOM     29  H   LIG d   1       2.320   1.343  -4.686  0.00  0.00     0.029 H 
ATOM     30  H   LIG d   1       1.540  -0.246  -4.876  0.00  0.00     0.029 H 
BRANCH  28  31
ATOM     31  C   LIG d   1       2.833  -0.089  -3.160  0.00  0.00    -0.005 C 
ATOM     32  H   LIG d   1       1.924  -0.250  -2.580  0.00  0.00     0.038 H 
ATOM     33  H   LIG d   1       3.434  -0.998  -3.153  0.00  0.00     0.038 H 
BRANCH  31  34
ATOM     34  S   LIG d   1       3.784   1.270  -2.428  0.00  0.00    -0.164 SA
BRANCH  34  35
ATOM     35  C   LIG d   1       5.510   0.734  -2.586  0.00  0.00    -0.018 C 
ATOM     36  H   LIG d   1       5.724  -0.029  -1.838  0.00  0.00     0.034 H 
ATOM     37  H   LIG d   1       5.672   0.322  -3.582  0.00  0.00     0.034 H 
ATOM     38  H   LIG d   1       6.171   1.588  -2.434  0.00  0.00     0.034 H 
ENDBRANCH  34  35
ENDBRANCH  31  34
ENDBRANCH  28  31
ENDBRANCH  16  28
BRANCH   1  39
ATOM     39  C   LIG d   1       8.551   1.397  -7.095  0.00  0.00    -0.040 C 
ATOM     40  H   LIG d   1       9.511   1.347  -7.607  0.00  0.00     0.028 H 
ATOM     41  H   LIG d   1       7.850   1.980  -7.692  0.00  0.00     0.028 H 
ATOM     42  H   LIG d   1       8.682   1.872  -6.122  0.00  0.00     0.028 H 
ENDBRANCH   1  39
BRANCH  21  43
ATOM     43  C   LIG d   1       4.962   1.054  -9.806  0.00  0.00     0.026 C 
ATOM     44  H   LIG d   1       5.332   1.976  -9.356  0.00  0.00     0.047 H 
ATOM     45  H   LIG d   1       5.790   0.517 -10.267  0.00  0.00     0.047 H 
BRANCH  43  46
ATOM     46  C   LIG d   1       3.917   1.391 -10.872  0.00  0.00    -0.011 C 
ATOM     47  H   LIG d   1       3.013   1.762 -10.390  0.00  0.00     0.033 H 
ATOM     48  H   LIG d   1       4.312   2.157 -11.539  0.00  0.00     0.033 H 
BRANCH  46  49
ATOM     49  C   LIG d   1       3.592   0.152 -11.667  0.00  0.00    -0.046 A 
ATOM     50  C   LIG d   1       2.403  -0.518 -11.444  0.00  0.00    -0.059 A 
ATOM     51  C   LIG d   1       2.104  -1.652 -12.176  0.00  0.00    -0.061 A 
ATOM     52  H   LIG d   1       1.708  -0.155 -10.703  0.00  0.00     0.062 H 
ATOM     53  C   LIG d   1       2.996  -2.120 -13.123  0.00  0.00    -0.062 A 
ATOM     54  H   LIG d   1       1.173  -2.173 -12.006  0.00  0.00     0.062 H 
ATOM     55  C   LIG d   1       4.186  -1.452 -13.341  0.00  0.00    -0.061 A 
ATOM     56  H   LIG d   1       2.762  -3.008 -13.693  0.00  0.00     0.062 H 
ATOM     57  C   LIG d   1       4.485  -0.316 -12.612  0.00  0.00    -0.059 A 
ATOM     58  H   LIG d   1       4.882  -1.817 -14.081  0.00  0.00     0.062 H 
ATOM     59  H   LIG d   1       5.414   0.206 -12.782  0.00  0.00     0.062 H 
ENDBRANCH  46  49
ENDBRANCH  43  46
ENDBRANCH  21  43
TORSDOF 8
ENDMDL
MODEL 4
REMARK VINA RESULT:      -6.4      2.219      2.973
REMARK  8 active torsions:
REMARK  status: ('A' for Active; 'I' for Inactive)
REMARK    1  A    between atoms: C_1  and  C_2 
REMARK    2  A    between atoms: C_17  and  C_20 
REMARK    3  A    between atoms: C_20  and  C_21 
REMARK    4  A    between atoms: C_21  and  S_22 
REMARK    5  A    between atoms: S_22  and  C_23 
REMARK    6  A    between atoms: N_26  and  C_29 
REMARK    7  A    between atoms: C_29  and  C_30 
REMARK    8  A    between atoms: C_30  and  C_31 
ROOT
ATOM      1  C   LIG d   1       6.932   0.946  -8.793  0.00  0.00    -0.049 A 
ATOM      2  C   LIG d   1       6.557  -0.385  -8.753  0.00  0.00    -0.051 A 
ATOM      3  C   LIG d   1       5.247  -0.741  -8.985  0.00  0.00     0.005 A 
ATOM      4  C   LIG d   1       4.287   0.230  -9.259  0.00  0.00     0.057 A 
ATOM      5  C   LIG d   1       4.673   1.569  -9.299  0.00  0.00     0.063 A 
ATOM      6  C   LIG d   1       5.988   1.920  -9.062  0.00  0.00    -0.039 A 
ATOM      7 CL   LIG d   1       3.497   2.798  -9.641  0.00  0.00    -0.082 Cl
ATOM      8  N   LIG d   1       3.039  -0.366  -9.454  0.00  0.00    -0.282 N 
ATOM      9  C   LIG d   1       3.091  -1.707  -9.328  0.00  0.00     0.243 A 
ATOM     10  O   LIG d   1       2.166  -2.482  -9.443  0.00  0.00    -0.273 OA
ATOM     11  C   LIG d   1       4.523  -2.056  -9.020  0.00  0.00     0.136 A 
ATOM     12  C   LIG d   1       4.643  -2.805  -7.688  0.00  0.00     0.080 A 
ATOM     13  H   LIG d   1       3.708  -3.275  -7.387  0.00  0.00     0.043 H 
ATOM     14  C   LIG d   1       5.786  -3.833  -7.920  0.00  0.00     0.065 A 
ATOM     15  H   LIG d   1       5.472  -4.862  -7.739  0.00  0.00     0.042 H 
ATOM     16  C   LIG d   1       6.243  -3.596  -9.374  0.00  0.00     0.021 C 
ATOM     17  H   LIG d   1       7.097  -2.919  -9.399  0.00  0.00     0.047 H 
ATOM     18  N   LIG d   1       5.088  -2.956 -10.044  0.00  0.00    -0.295 N 
ATOM     19  C   LIG d   1       6.865  -3.376  -6.965  0.00  0.00     0.227 A 
ATOM     20  O   LIG d   1       7.945  -3.909  -6.820  0.00  0.00    -0.275 OA
ATOM     21  N   LIG d   1       6.444  -2.292  -6.303  0.00  0.00    -0.241 N 
ATOM     22  C   LIG d   1       5.197  -1.880  -6.628  0.00  0.00     0.228 A 
ATOM     23  O   LIG d   1       4.614  -0.928  -6.155  0.00  0.00    -0.275 OA
ATOM     24  H   LIG d   1       7.292  -1.147  -8.539  0.00  0.00     0.062 H 
ATOM     25  H   LIG d   1       6.280   2.958  -9.090  0.00  0.00     0.064 H 
ATOM     26  H   LIG d   1       2.228   0.127  -9.655  0.00  0.00     0.155 HD
ATOM     27  H   LIG d   1       4.414  -3.651 -10.326  0.00  0.00     0.123 HD
ENDROOT
BRANCH  16  28
ATOM     28  C   LIG d   1       6.599  -4.925 -10.044  0.00  0.00    -0.028 C 
ATOM     29  H   LIG d   1       6.266  -4.909 -11.082  0.00  0.00     0.029 H 
ATOM     30  H   LIG d   1       7.679  -5.070 -10.012  0.00  0.00     0.029 H 
BRANCH  28  31
ATOM     31  C   LIG d   1       5.908  -6.071  -9.304  0.00  0.00    -0.005 C 
ATOM     32  H   LIG d   1       6.614  -6.889  -9.160  0.00  0.00     0.038 H 
ATOM     33  H   LIG d   1       5.558  -5.718  -8.334  0.00  0.00     0.038 H 
BRANCH  31  34
ATOM     34  S   LIG d   1       4.496  -6.657 -10.280  0.00  0.00    -0.164 SA
BRANCH  34  35
ATOM     35  C   LIG d   1       3.057  -5.926  -9.452  0.00  0.00    -0.018 C 
ATOM     36  H   LIG d   1       2.688  -5.085 -10.038  0.00  0.00     0.034 H 
ATOM     37  H   LIG d   1       2.272  -6.676  -9.358  0.00  0.00     0.034 H 
ATOM     38  H   LIG d   1       3.346  -5.578  -8.459  0.00  0.00     0.034 H 
ENDBRANCH  34  35
ENDBRANCH  31  34
ENDBRANCH  28  31
ENDBRANCH  16  28
BRANCH   1  39
ATOM     39  C   LIG d   1       8.366   1.334  -8.539  0.00  0.00    -0.040 C 
ATOM     40  H   LIG d   1       8.590   2.262  -9.064  0.00  0.00     0.028 H 
ATOM     41  H   LIG d   1       8.520   1.476  -7.469  0.00  0.00     0.028 H 
ATOM     42  H   LIG d   1       9.025   0.544  -8.899  0.00  0.00     0.028 H 
ENDBRANCH   1  39
BRANCH  21  43
ATOM     43  C   LIG d   1       7.263  -1.607  -5.301  0.00  0.00     0.026 C 
ATOM     44  H   LIG d   1       8.319  -1.777  -5.516  0.00  0.00     0.047 H 
ATOM     45  H   LIG d   1       7.054  -0.538  -5.330  0.00  0.00     0.047 H 
BRANCH  43  46
ATOM     46  C   LIG d   1       6.932  -2.153  -3.911  0.00  0.00    -0.011 C 
ATOM     47  H   LIG d   1       6.438  -3.120  -4.008  0.00  0.00     0.033 H 
ATOM     48  H   LIG d   1       7.851  -2.272  -3.338  0.00  0.00     0.033 H 
BRANCH  46  49
ATOM     49  C   LIG d   1       6.017  -1.191  -3.197  0.00  0.00    -0.046 A 
ATOM     50  C   LIG d   1       4.896  -1.663  -2.540  0.00  0.00    -0.059 A 
ATOM     51  C   LIG d   1       4.059  -0.781  -1.882  0.00  0.00    -0.061 A 
ATOM     52  H   LIG d   1       4.676  -2.720  -2.537  0.00  0.00     0.062 H 
ATOM     53  C   LIG d   1       4.339   0.573  -1.889  0.00  0.00    -0.062 A 
ATOM     54  H   LIG d   1       3.186  -1.149  -1.365  0.00  0.00     0.062 H 
ATOM     55  C   LIG d   1       5.456   1.045  -2.551  0.00  0.00    -0.061 A 
ATOM     56  H   LIG d   1       3.683   1.263  -1.377  0.00  0.00     0.062 H 
ATOM     57  C   LIG d   1       6.296   0.163  -3.206  0.00  0.00    -0.059 A 
ATOM     58  H   LIG d   1       5.675   2.103  -2.556  0.00  0.00     0.062 H 
ATOM     59  H   LIG d   1       7.169   0.531  -3.723  0.00  0.00     0.062 H 
ENDBRANCH  46  49
ENDBRANCH  43  46
ENDBRANCH  21  43
TORSDOF 8
ENDMDL
MODEL 5
REMARK VINA RESULT:      -6.3      4.050      7.237
REMARK  8 active torsions:
REMARK  status: ('A' for Active; 'I' for Inactive)
REMARK    1  A    between atoms: C_1  and  C_2 
REMARK    2  A    between atoms: C_17  and  C_20 
REMARK    3  A    between atoms: C_20  and  C_21 
REMARK    4  A    between atoms: C_21  and  S_22 
REMARK    5  A    between atoms: S_22  and  C_23 
REMARK    6  A    between atoms: N_26  and  C_29 
REMARK    7  A    between atoms: C_29  and  C_30 
REMARK    8  A    between atoms: C_30  and  C_31 
ROOT
ATOM      1  C   LIG d   1       5.767  -3.379  -4.965  0.00  0.00    -0.049 A 
ATOM      2  C   LIG d   1       6.761  -2.485  -5.318  0.00  0.00    -0.051 A 
ATOM      3  C   LIG d   1       6.891  -1.293  -4.641  0.00  0.00     0.005 A 
ATOM      4  C   LIG d   1       6.025  -0.972  -3.599  0.00  0.00     0.057 A 
ATOM      5  C   LIG d   1       5.026  -1.879  -3.248  0.00  0.00     0.063 A 
ATOM      6  C   LIG d   1       4.899  -3.072  -3.933  0.00  0.00    -0.039 A 
ATOM      7 CL   LIG d   1       3.936  -1.506  -1.951  0.00  0.00    -0.082 Cl
ATOM      8  N   LIG d   1       6.347   0.280  -3.072  0.00  0.00    -0.282 N 
ATOM      9  C   LIG d   1       7.398   0.842  -3.701  0.00  0.00     0.243 A 
ATOM     10  O   LIG d   1       7.896   1.921  -3.459  0.00  0.00    -0.273 OA
ATOM     11  C   LIG d   1       7.836  -0.132  -4.762  0.00  0.00     0.136 A 
ATOM     12  C   LIG d   1       7.783   0.498  -6.158  0.00  0.00     0.080 A 
ATOM     13  H   LIG d   1       7.809   1.587  -6.126  0.00  0.00     0.043 H 
ATOM     14  C   LIG d   1       9.000  -0.111  -6.908  0.00  0.00     0.065 A 
ATOM     15  H   LIG d   1       9.686   0.647  -7.289  0.00  0.00     0.042 H 
ATOM     16  C   LIG d   1       9.665  -1.055  -5.885  0.00  0.00     0.021 C 
ATOM     17  H   LIG d   1       9.305  -2.075  -6.019  0.00  0.00     0.047 H 
ATOM     18  N   LIG d   1       9.235  -0.553  -4.559  0.00  0.00    -0.295 N 
ATOM     19  C   LIG d   1       8.358  -0.923  -8.010  0.00  0.00     0.227 A 
ATOM     20  O   LIG d   1       8.957  -1.572  -8.843  0.00  0.00    -0.275 OA
ATOM     21  N   LIG d   1       7.028  -0.817  -7.925  0.00  0.00    -0.241 N 
ATOM     22  C   LIG d   1       6.587  -0.032  -6.915  0.00  0.00     0.228 A 
ATOM     23  O   LIG d   1       5.428   0.210  -6.653  0.00  0.00    -0.275 OA
ATOM     24  H   LIG d   1       7.437  -2.721  -6.127  0.00  0.00     0.062 H 
ATOM     25  H   LIG d   1       4.121  -3.768  -3.659  0.00  0.00     0.064 H 
ATOM     26  H   LIG d   1       5.869   0.698  -2.338  0.00  0.00     0.155 HD
ATOM     27  H   LIG d   1       9.809   0.226  -4.275  0.00  0.00     0.123 HD
ENDROOT
BRANCH  16  28
ATOM     28  C   LIG d   1      11.188  -1.006  -6.024  0.00  0.00    -0.028 C 
ATOM     29  H   LIG d   1      11.630  -1.833  -5.467  0.00  0.00     0.029 H 
ATOM     30  H   LIG d   1      11.459  -1.091  -7.076  0.00  0.00     0.029 H 
BRANCH  28  31
ATOM     31  C   LIG d   1      11.708   0.321  -5.468  0.00  0.00    -0.005 C 
ATOM     32  H   LIG d   1      12.180   0.890  -6.269  0.00  0.00     0.038 H 
ATOM     33  H   LIG d   1      10.877   0.892  -5.056  0.00  0.00     0.038 H 
BRANCH  31  34
ATOM     34  S   LIG d   1      12.924  -0.006  -4.162  0.00  0.00    -0.164 SA
BRANCH  34  35
ATOM     35  C   LIG d   1      13.606   1.629  -3.778  0.00  0.00    -0.018 C 
ATOM     36  H   LIG d   1      14.216   1.975  -4.612  0.00  0.00     0.034 H 
ATOM     37  H   LIG d   1      12.790   2.332  -3.608  0.00  0.00     0.034 H 
ATOM     38  H   LIG d   1      14.222   1.565  -2.880  0.00  0.00     0.034 H 
ENDBRANCH  34  35
ENDBRANCH  31  34
ENDBRANCH  28  31
ENDBRANCH  16  28
BRANCH   1  39
ATOM     39  C   LIG d   1       5.625  -4.684  -5.707  0.00  0.00    -0.040 C 
ATOM     40  H   LIG d   1       5.957  -5.502  -5.069  0.00  0.00     0.028 H 
ATOM     41  H   LIG d   1       4.581  -4.835  -5.979  0.00  0.00     0.028 H 
ATOM     42  H   LIG d   1       6.236  -4.655  -6.609  0.00  0.00     0.028 H 
ENDBRANCH   1  39
BRANCH  21  43
ATOM     43  C   LIG d   1       6.117  -1.490  -8.854  0.00  0.00     0.026 C 
ATOM     44  H   LIG d   1       6.575  -2.415  -9.206  0.00  0.00     0.047 H 
ATOM     45  H   LIG d   1       5.182  -1.718  -8.344  0.00  0.00     0.047 H 
BRANCH  43  46
ATOM     46  C   LIG d   1       5.837  -0.574 -10.048  0.00  0.00    -0.011 C 
ATOM     47  H   LIG d   1       6.729   0.010 -10.274  0.00  0.00     0.033 H 
ATOM     48  H   LIG d   1       5.570  -1.178 -10.915  0.00  0.00     0.033 H 
BRANCH  46  49
ATOM     49  C   LIG d   1       4.699   0.355  -9.713  0.00  0.00    -0.046 A 
ATOM     50  C   LIG d   1       3.444  -0.160  -9.445  0.00  0.00    -0.059 A 
ATOM     51  C   LIG d   1       2.400   0.692  -9.134  0.00  0.00    -0.061 A 
ATOM     52  H   LIG d   1       3.279  -1.226  -9.476  0.00  0.00     0.062 H 
ATOM     53  C   LIG d   1       2.610   2.058  -9.099  0.00  0.00    -0.062 A 
ATOM     54  H   LIG d   1       1.421   0.290  -8.921  0.00  0.00     0.062 H 
ATOM     55  C   LIG d   1       3.863   2.572  -9.371  0.00  0.00    -0.061 A 
ATOM     56  H   LIG d   1       1.793   2.723  -8.858  0.00  0.00     0.062 H 
ATOM     57  C   LIG d   1       4.908   1.721  -9.679  0.00  0.00    -0.059 A 
ATOM     58  H   LIG d   1       4.027   3.640  -9.344  0.00  0.00     0.062 H 
ATOM     59  H   LIG d   1       5.887   2.122  -9.892  0.00  0.00     0.062 H 
ENDBRANCH  46  49
ENDBRANCH  43  46
ENDBRANCH  21  43
TORSDOF 8
ENDMDL
MODEL 6
REMARK VINA RESULT:      -6.0      3.115      5.931
REMARK  8 active torsions:
REMARK  status: ('A' for Active; 'I' for Inactive)
REMARK    1  A    between atoms: C_1  and  C_2 
REMARK    2  A    between atoms: C_17  and  C_20 
REMARK    3  A    between atoms: C_20  and  C_21 
REMARK    4  A    between atoms: C_21  and  S_22 
REMARK    5  A    between atoms: S_22  and  C_23 
REMARK    6  A    between atoms: N_26  and  C_29 
REMARK    7  A    between atoms: C_29  and  C_30 
REMARK    8  A    between atoms: C_30  and  C_31 
ROOT
ATOM      1  C   LIG d   1       5.837   0.011  -3.398  0.00  0.00    -0.049 A 
ATOM      2  C   LIG d   1       6.308  -1.035  -4.172  0.00  0.00    -0.051 A 
ATOM      3  C   LIG d   1       7.531  -0.934  -4.798  0.00  0.00     0.005 A 
ATOM      4  C   LIG d   1       8.302   0.217  -4.664  0.00  0.00     0.057 A 
ATOM      5  C   LIG d   1       7.820   1.266  -3.883  0.00  0.00     0.063 A 
ATOM      6  C   LIG d   1       6.592   1.161  -3.260  0.00  0.00    -0.039 A 
ATOM      7 CL   LIG d   1       8.763   2.711  -3.697  0.00  0.00    -0.082 Cl
ATOM      8  N   LIG d   1       9.489   0.090  -5.388  0.00  0.00    -0.282 N 
ATOM      9  C   LIG d   1       9.576  -1.099  -6.017  0.00  0.00     0.243 A 
ATOM     10  O   LIG d   1      10.489  -1.485  -6.716  0.00  0.00    -0.273 OA
ATOM     11  C   LIG d   1       8.320  -1.857  -5.681  0.00  0.00     0.136 A 
ATOM     12  C   LIG d   1       7.539  -2.236  -6.944  0.00  0.00     0.080 A 
ATOM     13  H   LIG d   1       8.164  -2.240  -7.837  0.00  0.00     0.043 H 
ATOM     14  C   LIG d   1       6.936  -3.633  -6.627  0.00  0.00     0.065 A 
ATOM     15  H   LIG d   1       7.230  -4.395  -7.350  0.00  0.00     0.042 H 
ATOM     16  C   LIG d   1       7.413  -3.955  -5.195  0.00  0.00     0.021 C 
ATOM     17  H   LIG d   1       6.655  -3.666  -4.468  0.00  0.00     0.047 H 
ATOM     18  N   LIG d   1       8.626  -3.127  -4.997  0.00  0.00    -0.295 N 
ATOM     19  C   LIG d   1       5.446  -3.376  -6.623  0.00  0.00     0.227 A 
ATOM     20  O   LIG d   1       4.592  -4.212  -6.415  0.00  0.00    -0.275 OA
ATOM     21  N   LIG d   1       5.216  -2.085  -6.883  0.00  0.00    -0.241 N 
ATOM     22  C   LIG d   1       6.328  -1.342  -7.087  0.00  0.00     0.228 A 
ATOM     23  O   LIG d   1       6.359  -0.157  -7.340  0.00  0.00    -0.275 OA
ATOM     24  H   LIG d   1       5.718  -1.932  -4.284  0.00  0.00     0.062 H 
ATOM     25  H   LIG d   1       6.223   1.978  -2.659  0.00  0.00     0.064 H 
ATOM     26  H   LIG d   1      10.172   0.777  -5.435  0.00  0.00     0.155 HD
ATOM     27  H   LIG d   1       9.430  -3.576  -5.409  0.00  0.00     0.123 HD
ENDROOT
BRANCH  16  28
ATOM     28  C   LIG d   1       7.737  -5.444  -5.063  0.00  0.00    -0.028 C 
ATOM     29  H   LIG d   1       8.590  -5.573  -4.397  0.00  0.00     0.029 H 
ATOM     30  H   LIG d   1       6.874  -5.968  -4.652  0.00  0.00     0.029 H 
BRANCH  28  31
ATOM     31  C   LIG d   1       8.073  -6.018  -6.441  0.00  0.00    -0.005 C 
ATOM     32  H   LIG d   1       7.783  -5.305  -7.212  0.00  0.00     0.038 H 
ATOM     33  H   LIG d   1       9.144  -6.207  -6.504  0.00  0.00     0.038 H 
BRANCH  31  34
ATOM     34  S   LIG d   1       7.170  -7.572  -6.685  0.00  0.00    -0.164 SA
BRANCH  34  35
ATOM     35  C   LIG d   1       5.765  -7.447  -5.545  0.00  0.00    -0.018 C 
ATOM     36  H   LIG d   1       5.005  -6.795  -5.974  0.00  0.00     0.034 H 
ATOM     37  H   LIG d   1       5.342  -8.439  -5.379  0.00  0.00     0.034 H 
ATOM     38  H   LIG d   1       6.103  -7.034  -4.595  0.00  0.00     0.034 H 
ENDBRANCH  34  35
ENDBRANCH  31  34
ENDBRANCH  28  31
ENDBRANCH  16  28
BRANCH   1  39
ATOM     39  C   LIG d   1       4.499  -0.100  -2.713  0.00  0.00    -0.040 C 
ATOM     40  H   LIG d   1       4.199   0.878  -2.340  0.00  0.00     0.028 H 
ATOM     41  H   LIG d   1       3.756  -0.462  -3.424  0.00  0.00     0.028 H 
ATOM     42  H   LIG d   1       4.575  -0.800  -1.880  0.00  0.00     0.028 H 
ENDBRANCH   1  39
BRANCH  21  43
ATOM     43  C   LIG d   1       3.867  -1.517  -6.949  0.00  0.00     0.026 C 
ATOM     44  H   LIG d   1       3.191  -2.114  -6.335  0.00  0.00     0.047 H 
ATOM     45  H   LIG d   1       3.886  -0.493  -6.578  0.00  0.00     0.047 H 
BRANCH  43  46
ATOM     46  C   LIG d   1       3.381  -1.526  -8.400  0.00  0.00    -0.011 C 
ATOM     47  H   LIG d   1       4.022  -2.175  -8.994  0.00  0.00     0.033 H 
ATOM     48  H   LIG d   1       2.356  -1.896  -8.437  0.00  0.00     0.033 H 
BRANCH  46  49
ATOM     49  C   LIG d   1       3.429  -0.126  -8.955  0.00  0.00    -0.046 A 
ATOM     50  C   LIG d   1       3.052   0.944  -8.164  0.00  0.00    -0.059 A 
ATOM     51  C   LIG d   1       3.100   2.229  -8.672  0.00  0.00    -0.061 A 
ATOM     52  H   LIG d   1       2.724   0.776  -7.149  0.00  0.00     0.062 H 
ATOM     53  C   LIG d   1       3.516   2.443  -9.973  0.00  0.00    -0.062 A 
ATOM     54  H   LIG d   1       2.810   3.065  -8.053  0.00  0.00     0.062 H 
ATOM     55  C   LIG d   1       3.888   1.373 -10.764  0.00  0.00    -0.061 A 
ATOM     56  H   LIG d   1       3.551   3.448 -10.370  0.00  0.00     0.062 H 
ATOM     57  C   LIG d   1       3.844   0.088 -10.256  0.00  0.00    -0.059 A 
ATOM     58  H   LIG d   1       4.214   1.541 -11.781  0.00  0.00     0.062 H 
ATOM     59  H   LIG d   1       4.134  -0.748 -10.874  0.00  0.00     0.062 H 
ENDBRANCH  46  49
ENDBRANCH  43  46
ENDBRANCH  21  43
TORSDOF 8
ENDMDL
MODEL 7
REMARK VINA RESULT:      -5.9      3.355      5.340
REMARK  8 active torsions:
REMARK  status: ('A' for Active; 'I' for Inactive)
REMARK    1  A    between atoms: C_1  and  C_2 
REMARK    2  A    between atoms: C_17  and  C_20 
REMARK    3  A    between atoms: C_20  and  C_21 
REMARK    4  A    between atoms: C_21  and  S_22 
REMARK    5  A    between atoms: S_22  and  C_23 
REMARK    6  A    between atoms: N_26  and  C_29 
REMARK    7  A    between atoms: C_29  and  C_30 
REMARK    8  A    between atoms: C_30  and  C_31 
ROOT
ATOM      1  C   LIG d   1       4.282   1.271 -10.375  0.00  0.00    -0.049 A 
ATOM      2  C   LIG d   1       5.384   0.796  -9.687  0.00  0.00    -0.051 A 
ATOM      3  C   LIG d   1       6.122  -0.248 -10.200  0.00  0.00     0.005 A 
ATOM      4  C   LIG d   1       5.767  -0.837 -11.410  0.00  0.00     0.057 A 
ATOM      5  C   LIG d   1       4.656  -0.352 -12.098  0.00  0.00     0.063 A 
ATOM      6  C   LIG d   1       3.918   0.692 -11.577  0.00  0.00    -0.039 A 
ATOM      7 CL   LIG d   1       4.194  -1.067 -13.610  0.00  0.00    -0.082 Cl
ATOM      8  N   LIG d   1       6.654  -1.870 -11.722  0.00  0.00    -0.282 N 
ATOM      9  C   LIG d   1       7.608  -2.022 -10.782  0.00  0.00     0.243 A 
ATOM     10  O   LIG d   1       8.506  -2.837 -10.787  0.00  0.00    -0.273 OA
ATOM     11  C   LIG d   1       7.342  -0.983  -9.727  0.00  0.00     0.136 A 
ATOM     12  C   LIG d   1       7.120  -1.623  -8.352  0.00  0.00     0.080 A 
ATOM     13  H   LIG d   1       7.543  -2.625  -8.285  0.00  0.00     0.043 H 
ATOM     14  C   LIG d   1       7.767  -0.628  -7.348  0.00  0.00     0.065 A 
ATOM     15  H   LIG d   1       8.538  -1.091  -6.731  0.00  0.00     0.042 H 
ATOM     16  C   LIG d   1       8.312   0.519  -8.223  0.00  0.00     0.021 C 
ATOM     17  H   LIG d   1       7.589   1.332  -8.279  0.00  0.00     0.047 H 
ATOM     18  N   LIG d   1       8.492  -0.072  -9.569  0.00  0.00    -0.295 N 
ATOM     19  C   LIG d   1       6.589  -0.137  -6.538  0.00  0.00     0.227 A 
ATOM     20  O   LIG d   1       6.648   0.665  -5.630  0.00  0.00    -0.275 OA
ATOM     21  N   LIG d   1       5.470  -0.723  -6.978  0.00  0.00    -0.241 N 
ATOM     22  C   LIG d   1       5.650  -1.589  -8.002  0.00  0.00     0.228 A 
ATOM     23  O   LIG d   1       4.783  -2.233  -8.553  0.00  0.00    -0.275 OA
ATOM     24  H   LIG d   1       5.667   1.244  -8.746  0.00  0.00     0.062 H 
ATOM     25  H   LIG d   1       3.056   1.061 -12.112  0.00  0.00     0.064 H 
ATOM     26  H   LIG d   1       6.590  -2.416 -12.522  0.00  0.00     0.155 HD
ATOM     27  H   LIG d   1       9.363  -0.578  -9.618  0.00  0.00     0.123 HD
ENDROOT
BRANCH  16  28
ATOM     28  C   LIG d   1       9.642   1.030  -7.665  0.00  0.00    -0.028 C 
ATOM     29  H   LIG d   1      10.289   1.334  -8.488  0.00  0.00     0.029 H 
ATOM     30  H   LIG d   1       9.459   1.883  -7.012  0.00  0.00     0.029 H 
BRANCH  28  31
ATOM     31  C   LIG d   1      10.322  -0.085  -6.867  0.00  0.00    -0.005 C 
ATOM     32  H   LIG d   1      10.627   0.299  -5.893  0.00  0.00     0.038 H 
ATOM     33  H   LIG d   1       9.624  -0.911  -6.730  0.00  0.00     0.038 H 
BRANCH  31  34
ATOM     34  S   LIG d   1      11.782  -0.671  -7.769  0.00  0.00    -0.164 SA
BRANCH  34  35
ATOM     35  C   LIG d   1      12.096  -2.317  -7.075  0.00  0.00    -0.018 C 
ATOM     36  H   LIG d   1      12.849  -2.243  -6.291  0.00  0.00     0.034 H 
ATOM     37  H   LIG d   1      11.172  -2.716  -6.657  0.00  0.00     0.034 H 
ATOM     38  H   LIG d   1      12.455  -2.981  -7.862  0.00  0.00     0.034 H 
ENDBRANCH  34  35
ENDBRANCH  31  34
ENDBRANCH  28  31
ENDBRANCH  16  28
BRANCH   1  39
ATOM     39  C   LIG d   1       3.475   2.413  -9.812  0.00  0.00    -0.040 C 
ATOM     40  H   LIG d   1       2.609   2.019  -9.281  0.00  0.00     0.028 H 
ATOM     41  H   LIG d   1       4.092   2.989  -9.123  0.00  0.00     0.028 H 
ATOM     42  H   LIG d   1       3.141   3.057 -10.626  0.00  0.00     0.028 H 
ENDBRANCH   1  39
BRANCH  21  43
ATOM     43  C   LIG d   1       4.153  -0.455  -6.396  0.00  0.00     0.026 C 
ATOM     44  H   LIG d   1       4.110   0.580  -6.054  0.00  0.00     0.047 H 
ATOM     45  H   LIG d   1       3.382  -0.621  -7.149  0.00  0.00     0.047 H 
BRANCH  43  46
ATOM     46  C   LIG d   1       3.918  -1.394  -5.211  0.00  0.00    -0.011 C 
ATOM     47  H   LIG d   1       2.918  -1.821  -5.278  0.00  0.00     0.033 H 
ATOM     48  H   LIG d   1       4.656  -2.196  -5.232  0.00  0.00     0.033 H 
BRANCH  46  49
ATOM     49  C   LIG d   1       4.050  -0.622  -3.924  0.00  0.00    -0.046 A 
ATOM     50  C   LIG d   1       4.543  -1.246  -2.793  0.00  0.00    -0.059 A 
ATOM     51  C   LIG d   1       4.668  -0.536  -1.612  0.00  0.00    -0.061 A 
ATOM     52  H   LIG d   1       4.832  -2.285  -2.831  0.00  0.00     0.062 H 
ATOM     53  C   LIG d   1       4.293   0.794  -1.562  0.00  0.00    -0.062 A 
ATOM     54  H   LIG d   1       5.057  -1.022  -0.730  0.00  0.00     0.062 H 
ATOM     55  C   LIG d   1       3.796   1.415  -2.692  0.00  0.00    -0.061 A 
ATOM     56  H   LIG d   1       4.389   1.347  -0.638  0.00  0.00     0.062 H 
ATOM     57  C   LIG d   1       3.674   0.707  -3.873  0.00  0.00    -0.059 A 
ATOM     58  H   LIG d   1       3.503   2.454  -2.652  0.00  0.00     0.062 H 
ATOM     59  H   LIG d   1       3.285   1.192  -4.756  0.00  0.00     0.062 H 
ENDBRANCH  46  49
ENDBRANCH  43  46
ENDBRANCH  21  43
TORSDOF 8
ENDMDL
MODEL 8
REMARK VINA RESULT:      -5.8      4.357      6.822
REMARK  8 active torsions:
REMARK  status: ('A' for Active; 'I' for Inactive)
REMARK    1  A    between atoms: C_1  and  C_2 
REMARK    2  A    between atoms: C_17  and  C_20 
REMARK    3  A    between atoms: C_20  and  C_21 
REMARK    4  A    between atoms: C_21  and  S_22 
REMARK    5  A    between atoms: S_22  and  C_23 
REMARK    6  A    between atoms: N_26  and  C_29 
REMARK    7  A    between atoms: C_29  and  C_30 
REMARK    8  A    between atoms: C_30  and  C_31 
ROOT
ATOM      1  C   LIG d   1       9.139  -4.523  -3.878  0.00  0.00    -0.049 A 
ATOM      2  C   LIG d   1       8.022  -3.715  -3.998  0.00  0.00    -0.051 A 
ATOM      3  C   LIG d   1       7.033  -4.034  -4.901  0.00  0.00     0.005 A 
ATOM      4  C   LIG d   1       7.144  -5.166  -5.703  0.00  0.00     0.057 A 
ATOM      5  C   LIG d   1       8.272  -5.976  -5.576  0.00  0.00     0.063 A 
ATOM      6  C   LIG d   1       9.263  -5.649  -4.671  0.00  0.00    -0.039 A 
ATOM      7 CL   LIG d   1       8.435  -7.394  -6.562  0.00  0.00    -0.082 Cl
ATOM      8  N   LIG d   1       6.030  -5.279  -6.537  0.00  0.00    -0.282 N 
ATOM      9  C   LIG d   1       5.149  -4.276  -6.347  0.00  0.00     0.243 A 
ATOM     10  O   LIG d   1       4.097  -4.116  -6.928  0.00  0.00    -0.273 OA
ATOM     11  C   LIG d   1       5.725  -3.395  -5.272  0.00  0.00     0.136 A 
ATOM     12  C   LIG d   1       5.918  -1.958  -5.768  0.00  0.00     0.080 A 
ATOM     13  H   LIG d   1       5.293  -1.726  -6.630  0.00  0.00     0.043 H 
ATOM     14  C   LIG d   1       5.594  -1.071  -4.533  0.00  0.00     0.065 A 
ATOM     15  H   LIG d   1       4.795  -0.353  -4.725  0.00  0.00     0.042 H 
ATOM     16  C   LIG d   1       5.240  -2.069  -3.411  0.00  0.00     0.021 C 
ATOM     17  H   LIG d   1       6.117  -2.279  -2.799  0.00  0.00     0.047 H 
ATOM     18  N   LIG d   1       4.821  -3.305  -4.110  0.00  0.00    -0.295 N 
ATOM     19  C   LIG d   1       6.916  -0.405  -4.226  0.00  0.00     0.227 A 
ATOM     20  O   LIG d   1       7.111   0.383  -3.325  0.00  0.00    -0.275 OA
ATOM     21  N   LIG d   1       7.837  -0.818  -5.103  0.00  0.00    -0.241 N 
ATOM     22  C   LIG d   1       7.385  -1.697  -6.027  0.00  0.00     0.228 A 
ATOM     23  O   LIG d   1       8.039  -2.199  -6.916  0.00  0.00    -0.275 OA
ATOM     24  H   LIG d   1       7.925  -2.833  -3.382  0.00  0.00     0.062 H 
ATOM     25  H   LIG d   1      10.135  -6.278  -4.579  0.00  0.00     0.064 H 
ATOM     26  H   LIG d   1       5.903  -5.996  -7.179  0.00  0.00     0.155 HD
ATOM     27  H   LIG d   1       3.859  -3.233  -4.405  0.00  0.00     0.123 HD
ENDROOT
BRANCH  16  28
ATOM     28  C   LIG d   1       4.107  -1.516  -2.543  0.00  0.00    -0.028 C 
ATOM     29  H   LIG d   1       3.784  -2.281  -1.837  0.00  0.00     0.029 H 
ATOM     30  H   LIG d   1       4.461  -0.643  -1.996  0.00  0.00     0.029 H 
BRANCH  28  31
ATOM     31  C   LIG d   1       2.931  -1.115  -3.436  0.00  0.00    -0.005 C 
ATOM     32  H   LIG d   1       2.983  -1.665  -4.375  0.00  0.00     0.038 H 
ATOM     33  H   LIG d   1       1.995  -1.350  -2.929  0.00  0.00     0.038 H 
BRANCH  31  34
ATOM     34  S   LIG d   1       3.006   0.665  -3.773  0.00  0.00    -0.164 SA
BRANCH  34  35
ATOM     35  C   LIG d   1       3.771   1.362  -2.283  0.00  0.00    -0.018 C 
ATOM     36  H   LIG d   1       3.250   0.993  -1.400  0.00  0.00     0.034 H 
ATOM     37  H   LIG d   1       4.818   1.062  -2.239  0.00  0.00     0.034 H 
ATOM     38  H   LIG d   1       3.706   2.450  -2.315  0.00  0.00     0.034 H 
ENDBRANCH  34  35
ENDBRANCH  31  34
ENDBRANCH  28  31
ENDBRANCH  16  28
BRANCH   1  39
ATOM     39  C   LIG d   1      10.221  -4.173  -2.889  0.00  0.00    -0.040 C 
ATOM     40  H   LIG d   1      11.196  -4.279  -3.365  0.00  0.00     0.028 H 
ATOM     41  H   LIG d   1      10.090  -3.144  -2.555  0.00  0.00     0.028 H 
ATOM     42  H   LIG d   1      10.160  -4.844  -2.032  0.00  0.00     0.028 H 
ENDBRANCH   1  39
BRANCH  21  43
ATOM     43  C   LIG d   1       9.226  -0.353  -5.073  0.00  0.00     0.026 C 
ATOM     44  H   LIG d   1       9.512  -0.128  -4.045  0.00  0.00     0.047 H 
ATOM     45  H   LIG d   1       9.878  -1.131  -5.469  0.00  0.00     0.047 H 
BRANCH  43  46
ATOM     46  C   LIG d   1       9.360   0.909  -5.927  0.00  0.00    -0.011 C 
ATOM     47  H   LIG d   1      10.211   0.804  -6.599  0.00  0.00     0.033 H 
ATOM     48  H   LIG d   1       8.451   1.050  -6.512  0.00  0.00     0.033 H 
BRANCH  46  49
ATOM     49  C   LIG d   1       9.571   2.103  -5.031  0.00  0.00    -0.046 A 
ATOM     50  C   LIG d   1       9.136   3.352  -5.432  0.00  0.00    -0.059 A 
ATOM     51  C   LIG d   1       9.326   4.446  -4.608  0.00  0.00    -0.061 A 
ATOM     52  H   LIG d   1       8.645   3.473  -6.386  0.00  0.00     0.062 H 
ATOM     53  C   LIG d   1       9.959   4.292  -3.389  0.00  0.00    -0.062 A 
ATOM     54  H   LIG d   1       8.982   5.421  -4.919  0.00  0.00     0.062 H 
ATOM     55  C   LIG d   1      10.398   3.043  -2.991  0.00  0.00    -0.061 A 
ATOM     56  H   LIG d   1      10.109   5.148  -2.747  0.00  0.00     0.062 H 
ATOM     57  C   LIG d   1      10.205   1.948  -3.813  0.00  0.00    -0.059 A 
ATOM     58  H   LIG d   1      10.892   2.923  -2.038  0.00  0.00     0.062 H 
ATOM     59  H   LIG d   1      10.548   0.973  -3.502  0.00  0.00     0.062 H 
ENDBRANCH  46  49
ENDBRANCH  43  46
ENDBRANCH  21  43
TORSDOF 8
ENDMDL
MODEL 9
REMARK VINA RESULT:      -5.7      1.507      1.939
REMARK  8 active torsions:
REMARK  status: ('A' for Active; 'I' for Inactive)
REMARK    1  A    between atoms: C_1  and  C_2 
REMARK    2  A    between atoms: C_17  and  C_20 
REMARK    3  A    between atoms: C_20  and  C_21 
REMARK    4  A    between atoms: C_21  and  S_22 
REMARK    5  A    between atoms: S_22  and  C_23 
REMARK    6  A    between atoms: N_26  and  C_29 
REMARK    7  A    between atoms: C_29  and  C_30 
REMARK    8  A    between atoms: C_30  and  C_31 
ROOT
ATOM      1  C   LIG d   1       7.439  -0.884  -9.921  0.00  0.00    -0.049 A 
ATOM      2  C   LIG d   1       6.059  -0.963  -9.855  0.00  0.00    -0.051 A 
ATOM      3  C   LIG d   1       5.318   0.150  -9.527  0.00  0.00     0.005 A 
ATOM      4  C   LIG d   1       5.945   1.363  -9.254  0.00  0.00     0.057 A 
ATOM      5  C   LIG d   1       7.335   1.435  -9.323  0.00  0.00     0.063 A 
ATOM      6  C   LIG d   1       8.073   0.315  -9.650  0.00  0.00    -0.039 A 
ATOM      7 CL   LIG d   1       8.141   2.935  -8.991  0.00  0.00    -0.082 Cl
ATOM      8  N   LIG d   1       4.995   2.338  -8.943  0.00  0.00    -0.282 N 
ATOM      9  C   LIG d   1       3.737   1.855  -8.989  0.00  0.00     0.243 A 
ATOM     10  O   LIG d   1       2.716   2.471  -8.765  0.00  0.00    -0.273 OA
ATOM     11  C   LIG d   1       3.846   0.405  -9.374  0.00  0.00     0.136 A 
ATOM     12  C   LIG d   1       3.221  -0.506  -8.312  0.00  0.00     0.080 A 
ATOM     13  H   LIG d   1       2.504   0.019  -7.681  0.00  0.00     0.043 H 
ATOM     14  C   LIG d   1       2.574  -1.665  -9.122  0.00  0.00     0.065 A 
ATOM     15  H   LIG d   1       1.506  -1.773  -8.928  0.00  0.00     0.042 H 
ATOM     16  C   LIG d   1       2.880  -1.335 -10.598  0.00  0.00     0.021 C 
ATOM     17  H   LIG d   1       3.781  -1.855 -10.925  0.00  0.00     0.047 H 
ATOM     18  N   LIG d   1       3.118   0.126 -10.627  0.00  0.00    -0.295 N 
ATOM     19  C   LIG d   1       3.371  -2.876  -8.694  0.00  0.00     0.227 A 
ATOM     20  O   LIG d   1       3.192  -4.008  -9.090  0.00  0.00    -0.275 OA
ATOM     21  N   LIG d   1       4.303  -2.505  -7.809  0.00  0.00    -0.241 N 
ATOM     22  C   LIG d   1       4.310  -1.185  -7.513  0.00  0.00     0.228 A 
ATOM     23  O   LIG d   1       5.060  -0.631  -6.739  0.00  0.00    -0.275 OA
ATOM     24  H   LIG d   1       5.562  -1.899 -10.062  0.00  0.00     0.062 H 
ATOM     25  H   LIG d   1       9.150   0.376  -9.699  0.00  0.00     0.064 H 
ATOM     26  H   LIG d   1       5.214   3.256  -8.718  0.00  0.00     0.155 HD
ATOM     27  H   LIG d   1       2.242   0.625 -10.655  0.00  0.00     0.123 HD
ENDROOT
BRANCH  16  28
ATOM     28  C   LIG d   1       1.695  -1.717 -11.487  0.00  0.00    -0.028 C 
ATOM     29  H   LIG d   1       0.817  -1.893 -10.865  0.00  0.00     0.029 H 
ATOM     30  H   LIG d   1       1.488  -0.906 -12.185  0.00  0.00     0.029 H 
BRANCH  28  31
ATOM     31  C   LIG d   1       2.031  -2.989 -12.268  0.00  0.00    -0.005 C 
ATOM     32  H   LIG d   1       2.066  -3.837 -11.584  0.00  0.00     0.038 H 
ATOM     33  H   LIG d   1       1.266  -3.163 -13.025  0.00  0.00     0.038 H 
BRANCH  31  34
ATOM     34  S   LIG d   1       3.645  -2.795 -13.073  0.00  0.00    -0.164 SA
BRANCH  34  35
ATOM     35  C   LIG d   1       3.376  -1.471 -14.283  0.00  0.00    -0.018 C 
ATOM     36  H   LIG d   1       2.600  -1.773 -14.986  0.00  0.00     0.034 H 
ATOM     37  H   LIG d   1       3.065  -0.564 -13.765  0.00  0.00     0.034 H 
ATOM     38  H   LIG d   1       4.302  -1.280 -14.825  0.00  0.00     0.034 H 
ENDBRANCH  34  35
ENDBRANCH  31  34
ENDBRANCH  28  31
ENDBRANCH  16  28
BRANCH   1  39
ATOM     39  C   LIG d   1       8.249  -2.103 -10.281  0.00  0.00    -0.040 C 
ATOM     40  H   LIG d   1       8.671  -1.977 -11.278  0.00  0.00     0.028 H 
ATOM     41  H   LIG d   1       9.055  -2.229  -9.558  0.00  0.00     0.028 H 
ATOM     42  H   LIG d   1       7.606  -2.983 -10.266  0.00  0.00     0.028 H 
ENDBRANCH   1  39
BRANCH  21  43
ATOM     43  C   LIG d   1       5.241  -3.453  -7.202  0.00  0.00     0.026 C 
ATOM     44  H   LIG d   1       5.409  -4.286  -7.885  0.00  0.00     0.047 H 
ATOM     45  H   LIG d   1       6.187  -2.950  -7.003  0.00  0.00     0.047 H 
BRANCH  43  46
ATOM     46  C   LIG d   1       4.657  -3.979  -5.890  0.00  0.00    -0.011 C 
ATOM     47  H   LIG d   1       3.569  -3.939  -5.934  0.00  0.00     0.033 H 
ATOM     48  H   LIG d   1       4.975  -5.011  -5.738  0.00  0.00     0.033 H 
BRANCH  46  49
ATOM     49  C   LIG d   1       5.145  -3.129  -4.745  0.00  0.00    -0.046 A 
ATOM     50  C   LIG d   1       4.238  -2.573  -3.863  0.00  0.00    -0.059 A 
ATOM     51  C   LIG d   1       4.687  -1.796  -2.810  0.00  0.00    -0.061 A 
ATOM     52  H   LIG d   1       3.181  -2.746  -3.993  0.00  0.00     0.062 H 
ATOM     53  C   LIG d   1       6.041  -1.570  -2.645  0.00  0.00    -0.062 A 
ATOM     54  H   LIG d   1       3.979  -1.365  -2.118  0.00  0.00     0.062 H 
ATOM     55  C   LIG d   1       6.946  -2.122  -3.531  0.00  0.00    -0.061 A 
ATOM     56  H   LIG d   1       6.390  -0.961  -1.824  0.00  0.00     0.062 H 
ATOM     57  C   LIG d   1       6.499  -2.902  -4.581  0.00  0.00    -0.059 A 
ATOM     58  H   LIG d   1       8.004  -1.946  -3.402  0.00  0.00     0.062 H 
ATOM     59  H   LIG d   1       7.206  -3.334  -5.273  0.00  0.00     0.062 H 
ENDBRANCH  46  49
ENDBRANCH  43  46
ENDBRANCH  21  43
TORSDOF 8
ENDMDL
