MODEL 1
REMARK VINA RESULT:      -7.4      0.000      0.000
REMARK  4 active torsions:
REMARK  status: ('A' for Active; 'I' for Inactive)
REMARK    1  A    between atoms: C_3  and  N_9 
REMARK       I    between atoms: N_9  and  C_10 
REMARK    2  A    between atoms: C_10  and  C_12 
REMARK    3  A    between atoms: C_12  and  C_13 
REMARK    4  A    between atoms: C_12  and  C_17 
ROOT
ATOM      1  N   LIG d   1       4.053  -0.186  -5.094  0.00  0.00    -0.284 N 
ATOM      2  C   LIG d   1       3.086  -0.220  -4.156  0.00  0.00     0.238 C 
ATOM      3  O   LIG d   1       1.929  -0.379  -4.483  0.00  0.00    -0.275 OA
ATOM      4  H   LIG d   1       4.984  -0.123  -4.828  0.00  0.00     0.155 HD
ENDROOT
BRANCH   1   5
ATOM      5  C   LIG d   1       3.715  -0.239  -6.451  0.00  0.00     0.048 A 
ATOM      6  C   LIG d   1       3.093   0.845  -7.055  0.00  0.00    -0.038 A 
ATOM      7  C   LIG d   1       2.760   0.791  -8.395  0.00  0.00    -0.046 A 
ATOM      8  H   LIG d   1       2.869   1.731  -6.479  0.00  0.00     0.064 H 
ATOM      9  C   LIG d   1       3.047  -0.342  -9.135  0.00  0.00     0.019 A 
ATOM     10  H   LIG d   1       2.273   1.633  -8.865  0.00  0.00     0.063 H 
ATOM     11  C   LIG d   1       3.667  -1.424  -8.536  0.00  0.00    -0.032 A 
ATOM     12 BR   LIG d   1       2.590  -0.412 -10.968  0.00  0.00    -0.050 Br
ATOM     13  C   LIG d   1       4.001  -1.376  -7.197  0.00  0.00     0.040 A 
ATOM     14  H   LIG d   1       3.889  -2.308  -9.116  0.00  0.00     0.064 H 
ATOM     15 BR   LIG d   1       4.849  -2.855  -6.378  0.00  0.00    -0.048 Br
ENDBRANCH   1   5
BRANCH   2  16
ATOM     16  C   LIG d   1       3.441  -0.063  -2.700  0.00  0.00     0.224 C 
ATOM     17  H   LIG d   1       2.528   0.034  -2.112  0.00  0.00     0.057 H 
BRANCH  16  18
ATOM     18  C   LIG d   1       4.222  -1.292  -2.229  0.00  0.00     0.409 C 
ATOM     19  F   LIG d   1       5.318  -1.500  -3.074  0.00  0.00    -0.170 F 
ATOM     20  F   LIG d   1       4.673  -1.085  -0.921  0.00  0.00    -0.170 F 
ATOM     21  F   LIG d   1       3.388  -2.414  -2.261  0.00  0.00    -0.170 F 
ENDBRANCH  16  18
BRANCH  16  22
ATOM     22  C   LIG d   1       4.302   1.189  -2.518  0.00  0.00     0.409 C 
ATOM     23  F   LIG d   1       3.672   2.281  -3.123  0.00  0.00    -0.170 F 
ATOM     24  F   LIG d   1       4.469   1.445  -1.152  0.00  0.00    -0.170 F 
ATOM     25  F   LIG d   1       5.553   0.985  -3.111  0.00  0.00    -0.170 F 
ENDBRANCH  16  22
ENDBRANCH   2  16
TORSDOF 4
ENDMDL
MODEL 2
REMARK VINA RESULT:      -7.3      1.245      2.463
REMARK  4 active torsions:
REMARK  status: ('A' for Active; 'I' for Inactive)
REMARK    1  A    between atoms: C_3  and  N_9 
REMARK       I    between atoms: N_9  and  C_10 
REMARK    2  A    between atoms: C_10  and  C_12 
REMARK    3  A    between atoms: C_12  and  C_13 
REMARK    4  A    between atoms: C_12  and  C_17 
ROOT
ATOM      1  N   LIG d   1       3.650  -0.518  -5.184  0.00  0.00    -0.284 N 
ATOM      2  C   LIG d   1       4.775  -0.109  -4.566  0.00  0.00     0.238 C 
ATOM      3  O   LIG d   1       5.679   0.381  -5.211  0.00  0.00    -0.275 OA
ATOM      4  H   LIG d   1       2.904  -0.850  -4.660  0.00  0.00     0.155 HD
ENDROOT
BRANCH   1   5
ATOM      5  C   LIG d   1       3.559  -0.466  -6.579  0.00  0.00     0.048 A 
ATOM      6  C   LIG d   1       2.985   0.637  -7.198  0.00  0.00    -0.038 A 
ATOM      7  C   LIG d   1       2.896   0.687  -8.576  0.00  0.00    -0.046 A 
ATOM      8  H   LIG d   1       2.609   1.456  -6.602  0.00  0.00     0.064 H 
ATOM      9  C   LIG d   1       3.379  -0.360  -9.339  0.00  0.00     0.019 A 
ATOM     10  H   LIG d   1       2.447   1.543  -9.056  0.00  0.00     0.063 H 
ATOM     11  C   LIG d   1       3.952  -1.461  -8.726  0.00  0.00    -0.032 A 
ATOM     12 BR   LIG d   1       3.256  -0.289 -11.225  0.00  0.00    -0.050 Br
ATOM     13  C   LIG d   1       4.043  -1.517  -7.349  0.00  0.00     0.040 A 
ATOM     14  H   LIG d   1       4.327  -2.278  -9.325  0.00  0.00     0.064 H 
ATOM     15 BR   LIG d   1       4.825  -3.021  -6.512  0.00  0.00    -0.048 Br
ENDBRANCH   1   5
BRANCH   2  16
ATOM     16  C   LIG d   1       4.913  -0.257  -3.072  0.00  0.00     0.224 C 
ATOM     17  H   LIG d   1       5.961  -0.146  -2.791  0.00  0.00     0.057 H 
BRANCH  16  18
ATOM     18  C   LIG d   1       4.081   0.819  -2.373  0.00  0.00     0.409 C 
ATOM     19  F   LIG d   1       4.134   2.005  -3.114  0.00  0.00    -0.170 F 
ATOM     20  F   LIG d   1       2.753   0.391  -2.273  0.00  0.00    -0.170 F 
ATOM     21  F   LIG d   1       4.594   1.046  -1.092  0.00  0.00    -0.170 F 
ENDBRANCH  16  18
BRANCH  16  22
ATOM     22  C   LIG d   1       4.415  -1.642  -2.650  0.00  0.00     0.409 C 
ATOM     23  F   LIG d   1       3.082  -1.797  -3.041  0.00  0.00    -0.170 F 
ATOM     24  F   LIG d   1       5.199  -2.626  -3.264  0.00  0.00    -0.170 F 
ATOM     25  F   LIG d   1       4.512  -1.768  -1.260  0.00  0.00    -0.170 F 
ENDBRANCH  16  22
ENDBRANCH   2  16
TORSDOF 4
ENDMDL
MODEL 3
REMARK VINA RESULT:      -6.6      1.679      2.736
REMARK  4 active torsions:
REMARK  status: ('A' for Active; 'I' for Inactive)
REMARK    1  A    between atoms: C_3  and  N_9 
REMARK       I    between atoms: N_9  and  C_10 
REMARK    2  A    between atoms: C_10  and  C_12 
REMARK    3  A    between atoms: C_12  and  C_13 
REMARK    4  A    between atoms: C_12  and  C_17 
ROOT
ATOM      1  N   LIG d   1       3.904  -1.238  -5.384  0.00  0.00    -0.284 N 
ATOM      2  C   LIG d   1       4.762  -0.402  -4.768  0.00  0.00     0.238 C 
ATOM      3  O   LIG d   1       5.663   0.114  -5.395  0.00  0.00    -0.275 OA
ATOM      4  H   LIG d   1       3.146  -1.600  -4.897  0.00  0.00     0.155 HD
ENDROOT
BRANCH   1   5
ATOM      5  C   LIG d   1       4.105  -1.585  -6.725  0.00  0.00     0.048 A 
ATOM      6  C   LIG d   1       3.651  -0.748  -7.735  0.00  0.00    -0.038 A 
ATOM      7  C   LIG d   1       3.851  -1.091  -9.058  0.00  0.00    -0.046 A 
ATOM      8  H   LIG d   1       3.142   0.172  -7.487  0.00  0.00     0.064 H 
ATOM      9  C   LIG d   1       4.503  -2.269  -9.377  0.00  0.00     0.019 A 
ATOM     10  H   LIG d   1       3.494  -0.443  -9.844  0.00  0.00     0.063 H 
ATOM     11  C   LIG d   1       4.957  -3.105  -8.373  0.00  0.00    -0.032 A 
ATOM     12 BR   LIG d   1       4.775  -2.736 -11.189  0.00  0.00    -0.050 Br
ATOM     13  C   LIG d   1       4.760  -2.767  -7.048  0.00  0.00     0.040 A 
ATOM     14  H   LIG d   1       5.466  -4.024  -8.625  0.00  0.00     0.064 H 
ATOM     15 BR   LIG d   1       5.380  -3.910  -5.676  0.00  0.00    -0.048 Br
ENDBRANCH   1   5
BRANCH   2  16
ATOM     16  C   LIG d   1       4.604  -0.107  -3.298  0.00  0.00     0.224 C 
ATOM     17  H   LIG d   1       5.387   0.582  -2.980  0.00  0.00     0.057 H 
BRANCH  16  18
ATOM     18  C   LIG d   1       3.235   0.528  -3.049  0.00  0.00     0.409 C 
ATOM     19  F   LIG d   1       2.296  -0.476  -2.785  0.00  0.00    -0.170 F 
ATOM     20  F   LIG d   1       3.313   1.394  -1.954  0.00  0.00    -0.170 F 
ATOM     21  F   LIG d   1       2.841   1.247  -4.183  0.00  0.00    -0.170 F 
ENDBRANCH  16  18
BRANCH  16  22
ATOM     22  C   LIG d   1       4.715  -1.409  -2.502  0.00  0.00     0.409 C 
ATOM     23  F   LIG d   1       5.989  -1.958  -2.681  0.00  0.00    -0.170 F 
ATOM     24  F   LIG d   1       4.509  -1.143  -1.143  0.00  0.00    -0.170 F 
ATOM     25  F   LIG d   1       3.749  -2.315  -2.952  0.00  0.00    -0.170 F 
ENDBRANCH  16  22
ENDBRANCH   2  16
TORSDOF 4
ENDMDL
MODEL 4
REMARK VINA RESULT:      -6.4      3.220      4.423
REMARK  4 active torsions:
REMARK  status: ('A' for Active; 'I' for Inactive)
REMARK    1  A    between atoms: C_3  and  N_9 
REMARK       I    between atoms: N_9  and  C_10 
REMARK    2  A    between atoms: C_10  and  C_12 
REMARK    3  A    between atoms: C_12  and  C_13 
REMARK    4  A    between atoms: C_12  and  C_17 
ROOT
ATOM      1  N   LIG d   1       4.572  -1.724  -4.583  0.00  0.00    -0.284 N 
ATOM      2  C   LIG d   1       3.797  -1.659  -3.482  0.00  0.00     0.238 C 
ATOM      3  O   LIG d   1       3.689  -2.626  -2.757  0.00  0.00    -0.275 OA
ATOM      4  H   LIG d   1       4.709  -0.933  -5.126  0.00  0.00     0.155 HD
ENDROOT
BRANCH   1   5
ATOM      5  C   LIG d   1       5.178  -2.934  -4.942  0.00  0.00     0.048 A 
ATOM      6  C   LIG d   1       4.468  -3.878  -5.672  0.00  0.00    -0.038 A 
ATOM      7  C   LIG d   1       5.068  -5.070  -6.026  0.00  0.00    -0.046 A 
ATOM      8  H   LIG d   1       3.447  -3.679  -5.963  0.00  0.00     0.064 H 
ATOM      9  C   LIG d   1       6.376  -5.325  -5.654  0.00  0.00     0.019 A 
ATOM     10  H   LIG d   1       4.515  -5.806  -6.590  0.00  0.00     0.063 H 
ATOM     11  C   LIG d   1       7.087  -4.386  -4.927  0.00  0.00    -0.032 A 
ATOM     12 BR   LIG d   1       7.194  -6.959  -6.141  0.00  0.00    -0.050 Br
ATOM     13  C   LIG d   1       6.492  -3.192  -4.570  0.00  0.00     0.040 A 
ATOM     14  H   LIG d   1       8.108  -4.588  -4.637  0.00  0.00     0.064 H 
ATOM     15 BR   LIG d   1       7.463  -1.910  -3.576  0.00  0.00    -0.048 Br
ENDBRANCH   1   5
BRANCH   2  16
ATOM     16  C   LIG d   1       3.065  -0.385  -3.150  0.00  0.00     0.224 C 
ATOM     17  H   LIG d   1       2.196  -0.616  -2.532  0.00  0.00     0.057 H 
BRANCH  16  18
ATOM     18  C   LIG d   1       3.998   0.556  -2.385  0.00  0.00     0.409 C 
ATOM     19  F   LIG d   1       4.573  -0.129  -1.310  0.00  0.00    -0.170 F 
ATOM     20  F   LIG d   1       5.006   1.011  -3.242  0.00  0.00    -0.170 F 
ATOM     21  F   LIG d   1       3.267   1.649  -1.906  0.00  0.00    -0.170 F 
ENDBRANCH  16  18
BRANCH  16  22
ATOM     22  C   LIG d   1       2.605   0.291  -4.443  0.00  0.00     0.409 C 
ATOM     23  F   LIG d   1       2.614   1.679  -4.273  0.00  0.00    -0.170 F 
ATOM     24  F   LIG d   1       3.473  -0.057  -5.484  0.00  0.00    -0.170 F 
ATOM     25  F   LIG d   1       1.309  -0.132  -4.755  0.00  0.00    -0.170 F 
ENDBRANCH  16  22
ENDBRANCH   2  16
TORSDOF 4
ENDMDL
MODEL 5
REMARK VINA RESULT:      -6.3      3.843      4.669
REMARK  4 active torsions:
REMARK  status: ('A' for Active; 'I' for Inactive)
REMARK    1  A    between atoms: C_3  and  N_9 
REMARK       I    between atoms: N_9  and  C_10 
REMARK    2  A    between atoms: C_10  and  C_12 
REMARK    3  A    between atoms: C_12  and  C_13 
REMARK    4  A    between atoms: C_12  and  C_17 
ROOT
ATOM      1  N   LIG d   1       6.228   0.079  -4.963  0.00  0.00    -0.284 N 
ATOM      2  C   LIG d   1       5.742  -0.398  -3.800  0.00  0.00     0.238 C 
ATOM      3  O   LIG d   1       6.439  -1.094  -3.092  0.00  0.00    -0.275 OA
ATOM      4  H   LIG d   1       5.694   0.687  -5.498  0.00  0.00     0.155 HD
ENDROOT
BRANCH   1   5
ATOM      5  C   LIG d   1       7.501  -0.303  -5.400  0.00  0.00     0.048 A 
ATOM      6  C   LIG d   1       7.662  -1.466  -6.142  0.00  0.00    -0.038 A 
ATOM      7  C   LIG d   1       8.920  -1.842  -6.573  0.00  0.00    -0.046 A 
ATOM      8  H   LIG d   1       6.804  -2.077  -6.383  0.00  0.00     0.064 H 
ATOM      9  C   LIG d   1      10.019  -1.060  -6.265  0.00  0.00     0.019 A 
ATOM     10  H   LIG d   1       9.045  -2.748  -7.146  0.00  0.00     0.063 H 
ATOM     11  C   LIG d   1       9.862   0.099  -5.527  0.00  0.00    -0.032 A 
ATOM     12 BR   LIG d   1      11.739  -1.578  -6.856  0.00  0.00    -0.050 Br
ATOM     13  C   LIG d   1       8.608   0.480  -5.093  0.00  0.00     0.040 A 
ATOM     14  H   LIG d   1      10.723   0.707  -5.288  0.00  0.00     0.064 H 
ATOM     15 BR   LIG d   1       8.394   2.064  -4.084  0.00  0.00    -0.048 Br
ENDBRANCH   1   5
BRANCH   2  16
ATOM     16  C   LIG d   1       4.334  -0.066  -3.378  0.00  0.00     0.224 C 
ATOM     17  H   LIG d   1       3.802   0.388  -4.215  0.00  0.00     0.057 H 
BRANCH  16  18
ATOM     18  C   LIG d   1       3.614  -1.347  -2.951  0.00  0.00     0.409 C 
ATOM     19  F   LIG d   1       3.766  -2.320  -3.945  0.00  0.00    -0.170 F 
ATOM     20  F   LIG d   1       4.163  -1.813  -1.753  0.00  0.00    -0.170 F 
ATOM     21  F   LIG d   1       2.254  -1.077  -2.766  0.00  0.00    -0.170 F 
ENDBRANCH  16  18
BRANCH  16  22
ATOM     22  C   LIG d   1       4.371   0.914  -2.204  0.00  0.00     0.409 C 
ATOM     23  F   LIG d   1       4.591   0.211  -1.016  0.00  0.00    -0.170 F 
ATOM     24  F   LIG d   1       5.407   1.836  -2.399  0.00  0.00    -0.170 F 
ATOM     25  F   LIG d   1       3.151   1.594  -2.125  0.00  0.00    -0.170 F 
ENDBRANCH  16  22
ENDBRANCH   2  16
TORSDOF 4
ENDMDL
MODEL 6
REMARK VINA RESULT:      -6.3      3.948      4.853
REMARK  4 active torsions:
REMARK  status: ('A' for Active; 'I' for Inactive)
REMARK    1  A    between atoms: C_3  and  N_9 
REMARK       I    between atoms: N_9  and  C_10 
REMARK    2  A    between atoms: C_10  and  C_12 
REMARK    3  A    between atoms: C_12  and  C_13 
REMARK    4  A    between atoms: C_12  and  C_17 
ROOT
ATOM      1  N   LIG d   1       7.361   0.122  -3.557  0.00  0.00    -0.284 N 
ATOM      2  C   LIG d   1       6.045  -0.080  -3.767  0.00  0.00     0.238 C 
ATOM      3  O   LIG d   1       5.572   0.098  -4.871  0.00  0.00    -0.275 OA
ATOM      4  H   LIG d   1       7.750  -0.081  -2.692  0.00  0.00     0.155 HD
ENDROOT
BRANCH   1   5
ATOM      5  C   LIG d   1       8.165   0.626  -4.586  0.00  0.00     0.048 A 
ATOM      6  C   LIG d   1       8.219   1.994  -4.820  0.00  0.00    -0.038 A 
ATOM      7  C   LIG d   1       9.014   2.489  -5.835  0.00  0.00    -0.046 A 
ATOM      8  H   LIG d   1       7.640   2.670  -4.208  0.00  0.00     0.064 H 
ATOM      9  C   LIG d   1       9.757   1.624  -6.618  0.00  0.00     0.019 A 
ATOM     10  H   LIG d   1       9.054   3.552  -6.020  0.00  0.00     0.063 H 
ATOM     11  C   LIG d   1       9.706   0.260  -6.387  0.00  0.00    -0.032 A 
ATOM     12 BR   LIG d   1      10.844   2.305  -8.007  0.00  0.00    -0.050 Br
ATOM     13  C   LIG d   1       8.912  -0.241  -5.374  0.00  0.00     0.040 A 
ATOM     14  H   LIG d   1      10.286  -0.413  -7.001  0.00  0.00     0.064 H 
ATOM     15 BR   LIG d   1       8.842  -2.104  -5.059  0.00  0.00    -0.048 Br
ENDBRANCH   1   5
BRANCH   2  16
ATOM     16  C   LIG d   1       5.160  -0.527  -2.633  0.00  0.00     0.224 C 
ATOM     17  H   LIG d   1       5.778  -0.838  -1.791  0.00  0.00     0.057 H 
BRANCH  16  18
ATOM     18  C   LIG d   1       4.257   0.631  -2.202  0.00  0.00     0.409 C 
ATOM     19  F   LIG d   1       4.637   1.069  -0.929  0.00  0.00    -0.170 F 
ATOM     20  F   LIG d   1       4.382   1.684  -3.114  0.00  0.00    -0.170 F 
ATOM     21  F   LIG d   1       2.927   0.199  -2.170  0.00  0.00    -0.170 F 
ENDBRANCH  16  18
BRANCH  16  22
ATOM     22  C   LIG d   1       4.296  -1.703  -3.094  0.00  0.00     0.409 C 
ATOM     23  F   LIG d   1       3.690  -2.300  -1.984  0.00  0.00    -0.170 F 
ATOM     24  F   LIG d   1       3.308  -1.240  -3.970  0.00  0.00    -0.170 F 
ATOM     25  F   LIG d   1       5.099  -2.642  -3.749  0.00  0.00    -0.170 F 
ENDBRANCH  16  22
ENDBRANCH   2  16
TORSDOF 4
ENDMDL
MODEL 7
REMARK VINA RESULT:      -6.2      3.240      4.277
REMARK  4 active torsions:
REMARK  status: ('A' for Active; 'I' for Inactive)
REMARK    1  A    between atoms: C_3  and  N_9 
REMARK       I    between atoms: N_9  and  C_10 
REMARK    2  A    between atoms: C_10  and  C_12 
REMARK    3  A    between atoms: C_12  and  C_13 
REMARK    4  A    between atoms: C_12  and  C_17 
ROOT
ATOM      1  N   LIG d   1       5.223  -2.213  -5.371  0.00  0.00    -0.284 N 
ATOM      2  C   LIG d   1       4.566  -1.770  -4.281  0.00  0.00     0.238 C 
ATOM      3  O   LIG d   1       4.000  -2.557  -3.552  0.00  0.00    -0.275 OA
ATOM      4  H   LIG d   1       5.729  -1.591  -5.918  0.00  0.00     0.155 HD
ENDROOT
BRANCH   1   5
ATOM      5  C   LIG d   1       5.176  -3.569  -5.714  0.00  0.00     0.048 A 
ATOM      6  C   LIG d   1       4.071  -4.078  -6.384  0.00  0.00    -0.038 A 
ATOM      7  C   LIG d   1       4.026  -5.417  -6.723  0.00  0.00    -0.046 A 
ATOM      8  H   LIG d   1       3.247  -3.428  -6.640  0.00  0.00     0.064 H 
ATOM      9  C   LIG d   1       5.081  -6.249  -6.396  0.00  0.00     0.019 A 
ATOM     10  H   LIG d   1       3.166  -5.814  -7.240  0.00  0.00     0.063 H 
ATOM     11  C   LIG d   1       6.184  -5.745  -5.729  0.00  0.00    -0.032 A 
ATOM     12 BR   LIG d   1       5.016  -8.081  -6.861  0.00  0.00    -0.050 Br
ATOM     13  C   LIG d   1       6.234  -4.408  -5.387  0.00  0.00     0.040 A 
ATOM     14  H   LIG d   1       7.005  -6.398  -5.474  0.00  0.00     0.064 H 
ATOM     15 BR   LIG d   1       7.741  -3.719  -4.476  0.00  0.00    -0.048 Br
ENDBRANCH   1   5
BRANCH   2  16
ATOM     16  C   LIG d   1       4.534  -0.296  -3.967  0.00  0.00     0.224 C 
ATOM     17  H   LIG d   1       4.954   0.262  -4.803  0.00  0.00     0.057 H 
BRANCH  16  18
ATOM     18  C   LIG d   1       3.088   0.145  -3.734  0.00  0.00     0.409 C 
ATOM     19  F   LIG d   1       2.361   0.005  -4.922  0.00  0.00    -0.170 F 
ATOM     20  F   LIG d   1       2.512  -0.649  -2.738  0.00  0.00    -0.170 F 
ATOM     21  F   LIG d   1       3.069   1.485  -3.331  0.00  0.00    -0.170 F 
ENDBRANCH  16  18
BRANCH  16  22
ATOM     22  C   LIG d   1       5.359  -0.026  -2.706  0.00  0.00     0.409 C 
ATOM     23  F   LIG d   1       4.593  -0.323  -1.575  0.00  0.00    -0.170 F 
ATOM     24  F   LIG d   1       6.505  -0.830  -2.718  0.00  0.00    -0.170 F 
ATOM     25  F   LIG d   1       5.734   1.321  -2.675  0.00  0.00    -0.170 F 
ENDBRANCH  16  22
ENDBRANCH   2  16
TORSDOF 4
ENDMDL
MODEL 8
REMARK VINA RESULT:      -6.2      3.679      4.682
REMARK  4 active torsions:
REMARK  status: ('A' for Active; 'I' for Inactive)
REMARK    1  A    between atoms: C_3  and  N_9 
REMARK       I    between atoms: N_9  and  C_10 
REMARK    2  A    between atoms: C_10  and  C_12 
REMARK    3  A    between atoms: C_12  and  C_13 
REMARK    4  A    between atoms: C_12  and  C_17 
ROOT
ATOM      1  N   LIG d   1       5.981   0.145  -4.513  0.00  0.00    -0.284 N 
ATOM      2  C   LIG d   1       5.776  -0.577  -3.394  0.00  0.00     0.238 C 
ATOM      3  O   LIG d   1       6.581  -1.420  -3.059  0.00  0.00    -0.275 OA
ATOM      4  H   LIG d   1       5.371   0.863  -4.745  0.00  0.00     0.155 HD
ENDROOT
BRANCH   1   5
ATOM      5  C   LIG d   1       7.074  -0.140  -5.339  0.00  0.00     0.048 A 
ATOM      6  C   LIG d   1       6.989  -1.162  -6.276  0.00  0.00    -0.038 A 
ATOM      7  C   LIG d   1       8.069  -1.442  -7.091  0.00  0.00    -0.046 A 
ATOM      8  H   LIG d   1       6.080  -1.738  -6.367  0.00  0.00     0.064 H 
ATOM      9  C   LIG d   1       9.233  -0.704  -6.976  0.00  0.00     0.019 A 
ATOM     10  H   LIG d   1       8.005  -2.239  -7.817  0.00  0.00     0.063 H 
ATOM     11  C   LIG d   1       9.321   0.315  -6.044  0.00  0.00    -0.032 A 
ATOM     12 BR   LIG d   1      10.709  -1.090  -8.094  0.00  0.00    -0.050 Br
ATOM     13  C   LIG d   1       8.245   0.599  -5.226  0.00  0.00     0.040 A 
ATOM     14  H   LIG d   1      10.232   0.888  -5.956  0.00  0.00     0.064 H 
ATOM     15 BR   LIG d   1       8.365   1.992  -3.953  0.00  0.00    -0.048 Br
ENDBRANCH   1   5
BRANCH   2  16
ATOM     16  C   LIG d   1       4.546  -0.337  -2.556  0.00  0.00     0.224 C 
ATOM     17  H   LIG d   1       4.805  -0.415  -1.500  0.00  0.00     0.057 H 
BRANCH  16  18
ATOM     18  C   LIG d   1       3.997   1.062  -2.844  0.00  0.00     0.409 C 
ATOM     19  F   LIG d   1       3.132   1.445  -1.813  0.00  0.00    -0.170 F 
ATOM     20  F   LIG d   1       5.057   1.972  -2.925  0.00  0.00    -0.170 F 
ATOM     21  F   LIG d   1       3.301   1.049  -4.057  0.00  0.00    -0.170 F 
ENDBRANCH  16  18
BRANCH  16  22
ATOM     22  C   LIG d   1       3.483  -1.382  -2.900  0.00  0.00     0.409 C 
ATOM     23  F   LIG d   1       3.629  -1.775  -4.234  0.00  0.00    -0.170 F 
ATOM     24  F   LIG d   1       3.639  -2.496  -2.067  0.00  0.00    -0.170 F 
ATOM     25  F   LIG d   1       2.210  -0.833  -2.712  0.00  0.00    -0.170 F 
ENDBRANCH  16  22
ENDBRANCH   2  16
TORSDOF 4
ENDMDL
MODEL 9
REMARK VINA RESULT:      -6.0      2.253      2.930
REMARK  4 active torsions:
REMARK  status: ('A' for Active; 'I' for Inactive)
REMARK    1  A    between atoms: C_3  and  N_9 
REMARK       I    between atoms: N_9  and  C_10 
REMARK    2  A    between atoms: C_10  and  C_12 
REMARK    3  A    between atoms: C_12  and  C_13 
REMARK    4  A    between atoms: C_12  and  C_17 
ROOT
ATOM      1  N   LIG d   1       4.157  -1.468  -6.171  0.00  0.00    -0.284 N 
ATOM      2  C   LIG d   1       4.603  -0.819  -5.077  0.00  0.00     0.238 C 
ATOM      3  O   LIG d   1       5.540  -0.054  -5.165  0.00  0.00    -0.275 OA
ATOM      4  H   LIG d   1       3.369  -2.031  -6.113  0.00  0.00     0.155 HD
ENDROOT
BRANCH   1   5
ATOM      5  C   LIG d   1       4.832  -1.332  -7.389  0.00  0.00     0.048 A 
ATOM      6  C   LIG d   1       5.905  -2.161  -7.687  0.00  0.00    -0.038 A 
ATOM      7  C   LIG d   1       6.569  -2.025  -8.891  0.00  0.00    -0.046 A 
ATOM      8  H   LIG d   1       6.221  -2.912  -6.978  0.00  0.00     0.064 H 
ATOM      9  C   LIG d   1       6.165  -1.064  -9.800  0.00  0.00     0.019 A 
ATOM     10  H   LIG d   1       7.406  -2.666  -9.121  0.00  0.00     0.063 H 
ATOM     11  C   LIG d   1       5.095  -0.236  -9.507  0.00  0.00    -0.032 A 
ATOM     12 BR   LIG d   1       7.076  -0.880 -11.446  0.00  0.00    -0.050 Br
ATOM     13  C   LIG d   1       4.428  -0.367  -8.305  0.00  0.00     0.040 A 
ATOM     14  H   LIG d   1       4.783   0.514 -10.218  0.00  0.00     0.064 H 
ATOM     15 BR   LIG d   1       2.967   0.764  -7.904  0.00  0.00    -0.048 Br
ENDBRANCH   1   5
BRANCH   2  16
ATOM     16  C   LIG d   1       3.938  -1.044  -3.743  0.00  0.00     0.224 C 
ATOM     17  H   LIG d   1       3.484  -2.035  -3.726  0.00  0.00     0.057 H 
BRANCH  16  18
ATOM     18  C   LIG d   1       4.981  -0.941  -2.629  0.00  0.00     0.409 C 
ATOM     19  F   LIG d   1       6.106  -1.699  -2.972  0.00  0.00    -0.170 F 
ATOM     20  F   LIG d   1       5.353   0.396  -2.459  0.00  0.00    -0.170 F 
ATOM     21  F   LIG d   1       4.437  -1.428  -1.435  0.00  0.00    -0.170 F 
ENDBRANCH  16  18
BRANCH  16  22
ATOM     22  C   LIG d   1       2.855   0.016  -3.529  0.00  0.00     0.409 C 
ATOM     23  F   LIG d   1       2.793   0.351  -2.173  0.00  0.00    -0.170 F 
ATOM     24  F   LIG d   1       3.166   1.158  -4.277  0.00  0.00    -0.170 F 
ATOM     25  F   LIG d   1       1.618  -0.490  -3.942  0.00  0.00    -0.170 F 
ENDBRANCH  16  22
ENDBRANCH   2  16
TORSDOF 4
ENDMDL
