MODEL 1
REMARK VINA RESULT:      -6.2      0.000      0.000
REMARK  11 active torsions:
REMARK  status: ('A' for Active; 'I' for Inactive)
REMARK    1  A    between atoms: C_1  and  C_2 
REMARK    2  A    between atoms: C_2  and  O_3 
REMARK    3  A    between atoms: O_3  and  C_4 
REMARK    4  A    between atoms: C_4  and  C_6 
REMARK    5  A    between atoms: C_8  and  C_22 
REMARK    6  A    between atoms: C_25  and  O_32 
REMARK    7  A    between atoms: C_26  and  O_28 
REMARK    8  A    between atoms: O_28  and  C_29 
REMARK    9  A    between atoms: C_29  and  C_30 
REMARK   10  A    between atoms: C_29  and  C_31 
REMARK   11  A    between atoms: O_32  and  C_33 
ROOT
ATOM      1  C   LIG d   1       5.324  -4.773  -5.201  0.00  0.00     0.207 C 
ATOM      2  H   LIG d   1       5.962  -5.334  -4.519  0.00  0.00     0.086 H 
ATOM      3  C   LIG d   1       6.175  -3.919  -6.173  0.00  0.00     0.067 C 
ATOM      4  H   LIG d   1       7.173  -4.340  -6.291  0.00  0.00     0.044 H 
ATOM      5  C   LIG d   1       6.229  -2.589  -5.449  0.00  0.00     0.091 A 
ATOM      6  C   LIG d   1       5.260  -2.615  -4.483  0.00  0.00     0.143 A 
ATOM      7  C   LIG d   1       5.126  -1.421  -3.627  0.00  0.00     0.059 A 
ATOM      8  C   LIG d   1       4.165  -1.371  -2.616  0.00  0.00    -0.048 A 
ATOM      9  C   LIG d   1       4.062  -0.243  -1.831  0.00  0.00    -0.061 A 
ATOM     10  C   LIG d   1       4.907   0.837  -2.043  0.00  0.00    -0.058 A 
ATOM     11  C   LIG d   1       5.859   0.800  -3.040  0.00  0.00    -0.018 A 
ATOM     12  C   LIG d   1       5.979  -0.328  -3.842  0.00  0.00     0.143 A 
ATOM     13  O   LIG d   1       6.907  -0.378  -4.824  0.00  0.00    -0.422 OA
ATOM     14  C   LIG d   1       7.041  -1.459  -5.608  0.00  0.00     0.345 A 
ATOM     15  O   LIG d   1       7.890  -1.459  -6.481  0.00  0.00    -0.245 OA
ATOM     16  O   LIG d   1       4.566  -3.777  -4.492  0.00  0.00    -0.475 OA
ATOM     17  H   LIG d   1       3.507  -2.210  -2.449  0.00  0.00     0.063 H 
ATOM     18  H   LIG d   1       3.320  -0.200  -1.047  0.00  0.00     0.062 H 
ATOM     19  H   LIG d   1       4.817   1.716  -1.422  0.00  0.00     0.062 H 
ATOM     20  H   LIG d   1       6.511   1.646  -3.197  0.00  0.00     0.065 H 
ENDROOT
BRANCH   3  21
ATOM     21  C   LIG d   1       5.490  -3.780  -7.508  0.00  0.00    -0.032 A 
ATOM     22  C   LIG d   1       4.505  -2.825  -7.680  0.00  0.00    -0.012 A 
ATOM     23  C   LIG d   1       3.876  -2.692  -8.909  0.00  0.00     0.163 A 
ATOM     24  H   LIG d   1       4.227  -2.180  -6.860  0.00  0.00     0.066 H 
ATOM     25  C   LIG d   1       4.233  -3.527  -9.962  0.00  0.00     0.162 A 
ATOM     26  C   LIG d   1       5.217  -4.485  -9.781  0.00  0.00    -0.016 A 
ATOM     27  C   LIG d   1       5.843  -4.610  -8.555  0.00  0.00    -0.054 A 
ATOM     28  H   LIG d   1       5.497  -5.135 -10.598  0.00  0.00     0.066 H 
ATOM     29  H   LIG d   1       6.611  -5.357  -8.415  0.00  0.00     0.062 H 
BRANCH  23  30
ATOM     30  O   LIG d   1       2.911  -1.751  -9.082  0.00  0.00    -0.486 OA
BRANCH  30  31
ATOM     31  C   LIG d   1       3.345  -0.402  -9.267  0.00  0.00     0.095 C 
ATOM     32  H   LIG d   1       4.428  -0.351  -9.155  0.00  0.00     0.073 H 
BRANCH  31  33
ATOM     33  C   LIG d   1       2.955   0.072 -10.669  0.00  0.00    -0.028 C 
ATOM     34  H   LIG d   1       2.118  -0.523 -11.034  0.00  0.00     0.026 H 
ATOM     35  H   LIG d   1       2.665   1.122 -10.630  0.00  0.00     0.026 H 
ATOM     36  H   LIG d   1       3.805  -0.045 -11.342  0.00  0.00     0.026 H 
ENDBRANCH  31  33
BRANCH  31  37
ATOM     37  C   LIG d   1       2.681   0.496  -8.221  0.00  0.00    -0.028 C 
ATOM     38  H   LIG d   1       1.656   0.166  -8.059  0.00  0.00     0.026 H 
ATOM     39  H   LIG d   1       3.237   0.435  -7.285  0.00  0.00     0.026 H 
ATOM     40  H   LIG d   1       2.680   1.527  -8.577  0.00  0.00     0.026 H 
ENDBRANCH  31  37
ENDBRANCH  30  31
ENDBRANCH  23  30
BRANCH  25  41
ATOM     41  O   LIG d   1       3.617  -3.403 -11.169  0.00  0.00    -0.491 OA
BRANCH  41  42
ATOM     42  C   LIG d   1       4.424  -2.980 -12.269  0.00  0.00     0.079 C 
ATOM     43  H   LIG d   1       5.439  -3.356 -12.142  0.00  0.00     0.066 H 
ATOM     44  H   LIG d   1       4.007  -3.370 -13.198  0.00  0.00     0.066 H 
ATOM     45  H   LIG d   1       4.443  -1.891 -12.309  0.00  0.00     0.066 H 
ENDBRANCH  41  42
ENDBRANCH  25  41
ENDBRANCH   3  21
BRANCH   1  46
ATOM     46  C   LIG d   1       4.411  -5.700  -5.962  0.00  0.00     0.349 C 
ATOM     47  O   LIG d   1       3.265  -5.381  -6.173  0.00  0.00    -0.247 OA
BRANCH  46  48
ATOM     48  O   LIG d   1       4.871  -6.881  -6.405  0.00  0.00    -0.462 OA
BRANCH  48  49
ATOM     49  C   LIG d   1       5.674  -7.645  -5.503  0.00  0.00     0.090 C 
ATOM     50  H   LIG d   1       6.046  -6.997  -4.709  0.00  0.00     0.069 H 
ATOM     51  H   LIG d   1       6.517  -8.076  -6.044  0.00  0.00     0.069 H 
BRANCH  49  52
ATOM     52  C   LIG d   1       4.831  -8.766  -4.894  0.00  0.00    -0.031 C 
ATOM     53  H   LIG d   1       4.765  -8.627  -3.815  0.00  0.00     0.026 H 
ATOM     54  H   LIG d   1       3.829  -8.742  -5.324  0.00  0.00     0.026 H 
ATOM     55  H   LIG d   1       5.295  -9.728  -5.109  0.00  0.00     0.026 H 
ENDBRANCH  49  52
ENDBRANCH  48  49
ENDBRANCH  46  48
ENDBRANCH   1  46
TORSDOF 11
ENDMDL
MODEL 2
REMARK VINA RESULT:      -5.9      3.343      6.297
REMARK  11 active torsions:
REMARK  status: ('A' for Active; 'I' for Inactive)
REMARK    1  A    between atoms: C_1  and  C_2 
REMARK    2  A    between atoms: C_2  and  O_3 
REMARK    3  A    between atoms: O_3  and  C_4 
REMARK    4  A    between atoms: C_4  and  C_6 
REMARK    5  A    between atoms: C_8  and  C_22 
REMARK    6  A    between atoms: C_25  and  O_32 
REMARK    7  A    between atoms: C_26  and  O_28 
REMARK    8  A    between atoms: O_28  and  C_29 
REMARK    9  A    between atoms: C_29  and  C_30 
REMARK   10  A    between atoms: C_29  and  C_31 
REMARK   11  A    between atoms: O_32  and  C_33 
ROOT
ATOM      1  C   LIG d   1       4.175   0.239  -8.600  0.00  0.00     0.207 C 
ATOM      2  H   LIG d   1       3.380  -0.337  -9.074  0.00  0.00     0.086 H 
ATOM      3  C   LIG d   1       5.469  -0.604  -8.484  0.00  0.00     0.067 C 
ATOM      4  H   LIG d   1       5.490  -1.392  -9.237  0.00  0.00     0.044 H 
ATOM      5  C   LIG d   1       5.334  -1.187  -7.092  0.00  0.00     0.091 A 
ATOM      6  C   LIG d   1       4.363  -0.472  -6.447  0.00  0.00     0.143 A 
ATOM      7  C   LIG d   1       4.039  -0.866  -5.063  0.00  0.00     0.059 A 
ATOM      8  C   LIG d   1       3.056  -0.190  -4.338  0.00  0.00    -0.048 A 
ATOM      9  C   LIG d   1       2.773  -0.579  -3.047  0.00  0.00    -0.061 A 
ATOM     10  C   LIG d   1       3.461  -1.637  -2.469  0.00  0.00    -0.058 A 
ATOM     11  C   LIG d   1       4.435  -2.312  -3.174  0.00  0.00    -0.018 A 
ATOM     12  C   LIG d   1       4.734  -1.934  -4.478  0.00  0.00     0.143 A 
ATOM     13  O   LIG d   1       5.687  -2.586  -5.180  0.00  0.00    -0.422 OA
ATOM     14  C   LIG d   1       5.990  -2.239  -6.441  0.00  0.00     0.345 A 
ATOM     15  O   LIG d   1       6.857  -2.854  -7.036  0.00  0.00    -0.245 OA
ATOM     16  O   LIG d   1       3.857   0.515  -7.225  0.00  0.00    -0.475 OA
ATOM     17  H   LIG d   1       2.520   0.634  -4.786  0.00  0.00     0.063 H 
ATOM     18  H   LIG d   1       2.014  -0.059  -2.482  0.00  0.00     0.062 H 
ATOM     19  H   LIG d   1       3.231  -1.934  -1.457  0.00  0.00     0.062 H 
ATOM     20  H   LIG d   1       4.963  -3.134  -2.715  0.00  0.00     0.065 H 
ENDROOT
BRANCH   3  21
ATOM     21  C   LIG d   1       6.692   0.271  -8.588  0.00  0.00    -0.032 A 
ATOM     22  C   LIG d   1       7.128   0.978  -7.483  0.00  0.00    -0.012 A 
ATOM     23  C   LIG d   1       8.255   1.779  -7.575  0.00  0.00     0.163 A 
ATOM     24  H   LIG d   1       6.594   0.903  -6.547  0.00  0.00     0.066 H 
ATOM     25  C   LIG d   1       8.938   1.878  -8.783  0.00  0.00     0.162 A 
ATOM     26  C   LIG d   1       8.492   1.171  -9.887  0.00  0.00    -0.016 A 
ATOM     27  C   LIG d   1       7.369   0.369  -9.788  0.00  0.00    -0.054 A 
ATOM     28  H   LIG d   1       9.020   1.245 -10.827  0.00  0.00     0.066 H 
ATOM     29  H   LIG d   1       7.023  -0.181 -10.650  0.00  0.00     0.062 H 
BRANCH  23  30
ATOM     30  O   LIG d   1       8.690   2.471  -6.488  0.00  0.00    -0.486 OA
BRANCH  30  31
ATOM     31  C   LIG d   1       9.092   1.706  -5.350  0.00  0.00     0.095 C 
ATOM     32  H   LIG d   1       8.785   0.669  -5.482  0.00  0.00     0.073 H 
BRANCH  31  33
ATOM     33  C   LIG d   1      10.615   1.771  -5.204  0.00  0.00    -0.028 C 
ATOM     34  H   LIG d   1      10.900   2.743  -4.803  0.00  0.00     0.026 H 
ATOM     35  H   LIG d   1      10.948   0.986  -4.525  0.00  0.00     0.026 H 
ATOM     36  H   LIG d   1      11.079   1.630  -6.180  0.00  0.00     0.026 H 
ENDBRANCH  31  33
BRANCH  31  37
ATOM     37  C   LIG d   1       8.434   2.277  -4.092  0.00  0.00    -0.028 C 
ATOM     38  H   LIG d   1       7.461   2.695  -4.350  0.00  0.00     0.026 H 
ATOM     39  H   LIG d   1       8.305   1.482  -3.357  0.00  0.00     0.026 H 
ATOM     40  H   LIG d   1       9.067   3.060  -3.674  0.00  0.00     0.026 H 
ENDBRANCH  31  37
ENDBRANCH  30  31
ENDBRANCH  23  30
BRANCH  25  41
ATOM     41  O   LIG d   1      10.043   2.666  -8.879  0.00  0.00    -0.491 OA
BRANCH  41  42
ATOM     42  C   LIG d   1       9.918   3.869  -9.640  0.00  0.00     0.079 C 
ATOM     43  H   LIG d   1       9.900   4.725  -8.966  0.00  0.00     0.066 H 
ATOM     44  H   LIG d   1      10.766   3.959 -10.319  0.00  0.00     0.066 H 
ATOM     45  H   LIG d   1       8.993   3.841 -10.215  0.00  0.00     0.066 H 
ENDBRANCH  41  42
ENDBRANCH  25  41
ENDBRANCH   3  21
BRANCH   1  46
ATOM     46  C   LIG d   1       4.433   1.516  -9.357  0.00  0.00     0.349 C 
ATOM     47  O   LIG d   1       4.548   2.560  -8.760  0.00  0.00    -0.247 OA
BRANCH  46  48
ATOM     48  O   LIG d   1       4.536   1.494 -10.695  0.00  0.00    -0.462 OA
BRANCH  48  49
ATOM     49  C   LIG d   1       3.729   0.543 -11.393  0.00  0.00     0.090 C 
ATOM     50  H   LIG d   1       2.988   1.067 -11.995  0.00  0.00     0.069 H 
ATOM     51  H   LIG d   1       3.223  -0.101 -10.673  0.00  0.00     0.069 H 
BRANCH  49  52
ATOM     52  C   LIG d   1       4.617  -0.309 -12.303  0.00  0.00    -0.031 C 
ATOM     53  H   LIG d   1       4.024  -1.110 -12.742  0.00  0.00     0.026 H 
ATOM     54  H   LIG d   1       5.027   0.316 -13.097  0.00  0.00     0.026 H 
ATOM     55  H   LIG d   1       5.432  -0.736 -11.720  0.00  0.00     0.026 H 
ENDBRANCH  49  52
ENDBRANCH  48  49
ENDBRANCH  46  48
ENDBRANCH   1  46
TORSDOF 11
ENDMDL
MODEL 3
REMARK VINA RESULT:      -5.9      3.725      5.510
REMARK  11 active torsions:
REMARK  status: ('A' for Active; 'I' for Inactive)
REMARK    1  A    between atoms: C_1  and  C_2 
REMARK    2  A    between atoms: C_2  and  O_3 
REMARK    3  A    between atoms: O_3  and  C_4 
REMARK    4  A    between atoms: C_4  and  C_6 
REMARK    5  A    between atoms: C_8  and  C_22 
REMARK    6  A    between atoms: C_25  and  O_32 
REMARK    7  A    between atoms: C_26  and  O_28 
REMARK    8  A    between atoms: O_28  and  C_29 
REMARK    9  A    between atoms: C_29  and  C_30 
REMARK   10  A    between atoms: C_29  and  C_31 
REMARK   11  A    between atoms: O_32  and  C_33 
ROOT
ATOM      1  C   LIG d   1       8.303  -1.374  -5.970  0.00  0.00     0.207 C 
ATOM      2  H   LIG d   1       8.774  -2.092  -5.298  0.00  0.00     0.086 H 
ATOM      3  C   LIG d   1       8.681   0.076  -5.578  0.00  0.00     0.067 C 
ATOM      4  H   LIG d   1       9.624   0.099  -5.033  0.00  0.00     0.044 H 
ATOM      5  C   LIG d   1       7.524   0.463  -4.678  0.00  0.00     0.091 A 
ATOM      6  C   LIG d   1       6.530  -0.455  -4.879  0.00  0.00     0.143 A 
ATOM      7  C   LIG d   1       5.292  -0.293  -4.095  0.00  0.00     0.059 A 
ATOM      8  C   LIG d   1       4.232  -1.191  -4.238  0.00  0.00    -0.048 A 
ATOM      9  C   LIG d   1       3.087  -1.017  -3.493  0.00  0.00    -0.061 A 
ATOM     10  C   LIG d   1       2.985   0.044  -2.604  0.00  0.00    -0.058 A 
ATOM     11  C   LIG d   1       4.024   0.938  -2.454  0.00  0.00    -0.018 A 
ATOM     12  C   LIG d   1       5.188   0.780  -3.197  0.00  0.00     0.143 A 
ATOM     13  O   LIG d   1       6.213   1.649  -3.062  0.00  0.00    -0.422 OA
ATOM     14  C   LIG d   1       7.347   1.512  -3.768  0.00  0.00     0.345 A 
ATOM     15  O   LIG d   1       8.245   2.321  -3.614  0.00  0.00    -0.245 OA
ATOM     16  O   LIG d   1       6.874  -1.380  -5.806  0.00  0.00    -0.475 OA
ATOM     17  H   LIG d   1       4.310  -2.017  -4.930  0.00  0.00     0.063 H 
ATOM     18  H   LIG d   1       2.265  -1.709  -3.601  0.00  0.00     0.062 H 
ATOM     19  H   LIG d   1       2.083   0.171  -2.025  0.00  0.00     0.062 H 
ATOM     20  H   LIG d   1       3.934   1.760  -1.760  0.00  0.00     0.065 H 
ENDROOT
BRANCH   3  21
ATOM     21  C   LIG d   1       8.740   0.964  -6.794  0.00  0.00    -0.032 A 
ATOM     22  C   LIG d   1       7.570   1.364  -7.412  0.00  0.00    -0.012 A 
ATOM     23  C   LIG d   1       7.622   2.184  -8.528  0.00  0.00     0.163 A 
ATOM     24  H   LIG d   1       6.615   1.041  -7.024  0.00  0.00     0.066 H 
ATOM     25  C   LIG d   1       8.853   2.594  -9.029  0.00  0.00     0.162 A 
ATOM     26  C   LIG d   1      10.022   2.185  -8.408  0.00  0.00    -0.016 A 
ATOM     27  C   LIG d   1       9.963   1.370  -7.292  0.00  0.00    -0.054 A 
ATOM     28  H   LIG d   1      10.979   2.502  -8.794  0.00  0.00     0.066 H 
ATOM     29  H   LIG d   1      10.875   1.052  -6.809  0.00  0.00     0.062 H 
BRANCH  23  30
ATOM     30  O   LIG d   1       6.472   2.584  -9.135  0.00  0.00    -0.486 OA
BRANCH  30  31
ATOM     31  C   LIG d   1       5.349   1.705  -9.040  0.00  0.00     0.095 C 
ATOM     32  H   LIG d   1       5.391   1.163  -8.096  0.00  0.00     0.073 H 
BRANCH  31  33
ATOM     33  C   LIG d   1       4.056   2.521  -9.103  0.00  0.00    -0.028 C 
ATOM     34  H   LIG d   1       3.427   2.271  -8.249  0.00  0.00     0.026 H 
ATOM     35  H   LIG d   1       4.296   3.584  -9.079  0.00  0.00     0.026 H 
ATOM     36  H   LIG d   1       3.524   2.289 -10.026  0.00  0.00     0.026 H 
ENDBRANCH  31  33
BRANCH  31  37
ATOM     37  C   LIG d   1       5.381   0.709 -10.201  0.00  0.00    -0.028 C 
ATOM     38  H   LIG d   1       5.179   1.234 -11.135  0.00  0.00     0.026 H 
ATOM     39  H   LIG d   1       6.365   0.242 -10.252  0.00  0.00     0.026 H 
ATOM     40  H   LIG d   1       4.622  -0.058 -10.043  0.00  0.00     0.026 H 
ENDBRANCH  31  37
ENDBRANCH  30  31
ENDBRANCH  23  30
BRANCH  25  41
ATOM     41  O   LIG d   1       8.910   3.397 -10.126  0.00  0.00    -0.491 OA
BRANCH  41  42
ATOM     42  C   LIG d   1       9.413   4.721  -9.937  0.00  0.00     0.079 C 
ATOM     43  H   LIG d   1       9.379   4.974  -8.878  0.00  0.00     0.066 H 
ATOM     44  H   LIG d   1      10.443   4.772 -10.290  0.00  0.00     0.066 H 
ATOM     45  H   LIG d   1       8.800   5.427 -10.498  0.00  0.00     0.066 H 
ENDBRANCH  41  42
ENDBRANCH  25  41
ENDBRANCH   3  21
BRANCH   1  46
ATOM     46  C   LIG d   1       8.680  -1.658  -7.401  0.00  0.00     0.349 C 
ATOM     47  O   LIG d   1       9.814  -1.972  -7.677  0.00  0.00    -0.247 OA
BRANCH  46  48
ATOM     48  O   LIG d   1       7.756  -1.561  -8.370  0.00  0.00    -0.462 OA
BRANCH  48  49
ATOM     49  C   LIG d   1       8.123  -2.033  -9.668  0.00  0.00     0.090 C 
ATOM     50  H   LIG d   1       7.253  -2.469 -10.156  0.00  0.00     0.069 H 
ATOM     51  H   LIG d   1       8.903  -2.789  -9.571  0.00  0.00     0.069 H 
BRANCH  49  52
ATOM     52  C   LIG d   1       8.647  -0.864 -10.505  0.00  0.00    -0.031 C 
ATOM     53  H   LIG d   1       8.731   0.023  -9.879  0.00  0.00     0.026 H 
ATOM     54  H   LIG d   1       9.627  -1.118 -10.910  0.00  0.00     0.026 H 
ATOM     55  H   LIG d   1       7.956  -0.667 -11.325  0.00  0.00     0.026 H 
ENDBRANCH  49  52
ENDBRANCH  48  49
ENDBRANCH  46  48
ENDBRANCH   1  46
TORSDOF 11
ENDMDL
MODEL 4
REMARK VINA RESULT:      -5.8      2.804      5.134
REMARK  11 active torsions:
REMARK  status: ('A' for Active; 'I' for Inactive)
REMARK    1  A    between atoms: C_1  and  C_2 
REMARK    2  A    between atoms: C_2  and  O_3 
REMARK    3  A    between atoms: O_3  and  C_4 
REMARK    4  A    between atoms: C_4  and  C_6 
REMARK    5  A    between atoms: C_8  and  C_22 
REMARK    6  A    between atoms: C_25  and  O_32 
REMARK    7  A    between atoms: C_26  and  O_28 
REMARK    8  A    between atoms: O_28  and  C_29 
REMARK    9  A    between atoms: C_29  and  C_30 
REMARK   10  A    between atoms: C_29  and  C_31 
REMARK   11  A    between atoms: O_32  and  C_33 
ROOT
ATOM      1  C   LIG d   1       2.825  -0.116  -7.810  0.00  0.00     0.207 C 
ATOM      2  H   LIG d   1       1.793  -0.462  -7.738  0.00  0.00     0.086 H 
ATOM      3  C   LIG d   1       3.808  -1.312  -7.808  0.00  0.00     0.067 C 
ATOM      4  H   LIG d   1       3.319  -2.219  -8.161  0.00  0.00     0.044 H 
ATOM      5  C   LIG d   1       4.157  -1.422  -6.337  0.00  0.00     0.091 A 
ATOM      6  C   LIG d   1       3.755  -0.259  -5.738  0.00  0.00     0.143 A 
ATOM      7  C   LIG d   1       3.979  -0.134  -4.286  0.00  0.00     0.059 A 
ATOM      8  C   LIG d   1       3.593   1.019  -3.599  0.00  0.00    -0.048 A 
ATOM      9  C   LIG d   1       3.814   1.109  -2.242  0.00  0.00    -0.061 A 
ATOM     10  C   LIG d   1       4.418   0.062  -1.561  0.00  0.00    -0.058 A 
ATOM     11  C   LIG d   1       4.806  -1.081  -2.228  0.00  0.00    -0.018 A 
ATOM     12  C   LIG d   1       4.592  -1.191  -3.596  0.00  0.00     0.143 A 
ATOM     13  O   LIG d   1       4.968  -2.305  -4.263  0.00  0.00    -0.422 OA
ATOM     14  C   LIG d   1       4.767  -2.433  -5.585  0.00  0.00     0.345 A 
ATOM     15  O   LIG d   1       5.123  -3.454  -6.144  0.00  0.00    -0.245 OA
ATOM     16  O   LIG d   1       3.206   0.605  -6.625  0.00  0.00    -0.475 OA
ATOM     17  H   LIG d   1       3.122   1.834  -4.128  0.00  0.00     0.063 H 
ATOM     18  H   LIG d   1       3.517   1.999  -1.707  0.00  0.00     0.062 H 
ATOM     19  H   LIG d   1       4.587   0.144  -0.497  0.00  0.00     0.062 H 
ATOM     20  H   LIG d   1       5.276  -1.889  -1.688  0.00  0.00     0.065 H 
ENDROOT
BRANCH   3  21
ATOM     21  C   LIG d   1       5.031  -1.005  -8.632  0.00  0.00    -0.032 A 
ATOM     22  C   LIG d   1       6.084  -0.308  -8.069  0.00  0.00    -0.012 A 
ATOM     23  C   LIG d   1       7.212  -0.029  -8.824  0.00  0.00     0.163 A 
ATOM     24  H   LIG d   1       6.031   0.014  -7.039  0.00  0.00     0.066 H 
ATOM     25  C   LIG d   1       7.277  -0.441 -10.151  0.00  0.00     0.162 A 
ATOM     26  C   LIG d   1       6.215  -1.133 -10.710  0.00  0.00    -0.016 A 
ATOM     27  C   LIG d   1       5.094  -1.413  -9.951  0.00  0.00    -0.054 A 
ATOM     28  H   LIG d   1       6.263  -1.455 -11.741  0.00  0.00     0.066 H 
ATOM     29  H   LIG d   1       4.268  -1.953 -10.388  0.00  0.00     0.062 H 
BRANCH  23  30
ATOM     30  O   LIG d   1       8.252   0.651  -8.270  0.00  0.00    -0.486 OA
BRANCH  30  31
ATOM     31  C   LIG d   1       7.993   1.985  -7.828  0.00  0.00     0.095 C 
ATOM     32  H   LIG d   1       6.927   2.102  -7.631  0.00  0.00     0.073 H 
BRANCH  31  33
ATOM     33  C   LIG d   1       8.781   2.259  -6.545  0.00  0.00    -0.028 C 
ATOM     34  H   LIG d   1       9.843   2.095  -6.729  0.00  0.00     0.026 H 
ATOM     35  H   LIG d   1       8.621   3.292  -6.234  0.00  0.00     0.026 H 
ATOM     36  H   LIG d   1       8.440   1.585  -5.758  0.00  0.00     0.026 H 
ENDBRANCH  31  33
BRANCH  31  37
ATOM     37  C   LIG d   1       8.422   2.975  -8.912  0.00  0.00    -0.028 C 
ATOM     38  H   LIG d   1       8.539   3.966  -8.474  0.00  0.00     0.026 H 
ATOM     39  H   LIG d   1       9.370   2.653  -9.344  0.00  0.00     0.026 H 
ATOM     40  H   LIG d   1       7.661   3.010  -9.693  0.00  0.00     0.026 H 
ENDBRANCH  31  37
ENDBRANCH  30  31
ENDBRANCH  23  30
BRANCH  25  41
ATOM     41  O   LIG d   1       8.380  -0.166 -10.898  0.00  0.00    -0.491 OA
BRANCH  41  42
ATOM     42  C   LIG d   1       8.424  -0.713 -12.217  0.00  0.00     0.079 C 
ATOM     43  H   LIG d   1       9.116  -1.554 -12.239  0.00  0.00     0.066 H 
ATOM     44  H   LIG d   1       7.429  -1.054 -12.502  0.00  0.00     0.066 H 
ATOM     45  H   LIG d   1       8.760   0.052 -12.917  0.00  0.00     0.066 H 
ENDBRANCH  41  42
ENDBRANCH  25  41
ENDBRANCH   3  21
BRANCH   1  46
ATOM     46  C   LIG d   1       3.018   0.735  -9.039  0.00  0.00     0.349 C 
ATOM     47  O   LIG d   1       3.621   1.779  -8.963  0.00  0.00    -0.247 OA
BRANCH  46  48
ATOM     48  O   LIG d   1       2.520   0.332 -10.218  0.00  0.00    -0.462 OA
BRANCH  48  49
ATOM     49  C   LIG d   1       1.403  -0.558 -10.182  0.00  0.00     0.090 C 
ATOM     50  H   LIG d   1       0.481   0.019 -10.121  0.00  0.00     0.069 H 
ATOM     51  H   LIG d   1       1.484  -1.206  -9.310  0.00  0.00     0.069 H 
BRANCH  49  52
ATOM     52  C   LIG d   1       1.388  -1.411 -11.452  0.00  0.00    -0.031 C 
ATOM     53  H   LIG d   1       1.547  -0.772 -12.320  0.00  0.00     0.026 H 
ATOM     54  H   LIG d   1       2.182  -2.156 -11.398  0.00  0.00     0.026 H 
ATOM     55  H   LIG d   1       0.424  -1.913 -11.541  0.00  0.00     0.026 H 
ENDBRANCH  49  52
ENDBRANCH  48  49
ENDBRANCH  46  48
ENDBRANCH   1  46
TORSDOF 11
ENDMDL
MODEL 5
REMARK VINA RESULT:      -5.8      2.212      5.124
REMARK  11 active torsions:
REMARK  status: ('A' for Active; 'I' for Inactive)
REMARK    1  A    between atoms: C_1  and  C_2 
REMARK    2  A    between atoms: C_2  and  O_3 
REMARK    3  A    between atoms: O_3  and  C_4 
REMARK    4  A    between atoms: C_4  and  C_6 
REMARK    5  A    between atoms: C_8  and  C_22 
REMARK    6  A    between atoms: C_25  and  O_32 
REMARK    7  A    between atoms: C_26  and  O_28 
REMARK    8  A    between atoms: O_28  and  C_29 
REMARK    9  A    between atoms: C_29  and  C_30 
REMARK   10  A    between atoms: C_29  and  C_31 
REMARK   11  A    between atoms: O_32  and  C_33 
ROOT
ATOM      1  C   LIG d   1       5.831  -1.669  -3.103  0.00  0.00     0.207 C 
ATOM      2  H   LIG d   1       6.176  -1.777  -2.075  0.00  0.00     0.086 H 
ATOM      3  C   LIG d   1       6.620  -2.606  -4.050  0.00  0.00     0.067 C 
ATOM      4  H   LIG d   1       7.029  -3.456  -3.505  0.00  0.00     0.044 H 
ATOM      5  C   LIG d   1       7.727  -1.691  -4.537  0.00  0.00     0.091 A 
ATOM      6  C   LIG d   1       7.360  -0.411  -4.225  0.00  0.00     0.143 A 
ATOM      7  C   LIG d   1       8.295   0.669  -4.591  0.00  0.00     0.059 A 
ATOM      8  C   LIG d   1       7.996   2.002  -4.303  0.00  0.00    -0.048 A 
ATOM      9  C   LIG d   1       8.887   2.991  -4.657  0.00  0.00    -0.061 A 
ATOM     10  C   LIG d   1      10.075   2.666  -5.296  0.00  0.00    -0.058 A 
ATOM     11  C   LIG d   1      10.382   1.354  -5.587  0.00  0.00    -0.018 A 
ATOM     12  C   LIG d   1       9.495   0.342  -5.239  0.00  0.00     0.143 A 
ATOM     13  O   LIG d   1       9.782  -0.949  -5.520  0.00  0.00    -0.422 OA
ATOM     14  C   LIG d   1       8.940  -1.942  -5.189  0.00  0.00     0.345 A 
ATOM     15  O   LIG d   1       9.240  -3.090  -5.463  0.00  0.00    -0.245 OA
ATOM     16  O   LIG d   1       6.151  -0.364  -3.617  0.00  0.00    -0.475 OA
ATOM     17  H   LIG d   1       7.072   2.257  -3.806  0.00  0.00     0.063 H 
ATOM     18  H   LIG d   1       8.660   4.024  -4.436  0.00  0.00     0.062 H 
ATOM     19  H   LIG d   1      10.767   3.450  -5.569  0.00  0.00     0.062 H 
ATOM     20  H   LIG d   1      11.309   1.112  -6.085  0.00  0.00     0.065 H 
ENDROOT
BRANCH   3  21
ATOM     21  C   LIG d   1       5.757  -3.066  -5.196  0.00  0.00    -0.032 A 
ATOM     22  C   LIG d   1       5.235  -4.346  -5.194  0.00  0.00    -0.012 A 
ATOM     23  C   LIG d   1       4.437  -4.770  -6.245  0.00  0.00     0.163 A 
ATOM     24  H   LIG d   1       5.445  -5.015  -4.372  0.00  0.00     0.066 H 
ATOM     25  C   LIG d   1       4.172  -3.909  -7.304  0.00  0.00     0.162 A 
ATOM     26  C   LIG d   1       4.703  -2.629  -7.302  0.00  0.00    -0.016 A 
ATOM     27  C   LIG d   1       5.495  -2.211  -6.249  0.00  0.00    -0.054 A 
ATOM     28  H   LIG d   1       4.499  -1.958  -8.124  0.00  0.00     0.066 H 
ATOM     29  H   LIG d   1       5.908  -1.213  -6.249  0.00  0.00     0.062 H 
BRANCH  23  30
ATOM     30  O   LIG d   1       3.918  -6.027  -6.242  0.00  0.00    -0.486 OA
BRANCH  30  31
ATOM     31  C   LIG d   1       4.801  -7.096  -6.587  0.00  0.00     0.095 C 
ATOM     32  H   LIG d   1       5.791  -6.693  -6.803  0.00  0.00     0.073 H 
BRANCH  31  33
ATOM     33  C   LIG d   1       4.896  -8.078  -5.418  0.00  0.00    -0.028 C 
ATOM     34  H   LIG d   1       4.730  -7.546  -4.482  0.00  0.00     0.026 H 
ATOM     35  H   LIG d   1       4.139  -8.854  -5.534  0.00  0.00     0.026 H 
ATOM     36  H   LIG d   1       5.886  -8.535  -5.406  0.00  0.00     0.026 H 
ENDBRANCH  31  33
BRANCH  31  37
ATOM     37  C   LIG d   1       4.266  -7.822  -7.823  0.00  0.00    -0.028 C 
ATOM     38  H   LIG d   1       4.139  -8.880  -7.595  0.00  0.00     0.026 H 
ATOM     39  H   LIG d   1       3.306  -7.393  -8.109  0.00  0.00     0.026 H 
ATOM     40  H   LIG d   1       4.974  -7.709  -8.645  0.00  0.00     0.026 H 
ENDBRANCH  31  37
ENDBRANCH  30  31
ENDBRANCH  23  30
BRANCH  25  41
ATOM     41  O   LIG d   1       3.392  -4.322  -8.340  0.00  0.00    -0.491 OA
BRANCH  41  42
ATOM     42  C   LIG d   1       3.046  -3.343  -9.322  0.00  0.00     0.079 C 
ATOM     43  H   LIG d   1       3.916  -2.725  -9.541  0.00  0.00     0.066 H 
ATOM     44  H   LIG d   1       2.717  -3.843 -10.233  0.00  0.00     0.066 H 
ATOM     45  H   LIG d   1       2.241  -2.714  -8.941  0.00  0.00     0.066 H 
ENDBRANCH  41  42
ENDBRANCH  25  41
ENDBRANCH   3  21
BRANCH   1  46
ATOM     46  C   LIG d   1       4.350  -1.934  -3.200  0.00  0.00     0.349 C 
ATOM     47  O   LIG d   1       3.874  -2.908  -2.664  0.00  0.00    -0.247 OA
BRANCH  46  48
ATOM     48  O   LIG d   1       3.560  -1.089  -3.880  0.00  0.00    -0.462 OA
BRANCH  48  49
ATOM     49  C   LIG d   1       2.620  -0.326  -3.121  0.00  0.00     0.090 C 
ATOM     50  H   LIG d   1       2.209  -0.944  -2.324  0.00  0.00     0.069 H 
ATOM     51  H   LIG d   1       1.814   0.009  -3.774  0.00  0.00     0.069 H 
BRANCH  49  52
ATOM     52  C   LIG d   1       3.322   0.890  -2.513  0.00  0.00    -0.031 C 
ATOM     53  H   LIG d   1       2.592   1.677  -2.330  0.00  0.00     0.026 H 
ATOM     54  H   LIG d   1       3.793   0.604  -1.572  0.00  0.00     0.026 H 
ATOM     55  H   LIG d   1       4.084   1.253  -3.203  0.00  0.00     0.026 H 
ENDBRANCH  49  52
ENDBRANCH  48  49
ENDBRANCH  46  48
ENDBRANCH   1  46
TORSDOF 11
ENDMDL
MODEL 6
REMARK VINA RESULT:      -5.8      2.697      5.062
REMARK  11 active torsions:
REMARK  status: ('A' for Active; 'I' for Inactive)
REMARK    1  A    between atoms: C_1  and  C_2 
REMARK    2  A    between atoms: C_2  and  O_3 
REMARK    3  A    between atoms: O_3  and  C_4 
REMARK    4  A    between atoms: C_4  and  C_6 
REMARK    5  A    between atoms: C_8  and  C_22 
REMARK    6  A    between atoms: C_25  and  O_32 
REMARK    7  A    between atoms: C_26  and  O_28 
REMARK    8  A    between atoms: O_28  and  C_29 
REMARK    9  A    between atoms: C_29  and  C_30 
REMARK   10  A    between atoms: C_29  and  C_31 
REMARK   11  A    between atoms: O_32  and  C_33 
ROOT
ATOM      1  C   LIG d   1       2.735  -0.089  -7.777  0.00  0.00     0.207 C 
ATOM      2  H   LIG d   1       1.737  -0.518  -7.695  0.00  0.00     0.086 H 
ATOM      3  C   LIG d   1       3.812  -1.201  -7.806  0.00  0.00     0.067 C 
ATOM      4  H   LIG d   1       3.392  -2.141  -8.165  0.00  0.00     0.044 H 
ATOM      5  C   LIG d   1       4.193  -1.301  -6.343  0.00  0.00     0.091 A 
ATOM      6  C   LIG d   1       3.707  -0.183  -5.721  0.00  0.00     0.143 A 
ATOM      7  C   LIG d   1       3.944  -0.058  -4.271  0.00  0.00     0.059 A 
ATOM      8  C   LIG d   1       3.477   1.050  -3.563  0.00  0.00    -0.048 A 
ATOM      9  C   LIG d   1       3.712   1.141  -2.209  0.00  0.00    -0.061 A 
ATOM     10  C   LIG d   1       4.410   0.138  -1.551  0.00  0.00    -0.058 A 
ATOM     11  C   LIG d   1       4.878  -0.961  -2.239  0.00  0.00    -0.018 A 
ATOM     12  C   LIG d   1       4.651  -1.071  -3.606  0.00  0.00     0.143 A 
ATOM     13  O   LIG d   1       5.105  -2.142  -4.293  0.00  0.00    -0.422 OA
ATOM     14  C   LIG d   1       4.894  -2.269  -5.614  0.00  0.00     0.345 A 
ATOM     15  O   LIG d   1       5.323  -3.251  -6.192  0.00  0.00    -0.245 OA
ATOM     16  O   LIG d   1       3.077   0.645  -6.588  0.00  0.00    -0.475 OA
ATOM     17  H   LIG d   1       2.934   1.832  -4.073  0.00  0.00     0.063 H 
ATOM     18  H   LIG d   1       3.353   1.997  -1.657  0.00  0.00     0.062 H 
ATOM     19  H   LIG d   1       4.589   0.220  -0.489  0.00  0.00     0.062 H 
ATOM     20  H   LIG d   1       5.420  -1.735  -1.718  0.00  0.00     0.065 H 
ENDROOT
BRANCH   3  21
ATOM     21  C   LIG d   1       4.993  -0.786  -8.645  0.00  0.00    -0.032 A 
ATOM     22  C   LIG d   1       5.090  -1.213  -9.956  0.00  0.00    -0.012 A 
ATOM     23  C   LIG d   1       6.174  -0.829 -10.731  0.00  0.00     0.163 A 
ATOM     24  H   LIG d   1       4.321  -1.842 -10.379  0.00  0.00     0.066 H 
ATOM     25  C   LIG d   1       7.165  -0.022 -10.182  0.00  0.00     0.162 A 
ATOM     26  C   LIG d   1       7.064   0.397  -8.866  0.00  0.00    -0.016 A 
ATOM     27  C   LIG d   1       5.978   0.014  -8.099  0.00  0.00    -0.054 A 
ATOM     28  H   LIG d   1       7.832   1.024  -8.437  0.00  0.00     0.066 H 
ATOM     29  H   LIG d   1       5.900   0.343  -7.074  0.00  0.00     0.062 H 
BRANCH  23  30
ATOM     30  O   LIG d   1       6.269  -1.243 -12.022  0.00  0.00    -0.486 OA
BRANCH  30  31
ATOM     31  C   LIG d   1       5.072  -1.719 -12.642  0.00  0.00     0.095 C 
ATOM     32  H   LIG d   1       4.335  -1.952 -11.874  0.00  0.00     0.073 H 
BRANCH  31  33
ATOM     33  C   LIG d   1       4.515  -0.640 -13.572  0.00  0.00    -0.028 C 
ATOM     34  H   LIG d   1       4.638   0.339 -13.109  0.00  0.00     0.026 H 
ATOM     35  H   LIG d   1       5.054  -0.664 -14.520  0.00  0.00     0.026 H 
ATOM     36  H   LIG d   1       3.456  -0.827 -13.752  0.00  0.00     0.026 H 
ENDBRANCH  31  33
BRANCH  31  37
ATOM     37  C   LIG d   1       5.383  -2.980 -13.450  0.00  0.00    -0.028 C 
ATOM     38  H   LIG d   1       4.794  -3.812 -13.064  0.00  0.00     0.026 H 
ATOM     39  H   LIG d   1       5.132  -2.811 -14.497  0.00  0.00     0.026 H 
ATOM     40  H   LIG d   1       6.444  -3.214 -13.364  0.00  0.00     0.026 H 
ENDBRANCH  31  37
ENDBRANCH  30  31
ENDBRANCH  23  30
BRANCH  25  41
ATOM     41  O   LIG d   1       8.233   0.355 -10.937  0.00  0.00    -0.491 OA
BRANCH  41  42
ATOM     42  C   LIG d   1       9.233   1.149 -10.296  0.00  0.00     0.079 C 
ATOM     43  H   LIG d   1       9.146   2.182 -10.630  0.00  0.00     0.066 H 
ATOM     44  H   LIG d   1       9.095   1.104  -9.216  0.00  0.00     0.066 H 
ATOM     45  H   LIG d   1      10.221   0.766 -10.553  0.00  0.00     0.066 H 
ENDBRANCH  41  42
ENDBRANCH  25  41
ENDBRANCH   3  21
BRANCH   1  46
ATOM     46  C   LIG d   1       2.839   0.790  -8.997  0.00  0.00     0.349 C 
ATOM     47  O   LIG d   1       3.316   1.897  -8.906  0.00  0.00    -0.247 OA
BRANCH  46  48
ATOM     48  O   LIG d   1       2.404   0.343 -10.185  0.00  0.00    -0.462 OA
BRANCH  48  49
ATOM     49  C   LIG d   1       1.358  -0.631 -10.169  0.00  0.00     0.090 C 
ATOM     50  H   LIG d   1       0.392  -0.127 -10.167  0.00  0.00     0.069 H 
ATOM     51  H   LIG d   1       1.449  -1.245  -9.272  0.00  0.00     0.069 H 
BRANCH  49  52
ATOM     52  C   LIG d   1       1.469  -1.519 -11.409  0.00  0.00    -0.031 C 
ATOM     53  H   LIG d   1       1.619  -0.896 -12.290  0.00  0.00     0.026 H 
ATOM     54  H   LIG d   1       2.315  -2.197 -11.296  0.00  0.00     0.026 H 
ATOM     55  H   LIG d   1       0.553  -2.099 -11.524  0.00  0.00     0.026 H 
ENDBRANCH  49  52
ENDBRANCH  48  49
ENDBRANCH  46  48
ENDBRANCH   1  46
TORSDOF 11
ENDMDL
MODEL 7
REMARK VINA RESULT:      -5.7      2.225      4.248
REMARK  11 active torsions:
REMARK  status: ('A' for Active; 'I' for Inactive)
REMARK    1  A    between atoms: C_1  and  C_2 
REMARK    2  A    between atoms: C_2  and  O_3 
REMARK    3  A    between atoms: O_3  and  C_4 
REMARK    4  A    between atoms: C_4  and  C_6 
REMARK    5  A    between atoms: C_8  and  C_22 
REMARK    6  A    between atoms: C_25  and  O_32 
REMARK    7  A    between atoms: C_26  and  O_28 
REMARK    8  A    between atoms: O_28  and  C_29 
REMARK    9  A    between atoms: C_29  and  C_30 
REMARK   10  A    between atoms: C_29  and  C_31 
REMARK   11  A    between atoms: O_32  and  C_33 
ROOT
ATOM      1  C   LIG d   1       5.880  -1.727  -3.142  0.00  0.00     0.207 C 
ATOM      2  H   LIG d   1       6.227  -1.948  -2.133  0.00  0.00     0.086 H 
ATOM      3  C   LIG d   1       6.648  -2.575  -4.186  0.00  0.00     0.067 C 
ATOM      4  H   LIG d   1       7.042  -3.485  -3.734  0.00  0.00     0.044 H 
ATOM      5  C   LIG d   1       7.769  -1.636  -4.581  0.00  0.00     0.091 A 
ATOM      6  C   LIG d   1       7.427  -0.388  -4.136  0.00  0.00     0.143 A 
ATOM      7  C   LIG d   1       8.381   0.707  -4.395  0.00  0.00     0.059 A 
ATOM      8  C   LIG d   1       8.108   2.008  -3.968  0.00  0.00    -0.048 A 
ATOM      9  C   LIG d   1       9.017   3.012  -4.223  0.00  0.00    -0.061 A 
ATOM     10  C   LIG d   1      10.196   2.733  -4.899  0.00  0.00    -0.058 A 
ATOM     11  C   LIG d   1      10.476   1.453  -5.327  0.00  0.00    -0.018 A 
ATOM     12  C   LIG d   1       9.573   0.427  -5.080  0.00  0.00     0.143 A 
ATOM     13  O   LIG d   1       9.834  -0.833  -5.494  0.00  0.00    -0.422 OA
ATOM     14  C   LIG d   1       8.975  -1.840  -5.263  0.00  0.00     0.345 A 
ATOM     15  O   LIG d   1       9.252  -2.959  -5.656  0.00  0.00    -0.245 OA
ATOM     16  O   LIG d   1       6.222  -0.382  -3.519  0.00  0.00    -0.475 OA
ATOM     17  H   LIG d   1       7.191   2.227  -3.442  0.00  0.00     0.063 H 
ATOM     18  H   LIG d   1       8.810   4.020  -3.895  0.00  0.00     0.062 H 
ATOM     19  H   LIG d   1      10.901   3.528  -5.093  0.00  0.00     0.062 H 
ATOM     20  H   LIG d   1      11.396   1.248  -5.852  0.00  0.00     0.065 H 
ENDROOT
BRANCH   3  21
ATOM     21  C   LIG d   1       5.771  -2.898  -5.368  0.00  0.00    -0.032 A 
ATOM     22  C   LIG d   1       5.566  -1.950  -6.352  0.00  0.00    -0.012 A 
ATOM     23  C   LIG d   1       4.763  -2.246  -7.443  0.00  0.00     0.163 A 
ATOM     24  H   LIG d   1       6.034  -0.979  -6.275  0.00  0.00     0.066 H 
ATOM     25  C   LIG d   1       4.158  -3.495  -7.538  0.00  0.00     0.162 A 
ATOM     26  C   LIG d   1       4.364  -4.438  -6.544  0.00  0.00    -0.016 A 
ATOM     27  C   LIG d   1       5.169  -4.139  -5.461  0.00  0.00    -0.054 A 
ATOM     28  H   LIG d   1       3.895  -5.410  -6.616  0.00  0.00     0.066 H 
ATOM     29  H   LIG d   1       5.328  -4.875  -4.688  0.00  0.00     0.062 H 
BRANCH  23  30
ATOM     30  O   LIG d   1       4.565  -1.317  -8.416  0.00  0.00    -0.486 OA
BRANCH  30  31
ATOM     31  C   LIG d   1       4.122  -0.024  -7.998  0.00  0.00     0.095 C 
ATOM     32  H   LIG d   1       4.634   0.255  -7.076  0.00  0.00     0.073 H 
BRANCH  31  33
ATOM     33  C   LIG d   1       4.440   1.002  -9.088  0.00  0.00    -0.028 C 
ATOM     34  H   LIG d   1       4.433   0.512 -10.061  0.00  0.00     0.026 H 
ATOM     35  H   LIG d   1       3.690   1.792  -9.073  0.00  0.00     0.026 H 
ATOM     36  H   LIG d   1       5.425   1.432  -8.904  0.00  0.00     0.026 H 
ENDBRANCH  31  33
BRANCH  31  37
ATOM     37  C   LIG d   1       2.612  -0.056  -7.752  0.00  0.00    -0.028 C 
ATOM     38  H   LIG d   1       2.408  -0.572  -6.814  0.00  0.00     0.026 H 
ATOM     39  H   LIG d   1       2.231   0.964  -7.697  0.00  0.00     0.026 H 
ATOM     40  H   LIG d   1       2.123  -0.584  -8.572  0.00  0.00     0.026 H 
ENDBRANCH  31  37
ENDBRANCH  30  31
ENDBRANCH  23  30
BRANCH  25  41
ATOM     41  O   LIG d   1       3.367  -3.790  -8.605  0.00  0.00    -0.491 OA
BRANCH  41  42
ATOM     42  C   LIG d   1       3.249  -5.168  -8.964  0.00  0.00     0.079 C 
ATOM     43  H   LIG d   1       2.254  -5.355  -9.366  0.00  0.00     0.066 H 
ATOM     44  H   LIG d   1       3.997  -5.411  -9.720  0.00  0.00     0.066 H 
ATOM     45  H   LIG d   1       3.408  -5.789  -8.083  0.00  0.00     0.066 H 
ENDBRANCH  41  42
ENDBRANCH  25  41
ENDBRANCH   3  21
BRANCH   1  46
ATOM     46  C   LIG d   1       4.394  -1.954  -3.257  0.00  0.00     0.349 C 
ATOM     47  O   LIG d   1       3.893  -2.939  -2.767  0.00  0.00    -0.247 OA
BRANCH  46  48
ATOM     48  O   LIG d   1       3.627  -1.062  -3.902  0.00  0.00    -0.462 OA
BRANCH  48  49
ATOM     49  C   LIG d   1       2.682  -0.331  -3.119  0.00  0.00     0.090 C 
ATOM     50  H   LIG d   1       2.298  -0.969  -2.323  0.00  0.00     0.069 H 
ATOM     51  H   LIG d   1       1.857  -0.007  -3.754  0.00  0.00     0.069 H 
BRANCH  49  52
ATOM     52  C   LIG d   1       3.365   0.894  -2.507  0.00  0.00    -0.031 C 
ATOM     53  H   LIG d   1       4.218   0.574  -1.910  0.00  0.00     0.026 H 
ATOM     54  H   LIG d   1       3.706   1.555  -3.303  0.00  0.00     0.026 H 
ATOM     55  H   LIG d   1       2.656   1.426  -1.872  0.00  0.00     0.026 H 
ENDBRANCH  49  52
ENDBRANCH  48  49
ENDBRANCH  46  48
ENDBRANCH   1  46
TORSDOF 11
ENDMDL
MODEL 8
REMARK VINA RESULT:      -5.6      2.030      6.243
REMARK  11 active torsions:
REMARK  status: ('A' for Active; 'I' for Inactive)
REMARK    1  A    between atoms: C_1  and  C_2 
REMARK    2  A    between atoms: C_2  and  O_3 
REMARK    3  A    between atoms: O_3  and  C_4 
REMARK    4  A    between atoms: C_4  and  C_6 
REMARK    5  A    between atoms: C_8  and  C_22 
REMARK    6  A    between atoms: C_25  and  O_32 
REMARK    7  A    between atoms: C_26  and  O_28 
REMARK    8  A    between atoms: O_28  and  C_29 
REMARK    9  A    between atoms: C_29  and  C_30 
REMARK   10  A    between atoms: C_29  and  C_31 
REMARK   11  A    between atoms: O_32  and  C_33 
ROOT
ATOM      1  C   LIG d   1       4.631  -0.453  -5.040  0.00  0.00     0.207 C 
ATOM      2  H   LIG d   1       4.444   0.582  -4.756  0.00  0.00     0.086 H 
ATOM      3  C   LIG d   1       6.015  -0.596  -5.719  0.00  0.00     0.067 C 
ATOM      4  H   LIG d   1       6.685   0.207  -5.413  0.00  0.00     0.044 H 
ATOM      5  C   LIG d   1       5.653  -0.469  -7.186  0.00  0.00     0.091 A 
ATOM      6  C   LIG d   1       4.299  -0.634  -7.283  0.00  0.00     0.143 A 
ATOM      7  C   LIG d   1       3.701  -0.539  -8.628  0.00  0.00     0.059 A 
ATOM      8  C   LIG d   1       2.325  -0.691  -8.812  0.00  0.00    -0.048 A 
ATOM      9  C   LIG d   1       1.793  -0.597 -10.079  0.00  0.00    -0.061 A 
ATOM     10  C   LIG d   1       2.619  -0.354 -11.168  0.00  0.00    -0.058 A 
ATOM     11  C   LIG d   1       3.979  -0.204 -11.000  0.00  0.00    -0.018 A 
ATOM     12  C   LIG d   1       4.535  -0.295  -9.730  0.00  0.00     0.143 A 
ATOM     13  O   LIG d   1       5.866  -0.152  -9.551  0.00  0.00    -0.422 OA
ATOM     14  C   LIG d   1       6.423  -0.233  -8.331  0.00  0.00     0.345 A 
ATOM     15  O   LIG d   1       7.628  -0.098  -8.218  0.00  0.00    -0.245 OA
ATOM     16  O   LIG d   1       3.728  -0.871  -6.078  0.00  0.00    -0.475 OA
ATOM     17  H   LIG d   1       1.682  -0.880  -7.966  0.00  0.00     0.063 H 
ATOM     18  H   LIG d   1       0.729  -0.714 -10.226  0.00  0.00     0.062 H 
ATOM     19  H   LIG d   1       2.191  -0.283 -12.157  0.00  0.00     0.062 H 
ATOM     20  H   LIG d   1       4.611  -0.016 -11.854  0.00  0.00     0.065 H 
ENDROOT
BRANCH   3  21
ATOM     21  C   LIG d   1       6.623  -1.943  -5.427  0.00  0.00    -0.032 A 
ATOM     22  C   LIG d   1       6.154  -3.067  -6.082  0.00  0.00    -0.012 A 
ATOM     23  C   LIG d   1       6.714  -4.307  -5.818  0.00  0.00     0.163 A 
ATOM     24  H   LIG d   1       5.354  -2.979  -6.803  0.00  0.00     0.066 H 
ATOM     25  C   LIG d   1       7.741  -4.418  -4.886  0.00  0.00     0.162 A 
ATOM     26  C   LIG d   1       8.201  -3.289  -4.229  0.00  0.00    -0.016 A 
ATOM     27  C   LIG d   1       7.642  -2.054  -4.500  0.00  0.00    -0.054 A 
ATOM     28  H   LIG d   1       8.999  -3.372  -3.505  0.00  0.00     0.066 H 
ATOM     29  H   LIG d   1       8.002  -1.175  -3.988  0.00  0.00     0.062 H 
BRANCH  23  30
ATOM     30  O   LIG d   1       6.258  -5.412  -6.466  0.00  0.00    -0.486 OA
BRANCH  30  31
ATOM     31  C   LIG d   1       4.940  -5.857  -6.142  0.00  0.00     0.095 C 
ATOM     32  H   LIG d   1       4.476  -5.148  -5.455  0.00  0.00     0.073 H 
BRANCH  31  33
ATOM     33  C   LIG d   1       4.103  -5.948  -7.420  0.00  0.00    -0.028 C 
ATOM     34  H   LIG d   1       4.709  -6.371  -8.221  0.00  0.00     0.026 H 
ATOM     35  H   LIG d   1       3.238  -6.587  -7.243  0.00  0.00     0.026 H 
ATOM     36  H   LIG d   1       3.767  -4.951  -7.706  0.00  0.00     0.026 H 
ENDBRANCH  31  33
BRANCH  31  37
ATOM     37  C   LIG d   1       5.013  -7.234  -5.480  0.00  0.00    -0.028 C 
ATOM     38  H   LIG d   1       4.366  -7.250  -4.604  0.00  0.00     0.026 H 
ATOM     39  H   LIG d   1       4.686  -7.995  -6.189  0.00  0.00     0.026 H 
ATOM     40  H   LIG d   1       6.041  -7.437  -5.177  0.00  0.00     0.026 H 
ENDBRANCH  31  37
ENDBRANCH  30  31
ENDBRANCH  23  30
BRANCH  25  41
ATOM     41  O   LIG d   1       8.292  -5.633  -4.620  0.00  0.00    -0.491 OA
BRANCH  41  42
ATOM     42  C   LIG d   1       9.321  -5.677  -3.631  0.00  0.00     0.079 C 
ATOM     43  H   LIG d   1       9.239  -6.602  -3.061  0.00  0.00     0.066 H 
ATOM     44  H   LIG d   1      10.296  -5.637  -4.118  0.00  0.00     0.066 H 
ATOM     45  H   LIG d   1       9.216  -4.825  -2.958  0.00  0.00     0.066 H 
ENDBRANCH  41  42
ENDBRANCH  25  41
ENDBRANCH   3  21
BRANCH   1  46
ATOM     46  C   LIG d   1       4.527  -1.362  -3.842  0.00  0.00     0.349 C 
ATOM     47  O   LIG d   1       3.844  -2.358  -3.896  0.00  0.00    -0.247 OA
BRANCH  46  48
ATOM     48  O   LIG d   1       5.193  -1.065  -2.715  0.00  0.00    -0.462 OA
BRANCH  48  49
ATOM     49  C   LIG d   1       4.435  -0.500  -1.642  0.00  0.00     0.090 C 
ATOM     50  H   LIG d   1       4.843  -0.840  -0.691  0.00  0.00     0.069 H 
ATOM     51  H   LIG d   1       3.396  -0.818  -1.726  0.00  0.00     0.069 H 
BRANCH  49  52
ATOM     52  C   LIG d   1       4.509   1.026  -1.714  0.00  0.00    -0.031 C 
ATOM     53  H   LIG d   1       5.343   1.378  -1.108  0.00  0.00     0.026 H 
ATOM     54  H   LIG d   1       4.656   1.334  -2.749  0.00  0.00     0.026 H 
ATOM     55  H   LIG d   1       3.579   1.453  -1.337  0.00  0.00     0.026 H 
ENDBRANCH  49  52
ENDBRANCH  48  49
ENDBRANCH  46  48
ENDBRANCH   1  46
TORSDOF 11
ENDMDL
MODEL 9
REMARK VINA RESULT:      -5.4      2.876      5.392
REMARK  11 active torsions:
REMARK  status: ('A' for Active; 'I' for Inactive)
REMARK    1  A    between atoms: C_1  and  C_2 
REMARK    2  A    between atoms: C_2  and  O_3 
REMARK    3  A    between atoms: O_3  and  C_4 
REMARK    4  A    between atoms: C_4  and  C_6 
REMARK    5  A    between atoms: C_8  and  C_22 
REMARK    6  A    between atoms: C_25  and  O_32 
REMARK    7  A    between atoms: C_26  and  O_28 
REMARK    8  A    between atoms: O_28  and  C_29 
REMARK    9  A    between atoms: C_29  and  C_30 
REMARK   10  A    between atoms: C_29  and  C_31 
REMARK   11  A    between atoms: O_32  and  C_33 
ROOT
ATOM      1  C   LIG d   1       5.745  -1.548  -4.113  0.00  0.00     0.207 C 
ATOM      2  H   LIG d   1       4.982  -1.954  -3.449  0.00  0.00     0.086 H 
ATOM      3  C   LIG d   1       5.677  -2.221  -5.506  0.00  0.00     0.067 C 
ATOM      4  H   LIG d   1       4.681  -2.617  -5.699  0.00  0.00     0.044 H 
ATOM      5  C   LIG d   1       6.688  -3.341  -5.357  0.00  0.00     0.091 A 
ATOM      6  C   LIG d   1       7.435  -3.066  -4.245  0.00  0.00     0.143 A 
ATOM      7  C   LIG d   1       8.489  -4.032  -3.883  0.00  0.00     0.059 A 
ATOM      8  C   LIG d   1       9.292  -3.826  -2.760  0.00  0.00    -0.048 A 
ATOM      9  C   LIG d   1      10.269  -4.745  -2.444  0.00  0.00    -0.061 A 
ATOM     10  C   LIG d   1      10.455  -5.868  -3.237  0.00  0.00    -0.058 A 
ATOM     11  C   LIG d   1       9.670  -6.082  -4.350  0.00  0.00    -0.018 A 
ATOM     12  C   LIG d   1       8.679  -5.167  -4.685  0.00  0.00     0.143 A 
ATOM     13  O   LIG d   1       7.903  -5.363  -5.774  0.00  0.00    -0.422 OA
ATOM     14  C   LIG d   1       6.938  -4.492  -6.113  0.00  0.00     0.345 A 
ATOM     15  O   LIG d   1       6.263  -4.710  -7.104  0.00  0.00    -0.245 OA
ATOM     16  O   LIG d   1       7.062  -1.904  -3.658  0.00  0.00    -0.475 OA
ATOM     17  H   LIG d   1       9.149  -2.952  -2.141  0.00  0.00     0.063 H 
ATOM     18  H   LIG d   1      10.893  -4.589  -1.576  0.00  0.00     0.062 H 
ATOM     19  H   LIG d   1      11.224  -6.582  -2.981  0.00  0.00     0.062 H 
ATOM     20  H   LIG d   1       9.824  -6.959  -4.960  0.00  0.00     0.065 H 
ENDROOT
BRANCH   3  21
ATOM     21  C   LIG d   1       6.092  -1.259  -6.589  0.00  0.00    -0.032 A 
ATOM     22  C   LIG d   1       5.136  -0.698  -7.415  0.00  0.00    -0.012 A 
ATOM     23  C   LIG d   1       5.515   0.190  -8.409  0.00  0.00     0.163 A 
ATOM     24  H   LIG d   1       4.093  -0.948  -7.284  0.00  0.00     0.066 H 
ATOM     25  C   LIG d   1       6.859   0.507  -8.580  0.00  0.00     0.162 A 
ATOM     26  C   LIG d   1       7.812  -0.063  -7.752  0.00  0.00    -0.016 A 
ATOM     27  C   LIG d   1       7.427  -0.945  -6.759  0.00  0.00    -0.054 A 
ATOM     28  H   LIG d   1       8.856   0.181  -7.881  0.00  0.00     0.066 H 
ATOM     29  H   LIG d   1       8.171  -1.389  -6.114  0.00  0.00     0.062 H 
BRANCH  23  30
ATOM     30  O   LIG d   1       4.575   0.748  -9.219  0.00  0.00    -0.486 OA
BRANCH  30  31
ATOM     31  C   LIG d   1       3.237   0.800  -8.722  0.00  0.00     0.095 C 
ATOM     32  H   LIG d   1       3.184   0.273  -7.769  0.00  0.00     0.073 H 
BRANCH  31  33
ATOM     33  C   LIG d   1       2.823   2.259  -8.521  0.00  0.00    -0.028 C 
ATOM     34  H   LIG d   1       1.739   2.342  -8.585  0.00  0.00     0.026 H 
ATOM     35  H   LIG d   1       3.157   2.599  -7.540  0.00  0.00     0.026 H 
ATOM     36  H   LIG d   1       3.282   2.876  -9.294  0.00  0.00     0.026 H 
ENDBRANCH  31  33
BRANCH  31  37
ATOM     37  C   LIG d   1       2.293   0.135  -9.725  0.00  0.00    -0.028 C 
ATOM     38  H   LIG d   1       2.402  -0.948  -9.664  0.00  0.00     0.026 H 
ATOM     39  H   LIG d   1       1.264   0.411  -9.494  0.00  0.00     0.026 H 
ATOM     40  H   LIG d   1       2.541   0.469 -10.733  0.00  0.00     0.026 H 
ENDBRANCH  31  37
ENDBRANCH  30  31
ENDBRANCH  23  30
BRANCH  25  41
ATOM     41  O   LIG d   1       7.236   1.376  -9.556  0.00  0.00    -0.491 OA
BRANCH  41  42
ATOM     42  C   LIG d   1       8.093   2.452  -9.171  0.00  0.00     0.079 C 
ATOM     43  H   LIG d   1       8.205   2.459  -8.088  0.00  0.00     0.066 H 
ATOM     44  H   LIG d   1       9.071   2.323  -9.636  0.00  0.00     0.066 H 
ATOM     45  H   LIG d   1       7.658   3.398  -9.497  0.00  0.00     0.066 H 
ENDBRANCH  41  42
ENDBRANCH  25  41
ENDBRANCH   3  21
BRANCH   1  46
ATOM     46  C   LIG d   1       5.606  -0.052  -4.233  0.00  0.00     0.349 C 
ATOM     47  O   LIG d   1       6.584   0.654  -4.155  0.00  0.00    -0.247 OA
BRANCH  46  48
ATOM     48  O   LIG d   1       4.396   0.496  -4.427  0.00  0.00    -0.462 OA
BRANCH  48  49
ATOM     49  C   LIG d   1       3.418   0.288  -3.406  0.00  0.00     0.090 C 
ATOM     50  H   LIG d   1       3.413  -0.762  -3.116  0.00  0.00     0.069 H 
ATOM     51  H   LIG d   1       2.434   0.565  -3.786  0.00  0.00     0.069 H 
BRANCH  49  52
ATOM     52  C   LIG d   1       3.757   1.152  -2.191  0.00  0.00    -0.031 C 
ATOM     53  H   LIG d   1       4.838   1.184  -2.057  0.00  0.00     0.026 H 
ATOM     54  H   LIG d   1       3.381   2.163  -2.347  0.00  0.00     0.026 H 
ATOM     55  H   LIG d   1       3.293   0.726  -1.301  0.00  0.00     0.026 H 
ENDBRANCH  49  52
ENDBRANCH  48  49
ENDBRANCH  46  48
ENDBRANCH   1  46
TORSDOF 11
ENDMDL
MODEL 10
REMARK VINA RESULT:      -5.2      3.282      5.885
REMARK  11 active torsions:
REMARK  status: ('A' for Active; 'I' for Inactive)
REMARK    1  A    between atoms: C_1  and  C_2 
REMARK    2  A    between atoms: C_2  and  O_3 
REMARK    3  A    between atoms: O_3  and  C_4 
REMARK    4  A    between atoms: C_4  and  C_6 
REMARK    5  A    between atoms: C_8  and  C_22 
REMARK    6  A    between atoms: C_25  and  O_32 
REMARK    7  A    between atoms: C_26  and  O_28 
REMARK    8  A    between atoms: O_28  and  C_29 
REMARK    9  A    between atoms: C_29  and  C_30 
REMARK   10  A    between atoms: C_29  and  C_31 
REMARK   11  A    between atoms: O_32  and  C_33 
ROOT
ATOM      1  C   LIG d   1       7.244   0.752  -3.507  0.00  0.00     0.207 C 
ATOM      2  H   LIG d   1       7.823   0.617  -2.593  0.00  0.00     0.086 H 
ATOM      3  C   LIG d   1       7.768  -0.173  -4.632  0.00  0.00     0.067 C 
ATOM      4  H   LIG d   1       8.280  -1.041  -4.217  0.00  0.00     0.044 H 
ATOM      5  C   LIG d   1       8.743   0.737  -5.353  0.00  0.00     0.091 A 
ATOM      6  C   LIG d   1       8.483   2.015  -4.939  0.00  0.00     0.143 A 
ATOM      7  C   LIG d   1       9.322   3.091  -5.498  0.00  0.00     0.059 A 
ATOM      8  C   LIG d   1       9.124   4.421  -5.123  0.00  0.00    -0.048 A 
ATOM      9  C   LIG d   1       9.923   5.406  -5.661  0.00  0.00    -0.061 A 
ATOM     10  C   LIG d   1      10.918   5.080  -6.572  0.00  0.00    -0.058 A 
ATOM     11  C   LIG d   1      11.122   3.771  -6.952  0.00  0.00    -0.018 A 
ATOM     12  C   LIG d   1      10.327   2.763  -6.420  0.00  0.00     0.143 A 
ATOM     13  O   LIG d   1      10.516   1.475  -6.785  0.00  0.00    -0.422 OA
ATOM     14  C   LIG d   1       9.760   0.486  -6.280  0.00  0.00     0.345 A 
ATOM     15  O   LIG d   1       9.966  -0.660  -6.639  0.00  0.00    -0.245 OA
ATOM     16  O   LIG d   1       7.456   2.064  -4.058  0.00  0.00    -0.475 OA
ATOM     17  H   LIG d   1       8.350   4.677  -4.414  0.00  0.00     0.063 H 
ATOM     18  H   LIG d   1       9.773   6.437  -5.374  0.00  0.00     0.062 H 
ATOM     19  H   LIG d   1      11.538   5.861  -6.988  0.00  0.00     0.062 H 
ATOM     20  H   LIG d   1      11.899   3.529  -7.661  0.00  0.00     0.065 H 
ENDROOT
BRANCH   3  21
ATOM     21  C   LIG d   1       6.648  -0.597  -5.546  0.00  0.00    -0.032 A 
ATOM     22  C   LIG d   1       6.043  -1.828  -5.369  0.00  0.00    -0.012 A 
ATOM     23  C   LIG d   1       5.010  -2.218  -6.206  0.00  0.00     0.163 A 
ATOM     24  H   LIG d   1       6.372  -2.484  -4.577  0.00  0.00     0.066 H 
ATOM     25  C   LIG d   1       4.591  -1.374  -7.229  0.00  0.00     0.162 A 
ATOM     26  C   LIG d   1       5.206  -0.144  -7.404  0.00  0.00    -0.016 A 
ATOM     27  C   LIG d   1       6.233   0.241  -6.563  0.00  0.00    -0.054 A 
ATOM     28  H   LIG d   1       4.882   0.514  -8.198  0.00  0.00     0.066 H 
ATOM     29  H   LIG d   1       6.711   1.200  -6.701  0.00  0.00     0.062 H 
BRANCH  23  30
ATOM     30  O   LIG d   1       4.410  -3.426  -6.031  0.00  0.00    -0.486 OA
BRANCH  30  31
ATOM     31  C   LIG d   1       5.210  -4.588  -6.257  0.00  0.00     0.095 C 
ATOM     32  H   LIG d   1       6.236  -4.388  -5.946  0.00  0.00     0.073 H 
BRANCH  31  33
ATOM     33  C   LIG d   1       4.651  -5.758  -5.445  0.00  0.00    -0.028 C 
ATOM     34  H   LIG d   1       5.468  -6.273  -4.940  0.00  0.00     0.026 H 
ATOM     35  H   LIG d   1       3.946  -5.382  -4.704  0.00  0.00     0.026 H 
ATOM     36  H   LIG d   1       4.141  -6.453  -6.113  0.00  0.00     0.026 H 
ENDBRANCH  31  33
BRANCH  31  37
ATOM     37  C   LIG d   1       5.188  -4.941  -7.745  0.00  0.00    -0.028 C 
ATOM     38  H   LIG d   1       4.431  -5.704  -7.925  0.00  0.00     0.026 H 
ATOM     39  H   LIG d   1       4.952  -4.050  -8.327  0.00  0.00     0.026 H 
ATOM     40  H   LIG d   1       6.165  -5.322  -8.042  0.00  0.00     0.026 H 
ENDBRANCH  31  37
ENDBRANCH  30  31
ENDBRANCH  23  30
BRANCH  25  41
ATOM     41  O   LIG d   1       3.579  -1.754  -8.056  0.00  0.00    -0.491 OA
BRANCH  41  42
ATOM     42  C   LIG d   1       2.691  -0.730  -8.507  0.00  0.00     0.079 C 
ATOM     43  H   LIG d   1       3.213  -0.079  -9.209  0.00  0.00     0.066 H 
ATOM     44  H   LIG d   1       1.834  -1.185  -9.003  0.00  0.00     0.066 H 
ATOM     45  H   LIG d   1       2.348  -0.143  -7.655  0.00  0.00     0.066 H 
ENDBRANCH  41  42
ENDBRANCH  25  41
ENDBRANCH   3  21
BRANCH   1  46
ATOM     46  C   LIG d   1       5.779   0.508  -3.251  0.00  0.00     0.349 C 
ATOM     47  O   LIG d   1       4.951   1.248  -3.729  0.00  0.00    -0.247 OA
BRANCH  46  48
ATOM     48  O   LIG d   1       5.394  -0.530  -2.493  0.00  0.00    -0.462 OA
BRANCH  48  49
ATOM     49  C   LIG d   1       3.996  -0.820  -2.450  0.00  0.00     0.090 C 
ATOM     50  H   LIG d   1       3.512  -0.409  -3.336  0.00  0.00     0.069 H 
ATOM     51  H   LIG d   1       3.560  -0.371  -1.558  0.00  0.00     0.069 H 
BRANCH  49  52
ATOM     52  C   LIG d   1       3.789  -2.335  -2.413  0.00  0.00    -0.031 C 
ATOM     53  H   LIG d   1       4.720  -2.835  -2.678  0.00  0.00     0.026 H 
ATOM     54  H   LIG d   1       3.489  -2.635  -1.409  0.00  0.00     0.026 H 
ATOM     55  H   LIG d   1       3.011  -2.614  -3.123  0.00  0.00     0.026 H 
ENDBRANCH  49  52
ENDBRANCH  48  49
ENDBRANCH  46  48
ENDBRANCH   1  46
TORSDOF 11
ENDMDL
