MODEL 1
REMARK VINA RESULT:      -5.8      0.000      0.000
REMARK  7 active torsions:
REMARK  status: ('A' for Active; 'I' for Inactive)
REMARK    1  A    between atoms: C_1  and  C_2 
REMARK    2  A    between atoms: C_2  and  O_3 
REMARK    3  A    between atoms: O_3  and  C_4 
REMARK    4  A    between atoms: C_4  and  C_6 
REMARK    5  A    between atoms: C_7  and  C_24 
REMARK    6  A    between atoms: C_11  and  N_15 
REMARK       I    between atoms: N_15  and  C_16 
REMARK    7  A    between atoms: C_16  and  C_18 
ROOT
ATOM      1  C   LIG d   1       4.084  -1.121  -5.446  0.00  0.00     0.215 A 
ATOM      2  C   LIG d   1       3.283  -0.066  -5.748  0.00  0.00     0.010 A 
ATOM      3  C   LIG d   1       3.303   0.077  -7.158  0.00  0.00     0.024 A 
ATOM      4  C   LIG d   1       2.679   0.958  -8.050  0.00  0.00    -0.049 A 
ATOM      5  C   LIG d   1       2.902   0.839  -9.389  0.00  0.00    -0.040 A 
ATOM      6  C   LIG d   1       3.750  -0.155  -9.879  0.00  0.00     0.037 A 
ATOM      7  C   LIG d   1       4.376  -1.035  -9.012  0.00  0.00     0.003 A 
ATOM      8  C   LIG d   1       4.155  -0.933  -7.646  0.00  0.00     0.138 A 
ATOM      9  O   LIG d   1       4.607  -1.629  -6.584  0.00  0.00    -0.448 OA
ATOM     10  H   LIG d   1       2.022   1.730  -7.676  0.00  0.00     0.062 H 
ATOM     11  H   LIG d   1       2.421   1.519 -10.076  0.00  0.00     0.064 H 
ATOM     12  H   LIG d   1       5.031  -1.803  -9.399  0.00  0.00     0.067 H 
ENDROOT
BRANCH   6  13
ATOM     13  N   LIG d   1       3.970  -0.263 -11.254  0.00  0.00    -0.281 N 
ATOM     14  C   LIG d   1       3.103  -0.951 -12.023  0.00  0.00     0.248 C 
ATOM     15  O   LIG d   1       2.081  -1.396 -11.538  0.00  0.00    -0.270 OA
ATOM     16  H   LIG d   1       4.747   0.157 -11.655  0.00  0.00     0.155 HD
BRANCH  14  17
ATOM     17  C   LIG d   1       3.396  -1.166 -13.458  0.00  0.00     0.040 A 
ATOM     18  C   LIG d   1       2.602  -2.016 -14.234  0.00  0.00    -0.032 A 
ATOM     19  C   LIG d   1       2.911  -2.187 -15.570  0.00  0.00     0.028 A 
ATOM     20  H   LIG d   1       1.760  -2.532 -13.796  0.00  0.00     0.064 H 
ATOM     21  N   LIG d   1       3.936  -1.562 -16.113  0.00  0.00    -0.263 NA
ATOM     22  H   LIG d   1       2.304  -2.842 -16.177  0.00  0.00     0.083 H 
ATOM     23  C   LIG d   1       4.709  -0.751 -15.418  0.00  0.00     0.028 A 
ATOM     24  C   LIG d   1       4.470  -0.518 -14.077  0.00  0.00    -0.032 A 
ATOM     25  H   LIG d   1       5.539  -0.259 -15.904  0.00  0.00     0.083 H 
ATOM     26  H   LIG d   1       5.105   0.150 -13.515  0.00  0.00     0.064 H 
ENDBRANCH  14  17
ENDBRANCH   6  13
BRANCH   2  27
ATOM     27  C   LIG d   1       2.507   0.780  -4.771  0.00  0.00    -0.035 C 
ATOM     28  H   LIG d   1       2.748   0.473  -3.754  0.00  0.00     0.028 H 
ATOM     29  H   LIG d   1       2.774   1.828  -4.906  0.00  0.00     0.028 H 
ATOM     30  H   LIG d   1       1.439   0.651  -4.947  0.00  0.00     0.028 H 
ENDBRANCH   2  27
BRANCH   1  31
ATOM     31  C   LIG d   1       4.351  -1.623  -4.094  0.00  0.00     0.375 C 
ATOM     32  O   LIG d   1       3.919  -2.707  -3.751  0.00  0.00    -0.241 OA
BRANCH  31  33
ATOM     33  O   LIG d   1       5.077  -0.883  -3.231  0.00  0.00    -0.459 OA
BRANCH  33  34
ATOM     34  C   LIG d   1       4.475  -0.598  -1.940  0.00  0.00     0.090 C 
ATOM     35  H   LIG d   1       3.432  -0.916  -1.947  0.00  0.00     0.070 H 
ATOM     36  H   LIG d   1       5.014  -1.136  -1.161  0.00  0.00     0.070 H 
BRANCH  34  37
ATOM     37  C   LIG d   1       4.548   0.906  -1.666  0.00  0.00    -0.031 C 
ATOM     38  H   LIG d   1       3.906   1.152  -0.821  0.00  0.00     0.026 H 
ATOM     39  H   LIG d   1       5.576   1.185  -1.434  0.00  0.00     0.026 H 
ATOM     40  H   LIG d   1       4.214   1.453  -2.548  0.00  0.00     0.026 H 
ENDBRANCH  34  37
ENDBRANCH  33  34
ENDBRANCH  31  33
ENDBRANCH   1  31
TORSDOF 7
ENDMDL
MODEL 2
REMARK VINA RESULT:      -5.7     11.400     13.991
REMARK  7 active torsions:
REMARK  status: ('A' for Active; 'I' for Inactive)
REMARK    1  A    between atoms: C_1  and  C_2 
REMARK    2  A    between atoms: C_2  and  O_3 
REMARK    3  A    between atoms: O_3  and  C_4 
REMARK    4  A    between atoms: C_4  and  C_6 
REMARK    5  A    between atoms: C_7  and  C_24 
REMARK    6  A    between atoms: C_11  and  N_15 
REMARK       I    between atoms: N_15  and  C_16 
REMARK    7  A    between atoms: C_16  and  C_18 
ROOT
ATOM      1  C   LIG d   1       0.887  10.350 -16.368  0.00  0.00     0.215 A 
ATOM      2  C   LIG d   1      -0.347  10.914 -16.437  0.00  0.00     0.010 A 
ATOM      3  C   LIG d   1      -1.250  10.008 -15.827  0.00  0.00     0.024 A 
ATOM      4  C   LIG d   1      -2.629  10.031 -15.586  0.00  0.00    -0.049 A 
ATOM      5  C   LIG d   1      -3.227   8.979 -14.960  0.00  0.00    -0.040 A 
ATOM      6  C   LIG d   1      -2.473   7.876 -14.556  0.00  0.00     0.037 A 
ATOM      7  C   LIG d   1      -1.108   7.835 -14.785  0.00  0.00     0.003 A 
ATOM      8  C   LIG d   1      -0.482   8.901 -15.417  0.00  0.00     0.138 A 
ATOM      9  O   LIG d   1       0.797   9.144 -15.764  0.00  0.00    -0.448 OA
ATOM     10  H   LIG d   1      -3.217  10.882 -15.897  0.00  0.00     0.062 H 
ATOM     11  H   LIG d   1      -4.291   8.998 -14.775  0.00  0.00     0.064 H 
ATOM     12  H   LIG d   1      -0.531   6.977 -14.470  0.00  0.00     0.067 H 
ENDROOT
BRANCH   6  13
ATOM     13  N   LIG d   1      -3.100   6.805 -13.916  0.00  0.00    -0.281 N 
ATOM     14  C   LIG d   1      -3.648   5.811 -14.644  0.00  0.00     0.248 C 
ATOM     15  O   LIG d   1      -3.513   5.798 -15.852  0.00  0.00    -0.270 OA
ATOM     16  H   LIG d   1      -3.142   6.776 -12.947  0.00  0.00     0.155 HD
BRANCH  14  17
ATOM     17  C   LIG d   1      -4.414   4.737 -13.972  0.00  0.00     0.040 A 
ATOM     18  C   LIG d   1      -5.795   4.850 -13.783  0.00  0.00    -0.032 A 
ATOM     19  C   LIG d   1      -6.471   3.824 -13.152  0.00  0.00     0.028 A 
ATOM     20  H   LIG d   1      -6.325   5.727 -14.124  0.00  0.00     0.064 H 
ATOM     21  N   LIG d   1      -5.833   2.750 -12.733  0.00  0.00    -0.263 NA
ATOM     22  H   LIG d   1      -7.538   3.903 -13.002  0.00  0.00     0.083 H 
ATOM     23  C   LIG d   1      -4.533   2.603 -12.893  0.00  0.00     0.028 A 
ATOM     24  C   LIG d   1      -3.779   3.577 -13.517  0.00  0.00    -0.032 A 
ATOM     25  H   LIG d   1      -4.050   1.705 -12.534  0.00  0.00     0.083 H 
ATOM     26  H   LIG d   1      -2.715   3.448 -13.648  0.00  0.00     0.064 H 
ENDBRANCH  14  17
ENDBRANCH   6  13
BRANCH   2  27
ATOM     27  C   LIG d   1      -0.687  12.256 -17.033  0.00  0.00    -0.035 C 
ATOM     28  H   LIG d   1       0.105  12.562 -17.715  0.00  0.00     0.028 H 
ATOM     29  H   LIG d   1      -1.628  12.183 -17.578  0.00  0.00     0.028 H 
ATOM     30  H   LIG d   1      -0.786  12.993 -16.236  0.00  0.00     0.028 H 
ENDBRANCH   2  27
BRANCH   1  31
ATOM     31  C   LIG d   1       2.124  10.949 -16.882  0.00  0.00     0.375 C 
ATOM     32  O   LIG d   1       2.411  10.834 -18.058  0.00  0.00    -0.241 OA
BRANCH  31  33
ATOM     33  O   LIG d   1       2.940  11.628 -16.051  0.00  0.00    -0.459 OA
BRANCH  33  34
ATOM     34  C   LIG d   1       3.815  12.619 -16.652  0.00  0.00     0.090 C 
ATOM     35  H   LIG d   1       4.127  12.277 -17.640  0.00  0.00     0.070 H 
ATOM     36  H   LIG d   1       3.284  13.565 -16.747  0.00  0.00     0.070 H 
BRANCH  34  37
ATOM     37  C   LIG d   1       5.049  12.812 -15.767  0.00  0.00    -0.031 C 
ATOM     38  H   LIG d   1       5.691  13.578 -16.202  0.00  0.00     0.026 H 
ATOM     39  H   LIG d   1       4.736  13.124 -14.770  0.00  0.00     0.026 H 
ATOM     40  H   LIG d   1       5.598  11.873 -15.699  0.00  0.00     0.026 H 
ENDBRANCH  34  37
ENDBRANCH  33  34
ENDBRANCH  31  33
ENDBRANCH   1  31
TORSDOF 7
ENDMDL
MODEL 3
REMARK VINA RESULT:      -5.5      6.961      9.862
REMARK  7 active torsions:
REMARK  status: ('A' for Active; 'I' for Inactive)
REMARK    1  A    between atoms: C_1  and  C_2 
REMARK    2  A    between atoms: C_2  and  O_3 
REMARK    3  A    between atoms: O_3  and  C_4 
REMARK    4  A    between atoms: C_4  and  C_6 
REMARK    5  A    between atoms: C_7  and  C_24 
REMARK    6  A    between atoms: C_11  and  N_15 
REMARK       I    between atoms: N_15  and  C_16 
REMARK    7  A    between atoms: C_16  and  C_18 
ROOT
ATOM      1  C   LIG d   1      11.152   5.010  -3.194  0.00  0.00     0.215 A 
ATOM      2  C   LIG d   1      10.833   5.012  -4.515  0.00  0.00     0.010 A 
ATOM      3  C   LIG d   1       9.957   3.919  -4.730  0.00  0.00     0.024 A 
ATOM      4  C   LIG d   1       9.292   3.420  -5.857  0.00  0.00    -0.049 A 
ATOM      5  C   LIG d   1       8.495   2.320  -5.743  0.00  0.00    -0.040 A 
ATOM      6  C   LIG d   1       8.338   1.686  -4.510  0.00  0.00     0.037 A 
ATOM      7  C   LIG d   1       8.987   2.166  -3.385  0.00  0.00     0.003 A 
ATOM      8  C   LIG d   1       9.797   3.288  -3.481  0.00  0.00     0.138 A 
ATOM      9  O   LIG d   1      10.535   3.972  -2.585  0.00  0.00    -0.448 OA
ATOM     10  H   LIG d   1       9.411   3.906  -6.814  0.00  0.00     0.062 H 
ATOM     11  H   LIG d   1       7.983   1.935  -6.613  0.00  0.00     0.064 H 
ATOM     12  H   LIG d   1       8.860   1.670  -2.433  0.00  0.00     0.067 H 
ENDROOT
BRANCH   6  13
ATOM     13  N   LIG d   1       7.518   0.559  -4.410  0.00  0.00    -0.281 N 
ATOM     14  C   LIG d   1       6.388   0.611  -3.677  0.00  0.00     0.248 C 
ATOM     15  O   LIG d   1       6.033   1.662  -3.182  0.00  0.00    -0.270 OA
ATOM     16  H   LIG d   1       7.763  -0.260  -4.868  0.00  0.00     0.155 HD
BRANCH  14  17
ATOM     17  C   LIG d   1       5.582  -0.614  -3.473  0.00  0.00     0.040 A 
ATOM     18  C   LIG d   1       4.696  -0.721  -2.396  0.00  0.00    -0.032 A 
ATOM     19  C   LIG d   1       3.963  -1.881  -2.244  0.00  0.00     0.028 A 
ATOM     20  H   LIG d   1       4.589   0.092  -1.693  0.00  0.00     0.064 H 
ATOM     21  N   LIG d   1       4.088  -2.878  -3.099  0.00  0.00    -0.263 NA
ATOM     22  H   LIG d   1       3.277  -1.974  -1.416  0.00  0.00     0.083 H 
ATOM     23  C   LIG d   1       4.910  -2.818  -4.127  0.00  0.00     0.028 A 
ATOM     24  C   LIG d   1       5.678  -1.693  -4.358  0.00  0.00    -0.032 A 
ATOM     25  H   LIG d   1       4.981  -3.658  -4.803  0.00  0.00     0.083 H 
ATOM     26  H   LIG d   1       6.346  -1.650  -5.205  0.00  0.00     0.064 H 
ENDBRANCH  14  17
ENDBRANCH   6  13
BRANCH   2  27
ATOM     27  C   LIG d   1      11.307   6.000  -5.550  0.00  0.00    -0.035 C 
ATOM     28  H   LIG d   1      12.179   5.597  -6.064  0.00  0.00     0.028 H 
ATOM     29  H   LIG d   1      10.511   6.180  -6.272  0.00  0.00     0.028 H 
ATOM     30  H   LIG d   1      11.573   6.938  -5.062  0.00  0.00     0.028 H 
ENDBRANCH   2  27
BRANCH   1  31
ATOM     31  C   LIG d   1      12.038   5.974  -2.534  0.00  0.00     0.375 C 
ATOM     32  O   LIG d   1      13.230   5.745  -2.450  0.00  0.00    -0.241 OA
BRANCH  31  33
ATOM     33  O   LIG d   1      11.533   7.114  -2.022  0.00  0.00    -0.459 OA
BRANCH  33  34
ATOM     34  C   LIG d   1      10.593   6.982  -0.923  0.00  0.00     0.090 C 
ATOM     35  H   LIG d   1      10.355   5.929  -0.772  0.00  0.00     0.070 H 
ATOM     36  H   LIG d   1      11.037   7.388  -0.014  0.00  0.00     0.070 H 
BRANCH  34  37
ATOM     37  C   LIG d   1       9.312   7.752  -1.253  0.00  0.00    -0.031 C 
ATOM     38  H   LIG d   1       8.475   7.313  -0.712  0.00  0.00     0.026 H 
ATOM     39  H   LIG d   1       9.428   8.795  -0.959  0.00  0.00     0.026 H 
ATOM     40  H   LIG d   1       9.121   7.697  -2.325  0.00  0.00     0.026 H 
ENDBRANCH  34  37
ENDBRANCH  33  34
ENDBRANCH  31  33
ENDBRANCH   1  31
TORSDOF 7
ENDMDL
MODEL 4
REMARK VINA RESULT:      -5.5      5.205      8.846
REMARK  7 active torsions:
REMARK  status: ('A' for Active; 'I' for Inactive)
REMARK    1  A    between atoms: C_1  and  C_2 
REMARK    2  A    between atoms: C_2  and  O_3 
REMARK    3  A    between atoms: O_3  and  C_4 
REMARK    4  A    between atoms: C_4  and  C_6 
REMARK    5  A    between atoms: C_7  and  C_24 
REMARK    6  A    between atoms: C_11  and  N_15 
REMARK       I    between atoms: N_15  and  C_16 
REMARK    7  A    between atoms: C_16  and  C_18 
ROOT
ATOM      1  C   LIG d   1       3.931  -0.147  -6.538  0.00  0.00     0.215 A 
ATOM      2  C   LIG d   1       3.713  -0.266  -5.202  0.00  0.00     0.010 A 
ATOM      3  C   LIG d   1       4.872  -0.862  -4.646  0.00  0.00     0.024 A 
ATOM      4  C   LIG d   1       5.247  -1.220  -3.345  0.00  0.00    -0.049 A 
ATOM      5  C   LIG d   1       6.464  -1.791  -3.122  0.00  0.00    -0.040 A 
ATOM      6  C   LIG d   1       7.341  -2.023  -4.182  0.00  0.00     0.037 A 
ATOM      7  C   LIG d   1       6.989  -1.674  -5.475  0.00  0.00     0.003 A 
ATOM      8  C   LIG d   1       5.756  -1.086  -5.720  0.00  0.00     0.138 A 
ATOM      9  O   LIG d   1       5.150  -0.646  -6.841  0.00  0.00    -0.448 OA
ATOM     10  H   LIG d   1       4.571  -1.044  -2.520  0.00  0.00     0.062 H 
ATOM     11  H   LIG d   1       6.751  -2.068  -2.118  0.00  0.00     0.064 H 
ATOM     12  H   LIG d   1       7.674  -1.856  -6.292  0.00  0.00     0.067 H 
ENDROOT
BRANCH   6  13
ATOM     13  N   LIG d   1       8.585  -2.610  -3.937  0.00  0.00    -0.281 N 
ATOM     14  C   LIG d   1       8.755  -3.933  -4.128  0.00  0.00     0.248 C 
ATOM     15  O   LIG d   1       7.855  -4.599  -4.603  0.00  0.00    -0.270 OA
ATOM     16  H   LIG d   1       9.326  -2.064  -3.631  0.00  0.00     0.155 HD
BRANCH  14  17
ATOM     17  C   LIG d   1      10.036  -4.576  -3.757  0.00  0.00     0.040 A 
ATOM     18  C   LIG d   1      10.057  -5.802  -3.086  0.00  0.00    -0.032 A 
ATOM     19  C   LIG d   1      11.275  -6.366  -2.759  0.00  0.00     0.028 A 
ATOM     20  H   LIG d   1       9.135  -6.300  -2.825  0.00  0.00     0.064 H 
ATOM     21  N   LIG d   1      12.405  -5.765  -3.074  0.00  0.00    -0.263 NA
ATOM     22  H   LIG d   1      11.302  -7.313  -2.241  0.00  0.00     0.083 H 
ATOM     23  C   LIG d   1      12.430  -4.610  -3.707  0.00  0.00     0.028 A 
ATOM     24  C   LIG d   1      11.259  -3.976  -4.076  0.00  0.00    -0.032 A 
ATOM     25  H   LIG d   1      13.380  -4.153  -3.945  0.00  0.00     0.083 H 
ATOM     26  H   LIG d   1      11.287  -3.032  -4.598  0.00  0.00     0.064 H 
ENDBRANCH  14  17
ENDBRANCH   6  13
BRANCH   2  27
ATOM     27  C   LIG d   1       2.480   0.169  -4.453  0.00  0.00    -0.035 C 
ATOM     28  H   LIG d   1       1.829  -0.690  -4.295  0.00  0.00     0.028 H 
ATOM     29  H   LIG d   1       2.769   0.587  -3.489  0.00  0.00     0.028 H 
ATOM     30  H   LIG d   1       1.950   0.925  -5.032  0.00  0.00     0.028 H 
ENDBRANCH   2  27
BRANCH   1  31
ATOM     31  C   LIG d   1       2.985   0.421  -7.504  0.00  0.00     0.375 C 
ATOM     32  O   LIG d   1       2.271  -0.314  -8.160  0.00  0.00    -0.241 OA
BRANCH  31  33
ATOM     33  O   LIG d   1       2.905   1.757  -7.665  0.00  0.00    -0.459 OA
BRANCH  33  34
ATOM     34  C   LIG d   1       3.143   2.275  -9.000  0.00  0.00     0.090 C 
ATOM     35  H   LIG d   1       2.652   1.634  -9.732  0.00  0.00     0.070 H 
ATOM     36  H   LIG d   1       2.741   3.285  -9.075  0.00  0.00     0.070 H 
BRANCH  34  37
ATOM     37  C   LIG d   1       4.649   2.303  -9.275  0.00  0.00    -0.031 C 
ATOM     38  H   LIG d   1       5.127   1.469  -8.763  0.00  0.00     0.026 H 
ATOM     39  H   LIG d   1       4.824   2.221 -10.348  0.00  0.00     0.026 H 
ATOM     40  H   LIG d   1       5.067   3.241  -8.910  0.00  0.00     0.026 H 
ENDBRANCH  34  37
ENDBRANCH  33  34
ENDBRANCH  31  33
ENDBRANCH   1  31
TORSDOF 7
ENDMDL
MODEL 5
REMARK VINA RESULT:      -5.4      8.996     13.301
REMARK  7 active torsions:
REMARK  status: ('A' for Active; 'I' for Inactive)
REMARK    1  A    between atoms: C_1  and  C_2 
REMARK    2  A    between atoms: C_2  and  O_3 
REMARK    3  A    between atoms: O_3  and  C_4 
REMARK    4  A    between atoms: C_4  and  C_6 
REMARK    5  A    between atoms: C_7  and  C_24 
REMARK    6  A    between atoms: C_11  and  N_15 
REMARK       I    between atoms: N_15  and  C_16 
REMARK    7  A    between atoms: C_16  and  C_18 
ROOT
ATOM      1  C   LIG d   1       8.946   2.532  -4.243  0.00  0.00     0.215 A 
ATOM      2  C   LIG d   1       9.323   3.461  -5.161  0.00  0.00     0.010 A 
ATOM      3  C   LIG d   1       9.832   4.570  -4.440  0.00  0.00     0.024 A 
ATOM      4  C   LIG d   1      10.373   5.804  -4.819  0.00  0.00    -0.049 A 
ATOM      5  C   LIG d   1      10.787   6.687  -3.866  0.00  0.00    -0.040 A 
ATOM      6  C   LIG d   1      10.673   6.369  -2.512  0.00  0.00     0.037 A 
ATOM      7  C   LIG d   1      10.141   5.152  -2.117  0.00  0.00     0.003 A 
ATOM      8  C   LIG d   1       9.721   4.240  -3.075  0.00  0.00     0.138 A 
ATOM      9  O   LIG d   1       9.180   3.007  -3.000  0.00  0.00    -0.448 OA
ATOM     10  H   LIG d   1      10.463   6.056  -5.866  0.00  0.00     0.062 H 
ATOM     11  H   LIG d   1      11.204   7.639  -4.160  0.00  0.00     0.064 H 
ATOM     12  H   LIG d   1      10.056   4.913  -1.067  0.00  0.00     0.067 H 
ENDROOT
BRANCH   6  13
ATOM     13  N   LIG d   1      11.100   7.283  -1.547  0.00  0.00    -0.281 N 
ATOM     14  C   LIG d   1      10.196   8.000  -0.851  0.00  0.00     0.248 C 
ATOM     15  O   LIG d   1       9.008   7.783  -0.994  0.00  0.00    -0.270 OA
ATOM     16  H   LIG d   1      12.048   7.402  -1.378  0.00  0.00     0.155 HD
BRANCH  14  17
ATOM     17  C   LIG d   1      10.649   9.053   0.087  0.00  0.00     0.040 A 
ATOM     18  C   LIG d   1      11.547   8.759   1.118  0.00  0.00    -0.032 A 
ATOM     19  C   LIG d   1      11.944   9.772   1.969  0.00  0.00     0.028 A 
ATOM     20  H   LIG d   1      11.924   7.755   1.246  0.00  0.00     0.064 H 
ATOM     21  N   LIG d   1      11.489  11.000   1.818  0.00  0.00    -0.263 NA
ATOM     22  H   LIG d   1      12.638   9.555   2.768  0.00  0.00     0.083 H 
ATOM     23  C   LIG d   1      10.642  11.319   0.860  0.00  0.00     0.028 A 
ATOM     24  C   LIG d   1      10.196  10.370  -0.039  0.00  0.00    -0.032 A 
ATOM     25  H   LIG d   1      10.295  12.339   0.774  0.00  0.00     0.083 H 
ATOM     26  H   LIG d   1       9.506  10.640  -0.824  0.00  0.00     0.064 H 
ENDBRANCH  14  17
ENDBRANCH   6  13
BRANCH   2  27
ATOM     27  C   LIG d   1       9.234   3.329  -6.659  0.00  0.00    -0.035 C 
ATOM     28  H   LIG d   1       8.449   3.985  -7.035  0.00  0.00     0.028 H 
ATOM     29  H   LIG d   1      10.187   3.610  -7.106  0.00  0.00     0.028 H 
ATOM     30  H   LIG d   1       9.001   2.297  -6.920  0.00  0.00     0.028 H 
ENDBRANCH   2  27
BRANCH   1  31
ATOM     31  C   LIG d   1       8.363   1.222  -4.553  0.00  0.00     0.375 C 
ATOM     32  O   LIG d   1       9.087   0.283  -4.821  0.00  0.00    -0.241 OA
BRANCH  31  33
ATOM     33  O   LIG d   1       7.024   1.060  -4.539  0.00  0.00    -0.459 OA
BRANCH  33  34
ATOM     34  C   LIG d   1       6.460   0.341  -3.410  0.00  0.00     0.090 C 
ATOM     35  H   LIG d   1       6.006  -0.586  -3.760  0.00  0.00     0.070 H 
ATOM     36  H   LIG d   1       7.249   0.111  -2.695  0.00  0.00     0.070 H 
BRANCH  34  37
ATOM     37  C   LIG d   1       5.395   1.208  -2.735  0.00  0.00    -0.031 C 
ATOM     38  H   LIG d   1       5.745   1.512  -1.750  0.00  0.00     0.026 H 
ATOM     39  H   LIG d   1       5.207   2.093  -3.344  0.00  0.00     0.026 H 
ATOM     40  H   LIG d   1       4.473   0.636  -2.633  0.00  0.00     0.026 H 
ENDBRANCH  34  37
ENDBRANCH  33  34
ENDBRANCH  31  33
ENDBRANCH   1  31
TORSDOF 7
ENDMDL
MODEL 6
REMARK VINA RESULT:      -5.4      2.008      2.691
REMARK  7 active torsions:
REMARK  status: ('A' for Active; 'I' for Inactive)
REMARK    1  A    between atoms: C_1  and  C_2 
REMARK    2  A    between atoms: C_2  and  O_3 
REMARK    3  A    between atoms: O_3  and  C_4 
REMARK    4  A    between atoms: C_4  and  C_6 
REMARK    5  A    between atoms: C_7  and  C_24 
REMARK    6  A    between atoms: C_11  and  N_15 
REMARK       I    between atoms: N_15  and  C_16 
REMARK    7  A    between atoms: C_16  and  C_18 
ROOT
ATOM      1  C   LIG d   1       3.371   0.088  -5.409  0.00  0.00     0.215 A 
ATOM      2  C   LIG d   1       4.460  -0.466  -6.003  0.00  0.00     0.010 A 
ATOM      3  C   LIG d   1       4.129  -0.665  -7.367  0.00  0.00     0.024 A 
ATOM      4  C   LIG d   1       4.827  -1.178  -8.467  0.00  0.00    -0.049 A 
ATOM      5  C   LIG d   1       4.222  -1.243  -9.686  0.00  0.00    -0.040 A 
ATOM      6  C   LIG d   1       2.908  -0.801  -9.847  0.00  0.00     0.037 A 
ATOM      7  C   LIG d   1       2.201  -0.289  -8.771  0.00  0.00     0.003 A 
ATOM      8  C   LIG d   1       2.805  -0.211  -7.524  0.00  0.00     0.138 A 
ATOM      9  O   LIG d   1       2.384   0.230  -6.322  0.00  0.00    -0.448 OA
ATOM     10  H   LIG d   1       5.845  -1.523  -8.348  0.00  0.00     0.062 H 
ATOM     11  H   LIG d   1       4.761  -1.639 -10.534  0.00  0.00     0.064 H 
ATOM     12  H   LIG d   1       1.184   0.051  -8.903  0.00  0.00     0.067 H 
ENDROOT
BRANCH   6  13
ATOM     13  N   LIG d   1       2.301  -0.874 -11.103  0.00  0.00    -0.281 N 
ATOM     14  C   LIG d   1       1.542  -1.940 -11.424  0.00  0.00     0.248 C 
ATOM     15  O   LIG d   1       1.308  -2.792 -10.589  0.00  0.00    -0.270 OA
ATOM     16  H   LIG d   1       2.425  -0.156 -11.743  0.00  0.00     0.155 HD
BRANCH  14  17
ATOM     17  C   LIG d   1       0.995  -2.075 -12.793  0.00  0.00     0.040 A 
ATOM     18  C   LIG d   1      -0.380  -1.986 -13.030  0.00  0.00    -0.032 A 
ATOM     19  C   LIG d   1      -0.847  -2.117 -14.323  0.00  0.00     0.028 A 
ATOM     20  H   LIG d   1      -1.067  -1.819 -12.214  0.00  0.00     0.064 H 
ATOM     21  N   LIG d   1      -0.015  -2.320 -15.326  0.00  0.00    -0.263 NA
ATOM     22  H   LIG d   1      -1.907  -2.050 -14.516  0.00  0.00     0.083 H 
ATOM     23  C   LIG d   1       1.288  -2.409 -15.146  0.00  0.00     0.028 A 
ATOM     24  C   LIG d   1       1.841  -2.286 -13.887  0.00  0.00    -0.032 A 
ATOM     25  H   LIG d   1       1.933  -2.577 -15.997  0.00  0.00     0.083 H 
ATOM     26  H   LIG d   1       2.910  -2.356 -13.748  0.00  0.00     0.064 H 
ENDBRANCH  14  17
ENDBRANCH   6  13
BRANCH   2  27
ATOM     27  C   LIG d   1       5.774  -0.791  -5.342  0.00  0.00    -0.035 C 
ATOM     28  H   LIG d   1       5.713  -0.561  -4.279  0.00  0.00     0.028 H 
ATOM     29  H   LIG d   1       5.994  -1.850  -5.472  0.00  0.00     0.028 H 
ATOM     30  H   LIG d   1       6.567  -0.197  -5.798  0.00  0.00     0.028 H 
ENDBRANCH   2  27
BRANCH   1  31
ATOM     31  C   LIG d   1       3.275   0.461  -3.994  0.00  0.00     0.375 C 
ATOM     32  O   LIG d   1       3.758   1.508  -3.607  0.00  0.00    -0.241 OA
BRANCH  31  33
ATOM     33  O   LIG d   1       2.650  -0.356  -3.122  0.00  0.00    -0.459 OA
BRANCH  33  34
ATOM     34  C   LIG d   1       3.308  -1.611  -2.807  0.00  0.00     0.090 C 
ATOM     35  H   LIG d   1       2.591  -2.294  -2.351  0.00  0.00     0.070 H 
ATOM     36  H   LIG d   1       3.702  -2.055  -3.721  0.00  0.00     0.070 H 
BRANCH  34  37
ATOM     37  C   LIG d   1       4.457  -1.352  -1.830  0.00  0.00    -0.031 C 
ATOM     38  H   LIG d   1       4.102  -1.483  -0.808  0.00  0.00     0.026 H 
ATOM     39  H   LIG d   1       5.267  -2.055  -2.026  0.00  0.00     0.026 H 
ATOM     40  H   LIG d   1       4.822  -0.333  -1.959  0.00  0.00     0.026 H 
ENDBRANCH  34  37
ENDBRANCH  33  34
ENDBRANCH  31  33
ENDBRANCH   1  31
TORSDOF 7
ENDMDL
MODEL 7
REMARK VINA RESULT:      -5.2     12.352     14.610
REMARK  7 active torsions:
REMARK  status: ('A' for Active; 'I' for Inactive)
REMARK    1  A    between atoms: C_1  and  C_2 
REMARK    2  A    between atoms: C_2  and  O_3 
REMARK    3  A    between atoms: O_3  and  C_4 
REMARK    4  A    between atoms: C_4  and  C_6 
REMARK    5  A    between atoms: C_7  and  C_24 
REMARK    6  A    between atoms: C_11  and  N_15 
REMARK       I    between atoms: N_15  and  C_16 
REMARK    7  A    between atoms: C_16  and  C_18 
ROOT
ATOM      1  C   LIG d   1      11.610  -8.968   2.108  0.00  0.00     0.215 A 
ATOM      2  C   LIG d   1      11.509 -10.318   2.220  0.00  0.00     0.010 A 
ATOM      3  C   LIG d   1      10.640 -10.754   1.188  0.00  0.00     0.024 A 
ATOM      4  C   LIG d   1      10.166 -12.009   0.788  0.00  0.00    -0.049 A 
ATOM      5  C   LIG d   1       9.317 -12.108  -0.273  0.00  0.00    -0.040 A 
ATOM      6  C   LIG d   1       8.915 -10.965  -0.965  0.00  0.00     0.037 A 
ATOM      7  C   LIG d   1       9.373  -9.715  -0.584  0.00  0.00     0.003 A 
ATOM      8  C   LIG d   1      10.243  -9.596   0.491  0.00  0.00     0.138 A 
ATOM      9  O   LIG d   1      10.846  -8.543   1.078  0.00  0.00    -0.448 OA
ATOM     10  H   LIG d   1      10.474 -12.898   1.321  0.00  0.00     0.062 H 
ATOM     11  H   LIG d   1       8.952 -13.077  -0.581  0.00  0.00     0.064 H 
ATOM     12  H   LIG d   1       9.058  -8.834  -1.125  0.00  0.00     0.067 H 
ENDROOT
BRANCH   6  13
ATOM     13  N   LIG d   1       8.044 -11.082  -2.050  0.00  0.00    -0.281 N 
ATOM     14  C   LIG d   1       6.716 -10.939  -1.867  0.00  0.00     0.248 C 
ATOM     15  O   LIG d   1       6.284 -10.615  -0.778  0.00  0.00    -0.270 OA
ATOM     16  H   LIG d   1       8.395 -11.266  -2.936  0.00  0.00     0.155 HD
BRANCH  14  17
ATOM     17  C   LIG d   1       5.784 -11.180  -2.992  0.00  0.00     0.040 A 
ATOM     18  C   LIG d   1       6.228 -11.771  -4.180  0.00  0.00    -0.032 A 
ATOM     19  C   LIG d   1       5.324 -11.977  -5.203  0.00  0.00     0.028 A 
ATOM     20  H   LIG d   1       7.262 -12.060  -4.295  0.00  0.00     0.064 H 
ATOM     21  N   LIG d   1       4.060 -11.627  -5.071  0.00  0.00    -0.263 NA
ATOM     22  H   LIG d   1       5.657 -12.433  -6.124  0.00  0.00     0.083 H 
ATOM     23  C   LIG d   1       3.600 -11.069  -3.969  0.00  0.00     0.028 A 
ATOM     24  C   LIG d   1       4.433 -10.830  -2.893  0.00  0.00    -0.032 A 
ATOM     25  H   LIG d   1       2.556 -10.798  -3.904  0.00  0.00     0.083 H 
ATOM     26  H   LIG d   1       4.049 -10.376  -1.992  0.00  0.00     0.064 H 
ENDBRANCH  14  17
ENDBRANCH   6  13
BRANCH   2  27
ATOM     27  C   LIG d   1      12.202 -11.189   3.237  0.00  0.00    -0.035 C 
ATOM     28  H   LIG d   1      12.201 -12.222   2.891  0.00  0.00     0.028 H 
ATOM     29  H   LIG d   1      13.230 -10.850   3.365  0.00  0.00     0.028 H 
ATOM     30  H   LIG d   1      11.677 -11.123   4.190  0.00  0.00     0.028 H 
ENDBRANCH   2  27
BRANCH   1  31
ATOM     31  C   LIG d   1      12.413  -8.103   2.979  0.00  0.00     0.375 C 
ATOM     32  O   LIG d   1      12.043  -7.872   4.114  0.00  0.00    -0.241 OA
BRANCH  31  33
ATOM     33  O   LIG d   1      13.562  -7.566   2.522  0.00  0.00    -0.459 OA
BRANCH  33  34
ATOM     34  C   LIG d   1      14.797  -8.227   2.905  0.00  0.00     0.090 C 
ATOM     35  H   LIG d   1      15.544  -7.477   3.168  0.00  0.00     0.070 H 
ATOM     36  H   LIG d   1      14.613  -8.872   3.763  0.00  0.00     0.070 H 
BRANCH  34  37
ATOM     37  C   LIG d   1      15.309  -9.068   1.734  0.00  0.00    -0.031 C 
ATOM     38  H   LIG d   1      16.326  -8.765   1.485  0.00  0.00     0.026 H 
ATOM     39  H   LIG d   1      15.303 -10.122   2.013  0.00  0.00     0.026 H 
ATOM     40  H   LIG d   1      14.663  -8.918   0.869  0.00  0.00     0.026 H 
ENDBRANCH  34  37
ENDBRANCH  33  34
ENDBRANCH  31  33
ENDBRANCH   1  31
TORSDOF 7
ENDMDL
MODEL 8
REMARK VINA RESULT:      -5.2      7.448     10.509
REMARK  7 active torsions:
REMARK  status: ('A' for Active; 'I' for Inactive)
REMARK    1  A    between atoms: C_1  and  C_2 
REMARK    2  A    between atoms: C_2  and  O_3 
REMARK    3  A    between atoms: O_3  and  C_4 
REMARK    4  A    between atoms: C_4  and  C_6 
REMARK    5  A    between atoms: C_7  and  C_24 
REMARK    6  A    between atoms: C_11  and  N_15 
REMARK       I    between atoms: N_15  and  C_16 
REMARK    7  A    between atoms: C_16  and  C_18 
ROOT
ATOM      1  C   LIG d   1      10.805   6.549  -1.797  0.00  0.00     0.215 A 
ATOM      2  C   LIG d   1      10.379   6.798  -3.063  0.00  0.00     0.010 A 
ATOM      3  C   LIG d   1       9.946   5.561  -3.603  0.00  0.00     0.024 A 
ATOM      4  C   LIG d   1       9.402   5.181  -4.835  0.00  0.00    -0.049 A 
ATOM      5  C   LIG d   1       9.078   3.877  -5.062  0.00  0.00    -0.040 A 
ATOM      6  C   LIG d   1       9.286   2.915  -4.072  0.00  0.00     0.037 A 
ATOM      7  C   LIG d   1       9.823   3.272  -2.846  0.00  0.00     0.003 A 
ATOM      8  C   LIG d   1      10.153   4.596  -2.597  0.00  0.00     0.138 A 
ATOM      9  O   LIG d   1      10.675   5.231  -1.528  0.00  0.00    -0.448 OA
ATOM     10  H   LIG d   1       9.239   5.921  -5.605  0.00  0.00     0.062 H 
ATOM     11  H   LIG d   1       8.658   3.585  -6.013  0.00  0.00     0.064 H 
ATOM     12  H   LIG d   1       9.981   2.521  -2.085  0.00  0.00     0.067 H 
ENDROOT
BRANCH   6  13
ATOM     13  N   LIG d   1       8.949   1.582  -4.319  0.00  0.00    -0.281 N 
ATOM     14  C   LIG d   1       7.740   1.113  -3.953  0.00  0.00     0.248 C 
ATOM     15  O   LIG d   1       6.908   1.871  -3.496  0.00  0.00    -0.270 OA
ATOM     16  H   LIG d   1       9.587   0.994  -4.755  0.00  0.00     0.155 HD
BRANCH  14  17
ATOM     17  C   LIG d   1       7.427  -0.326  -4.107  0.00  0.00     0.040 A 
ATOM     18  C   LIG d   1       8.209  -1.148  -4.925  0.00  0.00    -0.032 A 
ATOM     19  C   LIG d   1       7.881  -2.485  -5.039  0.00  0.00     0.028 A 
ATOM     20  H   LIG d   1       9.056  -0.744  -5.459  0.00  0.00     0.064 H 
ATOM     21  N   LIG d   1       6.850  -2.987  -4.390  0.00  0.00    -0.263 NA
ATOM     22  H   LIG d   1       8.479  -3.129  -5.668  0.00  0.00     0.083 H 
ATOM     23  C   LIG d   1       6.087  -2.248  -3.609  0.00  0.00     0.028 A 
ATOM     24  C   LIG d   1       6.345  -0.902  -3.433  0.00  0.00    -0.032 A 
ATOM     25  H   LIG d   1       5.252  -2.701  -3.096  0.00  0.00     0.083 H 
ATOM     26  H   LIG d   1       5.719  -0.303  -2.789  0.00  0.00     0.064 H 
ENDBRANCH  14  17
ENDBRANCH   6  13
BRANCH   2  27
ATOM     27  C   LIG d   1      10.354   8.137  -3.754  0.00  0.00    -0.035 C 
ATOM     28  H   LIG d   1      11.084   8.141  -4.563  0.00  0.00     0.028 H 
ATOM     29  H   LIG d   1       9.359   8.317  -4.161  0.00  0.00     0.028 H 
ATOM     30  H   LIG d   1      10.599   8.920  -3.037  0.00  0.00     0.028 H 
ENDBRANCH   2  27
BRANCH   1  31
ATOM     31  C   LIG d   1      11.339   7.553  -0.870  0.00  0.00     0.375 C 
ATOM     32  O   LIG d   1      12.511   7.870  -0.927  0.00  0.00    -0.241 OA
BRANCH  31  33
ATOM     33  O   LIG d   1      10.529   8.124   0.045  0.00  0.00    -0.459 OA
BRANCH  33  34
ATOM     34  C   LIG d   1      10.178   9.518  -0.166  0.00  0.00     0.090 C 
ATOM     35  H   LIG d   1      10.228  10.052   0.783  0.00  0.00     0.070 H 
ATOM     36  H   LIG d   1      10.877   9.966  -0.872  0.00  0.00     0.070 H 
BRANCH  34  37
ATOM     37  C   LIG d   1       8.757   9.606  -0.727  0.00  0.00    -0.031 C 
ATOM     38  H   LIG d   1       8.717  10.378  -1.494  0.00  0.00     0.026 H 
ATOM     39  H   LIG d   1       8.478   8.646  -1.163  0.00  0.00     0.026 H 
ATOM     40  H   LIG d   1       8.064   9.855   0.077  0.00  0.00     0.026 H 
ENDBRANCH  34  37
ENDBRANCH  33  34
ENDBRANCH  31  33
ENDBRANCH   1  31
TORSDOF 7
ENDMDL
MODEL 9
REMARK VINA RESULT:      -5.2     10.593     14.057
REMARK  7 active torsions:
REMARK  status: ('A' for Active; 'I' for Inactive)
REMARK    1  A    between atoms: C_1  and  C_2 
REMARK    2  A    between atoms: C_2  and  O_3 
REMARK    3  A    between atoms: O_3  and  C_4 
REMARK    4  A    between atoms: C_4  and  C_6 
REMARK    5  A    between atoms: C_7  and  C_24 
REMARK    6  A    between atoms: C_11  and  N_15 
REMARK       I    between atoms: N_15  and  C_16 
REMARK    7  A    between atoms: C_16  and  C_18 
ROOT
ATOM      1  C   LIG d   1      11.931   9.574   1.827  0.00  0.00     0.215 A 
ATOM      2  C   LIG d   1      11.014   9.992   0.915  0.00  0.00     0.010 A 
ATOM      3  C   LIG d   1      10.640   8.856   0.154  0.00  0.00     0.024 A 
ATOM      4  C   LIG d   1       9.744   8.651  -0.901  0.00  0.00    -0.049 A 
ATOM      5  C   LIG d   1       9.601   7.407  -1.439  0.00  0.00    -0.040 A 
ATOM      6  C   LIG d   1      10.343   6.334  -0.944  0.00  0.00     0.037 A 
ATOM      7  C   LIG d   1      11.234   6.517   0.100  0.00  0.00     0.003 A 
ATOM      8  C   LIG d   1      11.388   7.776   0.663  0.00  0.00     0.138 A 
ATOM      9  O   LIG d   1      12.154   8.251   1.665  0.00  0.00    -0.448 OA
ATOM     10  H   LIG d   1       9.167   9.478  -1.289  0.00  0.00     0.062 H 
ATOM     11  H   LIG d   1       8.909   7.250  -2.254  0.00  0.00     0.064 H 
ATOM     12  H   LIG d   1      11.805   5.681   0.479  0.00  0.00     0.067 H 
ENDROOT
BRANCH   6  13
ATOM     13  N   LIG d   1      10.186   5.065  -1.505  0.00  0.00    -0.281 N 
ATOM     14  C   LIG d   1      10.935   4.698  -2.564  0.00  0.00     0.248 C 
ATOM     15  O   LIG d   1      11.812   5.434  -2.971  0.00  0.00    -0.270 OA
ATOM     16  H   LIG d   1       9.537   4.447  -1.132  0.00  0.00     0.155 HD
BRANCH  14  17
ATOM     17  C   LIG d   1      10.687   3.401  -3.233  0.00  0.00     0.040 A 
ATOM     18  C   LIG d   1       9.384   2.966  -3.499  0.00  0.00    -0.032 A 
ATOM     19  C   LIG d   1       9.199   1.749  -4.125  0.00  0.00     0.028 A 
ATOM     20  H   LIG d   1       8.536   3.573  -3.218  0.00  0.00     0.064 H 
ATOM     21  N   LIG d   1      10.229   1.003  -4.472  0.00  0.00    -0.263 NA
ATOM     22  H   LIG d   1       8.197   1.405  -4.335  0.00  0.00     0.083 H 
ATOM     23  C   LIG d   1      11.472   1.375  -4.241  0.00  0.00     0.028 A 
ATOM     24  C   LIG d   1      11.749   2.579  -3.623  0.00  0.00    -0.032 A 
ATOM     25  H   LIG d   1      12.286   0.731  -4.543  0.00  0.00     0.083 H 
ATOM     26  H   LIG d   1      12.770   2.880  -3.441  0.00  0.00     0.064 H 
ENDBRANCH  14  17
ENDBRANCH   6  13
BRANCH   2  27
ATOM     27  C   LIG d   1      10.484  11.394   0.755  0.00  0.00    -0.035 C 
ATOM     28  H   LIG d   1      11.215  12.001   0.223  0.00  0.00     0.028 H 
ATOM     29  H   LIG d   1       9.553  11.367   0.188  0.00  0.00     0.028 H 
ATOM     30  H   LIG d   1      10.297  11.826   1.738  0.00  0.00     0.028 H 
ENDBRANCH   2  27
BRANCH   1  31
ATOM     31  C   LIG d   1      12.587  10.428   2.822  0.00  0.00     0.375 C 
ATOM     32  O   LIG d   1      13.548  11.102   2.506  0.00  0.00    -0.241 OA
BRANCH  31  33
ATOM     33  O   LIG d   1      12.123  10.467   4.088  0.00  0.00    -0.459 OA
BRANCH  33  34
ATOM     34  C   LIG d   1      12.744   9.568   5.045  0.00  0.00     0.090 C 
ATOM     35  H   LIG d   1      13.666   9.169   4.622  0.00  0.00     0.070 H 
ATOM     36  H   LIG d   1      12.970  10.112   5.961  0.00  0.00     0.070 H 
BRANCH  34  37
ATOM     37  C   LIG d   1      11.786   8.416   5.357  0.00  0.00    -0.031 C 
ATOM     38  H   LIG d   1      10.774   8.697   5.069  0.00  0.00     0.026 H 
ATOM     39  H   LIG d   1      12.089   7.529   4.801  0.00  0.00     0.026 H 
ATOM     40  H   LIG d   1      11.813   8.201   6.425  0.00  0.00     0.026 H 
ENDBRANCH  34  37
ENDBRANCH  33  34
ENDBRANCH  31  33
ENDBRANCH   1  31
TORSDOF 7
ENDMDL
