MODEL 1
REMARK VINA RESULT:      -4.6      0.000      0.000
REMARK  8 active torsions:
REMARK  status: ('A' for Active; 'I' for Inactive)
REMARK    1  A    between atoms: C_1  and  N_2 
REMARK    2  A    between atoms: N_6  and  C_20 
REMARK    3  A    between atoms: N_9  and  C_17 
REMARK    4  A    between atoms: N_13  and  C_16 
REMARK    5  A    between atoms: C_17  and  C_18 
REMARK    6  A    between atoms: C_18  and  N_19 
REMARK    7  A    between atoms: C_20  and  C_21 
REMARK    8  A    between atoms: C_21  and  N_22 
ROOT
ATOM      1  N   LIG d   1       9.728  11.678  -1.258  0.00  0.00     0.234 N 
ATOM      2  C   LIG d   1       9.337  10.796  -2.354  0.00  0.00    -0.031 C 
ATOM      3  C   LIG d   1      10.007  11.142  -3.677  0.00  0.00     0.000 C 
ATOM      4  C   LIG d   1       9.417  10.257  -4.781  0.00  0.00     0.004 C 
ATOM      5  N   LIG d   1      10.514   9.382  -5.314  0.00  0.00    -0.292 N 
ATOM      6  C   LIG d   1      10.129   7.989  -4.904  0.00  0.00     0.039 C 
ATOM      7  C   LIG d   1      11.408   7.191  -4.669  0.00  0.00    -0.019 C 
ATOM      8  N   LIG d   1      11.264   6.369  -3.460  0.00  0.00     0.240 N 
ATOM      9  C   LIG d   1      12.331   6.696  -2.507  0.00  0.00    -0.030 C 
ATOM     10  C   LIG d   1      11.759   6.753  -1.089  0.00  0.00     0.000 C 
ATOM     11  C   LIG d   1      12.381   7.926  -0.333  0.00  0.00     0.004 C 
ATOM     12  N   LIG d   1      11.291   8.752   0.252  0.00  0.00    -0.300 N 
ATOM     13  C   LIG d   1      11.396  10.109  -0.352  0.00  0.00     0.039 C 
ATOM     14  C   LIG d   1      10.102  10.872  -0.084  0.00  0.00    -0.019 C 
ATOM     15  H   LIG d   1       9.576   9.760  -2.090  0.00  0.00     0.082 H 
ATOM     16  H   LIG d   1       8.247  10.857  -2.483  0.00  0.00     0.082 H 
ATOM     17  H   LIG d   1       9.820  12.182  -3.943  0.00  0.00     0.033 H 
ATOM     18  H   LIG d   1      11.079  10.950  -3.623  0.00  0.00     0.033 H 
ATOM     19  H   LIG d   1       8.635   9.626  -4.379  0.00  0.00     0.043 H 
ATOM     20  H   LIG d   1       9.050  10.873  -5.595  0.00  0.00     0.043 H 
ATOM     21  H   LIG d   1       9.546   8.052  -3.993  0.00  0.00     0.048 H 
ATOM     22  H   LIG d   1       9.553   7.551  -5.712  0.00  0.00     0.048 H 
ATOM     23  H   LIG d   1      11.595   6.540  -5.525  0.00  0.00     0.083 H 
ATOM     24  H   LIG d   1      12.250   7.874  -4.550  0.00  0.00     0.083 H 
ATOM     25  H   LIG d   1      13.104   5.926  -2.552  0.00  0.00     0.082 H 
ATOM     26  H   LIG d   1      12.769   7.660  -2.761  0.00  0.00     0.082 H 
ATOM     27  H   LIG d   1      10.677   6.882  -1.137  0.00  0.00     0.033 H 
ATOM     28  H   LIG d   1      11.989   5.822  -0.569  0.00  0.00     0.033 H 
ATOM     29  H   LIG d   1      13.008   7.556   0.475  0.00  0.00     0.043 H 
ATOM     30  H   LIG d   1      12.963   8.543  -1.011  0.00  0.00     0.043 H 
ATOM     31  H   LIG d   1      12.236  10.623   0.109  0.00  0.00     0.048 H 
ATOM     32  H   LIG d   1      11.560   9.990  -1.418  0.00  0.00     0.048 H 
ATOM     33  H   LIG d   1      10.235  11.533   0.774  0.00  0.00     0.083 H 
ATOM     34  H   LIG d   1       9.297  10.165   0.132  0.00  0.00     0.083 H 
ATOM     35  H   LIG d   1       8.921  12.246  -0.996  0.00  0.00     0.203 HD
ATOM     36  H   LIG d   1      10.365   6.548  -3.037  0.00  0.00     0.204 HD
ENDROOT
BRANCH   8  37
ATOM     37  C   LIG d   1      11.352   4.948  -3.825  0.00  0.00     0.009 C 
ATOM     38  H   LIG d   1      11.208   4.839  -4.900  0.00  0.00     0.087 H 
ATOM     39  H   LIG d   1      12.335   4.563  -3.550  0.00  0.00     0.087 H 
BRANCH  37  40
ATOM     40  C   LIG d   1      10.269   4.162  -3.083  0.00  0.00     0.006 C 
ATOM     41  H   LIG d   1       9.601   4.857  -2.574  0.00  0.00     0.087 H 
ATOM     42  H   LIG d   1       9.701   3.565  -3.795  0.00  0.00     0.087 H 
BRANCH  40  43
ATOM     43  N   LIG d   1      10.898   3.276  -2.093  0.00  0.00     0.222 N 
ATOM     44  H   LIG d   1      11.384   2.531  -2.570  0.00  0.00     0.200 HD
ATOM     45  H   LIG d   1      11.553   3.804  -1.538  0.00  0.00     0.200 HD
ATOM     46  H   LIG d   1      10.188   2.884  -1.494  0.00  0.00     0.200 HD
ENDBRANCH  40  43
ENDBRANCH  37  40
ENDBRANCH   8  37
BRANCH   5  47
ATOM     47  C   LIG d   1      10.313   9.402  -6.806  0.00  0.00     0.039 C 
ATOM     48  H   LIG d   1      10.142  10.427  -7.137  0.00  0.00     0.048 H 
ATOM     49  H   LIG d   1      11.201   9.004  -7.298  0.00  0.00     0.048 H 
BRANCH  47  50
ATOM     50  C   LIG d   1       9.100   8.541  -7.168  0.00  0.00    -0.022 C 
ATOM     51  H   LIG d   1       9.404   7.496  -7.232  0.00  0.00     0.083 H 
ATOM     52  H   LIG d   1       8.334   8.651  -6.401  0.00  0.00     0.083 H 
BRANCH  50  53
ATOM     53  N   LIG d   1       8.562   8.976  -8.464  0.00  0.00     0.219 N 
ATOM     54  H   LIG d   1       8.257   9.935  -8.397  0.00  0.00     0.200 HD
ATOM     55  H   LIG d   1       9.279   8.899  -9.170  0.00  0.00     0.200 HD
ATOM     56  H   LIG d   1       7.778   8.391  -8.715  0.00  0.00     0.200 HD
ENDBRANCH  50  53
ENDBRANCH  47  50
ENDBRANCH   5  47
BRANCH  12  57
ATOM     57  C   LIG d   1      11.573   8.889   1.707  0.00  0.00    -0.013 C 
ATOM     58  H   LIG d   1      11.078   9.781   2.090  0.00  0.00     0.039 H 
ATOM     59  H   LIG d   1      11.199   8.011   2.233  0.00  0.00     0.039 H 
ATOM     60  H   LIG d   1      12.649   8.975   1.860  0.00  0.00     0.039 H 
ENDBRANCH  12  57
BRANCH   1  61
ATOM     61  C   LIG d   1      10.824  12.580  -1.609  0.00  0.00    -0.043 C 
ATOM     62  H   LIG d   1      11.599  12.525  -0.845  0.00  0.00     0.078 H 
ATOM     63  H   LIG d   1      11.243  12.285  -2.572  0.00  0.00     0.078 H 
ATOM     64  H   LIG d   1      10.449  13.601  -1.674  0.00  0.00     0.078 H 
ENDBRANCH   1  61
TORSDOF 8
ENDMDL
MODEL 2
REMARK VINA RESULT:      -4.6      7.745     10.806
REMARK  8 active torsions:
REMARK  status: ('A' for Active; 'I' for Inactive)
REMARK    1  A    between atoms: C_1  and  N_2 
REMARK    2  A    between atoms: N_6  and  C_20 
REMARK    3  A    between atoms: N_9  and  C_17 
REMARK    4  A    between atoms: N_13  and  C_16 
REMARK    5  A    between atoms: C_17  and  C_18 
REMARK    6  A    between atoms: C_18  and  N_19 
REMARK    7  A    between atoms: C_20  and  C_21 
REMARK    8  A    between atoms: C_21  and  N_22 
ROOT
ATOM      1  N   LIG d   1       7.871   2.169  -9.075  0.00  0.00     0.234 N 
ATOM      2  C   LIG d   1       6.476   1.932  -8.716  0.00  0.00    -0.031 C 
ATOM      3  C   LIG d   1       5.928   0.615  -9.252  0.00  0.00     0.000 C 
ATOM      4  C   LIG d   1       4.427   0.539  -8.947  0.00  0.00     0.004 C 
ATOM      5  N   LIG d   1       4.200  -0.612  -8.011  0.00  0.00    -0.292 N 
ATOM      6  C   LIG d   1       3.758   0.020  -6.723  0.00  0.00     0.039 C 
ATOM      7  C   LIG d   1       4.242  -0.856  -5.571  0.00  0.00    -0.019 C 
ATOM      8  N   LIG d   1       4.766  -0.009  -4.491  0.00  0.00     0.240 N 
ATOM      9  C   LIG d   1       6.157  -0.377  -4.202  0.00  0.00    -0.030 C 
ATOM     10  C   LIG d   1       6.990   0.887  -3.977  0.00  0.00     0.000 C 
ATOM     11  C   LIG d   1       8.356   0.725  -4.642  0.00  0.00     0.004 C 
ATOM     12  N   LIG d   1       8.607   1.902  -5.515  0.00  0.00    -0.300 N 
ATOM     13  C   LIG d   1       8.748   1.394  -6.908  0.00  0.00     0.039 C 
ATOM     14  C   LIG d   1       8.628   2.566  -7.877  0.00  0.00    -0.019 C 
ATOM     15  H   LIG d   1       6.374   1.945  -7.625  0.00  0.00     0.082 H 
ATOM     16  H   LIG d   1       5.864   2.756  -9.111  0.00  0.00     0.082 H 
ATOM     17  H   LIG d   1       6.055   0.557 -10.333  0.00  0.00     0.033 H 
ATOM     18  H   LIG d   1       6.418  -0.228  -8.765  0.00  0.00     0.033 H 
ATOM     19  H   LIG d   1       4.095   1.448  -8.465  0.00  0.00     0.043 H 
ATOM     20  H   LIG d   1       3.872   0.348  -9.859  0.00  0.00     0.043 H 
ATOM     21  H   LIG d   1       4.198   1.008  -6.661  0.00  0.00     0.048 H 
ATOM     22  H   LIG d   1       2.674   0.070  -6.730  0.00  0.00     0.048 H 
ATOM     23  H   LIG d   1       3.410  -1.450  -5.189  0.00  0.00     0.083 H 
ATOM     24  H   LIG d   1       5.026  -1.526  -5.924  0.00  0.00     0.083 H 
ATOM     25  H   LIG d   1       6.188  -0.993  -3.301  0.00  0.00     0.082 H 
ATOM     26  H   LIG d   1       6.570  -0.939  -5.038  0.00  0.00     0.082 H 
ATOM     27  H   LIG d   1       6.474   1.746  -4.407  0.00  0.00     0.033 H 
ATOM     28  H   LIG d   1       7.124   1.046  -2.906  0.00  0.00     0.033 H 
ATOM     29  H   LIG d   1       9.135   0.682  -3.884  0.00  0.00     0.043 H 
ATOM     30  H   LIG d   1       8.372  -0.173  -5.252  0.00  0.00     0.043 H 
ATOM     31  H   LIG d   1       9.725   0.927  -7.003  0.00  0.00     0.048 H 
ATOM     32  H   LIG d   1       7.960   0.669  -7.082  0.00  0.00     0.048 H 
ATOM     33  H   LIG d   1       9.624   2.897  -8.179  0.00  0.00     0.083 H 
ATOM     34  H   LIG d   1       8.111   3.395  -7.389  0.00  0.00     0.083 H 
ATOM     35  H   LIG d   1       7.907   2.947  -9.734  0.00  0.00     0.203 HD
ATOM     36  H   LIG d   1       4.723   0.959  -4.772  0.00  0.00     0.204 HD
ENDROOT
BRANCH   8  37
ATOM     37  C   LIG d   1       3.949  -0.200  -3.284  0.00  0.00     0.009 C 
ATOM     38  H   LIG d   1       2.976  -0.604  -3.563  0.00  0.00     0.087 H 
ATOM     39  H   LIG d   1       4.451  -0.895  -2.611  0.00  0.00     0.087 H 
BRANCH  37  40
ATOM     40  C   LIG d   1       3.759   1.145  -2.579  0.00  0.00     0.006 C 
ATOM     41  H   LIG d   1       2.950   1.063  -1.852  0.00  0.00     0.087 H 
ATOM     42  H   LIG d   1       4.680   1.421  -2.068  0.00  0.00     0.087 H 
BRANCH  40  43
ATOM     43  N   LIG d   1       3.422   2.175  -3.571  0.00  0.00     0.222 N 
ATOM     44  H   LIG d   1       2.437   2.128  -3.782  0.00  0.00     0.200 HD
ATOM     45  H   LIG d   1       3.645   3.085  -3.199  0.00  0.00     0.200 HD
ATOM     46  H   LIG d   1       3.954   2.016  -4.413  0.00  0.00     0.200 HD
ENDBRANCH  40  43
ENDBRANCH  37  40
ENDBRANCH   8  37
BRANCH   5  47
ATOM     47  C   LIG d   1       2.961  -1.284  -8.542  0.00  0.00     0.039 C 
ATOM     48  H   LIG d   1       3.246  -2.115  -9.188  0.00  0.00     0.048 H 
ATOM     49  H   LIG d   1       2.365  -1.658  -7.710  0.00  0.00     0.048 H 
BRANCH  47  50
ATOM     50  C   LIG d   1       2.139  -0.273  -9.345  0.00  0.00    -0.022 C 
ATOM     51  H   LIG d   1       1.732   0.480  -8.672  0.00  0.00     0.083 H 
ATOM     52  H   LIG d   1       2.777   0.207 -10.087  0.00  0.00     0.083 H 
BRANCH  50  53
ATOM     53  N   LIG d   1       1.037  -0.970 -10.025  0.00  0.00     0.219 N 
ATOM     54  H   LIG d   1       0.158  -0.565  -9.743  0.00  0.00     0.200 HD
ATOM     55  H   LIG d   1       1.146  -0.877 -11.024  0.00  0.00     0.200 HD
ATOM     56  H   LIG d   1       1.053  -1.948  -9.774  0.00  0.00     0.200 HD
ENDBRANCH  50  53
ENDBRANCH  47  50
ENDBRANCH   5  47
BRANCH  12  57
ATOM     57  C   LIG d   1       9.921   2.476  -5.116  0.00  0.00    -0.013 C 
ATOM     58  H   LIG d   1      10.362   1.861  -4.331  0.00  0.00     0.039 H 
ATOM     59  H   LIG d   1      10.586   2.497  -5.979  0.00  0.00     0.039 H 
ATOM     60  H   LIG d   1       9.775   3.491  -4.744  0.00  0.00     0.039 H 
ENDBRANCH  12  57
BRANCH   1  61
ATOM     61  C   LIG d   1       8.507   1.011  -9.702  0.00  0.00    -0.043 C 
ATOM     62  H   LIG d   1       9.080   1.338 -10.569  0.00  0.00     0.078 H 
ATOM     63  H   LIG d   1       9.174   0.531  -8.986  0.00  0.00     0.078 H 
ATOM     64  H   LIG d   1       7.742   0.302 -10.018  0.00  0.00     0.078 H 
ENDBRANCH   1  61
TORSDOF 8
ENDMDL
MODEL 3
REMARK VINA RESULT:      -4.6      2.074      7.048
REMARK  8 active torsions:
REMARK  status: ('A' for Active; 'I' for Inactive)
REMARK    1  A    between atoms: C_1  and  N_2 
REMARK    2  A    between atoms: N_6  and  C_20 
REMARK    3  A    between atoms: N_9  and  C_17 
REMARK    4  A    between atoms: N_13  and  C_16 
REMARK    5  A    between atoms: C_17  and  C_18 
REMARK    6  A    between atoms: C_18  and  N_19 
REMARK    7  A    between atoms: C_20  and  C_21 
REMARK    8  A    between atoms: C_21  and  N_22 
ROOT
ATOM      1  N   LIG d   1       9.862   5.207  -5.563  0.00  0.00     0.234 N 
ATOM      2  C   LIG d   1       9.436   5.900  -4.350  0.00  0.00    -0.031 C 
ATOM      3  C   LIG d   1      10.363   5.667  -3.163  0.00  0.00     0.000 C 
ATOM      4  C   LIG d   1       9.746   6.312  -1.916  0.00  0.00     0.004 C 
ATOM      5  N   LIG d   1      10.663   7.408  -1.457  0.00  0.00    -0.292 N 
ATOM      6  C   LIG d   1       9.892   8.676  -1.686  0.00  0.00     0.039 C 
ATOM      7  C   LIG d   1      10.887   9.786  -2.016  0.00  0.00    -0.019 C 
ATOM      8  N   LIG d   1      10.365  10.607  -3.117  0.00  0.00     0.240 N 
ATOM      9  C   LIG d   1      11.324  10.615  -4.229  0.00  0.00    -0.030 C 
ATOM     10  C   LIG d   1      10.576  10.489  -5.557  0.00  0.00     0.000 C 
ATOM     11  C   LIG d   1      11.345   9.556  -6.492  0.00  0.00     0.004 C 
ATOM     12  N   LIG d   1      10.416   8.511  -6.998  0.00  0.00    -0.300 N 
ATOM     13  C   LIG d   1      10.939   7.196  -6.537  0.00  0.00     0.039 C 
ATOM     14  C   LIG d   1       9.846   6.143  -6.698  0.00  0.00    -0.019 C 
ATOM     15  H   LIG d   1       9.372   6.976  -4.550  0.00  0.00     0.082 H 
ATOM     16  H   LIG d   1       8.427   5.557  -4.083  0.00  0.00     0.082 H 
ATOM     17  H   LIG d   1      10.478   4.601  -2.969  0.00  0.00     0.033 H 
ATOM     18  H   LIG d   1      11.334   6.129  -3.341  0.00  0.00     0.033 H 
ATOM     19  H   LIG d   1       8.783   6.743  -2.153  0.00  0.00     0.043 H 
ATOM     20  H   LIG d   1       9.669   5.581  -1.120  0.00  0.00     0.043 H 
ATOM     21  H   LIG d   1       9.212   8.516  -2.514  0.00  0.00     0.048 H 
ATOM     22  H   LIG d   1       9.355   8.910  -0.773  0.00  0.00     0.048 H 
ATOM     23  H   LIG d   1      11.035  10.417  -1.138  0.00  0.00     0.083 H 
ATOM     24  H   LIG d   1      11.842   9.348  -2.306  0.00  0.00     0.083 H 
ATOM     25  H   LIG d   1      11.882  11.553  -4.218  0.00  0.00     0.082 H 
ATOM     26  H   LIG d   1      12.017   9.782  -4.122  0.00  0.00     0.082 H 
ATOM     27  H   LIG d   1       9.579  10.086  -5.379  0.00  0.00     0.033 H 
ATOM     28  H   LIG d   1      10.490  11.474  -6.019  0.00  0.00     0.033 H 
ATOM     29  H   LIG d   1      11.733  10.116  -7.339  0.00  0.00     0.043 H 
ATOM     30  H   LIG d   1      12.155   9.072  -5.954  0.00  0.00     0.043 H 
ATOM     31  H   LIG d   1      11.800   6.938  -7.150  0.00  0.00     0.048 H 
ATOM     32  H   LIG d   1      11.228   7.295  -5.496  0.00  0.00     0.048 H 
ATOM     33  H   LIG d   1      10.006   5.585  -7.622  0.00  0.00     0.083 H 
ATOM     34  H   LIG d   1       8.870   6.632  -6.742  0.00  0.00     0.083 H 
ATOM     35  H   LIG d   1       9.188   4.467  -5.764  0.00  0.00     0.203 HD
ATOM     36  H   LIG d   1       9.484  10.228  -3.432  0.00  0.00     0.204 HD
ENDROOT
BRANCH   8  37
ATOM     37  C   LIG d   1      10.156  11.983  -2.642  0.00  0.00     0.009 C 
ATOM     38  H   LIG d   1      10.183  11.999  -1.552  0.00  0.00     0.087 H 
ATOM     39  H   LIG d   1      10.945  12.626  -3.033  0.00  0.00     0.087 H 
BRANCH  37  40
ATOM     40  C   LIG d   1       8.796  12.490  -3.127  0.00  0.00     0.006 C 
ATOM     41  H   LIG d   1       8.529  13.393  -2.578  0.00  0.00     0.087 H 
ATOM     42  H   LIG d   1       8.851  12.714  -4.191  0.00  0.00     0.087 H 
BRANCH  40  43
ATOM     43  N   LIG d   1       7.778  11.457  -2.894  0.00  0.00     0.222 N 
ATOM     44  H   LIG d   1       7.107  11.471  -3.648  0.00  0.00     0.200 HD
ATOM     45  H   LIG d   1       8.220  10.552  -2.852  0.00  0.00     0.200 HD
ATOM     46  H   LIG d   1       7.305  11.642  -2.022  0.00  0.00     0.200 HD
ENDBRANCH  40  43
ENDBRANCH  37  40
ENDBRANCH   8  37
BRANCH   5  47
ATOM     47  C   LIG d   1      10.700   7.259   0.041  0.00  0.00     0.039 C 
ATOM     48  H   LIG d   1      11.175   8.136   0.482  0.00  0.00     0.048 H 
ATOM     49  H   LIG d   1       9.684   7.166   0.422  0.00  0.00     0.048 H 
BRANCH  47  50
ATOM     50  C   LIG d   1      11.500   6.007   0.408  0.00  0.00    -0.022 C 
ATOM     51  H   LIG d   1      11.522   5.328  -0.443  0.00  0.00     0.083 H 
ATOM     52  H   LIG d   1      12.519   6.292   0.673  0.00  0.00     0.083 H 
BRANCH  50  53
ATOM     53  N   LIG d   1      10.865   5.340   1.553  0.00  0.00     0.219 N 
ATOM     54  H   LIG d   1      11.441   5.456   2.372  0.00  0.00     0.200 HD
ATOM     55  H   LIG d   1       9.957   5.749   1.719  0.00  0.00     0.200 HD
ATOM     56  H   LIG d   1      10.760   4.357   1.352  0.00  0.00     0.200 HD
ENDBRANCH  50  53
ENDBRANCH  47  50
ENDBRANCH   5  47
BRANCH  12  57
ATOM     57  C   LIG d   1      10.500   8.528  -8.484  0.00  0.00    -0.013 C 
ATOM     58  H   LIG d   1       9.499   8.625  -8.903  0.00  0.00     0.039 H 
ATOM     59  H   LIG d   1      11.112   9.372  -8.803  0.00  0.00     0.039 H 
ATOM     60  H   LIG d   1      10.951   7.598  -8.832  0.00  0.00     0.039 H 
ENDBRANCH  12  57
BRANCH   1  61
ATOM     61  C   LIG d   1      11.185   4.597  -5.441  0.00  0.00    -0.043 C 
ATOM     62  H   LIG d   1      11.081   3.566  -5.105  0.00  0.00     0.078 H 
ATOM     63  H   LIG d   1      11.684   4.614  -6.411  0.00  0.00     0.078 H 
ATOM     64  H   LIG d   1      11.779   5.156  -4.718  0.00  0.00     0.078 H 
ENDBRANCH   1  61
TORSDOF 8
ENDMDL
MODEL 4
REMARK VINA RESULT:      -4.6      2.065      5.719
REMARK  8 active torsions:
REMARK  status: ('A' for Active; 'I' for Inactive)
REMARK    1  A    between atoms: C_1  and  N_2 
REMARK    2  A    between atoms: N_6  and  C_20 
REMARK    3  A    between atoms: N_9  and  C_17 
REMARK    4  A    between atoms: N_13  and  C_16 
REMARK    5  A    between atoms: C_17  and  C_18 
REMARK    6  A    between atoms: C_18  and  N_19 
REMARK    7  A    between atoms: C_20  and  C_21 
REMARK    8  A    between atoms: C_21  and  N_22 
ROOT
ATOM      1  N   LIG d   1      10.654   4.958  -1.297  0.00  0.00     0.234 N 
ATOM      2  C   LIG d   1       9.998   6.076  -1.968  0.00  0.00    -0.031 C 
ATOM      3  C   LIG d   1      10.605   7.429  -1.622  0.00  0.00     0.000 C 
ATOM      4  C   LIG d   1       9.752   8.535  -2.258  0.00  0.00     0.004 C 
ATOM      5  N   LIG d   1      10.599   9.254  -3.267  0.00  0.00    -0.292 N 
ATOM      6  C   LIG d   1       9.978   8.924  -4.594  0.00  0.00     0.039 C 
ATOM      7  C   LIG d   1      11.086   8.896  -5.644  0.00  0.00    -0.019 C 
ATOM      8  N   LIG d   1      10.885   7.752  -6.544  0.00  0.00     0.240 N 
ATOM      9  C   LIG d   1      12.077   6.894  -6.530  0.00  0.00    -0.030 C 
ATOM     10  C   LIG d   1      11.655   5.424  -6.511  0.00  0.00     0.000 C 
ATOM     11  C   LIG d   1      12.565   4.642  -5.565  0.00  0.00     0.004 C 
ATOM     12  N   LIG d   1      11.722   3.876  -4.610  0.00  0.00    -0.300 N 
ATOM     13  C   LIG d   1      12.045   4.371  -3.243  0.00  0.00     0.039 C 
ATOM     14  C   LIG d   1      10.960   3.904  -2.278  0.00  0.00    -0.019 C 
ATOM     15  H   LIG d   1      10.045   5.927  -3.053  0.00  0.00     0.082 H 
ATOM     16  H   LIG d   1       8.935   6.083  -1.686  0.00  0.00     0.082 H 
ATOM     17  H   LIG d   1      10.608   7.586  -0.543  0.00  0.00     0.033 H 
ATOM     18  H   LIG d   1      11.616   7.507  -2.022  0.00  0.00     0.033 H 
ATOM     19  H   LIG d   1       8.898   8.106  -2.764  0.00  0.00     0.043 H 
ATOM     20  H   LIG d   1       9.447   9.249  -1.502  0.00  0.00     0.043 H 
ATOM     21  H   LIG d   1       9.503   7.954  -4.516  0.00  0.00     0.048 H 
ATOM     22  H   LIG d   1       9.257   9.700  -4.828  0.00  0.00     0.048 H 
ATOM     23  H   LIG d   1      11.060   9.818  -6.227  0.00  0.00     0.083 H 
ATOM     24  H   LIG d   1      12.055   8.810  -5.153  0.00  0.00     0.083 H 
ATOM     25  H   LIG d   1      12.671   7.087  -7.426  0.00  0.00     0.082 H 
ATOM     26  H   LIG d   1      12.676   7.111  -5.647  0.00  0.00     0.082 H 
ATOM     27  H   LIG d   1      10.622   5.344  -6.172  0.00  0.00     0.033 H 
ATOM     28  H   LIG d   1      11.737   5.011  -7.518  0.00  0.00     0.033 H 
ATOM     29  H   LIG d   1      13.174   3.940  -6.131  0.00  0.00     0.043 H 
ATOM     30  H   LIG d   1      13.198   5.324  -5.004  0.00  0.00     0.043 H 
ATOM     31  H   LIG d   1      13.008   3.961  -2.951  0.00  0.00     0.048 H 
ATOM     32  H   LIG d   1      12.086   5.455  -3.280  0.00  0.00     0.048 H 
ATOM     33  H   LIG d   1      11.299   3.011  -1.747  0.00  0.00     0.083 H 
ATOM     34  H   LIG d   1      10.051   3.663  -2.834  0.00  0.00     0.083 H 
ATOM     35  H   LIG d   1      10.005   4.564  -0.615  0.00  0.00     0.203 HD
ATOM     36  H   LIG d   1      10.083   7.221  -6.240  0.00  0.00     0.204 HD
ENDROOT
BRANCH   8  37
ATOM     37  C   LIG d   1      10.652   8.243  -7.910  0.00  0.00     0.009 C 
ATOM     38  H   LIG d   1      10.754   9.327  -7.929  0.00  0.00     0.087 H 
ATOM     39  H   LIG d   1      11.384   7.798  -8.586  0.00  0.00     0.087 H 
BRANCH  37  40
ATOM     40  C   LIG d   1       9.241   7.854  -8.358  0.00  0.00     0.006 C 
ATOM     41  H   LIG d   1       9.300   7.278  -9.282  0.00  0.00     0.087 H 
ATOM     42  H   LIG d   1       8.767   7.253  -7.584  0.00  0.00     0.087 H 
BRANCH  40  43
ATOM     43  N   LIG d   1       8.449   9.070  -8.590  0.00  0.00     0.222 N 
ATOM     44  H   LIG d   1       9.056   9.875  -8.569  0.00  0.00     0.200 HD
ATOM     45  H   LIG d   1       7.998   9.011  -9.489  0.00  0.00     0.200 HD
ATOM     46  H   LIG d   1       7.750   9.157  -7.867  0.00  0.00     0.200 HD
ENDBRANCH  40  43
ENDBRANCH  37  40
ENDBRANCH   8  37
BRANCH   5  47
ATOM     47  C   LIG d   1      10.275  10.709  -3.054  0.00  0.00     0.039 C 
ATOM     48  H   LIG d   1      11.120  11.203  -2.573  0.00  0.00     0.048 H 
ATOM     49  H   LIG d   1      10.077  11.182  -4.017  0.00  0.00     0.048 H 
BRANCH  47  50
ATOM     50  C   LIG d   1       9.037  10.830  -2.162  0.00  0.00    -0.022 C 
ATOM     51  H   LIG d   1       8.708   9.836  -1.863  0.00  0.00     0.083 H 
ATOM     52  H   LIG d   1       9.284  11.415  -1.276  0.00  0.00     0.083 H 
BRANCH  50  53
ATOM     53  N   LIG d   1       7.962  11.500  -2.907  0.00  0.00     0.219 N 
ATOM     54  H   LIG d   1       8.361  12.045  -3.656  0.00  0.00     0.200 HD
ATOM     55  H   LIG d   1       7.336  10.808  -3.291  0.00  0.00     0.200 HD
ATOM     56  H   LIG d   1       7.451  12.108  -2.284  0.00  0.00     0.200 HD
ENDBRANCH  50  53
ENDBRANCH  47  50
ENDBRANCH   5  47
BRANCH  12  57
ATOM     57  C   LIG d   1      12.153   2.454  -4.682  0.00  0.00    -0.013 C 
ATOM     58  H   LIG d   1      11.889   1.947  -3.753  0.00  0.00     0.039 H 
ATOM     59  H   LIG d   1      11.653   1.965  -5.517  0.00  0.00     0.039 H 
ATOM     60  H   LIG d   1      13.233   2.410  -4.827  0.00  0.00     0.039 H 
ENDBRANCH  12  57
BRANCH   1  61
ATOM     61  C   LIG d   1      11.875   5.347  -0.592  0.00  0.00    -0.043 C 
ATOM     62  H   LIG d   1      11.619   5.704   0.406  0.00  0.00     0.078 H 
ATOM     63  H   LIG d   1      12.538   4.486  -0.511  0.00  0.00     0.078 H 
ATOM     64  H   LIG d   1      12.377   6.142  -1.144  0.00  0.00     0.078 H 
ENDBRANCH   1  61
TORSDOF 8
ENDMDL
MODEL 5
REMARK VINA RESULT:      -4.5      1.860      6.452
REMARK  8 active torsions:
REMARK  status: ('A' for Active; 'I' for Inactive)
REMARK    1  A    between atoms: C_1  and  N_2 
REMARK    2  A    between atoms: N_6  and  C_20 
REMARK    3  A    between atoms: N_9  and  C_17 
REMARK    4  A    between atoms: N_13  and  C_16 
REMARK    5  A    between atoms: C_17  and  C_18 
REMARK    6  A    between atoms: C_18  and  N_19 
REMARK    7  A    between atoms: C_20  and  C_21 
REMARK    8  A    between atoms: C_21  and  N_22 
ROOT
ATOM      1  N   LIG d   1       9.762   7.810  -7.533  0.00  0.00     0.234 N 
ATOM      2  C   LIG d   1       9.233   7.236  -6.298  0.00  0.00    -0.031 C 
ATOM      3  C   LIG d   1      10.209   6.298  -5.601  0.00  0.00     0.000 C 
ATOM      4  C   LIG d   1       9.504   5.641  -4.408  0.00  0.00     0.004 C 
ATOM      5  N   LIG d   1      10.199   6.084  -3.154  0.00  0.00    -0.292 N 
ATOM      6  C   LIG d   1       9.193   6.936  -2.436  0.00  0.00     0.039 C 
ATOM      7  C   LIG d   1       9.947   8.011  -1.657  0.00  0.00    -0.019 C 
ATOM      8  N   LIG d   1       9.255   9.299  -1.795  0.00  0.00     0.240 N 
ATOM      9  C   LIG d   1      10.173  10.299  -2.356  0.00  0.00    -0.030 C 
ATOM     10  C   LIG d   1       9.438  11.151  -3.393  0.00  0.00     0.000 C 
ATOM     11  C   LIG d   1      10.355  11.408  -4.588  0.00  0.00     0.004 C 
ATOM     12  N   LIG d   1       9.637  11.032  -5.834  0.00  0.00    -0.300 N 
ATOM     13  C   LIG d   1      10.414   9.937  -6.477  0.00  0.00     0.039 C 
ATOM     14  C   LIG d   1       9.543   9.265  -7.534  0.00  0.00    -0.019 C 
ATOM     15  H   LIG d   1       8.958   8.044  -5.611  0.00  0.00     0.082 H 
ATOM     16  H   LIG d   1       8.314   6.680  -6.533  0.00  0.00     0.082 H 
ATOM     17  H   LIG d   1      10.532   5.506  -6.278  0.00  0.00     0.033 H 
ATOM     18  H   LIG d   1      11.069   6.852  -5.225  0.00  0.00     0.033 H 
ATOM     19  H   LIG d   1       8.471   5.959  -4.362  0.00  0.00     0.043 H 
ATOM     20  H   LIG d   1       9.584   4.563  -4.476  0.00  0.00     0.043 H 
ATOM     21  H   LIG d   1       8.541   7.388  -3.174  0.00  0.00     0.048 H 
ATOM     22  H   LIG d   1       8.638   6.298  -1.757  0.00  0.00     0.048 H 
ATOM     23  H   LIG d   1       9.987   7.737  -0.602  0.00  0.00     0.083 H 
ATOM     24  H   LIG d   1      10.963   8.098  -2.042  0.00  0.00     0.083 H 
ATOM     25  H   LIG d   1      10.539  10.944  -1.554  0.00  0.00     0.082 H 
ATOM     26  H   LIG d   1      11.016   9.799  -2.830  0.00  0.00     0.082 H 
ATOM     27  H   LIG d   1       8.542  10.629  -3.727  0.00  0.00     0.033 H 
ATOM     28  H   LIG d   1       9.154  12.103  -2.942  0.00  0.00     0.033 H 
ATOM     29  H   LIG d   1      10.612  12.463  -4.639  0.00  0.00     0.043 H 
ATOM     30  H   LIG d   1      11.255  10.804  -4.507  0.00  0.00     0.043 H 
ATOM     31  H   LIG d   1      11.297  10.371  -6.940  0.00  0.00     0.048 H 
ATOM     32  H   LIG d   1      10.698   9.228  -5.705  0.00  0.00     0.048 H 
ATOM     33  H   LIG d   1       9.790   9.662  -8.521  0.00  0.00     0.083 H 
ATOM     34  H   LIG d   1       8.490   9.466  -7.324  0.00  0.00     0.083 H 
ATOM     35  H   LIG d   1       9.240   7.419  -8.319  0.00  0.00     0.203 HD
ATOM     36  H   LIG d   1       8.459   9.191  -2.406  0.00  0.00     0.204 HD
ENDROOT
BRANCH   8  37
ATOM     37  C   LIG d   1       8.793   9.748  -0.473  0.00  0.00     0.009 C 
ATOM     38  H   LIG d   1       7.977  10.459  -0.596  0.00  0.00     0.087 H 
ATOM     39  H   LIG d   1       8.443   8.888   0.100  0.00  0.00     0.087 H 
BRANCH  37  40
ATOM     40  C   LIG d   1       9.949  10.421   0.270  0.00  0.00     0.006 C 
ATOM     41  H   LIG d   1      10.207   9.830   1.150  0.00  0.00     0.087 H 
ATOM     42  H   LIG d   1      10.814  10.489  -0.389  0.00  0.00     0.087 H 
BRANCH  40  43
ATOM     43  N   LIG d   1       9.543  11.769   0.688  0.00  0.00     0.222 N 
ATOM     44  H   LIG d   1       8.662  12.004   0.258  0.00  0.00     0.200 HD
ATOM     45  H   LIG d   1       9.446  11.795   1.692  0.00  0.00     0.200 HD
ATOM     46  H   LIG d   1      10.245  12.435   0.401  0.00  0.00     0.200 HD
ENDBRANCH  40  43
ENDBRANCH  37  40
ENDBRANCH   8  37
BRANCH   5  47
ATOM     47  C   LIG d   1      10.293   4.834  -2.320  0.00  0.00     0.039 C 
ATOM     48  H   LIG d   1       9.487   4.826  -1.585  0.00  0.00     0.048 H 
ATOM     49  H   LIG d   1      10.206   3.959  -2.964  0.00  0.00     0.048 H 
BRANCH  47  50
ATOM     50  C   LIG d   1      11.642   4.804  -1.598  0.00  0.00    -0.022 C 
ATOM     51  H   LIG d   1      12.190   3.909  -1.890  0.00  0.00     0.083 H 
ATOM     52  H   LIG d   1      12.219   5.688  -1.868  0.00  0.00     0.083 H 
BRANCH  50  53
ATOM     53  N   LIG d   1      11.418   4.790  -0.145  0.00  0.00     0.219 N 
ATOM     54  H   LIG d   1      10.879   5.600   0.120  0.00  0.00     0.200 HD
ATOM     55  H   LIG d   1      10.915   3.953   0.110  0.00  0.00     0.200 HD
ATOM     56  H   LIG d   1      12.308   4.807   0.331  0.00  0.00     0.200 HD
ENDBRANCH  50  53
ENDBRANCH  47  50
ENDBRANCH   5  47
BRANCH  12  57
ATOM     57  C   LIG d   1       9.688  12.208  -6.745  0.00  0.00    -0.013 C 
ATOM     58  H   LIG d   1       8.718  12.337  -7.225  0.00  0.00     0.039 H 
ATOM     59  H   LIG d   1       9.932  13.101  -6.170  0.00  0.00     0.039 H 
ATOM     60  H   LIG d   1      10.452  12.044  -7.505  0.00  0.00     0.039 H 
ENDBRANCH  12  57
BRANCH   1  61
ATOM     61  C   LIG d   1      11.180   7.521  -7.739  0.00  0.00    -0.043 C 
ATOM     62  H   LIG d   1      11.762   7.967  -6.932  0.00  0.00     0.078 H 
ATOM     63  H   LIG d   1      11.335   6.442  -7.745  0.00  0.00     0.078 H 
ATOM     64  H   LIG d   1      11.502   7.939  -8.693  0.00  0.00     0.078 H 
ENDBRANCH   1  61
TORSDOF 8
ENDMDL
MODEL 6
REMARK VINA RESULT:      -4.5      1.682      6.530
REMARK  8 active torsions:
REMARK  status: ('A' for Active; 'I' for Inactive)
REMARK    1  A    between atoms: C_1  and  N_2 
REMARK    2  A    between atoms: N_6  and  C_20 
REMARK    3  A    between atoms: N_9  and  C_17 
REMARK    4  A    between atoms: N_13  and  C_16 
REMARK    5  A    between atoms: C_17  and  C_18 
REMARK    6  A    between atoms: C_18  and  N_19 
REMARK    7  A    between atoms: C_20  and  C_21 
REMARK    8  A    between atoms: C_21  and  N_22 
ROOT
ATOM      1  N   LIG d   1      10.483   5.319  -1.242  0.00  0.00     0.234 N 
ATOM      2  C   LIG d   1      10.054   6.698  -1.032  0.00  0.00    -0.031 C 
ATOM      3  C   LIG d   1      11.168   7.608  -0.529  0.00  0.00     0.000 C 
ATOM      4  C   LIG d   1      10.577   8.985  -0.201  0.00  0.00     0.004 C 
ATOM      5  N   LIG d   1      11.197   9.990  -1.127  0.00  0.00    -0.292 N 
ATOM      6  C   LIG d   1      10.069  10.448  -2.008  0.00  0.00     0.039 C 
ATOM      7  C   LIG d   1      10.646  10.797  -3.377  0.00  0.00    -0.019 C 
ATOM      8  N   LIG d   1       9.759  10.288  -4.432  0.00  0.00     0.240 N 
ATOM      9  C   LIG d   1      10.506   9.387  -5.318  0.00  0.00    -0.030 C 
ATOM     10  C   LIG d   1       9.644   8.172  -5.665  0.00  0.00     0.000 C 
ATOM     11  C   LIG d   1      10.507   6.911  -5.651  0.00  0.00     0.004 C 
ATOM     12  N   LIG d   1       9.854   5.892  -4.786  0.00  0.00    -0.300 N 
ATOM     13  C   LIG d   1      10.794   5.596  -3.670  0.00  0.00     0.039 C 
ATOM     14  C   LIG d   1      10.037   4.860  -2.568  0.00  0.00    -0.019 C 
ATOM     15  H   LIG d   1       9.656   7.103  -1.969  0.00  0.00     0.082 H 
ATOM     16  H   LIG d   1       9.234   6.705  -0.299  0.00  0.00     0.082 H 
ATOM     17  H   LIG d   1      11.611   7.206   0.383  0.00  0.00     0.033 H 
ATOM     18  H   LIG d   1      11.930   7.738  -1.297  0.00  0.00     0.033 H 
ATOM     19  H   LIG d   1       9.507   8.981  -0.359  0.00  0.00     0.043 H 
ATOM     20  H   LIG d   1      10.827   9.264   0.816  0.00  0.00     0.043 H 
ATOM     21  H   LIG d   1       9.353   9.640  -2.091  0.00  0.00     0.048 H 
ATOM     22  H   LIG d   1       9.624  11.325  -1.551  0.00  0.00     0.048 H 
ATOM     23  H   LIG d   1      10.731  11.881  -3.472  0.00  0.00     0.083 H 
ATOM     24  H   LIG d   1      11.635  10.351  -3.484  0.00  0.00     0.083 H 
ATOM     25  H   LIG d   1      10.768   9.917  -6.236  0.00  0.00     0.082 H 
ATOM     26  H   LIG d   1      11.417   9.056  -4.822  0.00  0.00     0.082 H 
ATOM     27  H   LIG d   1       8.841   8.072  -4.936  0.00  0.00     0.033 H 
ATOM     28  H   LIG d   1       9.215   8.306  -6.659  0.00  0.00     0.033 H 
ATOM     29  H   LIG d   1      10.594   6.508  -6.658  0.00  0.00     0.043 H 
ATOM     30  H   LIG d   1      11.491   7.134  -5.247  0.00  0.00     0.043 H 
ATOM     31  H   LIG d   1      11.596   4.971  -4.055  0.00  0.00     0.048 H 
ATOM     32  H   LIG d   1      11.187   6.539  -3.303  0.00  0.00     0.048 H 
ATOM     33  H   LIG d   1      10.217   3.786  -2.652  0.00  0.00     0.083 H 
ATOM     34  H   LIG d   1       8.966   5.050  -2.668  0.00  0.00     0.083 H 
ATOM     35  H   LIG d   1      10.028   4.729  -0.544  0.00  0.00     0.203 HD
ATOM     36  H   LIG d   1       8.989   9.789  -4.013  0.00  0.00     0.204 HD
ENDROOT
BRANCH   8  37
ATOM     37  C   LIG d   1       9.235  11.418  -5.214  0.00  0.00     0.009 C 
ATOM     38  H   LIG d   1       8.222  11.191  -5.545  0.00  0.00     0.087 H 
ATOM     39  H   LIG d   1       9.222  12.314  -4.593  0.00  0.00     0.087 H 
BRANCH  37  40
ATOM     40  C   LIG d   1      10.130  11.654  -6.432  0.00  0.00     0.006 C 
ATOM     41  H   LIG d   1      10.870  12.419  -6.196  0.00  0.00     0.087 H 
ATOM     42  H   LIG d   1      10.637  10.727  -6.696  0.00  0.00     0.087 H 
BRANCH  40  43
ATOM     43  N   LIG d   1       9.307  12.102  -7.564  0.00  0.00     0.222 N 
ATOM     44  H   LIG d   1       9.221  13.107  -7.540  0.00  0.00     0.200 HD
ATOM     45  H   LIG d   1       9.743  11.821  -8.428  0.00  0.00     0.200 HD
ATOM     46  H   LIG d   1       8.390  11.685  -7.499  0.00  0.00     0.200 HD
ENDBRANCH  40  43
ENDBRANCH  37  40
ENDBRANCH   8  37
BRANCH   5  47
ATOM     47  C   LIG d   1      11.488  11.176  -0.247  0.00  0.00     0.039 C 
ATOM     48  H   LIG d   1      12.359  10.963   0.374  0.00  0.00     0.048 H 
ATOM     49  H   LIG d   1      11.690  12.049  -0.868  0.00  0.00     0.048 H 
BRANCH  47  50
ATOM     50  C   LIG d   1      10.279  11.455   0.649  0.00  0.00    -0.022 C 
ATOM     51  H   LIG d   1       9.428  10.872   0.300  0.00  0.00     0.083 H 
ATOM     52  H   LIG d   1      10.516  11.178   1.676  0.00  0.00     0.083 H 
BRANCH  50  53
ATOM     53  N   LIG d   1       9.949  12.887   0.591  0.00  0.00     0.219 N 
ATOM     54  H   LIG d   1      10.409  13.306  -0.202  0.00  0.00     0.200 HD
ATOM     55  H   LIG d   1       8.951  12.998   0.500  0.00  0.00     0.200 HD
ATOM     56  H   LIG d   1      10.263  13.337   1.438  0.00  0.00     0.200 HD
ENDBRANCH  50  53
ENDBRANCH  47  50
ENDBRANCH   5  47
BRANCH  12  57
ATOM     57  C   LIG d   1       9.717   4.650  -5.594  0.00  0.00    -0.013 C 
ATOM     58  H   LIG d   1       8.783   4.683  -6.155  0.00  0.00     0.039 H 
ATOM     59  H   LIG d   1      10.555   4.573  -6.287  0.00  0.00     0.039 H 
ATOM     60  H   LIG d   1       9.712   3.785  -4.930  0.00  0.00     0.039 H 
ENDBRANCH  12  57
BRANCH   1  61
ATOM     61  C   LIG d   1      11.929   5.141  -1.117  0.00  0.00    -0.043 C 
ATOM     62  H   LIG d   1      12.260   4.362  -1.803  0.00  0.00     0.078 H 
ATOM     63  H   LIG d   1      12.433   6.077  -1.360  0.00  0.00     0.078 H 
ATOM     64  H   LIG d   1      12.173   4.852  -0.094  0.00  0.00     0.078 H 
ENDBRANCH   1  61
TORSDOF 8
ENDMDL
MODEL 7
REMARK VINA RESULT:      -4.4      1.418      5.102
REMARK  8 active torsions:
REMARK  status: ('A' for Active; 'I' for Inactive)
REMARK    1  A    between atoms: C_1  and  N_2 
REMARK    2  A    between atoms: N_6  and  C_20 
REMARK    3  A    between atoms: N_9  and  C_17 
REMARK    4  A    between atoms: N_13  and  C_16 
REMARK    5  A    between atoms: C_17  and  C_18 
REMARK    6  A    between atoms: C_18  and  N_19 
REMARK    7  A    between atoms: C_20  and  C_21 
REMARK    8  A    between atoms: C_21  and  N_22 
ROOT
ATOM      1  N   LIG d   1      10.988   4.777  -3.363  0.00  0.00     0.234 N 
ATOM      2  C   LIG d   1      11.303   6.018  -4.064  0.00  0.00    -0.031 C 
ATOM      3  C   LIG d   1      10.173   6.510  -4.959  0.00  0.00     0.000 C 
ATOM      4  C   LIG d   1      10.662   7.727  -5.755  0.00  0.00     0.004 C 
ATOM      5  N   LIG d   1       9.843   8.914  -5.340  0.00  0.00    -0.292 N 
ATOM      6  C   LIG d   1      10.810   9.819  -4.631  0.00  0.00     0.039 C 
ATOM      7  C   LIG d   1      10.045  10.579  -3.550  0.00  0.00    -0.019 C 
ATOM      8  N   LIG d   1      10.848  10.632  -2.321  0.00  0.00     0.240 N 
ATOM      9  C   LIG d   1      10.092  10.042  -1.209  0.00  0.00    -0.030 C 
ATOM     10  C   LIG d   1      11.022   9.177  -0.355  0.00  0.00     0.000 C 
ATOM     11  C   LIG d   1      10.293   7.900   0.062  0.00  0.00     0.004 C 
ATOM     12  N   LIG d   1      11.138   6.728  -0.288  0.00  0.00    -0.300 N 
ATOM     13  C   LIG d   1      10.370   5.908  -1.264  0.00  0.00     0.039 C 
ATOM     14  C   LIG d   1      11.318   4.919  -1.935  0.00  0.00    -0.019 C 
ATOM     15  H   LIG d   1      11.547   6.797  -3.333  0.00  0.00     0.082 H 
ATOM     16  H   LIG d   1      12.199   5.858  -4.681  0.00  0.00     0.082 H 
ATOM     17  H   LIG d   1       9.882   5.737  -5.671  0.00  0.00     0.033 H 
ATOM     18  H   LIG d   1       9.317   6.817  -4.358  0.00  0.00     0.033 H 
ATOM     19  H   LIG d   1      11.701   7.927  -5.533  0.00  0.00     0.043 H 
ATOM     20  H   LIG d   1      10.507   7.563  -6.815  0.00  0.00     0.043 H 
ATOM     21  H   LIG d   1      11.586   9.207  -4.189  0.00  0.00     0.048 H 
ATOM     22  H   LIG d   1      11.218  10.509  -5.361  0.00  0.00     0.048 H 
ATOM     23  H   LIG d   1       9.845  11.596  -3.892  0.00  0.00     0.083 H 
ATOM     24  H   LIG d   1       9.098  10.078  -3.349  0.00  0.00     0.083 H 
ATOM     25  H   LIG d   1       9.675  10.840  -0.591  0.00  0.00     0.082 H 
ATOM     26  H   LIG d   1       9.283   9.427  -1.600  0.00  0.00     0.082 H 
ATOM     27  H   LIG d   1      11.911   8.918  -0.930  0.00  0.00     0.033 H 
ATOM     28  H   LIG d   1      11.317   9.734   0.535  0.00  0.00     0.033 H 
ATOM     29  H   LIG d   1      10.128   7.901   1.137  0.00  0.00     0.043 H 
ATOM     30  H   LIG d   1       9.347   7.819  -0.465  0.00  0.00     0.043 H 
ATOM     31  H   LIG d   1       9.592   5.373  -0.723  0.00  0.00     0.048 H 
ATOM     32  H   LIG d   1       9.932   6.579  -1.997  0.00  0.00     0.048 H 
ATOM     33  H   LIG d   1      11.235   3.943  -1.452  0.00  0.00     0.083 H 
ATOM     34  H   LIG d   1      12.346   5.275  -1.842  0.00  0.00     0.083 H 
ATOM     35  H   LIG d   1      11.577   4.034  -3.742  0.00  0.00     0.203 HD
ATOM     36  H   LIG d   1      11.706  10.120  -2.457  0.00  0.00     0.204 HD
ENDROOT
BRANCH   8  37
ATOM     37  C   LIG d   1      11.164  12.033  -2.007  0.00  0.00     0.009 C 
ATOM     38  H   LIG d   1      11.377  12.128  -0.943  0.00  0.00     0.087 H 
ATOM     39  H   LIG d   1      12.037  12.346  -2.581  0.00  0.00     0.087 H 
BRANCH  37  40
ATOM     40  C   LIG d   1       9.971  12.920  -2.369  0.00  0.00     0.006 C 
ATOM     41  H   LIG d   1      10.261  13.616  -3.156  0.00  0.00     0.087 H 
ATOM     42  H   LIG d   1       9.149  12.297  -2.720  0.00  0.00     0.087 H 
BRANCH  40  43
ATOM     43  N   LIG d   1       9.543  13.673  -1.183  0.00  0.00     0.222 N 
ATOM     44  H   LIG d   1      10.233  13.573  -0.454  0.00  0.00     0.200 HD
ATOM     45  H   LIG d   1       9.444  14.648  -1.421  0.00  0.00     0.200 HD
ATOM     46  H   LIG d   1       8.657  13.315  -0.858  0.00  0.00     0.200 HD
ENDBRANCH  40  43
ENDBRANCH  37  40
ENDBRANCH   8  37
BRANCH   5  47
ATOM     47  C   LIG d   1       9.543   9.628  -6.632  0.00  0.00     0.039 C 
ATOM     48  H   LIG d   1       8.566  10.107  -6.564  0.00  0.00     0.048 H 
ATOM     49  H   LIG d   1      10.306  10.384  -6.816  0.00  0.00     0.048 H 
BRANCH  47  50
ATOM     50  C   LIG d   1       9.538   8.619  -7.782  0.00  0.00    -0.022 C 
ATOM     51  H   LIG d   1      10.477   8.689  -8.330  0.00  0.00     0.083 H 
ATOM     52  H   LIG d   1       9.424   7.611  -7.381  0.00  0.00     0.083 H 
BRANCH  50  53
ATOM     53  N   LIG d   1       8.418   8.915  -8.687  0.00  0.00     0.219 N 
ATOM     54  H   LIG d   1       8.289   9.913  -8.746  0.00  0.00     0.200 HD
ATOM     55  H   LIG d   1       8.620   8.547  -9.605  0.00  0.00     0.200 HD
ATOM     56  H   LIG d   1       7.577   8.486  -8.330  0.00  0.00     0.200 HD
ENDBRANCH  50  53
ENDBRANCH  47  50
ENDBRANCH   5  47
BRANCH  12  57
ATOM     57  C   LIG d   1      11.300   5.915   0.947  0.00  0.00    -0.013 C 
ATOM     58  H   LIG d   1      10.389   5.977   1.544  0.00  0.00     0.039 H 
ATOM     59  H   LIG d   1      11.487   4.876   0.677  0.00  0.00     0.039 H 
ATOM     60  H   LIG d   1      12.141   6.298   1.526  0.00  0.00     0.039 H 
ENDBRANCH  12  57
BRANCH   1  61
ATOM     61  C   LIG d   1       9.591   4.371  -3.511  0.00  0.00    -0.043 C 
ATOM     62  H   LIG d   1       9.237   3.941  -2.575  0.00  0.00     0.078 H 
ATOM     63  H   LIG d   1       8.985   5.242  -3.763  0.00  0.00     0.078 H 
ATOM     64  H   LIG d   1       9.509   3.630  -4.306  0.00  0.00     0.078 H 
ENDBRANCH   1  61
TORSDOF 8
ENDMDL
MODEL 8
REMARK VINA RESULT:      -4.4      0.987      5.117
REMARK  8 active torsions:
REMARK  status: ('A' for Active; 'I' for Inactive)
REMARK    1  A    between atoms: C_1  and  N_2 
REMARK    2  A    between atoms: N_6  and  C_20 
REMARK    3  A    between atoms: N_9  and  C_17 
REMARK    4  A    between atoms: N_13  and  C_16 
REMARK    5  A    between atoms: C_17  and  C_18 
REMARK    6  A    between atoms: C_18  and  N_19 
REMARK    7  A    between atoms: C_20  and  C_21 
REMARK    8  A    between atoms: C_21  and  N_22 
ROOT
ATOM      1  N   LIG d   1      12.138  10.134   0.123  0.00  0.00     0.234 N 
ATOM      2  C   LIG d   1      12.400   9.304  -1.049  0.00  0.00    -0.031 C 
ATOM      3  C   LIG d   1      11.622   7.994  -1.049  0.00  0.00     0.000 C 
ATOM      4  C   LIG d   1      12.082   7.142  -2.238  0.00  0.00     0.004 C 
ATOM      5  N   LIG d   1      10.914   6.966  -3.164  0.00  0.00    -0.292 N 
ATOM      6  C   LIG d   1      11.291   7.720  -4.407  0.00  0.00     0.039 C 
ATOM      7  C   LIG d   1      10.014   8.272  -5.035  0.00  0.00    -0.019 C 
ATOM      8  N   LIG d   1      10.242   9.648  -5.495  0.00  0.00     0.240 N 
ATOM      9  C   LIG d   1       9.277  10.551  -4.857  0.00  0.00    -0.030 C 
ATOM     10  C   LIG d   1       9.978  11.845  -4.439  0.00  0.00     0.000 C 
ATOM     11  C   LIG d   1       9.465  12.287  -3.069  0.00  0.00     0.004 C 
ATOM     12  N   LIG d   1      10.628  12.527  -2.174  0.00  0.00    -0.300 N 
ATOM     13  C   LIG d   1      10.511  11.575  -1.036  0.00  0.00     0.039 C 
ATOM     14  C   LIG d   1      11.847  11.513  -0.302  0.00  0.00    -0.019 C 
ATOM     15  H   LIG d   1      12.153   9.868  -1.956  0.00  0.00     0.082 H 
ATOM     16  H   LIG d   1      13.475   9.077  -1.088  0.00  0.00     0.082 H 
ATOM     17  H   LIG d   1      11.817   7.431  -0.136  0.00  0.00     0.033 H 
ATOM     18  H   LIG d   1      10.555   8.185  -1.158  0.00  0.00     0.033 H 
ATOM     19  H   LIG d   1      12.877   7.643  -2.774  0.00  0.00     0.043 H 
ATOM     20  H   LIG d   1      12.392   6.162  -1.895  0.00  0.00     0.043 H 
ATOM     21  H   LIG d   1      11.956   8.528  -4.126  0.00  0.00     0.048 H 
ATOM     22  H   LIG d   1      11.776   7.027  -5.084  0.00  0.00     0.048 H 
ATOM     23  H   LIG d   1       9.730   7.652  -5.888  0.00  0.00     0.083 H 
ATOM     24  H   LIG d   1       9.208   8.259  -4.301  0.00  0.00     0.083 H 
ATOM     25  H   LIG d   1       8.479  10.787  -5.565  0.00  0.00     0.082 H 
ATOM     26  H   LIG d   1       8.849  10.071  -3.979  0.00  0.00     0.082 H 
ATOM     27  H   LIG d   1      11.054  11.679  -4.389  0.00  0.00     0.033 H 
ATOM     28  H   LIG d   1       9.767  12.624  -5.173  0.00  0.00     0.033 H 
ATOM     29  H   LIG d   1       8.902  13.213  -3.164  0.00  0.00     0.043 H 
ATOM     30  H   LIG d   1       8.843  11.510  -2.633  0.00  0.00     0.043 H 
ATOM     31  H   LIG d   1       9.733  11.936  -0.368  0.00  0.00     0.048 H 
ATOM     32  H   LIG d   1      10.247  10.601  -1.437  0.00  0.00     0.048 H 
ATOM     33  H   LIG d   1      11.814  12.158   0.578  0.00  0.00     0.083 H 
ATOM     34  H   LIG d   1      12.646  11.856  -0.964  0.00  0.00     0.083 H 
ATOM     35  H   LIG d   1      12.983  10.160   0.695  0.00  0.00     0.203 HD
ATOM     36  H   LIG d   1      11.181   9.932  -5.255  0.00  0.00     0.204 HD
ENDROOT
BRANCH   8  37
ATOM     37  C   LIG d   1      10.076   9.707  -6.955  0.00  0.00     0.009 C 
ATOM     38  H   LIG d   1       9.615  10.655  -7.229  0.00  0.00     0.087 H 
ATOM     39  H   LIG d   1      11.052   9.626  -7.435  0.00  0.00     0.087 H 
BRANCH  37  40
ATOM     40  C   LIG d   1       9.183   8.553  -7.414  0.00  0.00     0.006 C 
ATOM     41  H   LIG d   1       9.801   7.682  -7.633  0.00  0.00     0.087 H 
ATOM     42  H   LIG d   1       8.473   8.307  -6.626  0.00  0.00     0.087 H 
BRANCH  40  43
ATOM     43  N   LIG d   1       8.453   8.951  -8.625  0.00  0.00     0.222 N 
ATOM     44  H   LIG d   1       8.423   9.958  -8.684  0.00  0.00     0.200 HD
ATOM     45  H   LIG d   1       8.920   8.580  -9.437  0.00  0.00     0.200 HD
ATOM     46  H   LIG d   1       7.511   8.590  -8.584  0.00  0.00     0.200 HD
ENDBRANCH  40  43
ENDBRANCH  37  40
ENDBRANCH   8  37
BRANCH   5  47
ATOM     47  C   LIG d   1      10.978   5.518  -3.572  0.00  0.00     0.039 C 
ATOM     48  H   LIG d   1      10.602   5.410  -4.590  0.00  0.00     0.048 H 
ATOM     49  H   LIG d   1      12.011   5.173  -3.529  0.00  0.00     0.048 H 
BRANCH  47  50
ATOM     50  C   LIG d   1      10.120   4.682  -2.620  0.00  0.00    -0.022 C 
ATOM     51  H   LIG d   1       9.613   5.340  -1.917  0.00  0.00     0.083 H 
ATOM     52  H   LIG d   1       9.381   4.122  -3.194  0.00  0.00     0.083 H 
BRANCH  50  53
ATOM     53  N   LIG d   1      10.980   3.745  -1.883  0.00  0.00     0.219 N 
ATOM     54  H   LIG d   1      11.366   4.209  -1.074  0.00  0.00     0.200 HD
ATOM     55  H   LIG d   1      10.435   2.949  -1.587  0.00  0.00     0.200 HD
ATOM     56  H   LIG d   1      11.730   3.436  -2.483  0.00  0.00     0.200 HD
ENDBRANCH  50  53
ENDBRANCH  47  50
ENDBRANCH   5  47
BRANCH  12  57
ATOM     57  C   LIG d   1      10.485  13.901  -1.622  0.00  0.00    -0.013 C 
ATOM     58  H   LIG d   1      10.754  13.898  -0.566  0.00  0.00     0.039 H 
ATOM     59  H   LIG d   1      11.143  14.580  -2.164  0.00  0.00     0.039 H 
ATOM     60  H   LIG d   1       9.451  14.230  -1.734  0.00  0.00     0.039 H 
ENDBRANCH  12  57
BRANCH   1  61
ATOM     61  C   LIG d   1      11.043   9.630   0.951  0.00  0.00    -0.043 C 
ATOM     62  H   LIG d   1      11.235   8.590   1.213  0.00  0.00     0.078 H 
ATOM     63  H   LIG d   1      10.971  10.226   1.861  0.00  0.00     0.078 H 
ATOM     64  H   LIG d   1      10.106   9.698   0.398  0.00  0.00     0.078 H 
ENDBRANCH   1  61
TORSDOF 8
ENDMDL
MODEL 9
REMARK VINA RESULT:      -4.2      8.192     11.810
REMARK  8 active torsions:
REMARK  status: ('A' for Active; 'I' for Inactive)
REMARK    1  A    between atoms: C_1  and  N_2 
REMARK    2  A    between atoms: N_6  and  C_20 
REMARK    3  A    between atoms: N_9  and  C_17 
REMARK    4  A    between atoms: N_13  and  C_16 
REMARK    5  A    between atoms: C_17  and  C_18 
REMARK    6  A    between atoms: C_18  and  N_19 
REMARK    7  A    between atoms: C_20  and  C_21 
REMARK    8  A    between atoms: C_21  and  N_22 
ROOT
ATOM      1  N   LIG d   1       9.015   0.548  -5.301  0.00  0.00     0.234 N 
ATOM      2  C   LIG d   1       7.811  -0.256  -5.116  0.00  0.00    -0.031 C 
ATOM      3  C   LIG d   1       6.864   0.307  -4.063  0.00  0.00     0.000 C 
ATOM      4  C   LIG d   1       5.715  -0.685  -3.844  0.00  0.00     0.004 C 
ATOM      5  N   LIG d   1       4.438  -0.020  -4.267  0.00  0.00    -0.292 N 
ATOM      6  C   LIG d   1       3.990  -0.784  -5.480  0.00  0.00     0.039 C 
ATOM      7  C   LIG d   1       3.250   0.180  -6.403  0.00  0.00    -0.019 C 
ATOM      8  N   LIG d   1       3.649  -0.065  -7.796  0.00  0.00     0.240 N 
ATOM      9  C   LIG d   1       4.189   1.169  -8.381  0.00  0.00    -0.030 C 
ATOM     10  C   LIG d   1       5.422   0.843  -9.226  0.00  0.00     0.000 C 
ATOM     11  C   LIG d   1       6.491   1.913  -9.007  0.00  0.00     0.004 C 
ATOM     12  N   LIG d   1       7.773   1.246  -8.655  0.00  0.00    -0.300 N 
ATOM     13  C   LIG d   1       8.151   1.711  -7.292  0.00  0.00     0.039 C 
ATOM     14  C   LIG d   1       9.232   0.789  -6.737  0.00  0.00    -0.019 C 
ATOM     15  H   LIG d   1       7.278  -0.339  -6.070  0.00  0.00     0.082 H 
ATOM     16  H   LIG d   1       8.106  -1.272  -4.818  0.00  0.00     0.082 H 
ATOM     17  H   LIG d   1       7.381   0.439  -3.112  0.00  0.00     0.033 H 
ATOM     18  H   LIG d   1       6.438   1.252  -4.400  0.00  0.00     0.033 H 
ATOM     19  H   LIG d   1       5.863  -1.569  -4.450  0.00  0.00     0.043 H 
ATOM     20  H   LIG d   1       5.635  -0.934  -2.792  0.00  0.00     0.043 H 
ATOM     21  H   LIG d   1       4.867  -1.186  -5.972  0.00  0.00     0.048 H 
ATOM     22  H   LIG d   1       3.325  -1.575  -5.149  0.00  0.00     0.048 H 
ATOM     23  H   LIG d   1       2.174   0.024  -6.307  0.00  0.00     0.083 H 
ATOM     24  H   LIG d   1       3.488   1.207  -6.128  0.00  0.00     0.083 H 
ATOM     25  H   LIG d   1       3.430   1.631  -9.015  0.00  0.00     0.082 H 
ATOM     26  H   LIG d   1       4.466   1.861  -7.588  0.00  0.00     0.082 H 
ATOM     27  H   LIG d   1       5.817  -0.131  -8.938  0.00  0.00     0.033 H 
ATOM     28  H   LIG d   1       5.142   0.821 -10.281  0.00  0.00     0.033 H 
ATOM     29  H   LIG d   1       6.636   2.485  -9.920  0.00  0.00     0.043 H 
ATOM     30  H   LIG d   1       6.203   2.569  -8.191  0.00  0.00     0.043 H 
ATOM     31  H   LIG d   1       8.529   2.727  -7.371  0.00  0.00     0.048 H 
ATOM     32  H   LIG d   1       7.262   1.681  -6.669  0.00  0.00     0.048 H 
ATOM     33  H   LIG d   1      10.213   1.246  -6.877  0.00  0.00     0.083 H 
ATOM     34  H   LIG d   1       9.207  -0.167  -7.265  0.00  0.00     0.083 H 
ATOM     35  H   LIG d   1       9.815   0.016  -4.954  0.00  0.00     0.203 HD
ATOM     36  H   LIG d   1       4.352  -0.788  -7.823  0.00  0.00     0.204 HD
ENDROOT
BRANCH   8  37
ATOM     37  C   LIG d   1       2.477  -0.500  -8.569  0.00  0.00     0.009 C 
ATOM     38  H   LIG d   1       1.631  -0.644  -7.897  0.00  0.00     0.087 H 
ATOM     39  H   LIG d   1       2.227   0.261  -9.309  0.00  0.00     0.087 H 
BRANCH  37  40
ATOM     40  C   LIG d   1       2.795  -1.818  -9.279  0.00  0.00     0.006 C 
ATOM     41  H   LIG d   1       1.909  -2.166  -9.810  0.00  0.00     0.087 H 
ATOM     42  H   LIG d   1       3.606  -1.662  -9.989  0.00  0.00     0.087 H 
BRANCH  40  43
ATOM     43  N   LIG d   1       3.198  -2.824  -8.287  0.00  0.00     0.222 N 
ATOM     44  H   LIG d   1       3.105  -3.745  -8.687  0.00  0.00     0.200 HD
ATOM     45  H   LIG d   1       4.157  -2.666  -8.019  0.00  0.00     0.200 HD
ATOM     46  H   LIG d   1       2.604  -2.749  -7.474  0.00  0.00     0.200 HD
ENDBRANCH  40  43
ENDBRANCH  37  40
ENDBRANCH   8  37
BRANCH   5  47
ATOM     47  C   LIG d   1       3.449  -0.402  -3.198  0.00  0.00     0.039 C 
ATOM     48  H   LIG d   1       3.104   0.496  -2.684  0.00  0.00     0.048 H 
ATOM     49  H   LIG d   1       2.598  -0.909  -3.654  0.00  0.00     0.048 H 
BRANCH  47  50
ATOM     50  C   LIG d   1       4.122  -1.339  -2.192  0.00  0.00    -0.022 C 
ATOM     51  H   LIG d   1       5.188  -1.398  -2.410  0.00  0.00     0.083 H 
ATOM     52  H   LIG d   1       3.977  -0.953  -1.183  0.00  0.00     0.083 H 
BRANCH  50  53
ATOM     53  N   LIG d   1       3.524  -2.677  -2.296  0.00  0.00     0.219 N 
ATOM     54  H   LIG d   1       2.999  -2.745  -3.154  0.00  0.00     0.200 HD
ATOM     55  H   LIG d   1       4.255  -3.373  -2.291  0.00  0.00     0.200 HD
ATOM     56  H   LIG d   1       2.908  -2.831  -1.511  0.00  0.00     0.200 HD
ENDBRANCH  50  53
ENDBRANCH  47  50
ENDBRANCH   5  47
BRANCH  12  57
ATOM     57  C   LIG d   1       8.806   1.750  -9.600  0.00  0.00    -0.013 C 
ATOM     58  H   LIG d   1       8.883   1.071 -10.450  0.00  0.00     0.039 H 
ATOM     59  H   LIG d   1       8.524   2.742  -9.952  0.00  0.00     0.039 H 
ATOM     60  H   LIG d   1       9.768   1.804  -9.089  0.00  0.00     0.039 H 
ENDBRANCH  12  57
BRANCH   1  61
ATOM     61  C   LIG d   1       8.972   1.822  -4.586  0.00  0.00    -0.043 C 
ATOM     62  H   LIG d   1       8.186   1.789  -3.832  0.00  0.00     0.078 H 
ATOM     63  H   LIG d   1       9.932   2.000  -4.101  0.00  0.00     0.078 H 
ATOM     64  H   LIG d   1       8.765   2.629  -5.290  0.00  0.00     0.078 H 
ENDBRANCH   1  61
TORSDOF 8
ENDMDL
MODEL 10
REMARK VINA RESULT:      -4.2      1.913      5.432
REMARK  8 active torsions:
REMARK  status: ('A' for Active; 'I' for Inactive)
REMARK    1  A    between atoms: C_1  and  N_2 
REMARK    2  A    between atoms: N_6  and  C_20 
REMARK    3  A    between atoms: N_9  and  C_17 
REMARK    4  A    between atoms: N_13  and  C_16 
REMARK    5  A    between atoms: C_17  and  C_18 
REMARK    6  A    between atoms: C_18  and  N_19 
REMARK    7  A    between atoms: C_20  and  C_21 
REMARK    8  A    between atoms: C_21  and  N_22 
ROOT
ATOM      1  N   LIG d   1      10.307   9.170  -1.173  0.00  0.00     0.234 N 
ATOM      2  C   LIG d   1      10.742   8.089  -2.053  0.00  0.00    -0.031 C 
ATOM      3  C   LIG d   1       9.707   6.983  -2.209  0.00  0.00     0.000 C 
ATOM      4  C   LIG d   1      10.320   5.838  -3.026  0.00  0.00     0.004 C 
ATOM      5  N   LIG d   1       9.547   5.714  -4.306  0.00  0.00    -0.292 N 
ATOM      6  C   LIG d   1      10.515   6.118  -5.381  0.00  0.00     0.039 C 
ATOM      7  C   LIG d   1       9.726   6.772  -6.512  0.00  0.00    -0.019 C 
ATOM      8  N   LIG d   1      10.445   7.958  -6.995  0.00  0.00     0.240 N 
ATOM      9  C   LIG d   1       9.583   9.141  -6.886  0.00  0.00    -0.030 C 
ATOM     10  C   LIG d   1      10.399  10.330  -6.374  0.00  0.00     0.000 C 
ATOM     11  C   LIG d   1       9.569  11.126  -5.368  0.00  0.00     0.004 C 
ATOM     12  N   LIG d   1      10.364  11.306  -4.125  0.00  0.00    -0.300 N 
ATOM     13  C   LIG d   1       9.616  10.641  -3.023  0.00  0.00     0.039 C 
ATOM     14  C   LIG d   1      10.547  10.466  -1.827  0.00  0.00    -0.019 C 
ATOM     15  H   LIG d   1      10.982   8.498  -3.041  0.00  0.00     0.082 H 
ATOM     16  H   LIG d   1      11.666   7.653  -1.647  0.00  0.00     0.082 H 
ATOM     17  H   LIG d   1       9.418   6.585  -1.236  0.00  0.00     0.033 H 
ATOM     18  H   LIG d   1       8.832   7.352  -2.744  0.00  0.00     0.033 H 
ATOM     19  H   LIG d   1      11.352   6.058  -3.263  0.00  0.00     0.043 H 
ATOM     20  H   LIG d   1      10.228   4.904  -2.483  0.00  0.00     0.043 H 
ATOM     21  H   LIG d   1      11.222   6.819  -4.955  0.00  0.00     0.048 H 
ATOM     22  H   LIG d   1      11.013   5.222  -5.736  0.00  0.00     0.048 H 
ATOM     23  H   LIG d   1       9.611   6.063  -7.334  0.00  0.00     0.083 H 
ATOM     24  H   LIG d   1       8.740   7.063  -6.150  0.00  0.00     0.083 H 
ATOM     25  H   LIG d   1       9.173   9.382  -7.869  0.00  0.00     0.082 H 
ATOM     26  H   LIG d   1       8.766   8.937  -6.195  0.00  0.00     0.082 H 
ATOM     27  H   LIG d   1      11.308   9.969  -5.893  0.00  0.00     0.033 H 
ATOM     28  H   LIG d   1      10.666  10.973  -7.214  0.00  0.00     0.033 H 
ATOM     29  H   LIG d   1       9.332  12.106  -5.775  0.00  0.00     0.043 H 
ATOM     30  H   LIG d   1       8.657  10.588  -5.124  0.00  0.00     0.043 H 
ATOM     31  H   LIG d   1       8.774  11.273  -2.753  0.00  0.00     0.048 H 
ATOM     32  H   LIG d   1       9.270   9.678  -3.386  0.00  0.00     0.048 H 
ATOM     33  H   LIG d   1      10.373  11.267  -1.105  0.00  0.00     0.083 H 
ATOM     34  H   LIG d   1      11.586  10.508  -2.161  0.00  0.00     0.083 H 
ATOM     35  H   LIG d   1      10.875   9.143  -0.324  0.00  0.00     0.203 HD
ATOM     36  H   LIG d   1      11.279   8.095  -6.444  0.00  0.00     0.204 HD
ENDROOT
BRANCH   8  37
ATOM     37  C   LIG d   1      10.823   7.758  -8.402  0.00  0.00     0.009 C 
ATOM     38  H   LIG d   1      11.355   8.637  -8.764  0.00  0.00     0.087 H 
ATOM     39  H   LIG d   1      11.469   6.883  -8.484  0.00  0.00     0.087 H 
BRANCH  37  40
ATOM     40  C   LIG d   1       9.563   7.542  -9.243  0.00  0.00     0.006 C 
ATOM     41  H   LIG d   1       9.503   6.496  -9.546  0.00  0.00     0.087 H 
ATOM     42  H   LIG d   1       8.684   7.801  -8.654  0.00  0.00     0.087 H 
BRANCH  40  43
ATOM     43  N   LIG d   1       9.620   8.393 -10.439  0.00  0.00     0.222 N 
ATOM     44  H   LIG d   1       9.880   7.835 -11.238  0.00  0.00     0.200 HD
ATOM     45  H   LIG d   1       8.716   8.810 -10.598  0.00  0.00     0.200 HD
ATOM     46  H   LIG d   1      10.306   9.121 -10.300  0.00  0.00     0.200 HD
ENDBRANCH  40  43
ENDBRANCH  37  40
ENDBRANCH   8  37
BRANCH   5  47
ATOM     47  C   LIG d   1       9.378   4.229  -4.495  0.00  0.00     0.039 C 
ATOM     48  H   LIG d   1       8.341   4.011  -4.754  0.00  0.00     0.048 H 
ATOM     49  H   LIG d   1      10.032   3.888  -5.297  0.00  0.00     0.048 H 
BRANCH  47  50
ATOM     50  C   LIG d   1       9.742   3.506  -3.197  0.00  0.00    -0.022 C 
ATOM     51  H   LIG d   1      10.720   3.843  -2.856  0.00  0.00     0.083 H 
ATOM     52  H   LIG d   1       8.994   3.727  -2.435  0.00  0.00     0.083 H 
BRANCH  50  53
ATOM     53  N   LIG d   1       9.780   2.056  -3.439  0.00  0.00     0.219 N 
ATOM     54  H   LIG d   1       9.018   1.614  -2.949  0.00  0.00     0.200 HD
ATOM     55  H   LIG d   1       9.692   1.878  -4.429  0.00  0.00     0.200 HD
ATOM     56  H   LIG d   1      10.656   1.684  -3.106  0.00  0.00     0.200 HD
ENDBRANCH  50  53
ENDBRANCH  47  50
ENDBRANCH   5  47
BRANCH  12  57
ATOM     57  C   LIG d   1      10.393  12.764  -3.827  0.00  0.00    -0.013 C 
ATOM     58  H   LIG d   1       9.513  13.032  -3.242  0.00  0.00     0.039 H 
ATOM     59  H   LIG d   1      11.293  13.001  -3.260  0.00  0.00     0.039 H 
ATOM     60  H   LIG d   1      10.394  13.325  -4.762  0.00  0.00     0.039 H 
ENDBRANCH  12  57
BRANCH   1  61
ATOM     61  C   LIG d   1       8.902   9.064  -0.784  0.00  0.00    -0.043 C 
ATOM     62  H   LIG d   1       8.269   9.279  -1.644  0.00  0.00     0.078 H 
ATOM     63  H   LIG d   1       8.698   8.053  -0.428  0.00  0.00     0.078 H 
ATOM     64  H   LIG d   1       8.689   9.778   0.012  0.00  0.00     0.078 H 
ENDBRANCH   1  61
TORSDOF 8
ENDMDL
