MODEL 1
REMARK VINA RESULT:      -6.9      0.000      0.000
REMARK  2 active torsions:
REMARK  status: ('A' for Active; 'I' for Inactive)
REMARK    1  A    between atoms: C_11  and  C_12 
REMARK    2  A    between atoms: C_11  and  O_19 
ROOT
ATOM      1  C   LIG d   1       4.321  -0.898  -1.747  0.00  0.00    -0.061 A 
ATOM      2  C   LIG d   1       3.767  -1.970  -2.424  0.00  0.00    -0.061 A 
ATOM      3  C   LIG d   1       4.135  -2.232  -3.732  0.00  0.00    -0.051 A 
ATOM      4  C   LIG d   1       5.056  -1.425  -4.363  0.00  0.00     0.045 A 
ATOM      5  C   LIG d   1       5.618  -0.346  -3.687  0.00  0.00     0.071 A 
ATOM      6  C   LIG d   1       5.245  -0.084  -2.370  0.00  0.00    -0.046 A 
ATOM      7  C   LIG d   1       6.573   0.348  -4.599  0.00  0.00     0.276 A 
ATOM      8  C   LIG d   1       8.067   1.534  -5.848  0.00  0.00     0.120 A 
ATOM      9  C   LIG d   1       7.526   0.378  -6.710  0.00  0.00     0.121 A 
ATOM     10  N   LIG d   1       6.585  -0.304  -5.805  0.00  0.00    -0.183 N 
ATOM     11  C   LIG d   1       5.654  -1.438  -5.746  0.00  0.00     0.256 A 
ATOM     12  H   LIG d   1       4.031  -0.699  -0.725  0.00  0.00     0.062 H 
ATOM     13  H   LIG d   1       3.044  -2.603  -1.931  0.00  0.00     0.062 H 
ATOM     14  H   LIG d   1       3.699  -3.069  -4.258  0.00  0.00     0.062 H 
ATOM     15  H   LIG d   1       5.678   0.751  -1.839  0.00  0.00     0.063 H 
ATOM     16  H   LIG d   1       9.145   1.438  -5.716  0.00  0.00     0.078 H 
ATOM     17  H   LIG d   1       7.823   2.495  -6.301  0.00  0.00     0.078 H 
ATOM     18  H   LIG d   1       8.333  -0.295  -7.004  0.00  0.00     0.077 H 
ATOM     19  H   LIG d   1       7.006   0.762  -7.587  0.00  0.00     0.077 H 
ATOM     20  N   LIG d   1       7.378   1.381  -4.559  0.00  0.00    -0.271 N 
ATOM     21  H   LIG d   1       7.509   1.994  -3.746  0.00  0.00     0.304 HD
ENDROOT
BRANCH  11  22
ATOM     22  C   LIG d   1       4.571  -1.273  -6.780  0.00  0.00     0.031 A 
ATOM     23  C   LIG d   1       3.760  -0.153  -6.759  0.00  0.00    -0.050 A 
ATOM     24  C   LIG d   1       2.766  -0.002  -7.707  0.00  0.00    -0.043 A 
ATOM     25  H   LIG d   1       3.904   0.604  -6.002  0.00  0.00     0.062 H 
ATOM     26  C   LIG d   1       2.581  -0.971  -8.676  0.00  0.00     0.041 A 
ATOM     27  H   LIG d   1       2.133   0.874  -7.690  0.00  0.00     0.063 H 
ATOM     28  C   LIG d   1       3.393  -2.091  -8.697  0.00  0.00    -0.043 A 
ATOM     29 CL   LIG d   1       1.334  -0.781  -9.868  0.00  0.00    -0.084 Cl
ATOM     30  C   LIG d   1       4.383  -2.245  -7.744  0.00  0.00    -0.050 A 
ATOM     31  H   LIG d   1       3.250  -2.848  -9.454  0.00  0.00     0.063 H 
ATOM     32  H   LIG d   1       5.014  -3.121  -7.758  0.00  0.00     0.062 H 
ENDBRANCH  11  22
BRANCH  11  33
ATOM     33  O   LIG d   1       6.359  -2.662  -5.964  0.00  0.00    -0.346 OA
ATOM     34  H   LIG d   1       5.813  -3.369  -6.336  0.00  0.00     0.215 HD
ENDBRANCH  11  33
TORSDOF 2
ENDMDL
MODEL 2
REMARK VINA RESULT:      -6.7      1.922      2.266
REMARK  2 active torsions:
REMARK  status: ('A' for Active; 'I' for Inactive)
REMARK    1  A    between atoms: C_11  and  C_12 
REMARK    2  A    between atoms: C_11  and  O_19 
ROOT
ATOM      1  C   LIG d   1       4.311   1.077  -1.940  0.00  0.00    -0.061 A 
ATOM      2  C   LIG d   1       3.163   0.928  -2.698  0.00  0.00    -0.061 A 
ATOM      3  C   LIG d   1       3.184   0.166  -3.853  0.00  0.00    -0.051 A 
ATOM      4  C   LIG d   1       4.352  -0.446  -4.252  0.00  0.00     0.045 A 
ATOM      5  C   LIG d   1       5.511  -0.301  -3.495  0.00  0.00     0.071 A 
ATOM      6  C   LIG d   1       5.486   0.467  -2.332  0.00  0.00    -0.046 A 
ATOM      7  C   LIG d   1       6.613  -1.062  -4.151  0.00  0.00     0.276 A 
ATOM      8  C   LIG d   1       8.413  -2.166  -5.012  0.00  0.00     0.120 A 
ATOM      9  C   LIG d   1       7.208  -2.408  -5.940  0.00  0.00     0.121 A 
ATOM     10  N   LIG d   1       6.124  -1.656  -5.287  0.00  0.00    -0.183 N 
ATOM     11  C   LIG d   1       4.702  -1.319  -5.429  0.00  0.00     0.256 A 
ATOM     12  H   LIG d   1       4.288   1.671  -1.039  0.00  0.00     0.062 H 
ATOM     13  H   LIG d   1       2.247   1.408  -2.386  0.00  0.00     0.062 H 
ATOM     14  H   LIG d   1       2.286   0.053  -4.442  0.00  0.00     0.062 H 
ATOM     15  H   LIG d   1       6.382   0.583  -1.739  0.00  0.00     0.063 H 
ATOM     16  H   LIG d   1       8.773  -3.109  -4.600  0.00  0.00     0.078 H 
ATOM     17  H   LIG d   1       9.213  -1.656  -5.550  0.00  0.00     0.078 H 
ATOM     18  H   LIG d   1       6.965  -3.471  -5.987  0.00  0.00     0.077 H 
ATOM     19  H   LIG d   1       7.404  -2.014  -6.937  0.00  0.00     0.077 H 
ATOM     20  N   LIG d   1       7.883  -1.308  -3.942  0.00  0.00    -0.271 N 
ATOM     21  H   LIG d   1       8.427  -0.955  -3.148  0.00  0.00     0.304 HD
ENDROOT
BRANCH  11  22
ATOM     22  C   LIG d   1       4.474  -0.569  -6.715  0.00  0.00     0.031 A 
ATOM     23  C   LIG d   1       3.213  -0.535  -7.282  0.00  0.00    -0.050 A 
ATOM     24  C   LIG d   1       3.004   0.153  -8.462  0.00  0.00    -0.043 A 
ATOM     25  H   LIG d   1       2.392  -1.046  -6.800  0.00  0.00     0.062 H 
ATOM     26  C   LIG d   1       4.055   0.807  -9.078  0.00  0.00     0.041 A 
ATOM     27  H   LIG d   1       2.018   0.179  -8.903  0.00  0.00     0.063 H 
ATOM     28  C   LIG d   1       5.317   0.772  -8.511  0.00  0.00    -0.043 A 
ATOM     29 CL   LIG d   1       3.792   1.671 -10.560  0.00  0.00    -0.084 Cl
ATOM     30  C   LIG d   1       5.527   0.079  -7.333  0.00  0.00    -0.050 A 
ATOM     31  H   LIG d   1       6.139   1.283  -8.991  0.00  0.00     0.063 H 
ATOM     32  H   LIG d   1       6.513   0.049  -6.893  0.00  0.00     0.062 H 
ENDBRANCH  11  22
BRANCH  11  33
ATOM     33  O   LIG d   1       3.912  -2.510  -5.409  0.00  0.00    -0.346 OA
ATOM     34  H   LIG d   1       3.506  -2.698  -4.551  0.00  0.00     0.215 HD
ENDBRANCH  11  33
TORSDOF 2
ENDMDL
MODEL 3
REMARK VINA RESULT:      -6.5      2.408      2.909
REMARK  2 active torsions:
REMARK  status: ('A' for Active; 'I' for Inactive)
REMARK    1  A    between atoms: C_11  and  C_12 
REMARK    2  A    between atoms: C_11  and  O_19 
ROOT
ATOM      1  C   LIG d   1       4.132   0.728  -1.955  0.00  0.00    -0.061 A 
ATOM      2  C   LIG d   1       4.078  -0.646  -1.804  0.00  0.00    -0.061 A 
ATOM      3  C   LIG d   1       5.022  -1.452  -2.415  0.00  0.00    -0.051 A 
ATOM      4  C   LIG d   1       6.021  -0.885  -3.176  0.00  0.00     0.045 A 
ATOM      5  C   LIG d   1       6.083   0.497  -3.332  0.00  0.00     0.071 A 
ATOM      6  C   LIG d   1       5.129   1.305  -2.715  0.00  0.00    -0.046 A 
ATOM      7  C   LIG d   1       7.251   0.832  -4.196  0.00  0.00     0.276 A 
ATOM      8  C   LIG d   1       8.988   1.531  -5.497  0.00  0.00     0.120 A 
ATOM      9  C   LIG d   1       9.037  -0.006  -5.409  0.00  0.00     0.121 A 
ATOM     10  N   LIG d   1       7.883  -0.331  -4.555  0.00  0.00    -0.183 N 
ATOM     11  C   LIG d   1       7.173  -1.467  -3.955  0.00  0.00     0.256 A 
ATOM     12  H   LIG d   1       3.393   1.352  -1.474  0.00  0.00     0.062 H 
ATOM     13  H   LIG d   1       3.295  -1.092  -1.208  0.00  0.00     0.062 H 
ATOM     14  H   LIG d   1       4.976  -2.525  -2.296  0.00  0.00     0.062 H 
ATOM     15  H   LIG d   1       5.171   2.379  -2.831  0.00  0.00     0.063 H 
ATOM     16  H   LIG d   1       9.895   1.967  -5.077  0.00  0.00     0.078 H 
ATOM     17  H   LIG d   1       8.856   1.850  -6.531  0.00  0.00     0.078 H 
ATOM     18  H   LIG d   1       9.967  -0.335  -4.942  0.00  0.00     0.077 H 
ATOM     19  H   LIG d   1       8.924  -0.452  -6.396  0.00  0.00     0.077 H 
ATOM     20  N   LIG d   1       7.818   1.905  -4.689  0.00  0.00    -0.271 N 
ATOM     21  H   LIG d   1       7.494   2.866  -4.533  0.00  0.00     0.304 HD
ENDROOT
BRANCH  11  22
ATOM     22  C   LIG d   1       6.657  -2.383  -5.034  0.00  0.00     0.031 A 
ATOM     23  C   LIG d   1       5.921  -1.867  -6.086  0.00  0.00    -0.050 A 
ATOM     24  C   LIG d   1       5.448  -2.708  -7.075  0.00  0.00    -0.043 A 
ATOM     25  H   LIG d   1       5.717  -0.808  -6.133  0.00  0.00     0.062 H 
ATOM     26  C   LIG d   1       5.709  -4.064  -7.014  0.00  0.00     0.041 A 
ATOM     27  H   LIG d   1       4.873  -2.304  -7.897  0.00  0.00     0.063 H 
ATOM     28  C   LIG d   1       6.445  -4.580  -5.962  0.00  0.00    -0.043 A 
ATOM     29 CL   LIG d   1       5.115  -5.120  -8.258  0.00  0.00    -0.084 Cl
ATOM     30  C   LIG d   1       6.913  -3.740  -4.970  0.00  0.00    -0.050 A 
ATOM     31  H   LIG d   1       6.649  -5.639  -5.914  0.00  0.00     0.063 H 
ATOM     32  H   LIG d   1       7.484  -4.143  -4.146  0.00  0.00     0.062 H 
ENDBRANCH  11  22
BRANCH  11  33
ATOM     33  O   LIG d   1       8.045  -2.183  -3.079  0.00  0.00    -0.346 OA
ATOM     34  H   LIG d   1       8.425  -1.642  -2.372  0.00  0.00     0.215 HD
ENDBRANCH  11  33
TORSDOF 2
ENDMDL
MODEL 4
REMARK VINA RESULT:      -6.4      3.409      4.485
REMARK  2 active torsions:
REMARK  status: ('A' for Active; 'I' for Inactive)
REMARK    1  A    between atoms: C_11  and  C_12 
REMARK    2  A    between atoms: C_11  and  O_19 
ROOT
ATOM      1  C   LIG d   1       2.757  -0.880  -3.162  0.00  0.00    -0.061 A 
ATOM      2  C   LIG d   1       3.557  -1.544  -2.250  0.00  0.00    -0.061 A 
ATOM      3  C   LIG d   1       4.898  -1.755  -2.523  0.00  0.00    -0.051 A 
ATOM      4  C   LIG d   1       5.438  -1.302  -3.706  0.00  0.00     0.045 A 
ATOM      5  C   LIG d   1       4.639  -0.631  -4.628  0.00  0.00     0.071 A 
ATOM      6  C   LIG d   1       3.289  -0.421  -4.350  0.00  0.00    -0.046 A 
ATOM      7  C   LIG d   1       5.474  -0.257  -5.806  0.00  0.00     0.276 A 
ATOM      8  C   LIG d   1       6.591   0.394  -7.684  0.00  0.00     0.120 A 
ATOM      9  C   LIG d   1       7.585  -0.330  -6.756  0.00  0.00     0.121 A 
ATOM     10  N   LIG d   1       6.756  -0.696  -5.596  0.00  0.00    -0.183 N 
ATOM     11  C   LIG d   1       6.824  -1.368  -4.292  0.00  0.00     0.256 A 
ATOM     12  H   LIG d   1       1.711  -0.717  -2.943  0.00  0.00     0.062 H 
ATOM     13  H   LIG d   1       3.134  -1.900  -1.322  0.00  0.00     0.062 H 
ATOM     14  H   LIG d   1       5.519  -2.274  -1.808  0.00  0.00     0.062 H 
ATOM     15  H   LIG d   1       2.663   0.099  -5.061  0.00  0.00     0.063 H 
ATOM     16  H   LIG d   1       6.905   1.425  -7.849  0.00  0.00     0.078 H 
ATOM     17  H   LIG d   1       6.502  -0.134  -8.634  0.00  0.00     0.078 H 
ATOM     18  H   LIG d   1       8.392   0.341  -6.457  0.00  0.00     0.077 H 
ATOM     19  H   LIG d   1       7.985  -1.220  -7.240  0.00  0.00     0.077 H 
ATOM     20  N   LIG d   1       5.317   0.358  -6.952  0.00  0.00    -0.271 N 
ATOM     21  H   LIG d   1       4.434   0.757  -7.289  0.00  0.00     0.304 HD
ENDROOT
BRANCH  11  22
ATOM     22  C   LIG d   1       7.242  -2.804  -4.472  0.00  0.00     0.031 A 
ATOM     23  C   LIG d   1       8.360  -3.287  -3.817  0.00  0.00    -0.050 A 
ATOM     24  C   LIG d   1       8.743  -4.604  -3.982  0.00  0.00    -0.043 A 
ATOM     25  H   LIG d   1       8.933  -2.633  -3.176  0.00  0.00     0.062 H 
ATOM     26  C   LIG d   1       8.008  -5.441  -4.803  0.00  0.00     0.041 A 
ATOM     27  H   LIG d   1       9.617  -4.981  -3.470  0.00  0.00     0.063 H 
ATOM     28  C   LIG d   1       6.889  -4.957  -5.459  0.00  0.00    -0.043 A 
ATOM     29 CL   LIG d   1       8.489  -7.096  -5.010  0.00  0.00    -0.084 Cl
ATOM     30  C   LIG d   1       6.511  -3.638  -5.298  0.00  0.00    -0.050 A 
ATOM     31  H   LIG d   1       6.315  -5.610  -6.100  0.00  0.00     0.063 H 
ATOM     32  H   LIG d   1       5.640  -3.260  -5.813  0.00  0.00     0.062 H 
ENDBRANCH  11  22
BRANCH  11  33
ATOM     33  O   LIG d   1       7.751  -0.691  -3.440  0.00  0.00    -0.346 OA
ATOM     34  H   LIG d   1       7.742  -1.003  -2.524  0.00  0.00     0.215 HD
ENDBRANCH  11  33
TORSDOF 2
ENDMDL
MODEL 5
REMARK VINA RESULT:      -6.2      2.726      4.015
REMARK  2 active torsions:
REMARK  status: ('A' for Active; 'I' for Inactive)
REMARK    1  A    between atoms: C_11  and  C_12 
REMARK    2  A    between atoms: C_11  and  O_19 
ROOT
ATOM      1  C   LIG d   1       4.368  -0.470  -1.687  0.00  0.00    -0.061 A 
ATOM      2  C   LIG d   1       4.141   0.693  -2.401  0.00  0.00    -0.061 A 
ATOM      3  C   LIG d   1       4.067   0.660  -3.783  0.00  0.00    -0.051 A 
ATOM      4  C   LIG d   1       4.220  -0.535  -4.451  0.00  0.00     0.045 A 
ATOM      5  C   LIG d   1       4.448  -1.710  -3.740  0.00  0.00     0.071 A 
ATOM      6  C   LIG d   1       4.522  -1.672  -2.348  0.00  0.00    -0.046 A 
ATOM      7  C   LIG d   1       4.573  -2.839  -4.704  0.00  0.00     0.276 A 
ATOM      8  C   LIG d   1       4.793  -4.684  -6.028  0.00  0.00     0.120 A 
ATOM      9  C   LIG d   1       4.546  -3.464  -6.935  0.00  0.00     0.121 A 
ATOM     10  N   LIG d   1       4.423  -2.352  -5.978  0.00  0.00    -0.183 N 
ATOM     11  C   LIG d   1       4.195  -0.903  -5.912  0.00  0.00     0.256 A 
ATOM     12  H   LIG d   1       4.424  -0.438  -0.609  0.00  0.00     0.062 H 
ATOM     13  H   LIG d   1       4.022   1.631  -1.878  0.00  0.00     0.062 H 
ATOM     14  H   LIG d   1       3.890   1.571  -4.336  0.00  0.00     0.062 H 
ATOM     15  H   LIG d   1       4.698  -2.580  -1.790  0.00  0.00     0.063 H 
ATOM     16  H   LIG d   1       3.993  -5.416  -6.147  0.00  0.00     0.078 H 
ATOM     17  H   LIG d   1       5.759  -5.136  -6.250  0.00  0.00     0.078 H 
ATOM     18  H   LIG d   1       3.623  -3.587  -7.504  0.00  0.00     0.077 H 
ATOM     19  H   LIG d   1       5.391  -3.304  -7.604  0.00  0.00     0.077 H 
ATOM     20  N   LIG d   1       4.782  -4.132  -4.665  0.00  0.00    -0.271 N 
ATOM     21  H   LIG d   1       4.917  -4.680  -3.808  0.00  0.00     0.304 HD
ENDROOT
BRANCH  11  22
ATOM     22  C   LIG d   1       5.289  -0.174  -6.647  0.00  0.00     0.031 A 
ATOM     23  C   LIG d   1       6.546  -0.059  -6.081  0.00  0.00    -0.050 A 
ATOM     24  C   LIG d   1       7.549   0.610  -6.755  0.00  0.00    -0.043 A 
ATOM     25  H   LIG d   1       6.742  -0.493  -5.111  0.00  0.00     0.062 H 
ATOM     26  C   LIG d   1       7.298   1.166  -7.996  0.00  0.00     0.041 A 
ATOM     27  H   LIG d   1       8.531   0.699  -6.312  0.00  0.00     0.063 H 
ATOM     28  C   LIG d   1       6.040   1.050  -8.563  0.00  0.00    -0.043 A 
ATOM     29 CL   LIG d   1       8.558   2.006  -8.844  0.00  0.00    -0.084 Cl
ATOM     30  C   LIG d   1       5.035   0.386  -7.885  0.00  0.00    -0.050 A 
ATOM     31  H   LIG d   1       5.843   1.484  -9.532  0.00  0.00     0.063 H 
ATOM     32  H   LIG d   1       4.053   0.300  -8.326  0.00  0.00     0.062 H 
ENDBRANCH  11  22
BRANCH  11  33
ATOM     33  O   LIG d   1       2.924  -0.580  -6.478  0.00  0.00    -0.346 OA
ATOM     34  H   LIG d   1       2.876  -0.710  -7.436  0.00  0.00     0.215 HD
ENDBRANCH  11  33
TORSDOF 2
ENDMDL
MODEL 6
REMARK VINA RESULT:      -6.1      3.112      4.238
REMARK  2 active torsions:
REMARK  status: ('A' for Active; 'I' for Inactive)
REMARK    1  A    between atoms: C_11  and  C_12 
REMARK    2  A    between atoms: C_11  and  O_19 
ROOT
ATOM      1  C   LIG d   1       3.285  -0.045  -2.377  0.00  0.00    -0.061 A 
ATOM      2  C   LIG d   1       4.465  -0.667  -2.010  0.00  0.00    -0.061 A 
ATOM      3  C   LIG d   1       5.296  -1.210  -2.974  0.00  0.00    -0.051 A 
ATOM      4  C   LIG d   1       4.949  -1.130  -4.305  0.00  0.00     0.045 A 
ATOM      5  C   LIG d   1       3.764  -0.505  -4.683  0.00  0.00     0.071 A 
ATOM      6  C   LIG d   1       2.929   0.040  -3.708  0.00  0.00    -0.046 A 
ATOM      7  C   LIG d   1       3.641  -0.563  -6.167  0.00  0.00     0.276 A 
ATOM      8  C   LIG d   1       3.285  -0.557  -8.420  0.00  0.00     0.120 A 
ATOM      9  C   LIG d   1       4.619  -1.274  -8.143  0.00  0.00     0.121 A 
ATOM     10  N   LIG d   1       4.735  -1.214  -6.676  0.00  0.00    -0.183 N 
ATOM     11  C   LIG d   1       5.615  -1.608  -5.569  0.00  0.00     0.256 A 
ATOM     12  H   LIG d   1       2.640   0.378  -1.620  0.00  0.00     0.062 H 
ATOM     13  H   LIG d   1       4.737  -0.731  -0.967  0.00  0.00     0.062 H 
ATOM     14  H   LIG d   1       6.216  -1.696  -2.683  0.00  0.00     0.062 H 
ATOM     15  H   LIG d   1       2.008   0.528  -3.994  0.00  0.00     0.063 H 
ATOM     16  H   LIG d   1       3.448   0.328  -9.035  0.00  0.00     0.078 H 
ATOM     17  H   LIG d   1       2.581  -1.234  -8.905  0.00  0.00     0.078 H 
ATOM     18  H   LIG d   1       5.447  -0.745  -8.617  0.00  0.00     0.077 H 
ATOM     19  H   LIG d   1       4.579  -2.308  -8.483  0.00  0.00     0.077 H 
ATOM     20  N   LIG d   1       2.795  -0.172  -7.088  0.00  0.00    -0.271 N 
ATOM     21  H   LIG d   1       1.919   0.331  -6.907  0.00  0.00     0.304 HD
ENDROOT
BRANCH  11  22
ATOM     22  C   LIG d   1       5.768  -3.106  -5.539  0.00  0.00     0.031 A 
ATOM     23  C   LIG d   1       4.648  -3.917  -5.565  0.00  0.00    -0.050 A 
ATOM     24  C   LIG d   1       4.788  -5.291  -5.536  0.00  0.00    -0.043 A 
ATOM     25  H   LIG d   1       3.663  -3.474  -5.608  0.00  0.00     0.062 H 
ATOM     26  C   LIG d   1       6.048  -5.857  -5.481  0.00  0.00     0.041 A 
ATOM     27  H   LIG d   1       3.912  -5.923  -5.557  0.00  0.00     0.063 H 
ATOM     28  C   LIG d   1       7.169  -5.046  -5.455  0.00  0.00    -0.043 A 
ATOM     29 CL   LIG d   1       6.225  -7.584  -5.446  0.00  0.00    -0.084 Cl
ATOM     30  C   LIG d   1       7.028  -3.671  -5.477  0.00  0.00    -0.050 A 
ATOM     31  H   LIG d   1       8.154  -5.488  -5.412  0.00  0.00     0.063 H 
ATOM     32  H   LIG d   1       7.903  -3.038  -5.453  0.00  0.00     0.062 H 
ENDBRANCH  11  22
BRANCH  11  33
ATOM     33  O   LIG d   1       6.894  -0.987  -5.714  0.00  0.00    -0.346 OA
ATOM     34  H   LIG d   1       7.581  -1.364  -5.146  0.00  0.00     0.215 HD
ENDBRANCH  11  33
TORSDOF 2
ENDMDL
MODEL 7
REMARK VINA RESULT:      -6.1      3.099      4.711
REMARK  2 active torsions:
REMARK  status: ('A' for Active; 'I' for Inactive)
REMARK    1  A    between atoms: C_11  and  C_12 
REMARK    2  A    between atoms: C_11  and  O_19 
ROOT
ATOM      1  C   LIG d   1       4.402  -0.667  -1.577  0.00  0.00    -0.061 A 
ATOM      2  C   LIG d   1       4.924   0.529  -2.037  0.00  0.00    -0.061 A 
ATOM      3  C   LIG d   1       5.297   0.663  -3.363  0.00  0.00    -0.051 A 
ATOM      4  C   LIG d   1       5.150  -0.398  -4.229  0.00  0.00     0.045 A 
ATOM      5  C   LIG d   1       4.625  -1.605  -3.774  0.00  0.00     0.071 A 
ATOM      6  C   LIG d   1       4.250  -1.735  -2.438  0.00  0.00    -0.046 A 
ATOM      7  C   LIG d   1       4.578  -2.568  -4.911  0.00  0.00     0.276 A 
ATOM      8  C   LIG d   1       4.432  -4.171  -6.527  0.00  0.00     0.120 A 
ATOM      9  C   LIG d   1       5.024  -2.898  -7.160  0.00  0.00     0.121 A 
ATOM     10  N   LIG d   1       5.068  -1.951  -6.034  0.00  0.00    -0.183 N 
ATOM     11  C   LIG d   1       5.453  -0.575  -5.694  0.00  0.00     0.256 A 
ATOM     12  H   LIG d   1       4.111  -0.766  -0.541  0.00  0.00     0.062 H 
ATOM     13  H   LIG d   1       5.040   1.361  -1.358  0.00  0.00     0.062 H 
ATOM     14  H   LIG d   1       5.704   1.598  -3.717  0.00  0.00     0.062 H 
ATOM     15  H   LIG d   1       3.842  -2.669  -2.078  0.00  0.00     0.063 H 
ATOM     16  H   LIG d   1       3.489  -4.433  -7.007  0.00  0.00     0.078 H 
ATOM     17  H   LIG d   1       5.139  -4.997  -6.600  0.00  0.00     0.078 H 
ATOM     18  H   LIG d   1       4.374  -2.524  -7.953  0.00  0.00     0.077 H 
ATOM     19  H   LIG d   1       6.026  -3.088  -7.543  0.00  0.00     0.077 H 
ATOM     20  N   LIG d   1       4.207  -3.807  -5.120  0.00  0.00    -0.271 N 
ATOM     21  H   LIG d   1       3.816  -4.432  -4.407  0.00  0.00     0.304 HD
ENDROOT
BRANCH  11  22
ATOM     22  C   LIG d   1       6.924  -0.374  -5.946  0.00  0.00     0.031 A 
ATOM     23  C   LIG d   1       7.347   0.597  -6.836  0.00  0.00    -0.050 A 
ATOM     24  C   LIG d   1       8.697   0.782  -7.067  0.00  0.00    -0.043 A 
ATOM     25  H   LIG d   1       6.621   1.210  -7.350  0.00  0.00     0.062 H 
ATOM     26  C   LIG d   1       9.626  -0.004  -6.410  0.00  0.00     0.041 A 
ATOM     27  H   LIG d   1       9.026   1.541  -7.763  0.00  0.00     0.063 H 
ATOM     28  C   LIG d   1       9.202  -0.975  -5.519  0.00  0.00    -0.043 A 
ATOM     29 CL   LIG d   1      11.321   0.229  -6.699  0.00  0.00    -0.084 Cl
ATOM     30  C   LIG d   1       7.852  -1.163  -5.293  0.00  0.00    -0.050 A 
ATOM     31  H   LIG d   1       9.927  -1.589  -5.005  0.00  0.00     0.063 H 
ATOM     32  H   LIG d   1       7.522  -1.924  -4.601  0.00  0.00     0.062 H 
ENDBRANCH  11  22
BRANCH  11  33
ATOM     33  O   LIG d   1       4.691   0.353  -6.469  0.00  0.00    -0.346 OA
ATOM     34  H   LIG d   1       5.227   0.920  -7.042  0.00  0.00     0.215 HD
ENDBRANCH  11  33
TORSDOF 2
ENDMDL
MODEL 8
REMARK VINA RESULT:      -6.1      2.903      5.658
REMARK  2 active torsions:
REMARK  status: ('A' for Active; 'I' for Inactive)
REMARK    1  A    between atoms: C_11  and  C_12 
REMARK    2  A    between atoms: C_11  and  O_19 
ROOT
ATOM      1  C   LIG d   1       2.087   0.286  -9.738  0.00  0.00    -0.061 A 
ATOM      2  C   LIG d   1       2.915   1.265  -9.218  0.00  0.00    -0.061 A 
ATOM      3  C   LIG d   1       3.931   0.925  -8.342  0.00  0.00    -0.051 A 
ATOM      4  C   LIG d   1       4.120  -0.393  -7.987  0.00  0.00     0.045 A 
ATOM      5  C   LIG d   1       3.292  -1.384  -8.507  0.00  0.00     0.071 A 
ATOM      6  C   LIG d   1       2.269  -1.037  -9.389  0.00  0.00    -0.046 A 
ATOM      7  C   LIG d   1       3.718  -2.703  -7.960  0.00  0.00     0.276 A 
ATOM      8  C   LIG d   1       4.227  -4.802  -7.226  0.00  0.00     0.120 A 
ATOM      9  C   LIG d   1       5.212  -3.811  -6.578  0.00  0.00     0.121 A 
ATOM     10  N   LIG d   1       4.787  -2.510  -7.122  0.00  0.00    -0.183 N 
ATOM     11  C   LIG d   1       5.109  -1.079  -7.080  0.00  0.00     0.256 A 
ATOM     12  H   LIG d   1       1.296   0.557 -10.422  0.00  0.00     0.062 H 
ATOM     13  H   LIG d   1       2.767   2.298  -9.495  0.00  0.00     0.062 H 
ATOM     14  H   LIG d   1       4.575   1.692  -7.937  0.00  0.00     0.062 H 
ATOM     15  H   LIG d   1       1.623  -1.801  -9.797  0.00  0.00     0.063 H 
ATOM     16  H   LIG d   1       4.762  -5.523  -7.844  0.00  0.00     0.078 H 
ATOM     17  H   LIG d   1       3.643  -5.315  -6.461  0.00  0.00     0.078 H 
ATOM     18  H   LIG d   1       6.237  -4.036  -6.876  0.00  0.00     0.077 H 
ATOM     19  H   LIG d   1       5.115  -3.825  -5.493  0.00  0.00     0.077 H 
ATOM     20  N   LIG d   1       3.358  -3.959  -8.060  0.00  0.00    -0.271 N 
ATOM     21  H   LIG d   1       2.583  -4.304  -8.637  0.00  0.00     0.304 HD
ENDROOT
BRANCH  11  22
ATOM     22  C   LIG d   1       4.967  -0.559  -5.673  0.00  0.00     0.031 A 
ATOM     23  C   LIG d   1       3.711  -0.405  -5.116  0.00  0.00    -0.050 A 
ATOM     24  C   LIG d   1       3.581   0.072  -3.826  0.00  0.00    -0.043 A 
ATOM     25  H   LIG d   1       2.832  -0.660  -5.689  0.00  0.00     0.062 H 
ATOM     26  C   LIG d   1       4.707   0.398  -3.091  0.00  0.00     0.041 A 
ATOM     27  H   LIG d   1       2.599   0.191  -3.391  0.00  0.00     0.063 H 
ATOM     28  C   LIG d   1       5.964   0.245  -3.650  0.00  0.00    -0.043 A 
ATOM     29 CL   LIG d   1       4.544   0.997  -1.470  0.00  0.00    -0.084 Cl
ATOM     30  C   LIG d   1       6.093  -0.227  -4.942  0.00  0.00    -0.050 A 
ATOM     31  H   LIG d   1       6.843   0.499  -3.077  0.00  0.00     0.063 H 
ATOM     32  H   LIG d   1       7.074  -0.343  -5.379  0.00  0.00     0.062 H 
ENDBRANCH  11  22
BRANCH  11  33
ATOM     33  O   LIG d   1       6.441  -0.862  -7.551  0.00  0.00    -0.346 OA
ATOM     34  H   LIG d   1       7.060  -0.578  -6.864  0.00  0.00     0.215 HD
ENDBRANCH  11  33
TORSDOF 2
ENDMDL
MODEL 9
REMARK VINA RESULT:      -5.9      3.135      5.134
REMARK  2 active torsions:
REMARK  status: ('A' for Active; 'I' for Inactive)
REMARK    1  A    between atoms: C_11  and  C_12 
REMARK    2  A    between atoms: C_11  and  O_19 
ROOT
ATOM      1  C   LIG d   1       2.950  -0.010  -8.348  0.00  0.00    -0.061 A 
ATOM      2  C   LIG d   1       3.554  -1.243  -8.514  0.00  0.00    -0.061 A 
ATOM      3  C   LIG d   1       4.106  -1.901  -7.428  0.00  0.00    -0.051 A 
ATOM      4  C   LIG d   1       4.054  -1.326  -6.177  0.00  0.00     0.045 A 
ATOM      5  C   LIG d   1       3.447  -0.085  -6.002  0.00  0.00     0.071 A 
ATOM      6  C   LIG d   1       2.893   0.574  -7.099  0.00  0.00    -0.046 A 
ATOM      7  C   LIG d   1       3.534   0.294  -4.563  0.00  0.00     0.276 A 
ATOM      8  C   LIG d   1       3.573   1.037  -2.407  0.00  0.00     0.120 A 
ATOM      9  C   LIG d   1       4.272  -0.334  -2.459  0.00  0.00     0.121 A 
ATOM     10  N   LIG d   1       4.183  -0.703  -3.881  0.00  0.00    -0.183 N 
ATOM     11  C   LIG d   1       4.548  -1.768  -4.824  0.00  0.00     0.256 A 
ATOM     12  H   LIG d   1       2.520   0.498  -9.199  0.00  0.00     0.062 H 
ATOM     13  H   LIG d   1       3.596  -1.695  -9.494  0.00  0.00     0.062 H 
ATOM     14  H   LIG d   1       4.577  -2.863  -7.562  0.00  0.00     0.062 H 
ATOM     15  H   LIG d   1       2.420   1.537  -6.970  0.00  0.00     0.063 H 
ATOM     16  H   LIG d   1       2.698   0.996  -1.759  0.00  0.00     0.078 H 
ATOM     17  H   LIG d   1       4.265   1.806  -2.063  0.00  0.00     0.078 H 
ATOM     18  H   LIG d   1       3.743  -1.060  -1.839  0.00  0.00     0.077 H 
ATOM     19  H   LIG d   1       5.312  -0.248  -2.147  0.00  0.00     0.077 H 
ATOM     20  N   LIG d   1       3.168   1.293  -3.798  0.00  0.00    -0.271 N 
ATOM     21  H   LIG d   1       2.671   2.130  -4.121  0.00  0.00     0.304 HD
ENDROOT
BRANCH  11  22
ATOM     22  C   LIG d   1       6.045  -1.943  -4.852  0.00  0.00     0.031 A 
ATOM     23  C   LIG d   1       6.860  -0.874  -5.175  0.00  0.00    -0.050 A 
ATOM     24  C   LIG d   1       8.232  -1.034  -5.200  0.00  0.00    -0.043 A 
ATOM     25  H   LIG d   1       6.424   0.087  -5.406  0.00  0.00     0.062 H 
ATOM     26  C   LIG d   1       8.791  -2.264  -4.905  0.00  0.00     0.041 A 
ATOM     27  H   LIG d   1       8.869  -0.198  -5.453  0.00  0.00     0.063 H 
ATOM     28  C   LIG d   1       7.974  -3.334  -4.582  0.00  0.00    -0.043 A 
ATOM     29 CL   LIG d   1      10.515  -2.466  -4.936  0.00  0.00    -0.084 Cl
ATOM     30  C   LIG d   1       6.602  -3.174  -4.562  0.00  0.00    -0.050 A 
ATOM     31  H   LIG d   1       8.410  -4.295  -4.351  0.00  0.00     0.063 H 
ATOM     32  H   LIG d   1       5.964  -4.010  -4.314  0.00  0.00     0.062 H 
ENDBRANCH  11  22
BRANCH  11  33
ATOM     33  O   LIG d   1       3.918  -2.994  -4.448  0.00  0.00    -0.346 OA
ATOM     34  H   LIG d   1       4.501  -3.608  -3.979  0.00  0.00     0.215 HD
ENDBRANCH  11  33
TORSDOF 2
ENDMDL
