MODEL 1
REMARK VINA RESULT:      -5.3      0.000      0.000
REMARK  6 active torsions:
REMARK  status: ('A' for Active; 'I' for Inactive)
REMARK    1  A    between atoms: C_1  and  C_2 
REMARK    2  A    between atoms: C_2  and  C_23 
REMARK    3  A    between atoms: C_5  and  C_8 
REMARK    4  A    between atoms: C_10  and  O_22 
REMARK    5  A    between atoms: C_18  and  C_20 
REMARK    6  A    between atoms: C_18  and  C_21 
ROOT
ATOM      1  C   LIG d   1       5.579  -0.902  -6.937  0.00  0.00     0.118 C 
ATOM      2  H   LIG d   1       6.189  -1.806  -6.933  0.00  0.00     0.065 H 
ATOM      3  C   LIG d   1       4.156  -1.215  -6.389  0.00  0.00     0.115 C 
ATOM      4  H   LIG d   1       3.397  -1.031  -7.150  0.00  0.00     0.065 H 
ATOM      5  C   LIG d   1       4.020  -0.229  -5.244  0.00  0.00     0.141 C 
ATOM      6  H   LIG d   1       3.660   0.734  -5.605  0.00  0.00     0.068 H 
ATOM      7  C   LIG d   1       5.535  -0.142  -4.815  0.00  0.00     0.191 C 
ATOM      8  H   LIG d   1       5.835  -1.127  -4.456  0.00  0.00     0.094 H 
ATOM      9  O   LIG d   1       6.158   0.096  -6.043  0.00  0.00    -0.340 OA
ATOM     10  O   LIG d   1       5.410   0.705  -3.705  0.00  0.00    -0.318 OA
ATOM     11  C   LIG d   1       4.252   0.141  -3.018  0.00  0.00     0.168 C 
ATOM     12  O   LIG d   1       3.443  -0.558  -4.003  0.00  0.00    -0.338 OA
ENDROOT
BRANCH   1  13
ATOM     13  C   LIG d   1       5.482  -0.341  -8.357  0.00  0.00     0.114 C 
ATOM     14  C   LIG d   1       5.066  -1.449  -9.357  0.00  0.00     0.080 C 
ATOM     15  O   LIG d   1       4.427  -0.673 -10.402  0.00  0.00    -0.346 OA
ATOM     16  H   LIG d   1       5.939  -1.979  -9.738  0.00  0.00     0.059 H 
ATOM     17  H   LIG d   1       4.360  -2.142  -8.899  0.00  0.00     0.059 H 
ATOM     18  C   LIG d   1       3.755   0.394  -9.714  0.00  0.00     0.165 C 
ATOM     19  O   LIG d   1       4.405   0.614  -8.455  0.00  0.00    -0.341 OA
ATOM     20  H   LIG d   1       6.427   0.112  -8.656  0.00  0.00     0.065 H 
BRANCH  18  21
ATOM     21  C   LIG d   1       2.292   0.013  -9.478  0.00  0.00    -0.011 C 
ATOM     22  H   LIG d   1       2.136  -0.185  -8.418  0.00  0.00     0.028 H 
ATOM     23  H   LIG d   1       1.647   0.833  -9.792  0.00  0.00     0.028 H 
ATOM     24  H   LIG d   1       2.052  -0.880 -10.054  0.00  0.00     0.028 H 
ENDBRANCH  18  21
BRANCH  18  25
ATOM     25  C   LIG d   1       3.821   1.670 -10.556  0.00  0.00    -0.011 C 
ATOM     26  H   LIG d   1       3.494   1.453 -11.572  0.00  0.00     0.028 H 
ATOM     27  H   LIG d   1       3.170   2.428 -10.119  0.00  0.00     0.028 H 
ATOM     28  H   LIG d   1       4.846   2.039 -10.576  0.00  0.00     0.028 H 
ENDBRANCH  18  25
ENDBRANCH   1  13
BRANCH   3  29
ATOM     29  O   LIG d   1       4.080  -2.560  -5.911  0.00  0.00    -0.386 OA
ATOM     30  H   LIG d   1       3.255  -2.769  -5.452  0.00  0.00     0.210 HD
ENDBRANCH   3  29
BRANCH  11  31
ATOM     31  C   LIG d   1       4.718  -0.840  -1.940  0.00  0.00    -0.011 C 
ATOM     32  H   LIG d   1       5.608  -0.446  -1.450  0.00  0.00     0.028 H 
ATOM     33  H   LIG d   1       3.926  -0.973  -1.203  0.00  0.00     0.028 H 
ATOM     34  H   LIG d   1       4.952  -1.801  -2.400  0.00  0.00     0.028 H 
ENDBRANCH  11  31
BRANCH  11  35
ATOM     35  C   LIG d   1       3.433   1.263  -2.377  0.00  0.00    -0.011 C 
ATOM     36  H   LIG d   1       3.099   1.956  -3.149  0.00  0.00     0.028 H 
ATOM     37  H   LIG d   1       2.566   0.837  -1.872  0.00  0.00     0.028 H 
ATOM     38  H   LIG d   1       4.050   1.795  -1.654  0.00  0.00     0.028 H 
ENDBRANCH  11  35
TORSDOF 6
ENDMDL
MODEL 2
REMARK VINA RESULT:      -5.3      1.368      2.377
REMARK  6 active torsions:
REMARK  status: ('A' for Active; 'I' for Inactive)
REMARK    1  A    between atoms: C_1  and  C_2 
REMARK    2  A    between atoms: C_2  and  C_23 
REMARK    3  A    between atoms: C_5  and  C_8 
REMARK    4  A    between atoms: C_10  and  O_22 
REMARK    5  A    between atoms: C_18  and  C_20 
REMARK    6  A    between atoms: C_18  and  C_21 
ROOT
ATOM      1  C   LIG d   1       3.772   0.055  -7.097  0.00  0.00     0.118 C 
ATOM      2  H   LIG d   1       3.916   1.102  -7.368  0.00  0.00     0.065 H 
ATOM      3  C   LIG d   1       5.065  -0.509  -6.437  0.00  0.00     0.115 C 
ATOM      4  H   LIG d   1       5.480  -1.323  -7.032  0.00  0.00     0.065 H 
ATOM      5  C   LIG d   1       4.556  -1.021  -5.103  0.00  0.00     0.141 C 
ATOM      6  H   LIG d   1       4.173  -2.036  -5.200  0.00  0.00     0.068 H 
ATOM      7  C   LIG d   1       3.383   0.009  -4.876  0.00  0.00     0.191 C 
ATOM      8  H   LIG d   1       3.826   1.000  -4.778  0.00  0.00     0.094 H 
ATOM      9  O   LIG d   1       2.712  -0.063  -6.100  0.00  0.00    -0.340 OA
ATOM     10  O   LIG d   1       2.958  -0.406  -3.607  0.00  0.00    -0.318 OA
ATOM     11  C   LIG d   1       4.224  -0.582  -2.902  0.00  0.00     0.168 C 
ATOM     12  O   LIG d   1       5.255  -0.851  -3.892  0.00  0.00    -0.338 OA
ENDROOT
BRANCH   1  13
ATOM     13  C   LIG d   1       3.417  -0.764  -8.340  0.00  0.00     0.114 C 
ATOM     14  C   LIG d   1       2.121  -0.226  -8.998  0.00  0.00     0.080 C 
ATOM     15  O   LIG d   1       2.306  -0.632 -10.378  0.00  0.00    -0.346 OA
ATOM     16  H   LIG d   1       1.239  -0.696  -8.564  0.00  0.00     0.059 H 
ATOM     17  H   LIG d   1       2.064   0.859  -8.916  0.00  0.00     0.059 H 
ATOM     18  C   LIG d   1       3.715  -0.494 -10.621  0.00  0.00     0.165 C 
ATOM     19  O   LIG d   1       4.410  -0.583  -9.370  0.00  0.00    -0.341 OA
ATOM     20  H   LIG d   1       3.312  -1.818  -8.087  0.00  0.00     0.065 H 
BRANCH  18  21
ATOM     21  C   LIG d   1       3.994   0.865 -11.267  0.00  0.00    -0.011 C 
ATOM     22  H   LIG d   1       3.050   1.343 -11.527  0.00  0.00     0.028 H 
ATOM     23  H   LIG d   1       4.540   1.496 -10.565  0.00  0.00     0.028 H 
ATOM     24  H   LIG d   1       4.590   0.723 -12.168  0.00  0.00     0.028 H 
ENDBRANCH  18  21
BRANCH  18  25
ATOM     25  C   LIG d   1       4.188  -1.610 -11.552  0.00  0.00    -0.011 C 
ATOM     26  H   LIG d   1       3.924  -1.363 -12.581  0.00  0.00     0.028 H 
ATOM     27  H   LIG d   1       5.270  -1.718 -11.471  0.00  0.00     0.028 H 
ATOM     28  H   LIG d   1       3.708  -2.547 -11.270  0.00  0.00     0.028 H 
ENDBRANCH  18  25
ENDBRANCH   1  13
BRANCH   3  29
ATOM     29  O   LIG d   1       6.032   0.526  -6.249  0.00  0.00    -0.386 OA
ATOM     30  H   LIG d   1       6.948   0.225  -6.313  0.00  0.00     0.210 HD
ENDBRANCH   3  29
BRANCH  11  31
ATOM     31  C   LIG d   1       4.569   0.693  -2.130  0.00  0.00    -0.011 C 
ATOM     32  H   LIG d   1       3.666   1.095  -1.671  0.00  0.00     0.028 H 
ATOM     33  H   LIG d   1       5.298   0.461  -1.353  0.00  0.00     0.028 H 
ATOM     34  H   LIG d   1       4.987   1.431  -2.814  0.00  0.00     0.028 H 
ENDBRANCH  11  31
BRANCH  11  35
ATOM     35  C   LIG d   1       4.117  -1.761  -1.933  0.00  0.00    -0.011 C 
ATOM     36  H   LIG d   1       4.466  -1.453  -0.947  0.00  0.00     0.028 H 
ATOM     37  H   LIG d   1       3.078  -2.084  -1.866  0.00  0.00     0.028 H 
ATOM     38  H   LIG d   1       4.731  -2.585  -2.294  0.00  0.00     0.028 H 
ENDBRANCH  11  35
TORSDOF 6
ENDMDL
MODEL 3
REMARK VINA RESULT:      -5.3      1.748      6.123
REMARK  6 active torsions:
REMARK  status: ('A' for Active; 'I' for Inactive)
REMARK    1  A    between atoms: C_1  and  C_2 
REMARK    2  A    between atoms: C_2  and  C_23 
REMARK    3  A    between atoms: C_5  and  C_8 
REMARK    4  A    between atoms: C_10  and  O_22 
REMARK    5  A    between atoms: C_18  and  C_20 
REMARK    6  A    between atoms: C_18  and  C_21 
ROOT
ATOM      1  C   LIG d   1       4.198  -0.233  -6.753  0.00  0.00     0.118 C 
ATOM      2  H   LIG d   1       5.114   0.348  -6.866  0.00  0.00     0.065 H 
ATOM      3  C   LIG d   1       2.991   0.549  -7.350  0.00  0.00     0.115 C 
ATOM      4  H   LIG d   1       2.254   0.774  -6.578  0.00  0.00     0.065 H 
ATOM      5  C   LIG d   1       2.430  -0.433  -8.360  0.00  0.00     0.141 C 
ATOM      6  H   LIG d   1       1.735  -1.123  -7.883  0.00  0.00     0.068 H 
ATOM      7  C   LIG d   1       3.769  -1.164  -8.761  0.00  0.00     0.191 C 
ATOM      8  H   LIG d   1       4.416  -0.430  -9.239  0.00  0.00     0.094 H 
ATOM      9  O   LIG d   1       4.299  -1.479  -7.506  0.00  0.00    -0.340 OA
ATOM     10  O   LIG d   1       3.273  -2.020  -9.754  0.00  0.00    -0.318 OA
ATOM     11  C   LIG d   1       2.403  -1.131 -10.518  0.00  0.00     0.168 C 
ATOM     12  O   LIG d   1       1.977  -0.055  -9.638  0.00  0.00    -0.338 OA
ENDROOT
BRANCH   1  13
ATOM     13  C   LIG d   1       3.947  -0.534  -5.273  0.00  0.00     0.114 C 
ATOM     14  C   LIG d   1       4.997  -1.538  -4.734  0.00  0.00     0.080 C 
ATOM     15  O   LIG d   1       5.020  -1.205  -3.323  0.00  0.00    -0.346 OA
ATOM     16  H   LIG d   1       4.670  -2.566  -4.891  0.00  0.00     0.059 H 
ATOM     17  H   LIG d   1       5.972  -1.366  -5.191  0.00  0.00     0.059 H 
ATOM     18  C   LIG d   1       4.842   0.220  -3.274  0.00  0.00     0.165 C 
ATOM     19  O   LIG d   1       4.172   0.643  -4.469  0.00  0.00    -0.341 OA
ATOM     20  H   LIG d   1       2.938  -0.915  -5.125  0.00  0.00     0.065 H 
BRANCH  18  21
ATOM     21  C   LIG d   1       6.206   0.905  -3.180  0.00  0.00    -0.011 C 
ATOM     22  H   LIG d   1       6.686   0.630  -2.241  0.00  0.00     0.028 H 
ATOM     23  H   LIG d   1       6.831   0.586  -4.014  0.00  0.00     0.028 H 
ATOM     24  H   LIG d   1       6.073   1.986  -3.218  0.00  0.00     0.028 H 
ENDBRANCH  18  21
BRANCH  18  25
ATOM     25  C   LIG d   1       3.998   0.591  -2.054  0.00  0.00    -0.011 C 
ATOM     26  H   LIG d   1       3.804   1.663  -2.057  0.00  0.00     0.028 H 
ATOM     27  H   LIG d   1       3.051   0.051  -2.088  0.00  0.00     0.028 H 
ATOM     28  H   LIG d   1       4.536   0.322  -1.144  0.00  0.00     0.028 H 
ENDBRANCH  18  25
ENDBRANCH   1  13
BRANCH   3  29
ATOM     29  O   LIG d   1       3.431   1.746  -7.996  0.00  0.00    -0.386 OA
ATOM     30  H   LIG d   1       3.795   1.604  -8.880  0.00  0.00     0.210 HD
ENDBRANCH   3  29
BRANCH  11  31
ATOM     31  C   LIG d   1       3.172  -0.553 -11.709  0.00  0.00    -0.011 C 
ATOM     32  H   LIG d   1       3.900  -1.283 -12.060  0.00  0.00     0.028 H 
ATOM     33  H   LIG d   1       2.474  -0.321 -12.513  0.00  0.00     0.028 H 
ATOM     34  H   LIG d   1       3.688   0.356 -11.401  0.00  0.00     0.028 H 
ENDBRANCH  11  31
BRANCH  11  35
ATOM     35  C   LIG d   1       1.182  -1.906 -11.018  0.00  0.00    -0.011 C 
ATOM     36  H   LIG d   1       0.623  -2.291 -10.166  0.00  0.00     0.028 H 
ATOM     37  H   LIG d   1       0.544  -1.241 -11.600  0.00  0.00     0.028 H 
ATOM     38  H   LIG d   1       1.509  -2.736 -11.643  0.00  0.00     0.028 H 
ENDBRANCH  11  35
TORSDOF 6
ENDMDL
MODEL 4
REMARK VINA RESULT:      -5.2      1.610      5.700
REMARK  6 active torsions:
REMARK  status: ('A' for Active; 'I' for Inactive)
REMARK    1  A    between atoms: C_1  and  C_2 
REMARK    2  A    between atoms: C_2  and  C_23 
REMARK    3  A    between atoms: C_5  and  C_8 
REMARK    4  A    between atoms: C_10  and  O_22 
REMARK    5  A    between atoms: C_18  and  C_20 
REMARK    6  A    between atoms: C_18  and  C_21 
ROOT
ATOM      1  C   LIG d   1       3.117  -0.370  -5.930  0.00  0.00     0.118 C 
ATOM      2  H   LIG d   1       2.161  -0.781  -6.257  0.00  0.00     0.065 H 
ATOM      3  C   LIG d   1       4.287  -1.246  -6.465  0.00  0.00     0.115 C 
ATOM      4  H   LIG d   1       4.853  -1.682  -5.641  0.00  0.00     0.065 H 
ATOM      5  C   LIG d   1       5.130  -0.240  -7.225  0.00  0.00     0.141 C 
ATOM      6  H   LIG d   1       5.826   0.265  -6.555  0.00  0.00     0.068 H 
ATOM      7  C   LIG d   1       3.984   0.737  -7.693  0.00  0.00     0.191 C 
ATOM      8  H   LIG d   1       3.328   0.182  -8.363  0.00  0.00     0.094 H 
ATOM      9  O   LIG d   1       3.306   0.965  -6.491  0.00  0.00    -0.340 OA
ATOM     10  O   LIG d   1       4.743   1.627  -8.464  0.00  0.00    -0.318 OA
ATOM     11  C   LIG d   1       5.597   0.721  -9.226  0.00  0.00     0.168 C 
ATOM     12  O   LIG d   1       5.727  -0.514  -8.470  0.00  0.00    -0.338 OA
ENDROOT
BRANCH   1  13
ATOM     13  C   LIG d   1       3.164  -0.307  -4.402  0.00  0.00     0.114 C 
ATOM     14  C   LIG d   1       3.759  -1.614  -3.818  0.00  0.00     0.080 C 
ATOM     15  O   LIG d   1       4.304  -1.148  -2.557  0.00  0.00    -0.346 OA
ATOM     16  H   LIG d   1       2.981  -2.360  -3.659  0.00  0.00     0.059 H 
ATOM     17  H   LIG d   1       4.547  -2.004  -4.462  0.00  0.00     0.059 H 
ATOM     18  C   LIG d   1       4.798   0.174  -2.832  0.00  0.00     0.165 C 
ATOM     19  O   LIG d   1       4.094   0.704  -3.962  0.00  0.00    -0.341 OA
ATOM     20  H   LIG d   1       2.171  -0.120  -3.994  0.00  0.00     0.065 H 
BRANCH  18  21
ATOM     21  C   LIG d   1       6.295   0.108  -3.143  0.00  0.00    -0.011 C 
ATOM     22  H   LIG d   1       6.862   0.407  -2.263  0.00  0.00     0.028 H 
ATOM     23  H   LIG d   1       6.564  -0.912  -3.418  0.00  0.00     0.028 H 
ATOM     24  H   LIG d   1       6.524   0.780  -3.969  0.00  0.00     0.028 H 
ENDBRANCH  18  21
BRANCH  18  25
ATOM     25  C   LIG d   1       4.568   1.071  -1.615  0.00  0.00    -0.011 C 
ATOM     26  H   LIG d   1       4.059   0.504  -0.836  0.00  0.00     0.028 H 
ATOM     27  H   LIG d   1       5.528   1.426  -1.238  0.00  0.00     0.028 H 
ATOM     28  H   LIG d   1       3.953   1.924  -1.903  0.00  0.00     0.028 H 
ENDBRANCH  18  25
ENDBRANCH   1  13
BRANCH   3  29
ATOM     29  O   LIG d   1       3.800  -2.264  -7.341  0.00  0.00    -0.386 OA
ATOM     30  H   LIG d   1       3.317  -2.971  -6.892  0.00  0.00     0.210 HD
ENDBRANCH   3  29
BRANCH  11  31
ATOM     31  C   LIG d   1       4.958   0.429 -10.586  0.00  0.00    -0.011 C 
ATOM     32  H   LIG d   1       3.893   0.240 -10.454  0.00  0.00     0.028 H 
ATOM     33  H   LIG d   1       5.095   1.289 -11.243  0.00  0.00     0.028 H 
ATOM     34  H   LIG d   1       5.431  -0.446 -11.030  0.00  0.00     0.028 H 
ENDBRANCH  11  31
BRANCH  11  35
ATOM     35  C   LIG d   1       6.975   1.353  -9.427  0.00  0.00    -0.011 C 
ATOM     36  H   LIG d   1       7.551   1.268  -8.506  0.00  0.00     0.028 H 
ATOM     37  H   LIG d   1       7.498   0.837 -10.231  0.00  0.00     0.028 H 
ATOM     38  H   LIG d   1       6.858   2.405  -9.686  0.00  0.00     0.028 H 
ENDBRANCH  11  35
TORSDOF 6
ENDMDL
MODEL 5
REMARK VINA RESULT:      -5.2      1.656      5.497
REMARK  6 active torsions:
REMARK  status: ('A' for Active; 'I' for Inactive)
REMARK    1  A    between atoms: C_1  and  C_2 
REMARK    2  A    between atoms: C_2  and  C_23 
REMARK    3  A    between atoms: C_5  and  C_8 
REMARK    4  A    between atoms: C_10  and  O_22 
REMARK    5  A    between atoms: C_18  and  C_20 
REMARK    6  A    between atoms: C_18  and  C_21 
ROOT
ATOM      1  C   LIG d   1       3.930  -0.547  -5.321  0.00  0.00     0.118 C 
ATOM      2  H   LIG d   1       3.187  -1.191  -4.848  0.00  0.00     0.065 H 
ATOM      3  C   LIG d   1       4.601  -1.291  -6.512  0.00  0.00     0.115 C 
ATOM      4  H   LIG d   1       5.670  -1.416  -6.339  0.00  0.00     0.065 H 
ATOM      5  C   LIG d   1       4.350  -0.347  -7.673  0.00  0.00     0.141 C 
ATOM      6  H   LIG d   1       5.126   0.416  -7.724  0.00  0.00     0.068 H 
ATOM      7  C   LIG d   1       2.979   0.269  -7.195  0.00  0.00     0.191 C 
ATOM      8  H   LIG d   1       2.244  -0.535  -7.173  0.00  0.00     0.094 H 
ATOM      9  O   LIG d   1       3.283   0.636  -5.881  0.00  0.00    -0.340 OA
ATOM     10  O   LIG d   1       2.698   1.084  -8.301  0.00  0.00    -0.318 OA
ATOM     11  C   LIG d   1       3.011   0.201  -9.420  0.00  0.00     0.168 C 
ATOM     12  O   LIG d   1       3.977  -0.783  -8.958  0.00  0.00    -0.338 OA
ENDROOT
BRANCH   1  13
ATOM     13  C   LIG d   1       4.989  -0.131  -4.299  0.00  0.00     0.114 C 
ATOM     14  C   LIG d   1       5.765  -1.367  -3.778  0.00  0.00     0.080 C 
ATOM     15  O   LIG d   1       7.032  -0.776  -3.395  0.00  0.00    -0.346 OA
ATOM     16  H   LIG d   1       5.261  -1.811  -2.920  0.00  0.00     0.059 H 
ATOM     17  H   LIG d   1       5.902  -2.103  -4.571  0.00  0.00     0.059 H 
ATOM     18  C   LIG d   1       7.272   0.253  -4.369  0.00  0.00     0.165 C 
ATOM     19  O   LIG d   1       6.017   0.664  -4.926  0.00  0.00    -0.341 OA
ATOM     20  H   LIG d   1       4.532   0.413  -3.472  0.00  0.00     0.065 H 
BRANCH  18  21
ATOM     21  C   LIG d   1       8.173  -0.293  -5.480  0.00  0.00    -0.011 C 
ATOM     22  H   LIG d   1       9.058   0.336  -5.570  0.00  0.00     0.028 H 
ATOM     23  H   LIG d   1       8.474  -1.311  -5.236  0.00  0.00     0.028 H 
ATOM     24  H   LIG d   1       7.628  -0.290  -6.423  0.00  0.00     0.028 H 
ENDBRANCH  18  21
BRANCH  18  25
ATOM     25  C   LIG d   1       7.953   1.447  -3.698  0.00  0.00    -0.011 C 
ATOM     26  H   LIG d   1       7.280   2.304  -3.711  0.00  0.00     0.028 H 
ATOM     27  H   LIG d   1       8.200   1.193  -2.667  0.00  0.00     0.028 H 
ATOM     28  H   LIG d   1       8.867   1.695  -4.239  0.00  0.00     0.028 H 
ENDBRANCH  18  25
ENDBRANCH   1  13
BRANCH   3  29
ATOM     29  O   LIG d   1       3.973  -2.554  -6.741  0.00  0.00    -0.386 OA
ATOM     30  H   LIG d   1       4.579  -3.248  -7.033  0.00  0.00     0.210 HD
ENDBRANCH   3  29
BRANCH  11  31
ATOM     31  C   LIG d   1       1.739  -0.504  -9.894  0.00  0.00    -0.011 C 
ATOM     32  H   LIG d   1       1.069  -0.653  -9.047  0.00  0.00     0.028 H 
ATOM     33  H   LIG d   1       1.242   0.109 -10.646  0.00  0.00     0.028 H 
ATOM     34  H   LIG d   1       1.998  -1.471 -10.325  0.00  0.00     0.028 H 
ENDBRANCH  11  31
BRANCH  11  35
ATOM     35  C   LIG d   1       3.610   1.015 -10.569  0.00  0.00    -0.011 C 
ATOM     36  H   LIG d   1       3.145   2.000 -10.597  0.00  0.00     0.028 H 
ATOM     37  H   LIG d   1       4.684   1.124 -10.416  0.00  0.00     0.028 H 
ATOM     38  H   LIG d   1       3.428   0.500 -11.512  0.00  0.00     0.028 H 
ENDBRANCH  11  35
TORSDOF 6
ENDMDL
MODEL 6
REMARK VINA RESULT:      -5.1      3.177      6.056
REMARK  6 active torsions:
REMARK  status: ('A' for Active; 'I' for Inactive)
REMARK    1  A    between atoms: C_1  and  C_2 
REMARK    2  A    between atoms: C_2  and  C_23 
REMARK    3  A    between atoms: C_5  and  C_8 
REMARK    4  A    between atoms: C_10  and  O_22 
REMARK    5  A    between atoms: C_18  and  C_20 
REMARK    6  A    between atoms: C_18  and  C_21 
ROOT
ATOM      1  C   LIG d   1       5.787  -3.150  -4.427  0.00  0.00     0.118 C 
ATOM      2  H   LIG d   1       6.388  -3.713  -3.713  0.00  0.00     0.065 H 
ATOM      3  C   LIG d   1       6.387  -3.288  -5.857  0.00  0.00     0.115 C 
ATOM      4  H   LIG d   1       6.703  -2.317  -6.241  0.00  0.00     0.065 H 
ATOM      5  C   LIG d   1       5.215  -3.827  -6.655  0.00  0.00     0.141 C 
ATOM      6  H   LIG d   1       4.582  -3.014  -7.009  0.00  0.00     0.068 H 
ATOM      7  C   LIG d   1       4.499  -4.648  -5.514  0.00  0.00     0.191 C 
ATOM      8  H   LIG d   1       5.173  -5.448  -5.209  0.00  0.00     0.094 H 
ATOM      9  O   LIG d   1       4.436  -3.700  -4.489  0.00  0.00    -0.340 OA
ATOM     10  O   LIG d   1       3.459  -5.216  -6.262  0.00  0.00    -0.318 OA
ATOM     11  C   LIG d   1       4.153  -5.660  -7.466  0.00  0.00     0.168 C 
ATOM     12  O   LIG d   1       5.341  -4.838  -7.628  0.00  0.00    -0.338 OA
ENDROOT
BRANCH   1  13
ATOM     13  C   LIG d   1       5.734  -1.675  -4.021  0.00  0.00     0.114 C 
ATOM     14  C   LIG d   1       4.973  -0.842  -5.082  0.00  0.00     0.080 C 
ATOM     15  O   LIG d   1       4.481   0.265  -4.284  0.00  0.00    -0.346 OA
ATOM     16  H   LIG d   1       5.649  -0.494  -5.863  0.00  0.00     0.059 H 
ATOM     17  H   LIG d   1       4.148  -1.412  -5.507  0.00  0.00     0.059 H 
ATOM     18  C   LIG d   1       4.161  -0.311  -3.007  0.00  0.00     0.165 C 
ATOM     19  O   LIG d   1       4.937  -1.503  -2.831  0.00  0.00    -0.341 OA
ATOM     20  H   LIG d   1       6.740  -1.283  -3.871  0.00  0.00     0.065 H 
BRANCH  18  21
ATOM     21  C   LIG d   1       2.671  -0.655  -2.957  0.00  0.00    -0.011 C 
ATOM     22  H   LIG d   1       2.269  -0.384  -1.982  0.00  0.00     0.028 H 
ATOM     23  H   LIG d   1       2.145  -0.100  -3.734  0.00  0.00     0.028 H 
ATOM     24  H   LIG d   1       2.540  -1.724  -3.122  0.00  0.00     0.028 H 
ENDBRANCH  18  21
BRANCH  18  25
ATOM     25  C   LIG d   1       4.493   0.687  -1.896  0.00  0.00    -0.011 C 
ATOM     26  H   LIG d   1       3.598   1.250  -1.633  0.00  0.00     0.028 H 
ATOM     27  H   LIG d   1       4.855   0.148  -1.020  0.00  0.00     0.028 H 
ATOM     28  H   LIG d   1       5.265   1.374  -2.243  0.00  0.00     0.028 H 
ENDBRANCH  18  25
ENDBRANCH   1  13
BRANCH   3  29
ATOM     29  O   LIG d   1       7.475  -4.214  -5.864  0.00  0.00    -0.386 OA
ATOM     30  H   LIG d   1       8.195  -3.972  -6.463  0.00  0.00     0.210 HD
ENDBRANCH   3  29
BRANCH  11  31
ATOM     31  C   LIG d   1       4.556  -7.129  -7.320  0.00  0.00    -0.011 C 
ATOM     32  H   LIG d   1       3.708  -7.703  -6.948  0.00  0.00     0.028 H 
ATOM     33  H   LIG d   1       4.862  -7.520  -8.290  0.00  0.00     0.028 H 
ATOM     34  H   LIG d   1       5.385  -7.210  -6.617  0.00  0.00     0.028 H 
ENDBRANCH  11  31
BRANCH  11  35
ATOM     35  C   LIG d   1       3.239  -5.494  -8.682  0.00  0.00    -0.011 C 
ATOM     36  H   LIG d   1       2.198  -5.543  -8.363  0.00  0.00     0.028 H 
ATOM     37  H   LIG d   1       3.429  -4.528  -9.151  0.00  0.00     0.028 H 
ATOM     38  H   LIG d   1       3.437  -6.291  -9.397  0.00  0.00     0.028 H 
ENDBRANCH  11  35
TORSDOF 6
ENDMDL
MODEL 7
REMARK VINA RESULT:      -5.0      3.279      4.422
REMARK  6 active torsions:
REMARK  status: ('A' for Active; 'I' for Inactive)
REMARK    1  A    between atoms: C_1  and  C_2 
REMARK    2  A    between atoms: C_2  and  C_23 
REMARK    3  A    between atoms: C_5  and  C_8 
REMARK    4  A    between atoms: C_10  and  O_22 
REMARK    5  A    between atoms: C_18  and  C_20 
REMARK    6  A    between atoms: C_18  and  C_21 
ROOT
ATOM      1  C   LIG d   1       7.485   0.678  -3.525  0.00  0.00     0.118 C 
ATOM      2  H   LIG d   1       7.866   0.290  -2.581  0.00  0.00     0.065 H 
ATOM      3  C   LIG d   1       6.875  -0.478  -4.372  0.00  0.00     0.115 C 
ATOM      4  H   LIG d   1       7.418  -0.599  -5.310  0.00  0.00     0.065 H 
ATOM      5  C   LIG d   1       5.462   0.011  -4.627  0.00  0.00     0.141 C 
ATOM      6  H   LIG d   1       5.430   0.658  -5.503  0.00  0.00     0.068 H 
ATOM      7  C   LIG d   1       5.247   0.840  -3.302  0.00  0.00     0.191 C 
ATOM      8  H   LIG d   1       5.280   0.142  -2.466  0.00  0.00     0.094 H 
ATOM      9  O   LIG d   1       6.402   1.626  -3.276  0.00  0.00    -0.340 OA
ATOM     10  O   LIG d   1       3.914   1.229  -3.492  0.00  0.00    -0.318 OA
ATOM     11  C   LIG d   1       3.295  -0.008  -3.956  0.00  0.00     0.168 C 
ATOM     12  O   LIG d   1       4.331  -0.825  -4.567  0.00  0.00    -0.338 OA
ENDROOT
BRANCH   1  13
ATOM     13  C   LIG d   1       8.611   1.362  -4.304  0.00  0.00     0.114 C 
ATOM     14  C   LIG d   1       9.354   0.340  -5.202  0.00  0.00     0.080 C 
ATOM     15  O   LIG d   1       9.866   1.197  -6.254  0.00  0.00    -0.346 OA
ATOM     16  H   LIG d   1      10.164  -0.142  -4.657  0.00  0.00     0.059 H 
ATOM     17  H   LIG d   1       8.662  -0.400  -5.605  0.00  0.00     0.059 H 
ATOM     18  C   LIG d   1       8.847   2.190  -6.454  0.00  0.00     0.165 C 
ATOM     19  O   LIG d   1       8.073   2.306  -5.253  0.00  0.00    -0.341 OA
ATOM     20  H   LIG d   1       9.305   1.852  -3.623  0.00  0.00     0.065 H 
BRANCH  18  21
ATOM     21  C   LIG d   1       7.939   1.769  -7.611  0.00  0.00    -0.011 C 
ATOM     22  H   LIG d   1       8.190   0.755  -7.919  0.00  0.00     0.028 H 
ATOM     23  H   LIG d   1       6.899   1.804  -7.288  0.00  0.00     0.028 H 
ATOM     24  H   LIG d   1       8.082   2.449  -8.451  0.00  0.00     0.028 H 
ENDBRANCH  18  21
BRANCH  18  25
ATOM     25  C   LIG d   1       9.498   3.536  -6.778  0.00  0.00    -0.011 C 
ATOM     26  H   LIG d   1       9.026   3.965  -7.662  0.00  0.00     0.028 H 
ATOM     27  H   LIG d   1       9.372   4.214  -5.933  0.00  0.00     0.028 H 
ATOM     28  H   LIG d   1      10.561   3.389  -6.970  0.00  0.00     0.028 H 
ENDBRANCH  18  25
ENDBRANCH   1  13
BRANCH   3  29
ATOM     29  O   LIG d   1       6.863  -1.699  -3.630  0.00  0.00    -0.386 OA
ATOM     30  H   LIG d   1       7.454  -1.700  -2.864  0.00  0.00     0.210 HD
ENDBRANCH   3  29
BRANCH  11  31
ATOM     31  C   LIG d   1       2.680  -0.755  -2.770  0.00  0.00    -0.011 C 
ATOM     32  H   LIG d   1       3.266  -1.650  -2.561  0.00  0.00     0.028 H 
ATOM     33  H   LIG d   1       2.679  -0.107  -1.894  0.00  0.00     0.028 H 
ATOM     34  H   LIG d   1       1.656  -1.040  -3.013  0.00  0.00     0.028 H 
ENDBRANCH  11  31
BRANCH  11  35
ATOM     35  C   LIG d   1       2.211   0.310  -4.987  0.00  0.00    -0.011 C 
ATOM     36  H   LIG d   1       2.203   1.381  -5.187  0.00  0.00     0.028 H 
ATOM     37  H   LIG d   1       2.417  -0.231  -5.910  0.00  0.00     0.028 H 
ATOM     38  H   LIG d   1       1.240   0.006  -4.597  0.00  0.00     0.028 H 
ENDBRANCH  11  35
TORSDOF 6
ENDMDL
MODEL 8
REMARK VINA RESULT:      -4.7      3.514      5.886
REMARK  6 active torsions:
REMARK  status: ('A' for Active; 'I' for Inactive)
REMARK    1  A    between atoms: C_1  and  C_2 
REMARK    2  A    between atoms: C_2  and  C_23 
REMARK    3  A    between atoms: C_5  and  C_8 
REMARK    4  A    between atoms: C_10  and  O_22 
REMARK    5  A    between atoms: C_18  and  C_20 
REMARK    6  A    between atoms: C_18  and  C_21 
ROOT
ATOM      1  C   LIG d   1       6.860  -1.195  -5.356  0.00  0.00     0.118 C 
ATOM      2  H   LIG d   1       6.981  -0.910  -6.402  0.00  0.00     0.065 H 
ATOM      3  C   LIG d   1       6.301  -2.644  -5.258  0.00  0.00     0.115 C 
ATOM      4  H   LIG d   1       5.326  -2.651  -4.768  0.00  0.00     0.065 H 
ATOM      5  C   LIG d   1       7.340  -3.341  -4.400  0.00  0.00     0.141 C 
ATOM      6  H   LIG d   1       7.127  -3.196  -3.342  0.00  0.00     0.068 H 
ATOM      7  C   LIG d   1       8.612  -2.518  -4.839  0.00  0.00     0.191 C 
ATOM      8  H   LIG d   1       8.780  -2.709  -5.899  0.00  0.00     0.094 H 
ATOM      9  O   LIG d   1       8.158  -1.205  -4.687  0.00  0.00    -0.340 OA
ATOM     10  O   LIG d   1       9.592  -3.208  -4.113  0.00  0.00    -0.318 OA
ATOM     11  C   LIG d   1       9.225  -4.601  -4.349  0.00  0.00     0.168 C 
ATOM     12  O   LIG d   1       7.805  -4.645  -4.654  0.00  0.00    -0.338 OA
ENDROOT
BRANCH   1  13
ATOM     13  C   LIG d   1       5.916  -0.219  -4.652  0.00  0.00     0.114 C 
ATOM     14  C   LIG d   1       4.438  -0.564  -4.966  0.00  0.00     0.080 C 
ATOM     15  O   LIG d   1       3.761  -0.031  -3.800  0.00  0.00    -0.346 OA
ATOM     16  H   LIG d   1       4.106  -0.067  -5.876  0.00  0.00     0.059 H 
ATOM     17  H   LIG d   1       4.297  -1.643  -5.038  0.00  0.00     0.059 H 
ATOM     18  C   LIG d   1       4.662  -0.268  -2.705  0.00  0.00     0.165 C 
ATOM     19  O   LIG d   1       5.995  -0.376  -3.220  0.00  0.00    -0.341 OA
ATOM     20  H   LIG d   1       6.141   0.808  -4.940  0.00  0.00     0.065 H 
BRANCH  18  21
ATOM     21  C   LIG d   1       4.278  -1.569  -1.997  0.00  0.00    -0.011 C 
ATOM     22  H   LIG d   1       5.069  -2.305  -2.135  0.00  0.00     0.028 H 
ATOM     23  H   LIG d   1       4.143  -1.376  -0.932  0.00  0.00     0.028 H 
ATOM     24  H   LIG d   1       3.348  -1.951  -2.418  0.00  0.00     0.028 H 
ENDBRANCH  18  21
BRANCH  18  25
ATOM     25  C   LIG d   1       4.585   0.895  -1.716  0.00  0.00    -0.011 C 
ATOM     26  H   LIG d   1       3.631   0.863  -1.189  0.00  0.00     0.028 H 
ATOM     27  H   LIG d   1       5.401   0.815  -0.996  0.00  0.00     0.028 H 
ATOM     28  H   LIG d   1       4.669   1.839  -2.256  0.00  0.00     0.028 H 
ENDBRANCH  18  25
ENDBRANCH   1  13
BRANCH   3  29
ATOM     29  O   LIG d   1       6.223  -3.247  -6.551  0.00  0.00    -0.386 OA
ATOM     30  H   LIG d   1       6.186  -2.612  -7.279  0.00  0.00     0.210 HD
ENDBRANCH   3  29
BRANCH  11  31
ATOM     31  C   LIG d   1      10.026  -5.152  -5.531  0.00  0.00    -0.011 C 
ATOM     32  H   LIG d   1       9.434  -5.904  -6.052  0.00  0.00     0.028 H 
ATOM     33  H   LIG d   1      10.266  -4.340  -6.218  0.00  0.00     0.028 H 
ATOM     34  H   LIG d   1      10.948  -5.605  -5.166  0.00  0.00     0.028 H 
ENDBRANCH  11  31
BRANCH  11  35
ATOM     35  C   LIG d   1       9.513  -5.432  -3.097  0.00  0.00    -0.011 C 
ATOM     36  H   LIG d   1       8.682  -5.334  -2.398  0.00  0.00     0.028 H 
ATOM     37  H   LIG d   1       9.632  -6.478  -3.375  0.00  0.00     0.028 H 
ATOM     38  H   LIG d   1      10.427  -5.074  -2.626  0.00  0.00     0.028 H 
ENDBRANCH  11  35
TORSDOF 6
ENDMDL
MODEL 9
REMARK VINA RESULT:      -4.6      2.752      4.874
REMARK  6 active torsions:
REMARK  status: ('A' for Active; 'I' for Inactive)
REMARK    1  A    between atoms: C_1  and  C_2 
REMARK    2  A    between atoms: C_2  and  C_23 
REMARK    3  A    between atoms: C_5  and  C_8 
REMARK    4  A    between atoms: C_10  and  O_22 
REMARK    5  A    between atoms: C_18  and  C_20 
REMARK    6  A    between atoms: C_18  and  C_21 
ROOT
ATOM      1  C   LIG d   1       5.503  -2.052  -6.160  0.00  0.00     0.118 C 
ATOM      2  H   LIG d   1       4.941  -1.896  -7.081  0.00  0.00     0.065 H 
ATOM      3  C   LIG d   1       6.266  -0.752  -5.772  0.00  0.00     0.115 C 
ATOM      4  H   LIG d   1       7.344  -0.920  -5.772  0.00  0.00     0.065 H 
ATOM      5  C   LIG d   1       5.763  -0.482  -4.367  0.00  0.00     0.141 C 
ATOM      6  H   LIG d   1       6.350  -1.034  -3.634  0.00  0.00     0.068 H 
ATOM      7  C   LIG d   1       4.313  -1.087  -4.505  0.00  0.00     0.191 C 
ATOM      8  H   LIG d   1       3.774  -0.490  -5.240  0.00  0.00     0.094 H 
ATOM      9  O   LIG d   1       4.588  -2.340  -5.059  0.00  0.00    -0.340 OA
ATOM     10  O   LIG d   1       3.812  -0.769  -3.235  0.00  0.00    -0.318 OA
ATOM     11  C   LIG d   1       4.260   0.609  -3.065  0.00  0.00     0.168 C 
ATOM     12  O   LIG d   1       5.437   0.805  -3.896  0.00  0.00    -0.338 OA
ENDROOT
BRANCH   1  13
ATOM     13  C   LIG d   1       6.490  -3.207  -6.337  0.00  0.00     0.114 C 
ATOM     14  C   LIG d   1       7.910  -2.671  -6.646  0.00  0.00     0.080 C 
ATOM     15  O   LIG d   1       8.743  -3.751  -6.152  0.00  0.00    -0.346 OA
ATOM     16  H   LIG d   1       8.049  -2.526  -7.717  0.00  0.00     0.059 H 
ATOM     17  H   LIG d   1       8.106  -1.748  -6.101  0.00  0.00     0.059 H 
ATOM     18  C   LIG d   1       8.061  -4.242  -4.986  0.00  0.00     0.165 C 
ATOM     19  O   LIG d   1       6.669  -3.920  -5.096  0.00  0.00    -0.341 OA
ATOM     20  H   LIG d   1       6.153  -3.882  -7.123  0.00  0.00     0.065 H 
BRANCH  18  21
ATOM     21  C   LIG d   1       8.644  -3.582  -3.734  0.00  0.00    -0.011 C 
ATOM     22  H   LIG d   1       8.985  -4.353  -3.043  0.00  0.00     0.028 H 
ATOM     23  H   LIG d   1       9.486  -2.949  -4.016  0.00  0.00     0.028 H 
ATOM     24  H   LIG d   1       7.878  -2.976  -3.253  0.00  0.00     0.028 H 
ENDBRANCH  18  21
BRANCH  18  25
ATOM     25  C   LIG d   1       8.232  -5.759  -4.892  0.00  0.00    -0.011 C 
ATOM     26  H   LIG d   1       7.354  -6.251  -5.309  0.00  0.00     0.028 H 
ATOM     27  H   LIG d   1       9.118  -6.060  -5.452  0.00  0.00     0.028 H 
ATOM     28  H   LIG d   1       8.348  -6.047  -3.847  0.00  0.00     0.028 H 
ENDBRANCH  18  25
ENDBRANCH   1  13
BRANCH   3  29
ATOM     29  O   LIG d   1       5.920   0.321  -6.650  0.00  0.00    -0.386 OA
ATOM     30  H   LIG d   1       5.117   0.794  -6.395  0.00  0.00     0.210 HD
ENDBRANCH   3  29
BRANCH  11  31
ATOM     31  C   LIG d   1       3.153   1.571  -3.502  0.00  0.00    -0.011 C 
ATOM     32  H   LIG d   1       2.186   1.077  -3.412  0.00  0.00     0.028 H 
ATOM     33  H   LIG d   1       3.168   2.456  -2.865  0.00  0.00     0.028 H 
ATOM     34  H   LIG d   1       3.316   1.866  -4.538  0.00  0.00     0.028 H 
ENDBRANCH  11  31
BRANCH  11  35
ATOM     35  C   LIG d   1       4.614   0.861  -1.598  0.00  0.00    -0.011 C 
ATOM     36  H   LIG d   1       5.245   1.747  -1.523  0.00  0.00     0.028 H 
ATOM     37  H   LIG d   1       3.701   1.017  -1.025  0.00  0.00     0.028 H 
ATOM     38  H   LIG d   1       5.150  -0.000  -1.200  0.00  0.00     0.028 H 
ENDBRANCH  11  35
TORSDOF 6
ENDMDL
MODEL 10
REMARK VINA RESULT:      -4.6      3.887      6.326
REMARK  6 active torsions:
REMARK  status: ('A' for Active; 'I' for Inactive)
REMARK    1  A    between atoms: C_1  and  C_2 
REMARK    2  A    between atoms: C_2  and  C_23 
REMARK    3  A    between atoms: C_5  and  C_8 
REMARK    4  A    between atoms: C_10  and  O_22 
REMARK    5  A    between atoms: C_18  and  C_20 
REMARK    6  A    between atoms: C_18  and  C_21 
ROOT
ATOM      1  C   LIG d   1       6.836   0.588  -4.534  0.00  0.00     0.118 C 
ATOM      2  H   LIG d   1       6.206   0.501  -5.420  0.00  0.00     0.065 H 
ATOM      3  C   LIG d   1       8.234  -0.041  -4.808  0.00  0.00     0.115 C 
ATOM      4  H   LIG d   1       8.416  -0.884  -4.140  0.00  0.00     0.065 H 
ATOM      5  C   LIG d   1       9.177   1.106  -4.497  0.00  0.00     0.141 C 
ATOM      6  H   LIG d   1       9.409   1.138  -3.433  0.00  0.00     0.068 H 
ATOM      7  C   LIG d   1       8.244   2.309  -4.910  0.00  0.00     0.191 C 
ATOM      8  H   LIG d   1       8.055   2.230  -5.980  0.00  0.00     0.094 H 
ATOM      9  O   LIG d   1       7.068   1.996  -4.223  0.00  0.00    -0.340 OA
ATOM     10  O   LIG d   1       9.136   3.370  -4.703  0.00  0.00    -0.318 OA
ATOM     11  C   LIG d   1      10.364   2.861  -5.307  0.00  0.00     0.168 C 
ATOM     12  O   LIG d   1      10.310   1.409  -5.277  0.00  0.00    -0.338 OA
ENDROOT
BRANCH   1  13
ATOM     13  C   LIG d   1       6.170  -0.108  -3.346  0.00  0.00     0.114 C 
ATOM     14  C   LIG d   1       5.385   0.911  -2.483  0.00  0.00     0.080 C 
ATOM     15  O   LIG d   1       4.375   0.064  -1.878  0.00  0.00    -0.346 OA
ATOM     16  H   LIG d   1       6.027   1.360  -1.727  0.00  0.00     0.059 H 
ATOM     17  H   LIG d   1       4.926   1.678  -3.108  0.00  0.00     0.059 H 
ATOM     18  C   LIG d   1       4.041  -0.898  -2.892  0.00  0.00     0.165 C 
ATOM     19  O   LIG d   1       5.146  -1.018  -3.797  0.00  0.00    -0.341 OA
ATOM     20  H   LIG d   1       6.912  -0.632  -2.743  0.00  0.00     0.065 H 
BRANCH  18  21
ATOM     21  C   LIG d   1       2.800  -0.429  -3.656  0.00  0.00    -0.011 C 
ATOM     22  H   LIG d   1       1.990  -1.141  -3.504  0.00  0.00     0.028 H 
ATOM     23  H   LIG d   1       2.496   0.551  -3.288  0.00  0.00     0.028 H 
ATOM     24  H   LIG d   1       3.032  -0.362  -4.718  0.00  0.00     0.028 H 
ENDBRANCH  18  21
BRANCH  18  25
ATOM     25  C   LIG d   1       3.759  -2.253  -2.242  0.00  0.00    -0.011 C 
ATOM     26  H   LIG d   1       2.751  -2.255  -1.826  0.00  0.00     0.028 H 
ATOM     27  H   LIG d   1       3.844  -3.041  -2.991  0.00  0.00     0.028 H 
ATOM     28  H   LIG d   1       4.480  -2.431  -1.445  0.00  0.00     0.028 H 
ENDBRANCH  18  25
ENDBRANCH   1  13
BRANCH   3  29
ATOM     29  O   LIG d   1       8.353  -0.440  -6.175  0.00  0.00    -0.386 OA
ATOM     30  H   LIG d   1       8.811  -1.282  -6.300  0.00  0.00     0.210 HD
ENDBRANCH   3  29
BRANCH  11  31
ATOM     31  C   LIG d   1      10.467   3.345  -6.755  0.00  0.00    -0.011 C 
ATOM     32  H   LIG d   1      10.057   2.587  -7.421  0.00  0.00     0.028 H 
ATOM     33  H   LIG d   1       9.903   4.272  -6.869  0.00  0.00     0.028 H 
ATOM     34  H   LIG d   1      11.512   3.523  -7.005  0.00  0.00     0.028 H 
ENDBRANCH  11  31
BRANCH  11  35
ATOM     35  C   LIG d   1      11.574   3.352  -4.510  0.00  0.00    -0.011 C 
ATOM     36  H   LIG d   1      11.245   3.721  -3.539  0.00  0.00     0.028 H 
ATOM     37  H   LIG d   1      12.273   2.527  -4.367  0.00  0.00     0.028 H 
ATOM     38  H   LIG d   1      12.067   4.155  -5.056  0.00  0.00     0.028 H 
ENDBRANCH  11  35
TORSDOF 6
ENDMDL
