MODEL 1
REMARK VINA RESULT:      -7.6      0.000      0.000
REMARK  4 active torsions:
REMARK  status: ('A' for Active; 'I' for Inactive)
REMARK    1  A    between atoms: C_6  and  C_7 
REMARK       I    between atoms: C_7  and  N_9 
REMARK    2  A    between atoms: N_9  and  C_10 
REMARK    3  A    between atoms: C_25  and  C_26 
REMARK    4  A    between atoms: C_25  and  N_61 
ROOT
ATOM      1  C   LIG d   1       4.285  -1.286  -7.587  0.00  0.00     0.099 C 
ATOM      2  C   LIG d   1       4.734  -2.472  -7.072  0.00  0.00    -0.034 C 
ATOM      3  C   LIG d   1       4.668  -2.676  -5.688  0.00  0.00    -0.040 C 
ATOM      4  C   LIG d   1       4.158  -1.717  -4.873  0.00  0.00     0.030 C 
ATOM      5  N   LIG d   1       3.635  -0.577  -5.388  0.00  0.00    -0.310 N 
ATOM      6  C   LIG d   1       3.762  -0.314  -6.711  0.00  0.00     0.273 C 
ATOM      7  O   LIG d   1       3.417   0.771  -7.149  0.00  0.00    -0.266 OA
ATOM      8  C   LIG d   1       2.874   0.384  -4.588  0.00  0.00     0.034 C 
ATOM      9  C   LIG d   1       3.175   0.262  -3.103  0.00  0.00     0.018 C 
ATOM     10  H   LIG d   1       2.409   0.807  -2.551  0.00  0.00     0.037 H 
ATOM     11  C   LIG d   1       3.100  -1.210  -2.687  0.00  0.00    -0.031 C 
ATOM     12  C   LIG d   1       4.249  -1.948  -3.381  0.00  0.00     0.040 C 
ATOM     13  H   LIG d   1       4.219  -3.015  -3.158  0.00  0.00     0.042 H 
ATOM     14  C   LIG d   1       5.572  -1.333  -2.896  0.00  0.00    -0.024 C 
ATOM     15  C   LIG d   1       4.533   0.851  -2.753  0.00  0.00    -0.027 C 
ATOM     16  H   LIG d   1       5.126  -3.240  -7.721  0.00  0.00     0.064 H 
ATOM     17  H   LIG d   1       5.027  -3.603  -5.267  0.00  0.00     0.064 H 
ATOM     18  H   LIG d   1       3.124   1.392  -4.917  0.00  0.00     0.050 H 
ATOM     19  H   LIG d   1       1.810   0.214  -4.749  0.00  0.00     0.050 H 
ATOM     20  H   LIG d   1       2.145  -1.635  -2.999  0.00  0.00     0.028 H 
ATOM     21  H   LIG d   1       3.205  -1.294  -1.605  0.00  0.00     0.028 H 
ATOM     22  H   LIG d   1       5.618  -1.369  -1.808  0.00  0.00     0.082 H 
ATOM     23  H   LIG d   1       6.411  -1.886  -3.319  0.00  0.00     0.082 H 
ATOM     24  H   LIG d   1       4.651   0.858  -1.669  0.00  0.00     0.082 H 
ATOM     25  H   LIG d   1       4.586   1.874  -3.124  0.00  0.00     0.082 H 
ATOM     26  N   LIG d   1       5.616   0.066  -3.379  0.00  0.00     0.236 N 
ATOM     27  H   LIG d   1       5.485   0.071  -4.398  0.00  0.00     0.203 HD
ENDROOT
BRANCH  26  28
ATOM     28  C   LIG d   1       6.926   0.669  -3.062  0.00  0.00    -0.029 C 
ATOM     29  H   LIG d   1       6.836   1.247  -2.143  0.00  0.00     0.082 H 
ATOM     30  H   LIG d   1       7.657  -0.129  -2.921  0.00  0.00     0.082 H 
BRANCH  28  31
ATOM     31  C   LIG d   1       7.385   1.585  -4.198  0.00  0.00    -0.001 C 
ATOM     32  C   LIG d   1       8.708   2.252  -3.812  0.00  0.00    -0.045 C 
ATOM     33  C   LIG d   1       9.168   3.168  -4.948  0.00  0.00    -0.053 C 
ATOM     34  H   LIG d   1       8.566   2.840  -2.905  0.00  0.00     0.027 H 
ATOM     35  H   LIG d   1       9.462   1.486  -3.635  0.00  0.00     0.027 H 
ATOM     36  C   LIG d   1       9.366   2.342  -6.221  0.00  0.00    -0.053 C 
ATOM     37  H   LIG d   1       8.412   3.934  -5.126  0.00  0.00     0.026 H 
ATOM     38  H   LIG d   1      10.109   3.643  -4.673  0.00  0.00     0.026 H 
ATOM     39  C   LIG d   1       8.043   1.675  -6.608  0.00  0.00    -0.053 C 
ATOM     40  H   LIG d   1       9.693   2.995  -7.030  0.00  0.00     0.026 H 
ATOM     41  H   LIG d   1      10.121   1.577  -6.043  0.00  0.00     0.026 H 
ATOM     42  C   LIG d   1       7.584   0.760  -5.471  0.00  0.00    -0.045 C 
ATOM     43  H   LIG d   1       7.289   2.441  -6.785  0.00  0.00     0.026 H 
ATOM     44  H   LIG d   1       8.185   1.087  -7.513  0.00  0.00     0.026 H 
ATOM     45  H   LIG d   1       8.338  -0.007  -5.293  0.00  0.00     0.027 H 
ATOM     46  H   LIG d   1       6.642   0.285  -5.746  0.00  0.00     0.027 H 
ATOM     47  H   LIG d   1       6.631   2.351  -4.376  0.00  0.00     0.035 H 
ENDBRANCH  28  31
ENDBRANCH  26  28
BRANCH   1  48
ATOM     48  N   LIG d   1       4.351  -1.040  -8.964  0.00  0.00    -0.277 N 
ATOM     49  C   LIG d   1       3.360  -1.464  -9.772  0.00  0.00     0.248 C 
ATOM     50  O   LIG d   1       2.375  -1.999  -9.299  0.00  0.00    -0.270 OA
ATOM     51  H   LIG d   1       5.109  -0.564  -9.336  0.00  0.00     0.155 HD
BRANCH  49  52
ATOM     52  C   LIG d   1       3.469  -1.281 -11.235  0.00  0.00     0.037 A 
ATOM     53  C   LIG d   1       4.575  -0.624 -11.777  0.00  0.00    -0.047 A 
ATOM     54  C   LIG d   1       4.674  -0.460 -13.142  0.00  0.00    -0.026 A 
ATOM     55  H   LIG d   1       5.353  -0.248 -11.129  0.00  0.00     0.063 H 
ATOM     56  C   LIG d   1       3.673  -0.937 -13.975  0.00  0.00     0.123 A 
ATOM     57  H   LIG d   1       5.532   0.044 -13.564  0.00  0.00     0.065 H 
ATOM     58  C   LIG d   1       2.570  -1.585 -13.440  0.00  0.00    -0.026 A 
ATOM     59  F   LIG d   1       3.774  -0.770 -15.312  0.00  0.00    -0.205 F 
ATOM     60  C   LIG d   1       2.463  -1.758 -12.078  0.00  0.00    -0.047 A 
ATOM     61  H   LIG d   1       1.793  -1.954 -14.094  0.00  0.00     0.065 H 
ATOM     62  H   LIG d   1       1.603  -2.265 -11.662  0.00  0.00     0.063 H 
ENDBRANCH  49  52
ENDBRANCH   1  48
TORSDOF 4
ENDMDL
MODEL 2
REMARK VINA RESULT:      -7.4      4.625      7.549
REMARK  4 active torsions:
REMARK  status: ('A' for Active; 'I' for Inactive)
REMARK    1  A    between atoms: C_6  and  C_7 
REMARK       I    between atoms: C_7  and  N_9 
REMARK    2  A    between atoms: N_9  and  C_10 
REMARK    3  A    between atoms: C_25  and  C_26 
REMARK    4  A    between atoms: C_25  and  N_61 
ROOT
ATOM      1  C   LIG d   1       4.861  -4.953  -7.832  0.00  0.00     0.099 C 
ATOM      2  C   LIG d   1       3.627  -4.950  -8.424  0.00  0.00    -0.034 C 
ATOM      3  C   LIG d   1       3.166  -3.769  -9.020  0.00  0.00    -0.040 C 
ATOM      4  C   LIG d   1       3.935  -2.650  -9.019  0.00  0.00     0.030 C 
ATOM      5  N   LIG d   1       5.191  -2.674  -8.509  0.00  0.00    -0.310 N 
ATOM      6  C   LIG d   1       5.631  -3.773  -7.850  0.00  0.00     0.273 C 
ATOM      7  O   LIG d   1       6.705  -3.743  -7.272  0.00  0.00    -0.266 OA
ATOM      8  C   LIG d   1       6.142  -1.575  -8.679  0.00  0.00     0.034 C 
ATOM      9  C   LIG d   1       5.449  -0.258  -8.994  0.00  0.00     0.018 C 
ATOM     10  H   LIG d   1       6.197   0.446  -9.357  0.00  0.00     0.037 H 
ATOM     11  C   LIG d   1       4.423  -0.476 -10.109  0.00  0.00    -0.031 C 
ATOM     12  C   LIG d   1       3.317  -1.378  -9.553  0.00  0.00     0.040 C 
ATOM     13  H   LIG d   1       2.577  -1.606 -10.321  0.00  0.00     0.042 H 
ATOM     14  C   LIG d   1       2.658  -0.649  -8.370  0.00  0.00    -0.024 C 
ATOM     15  C   LIG d   1       4.785   0.338  -7.761  0.00  0.00    -0.027 C 
ATOM     16  H   LIG d   1       3.022  -5.844  -8.438  0.00  0.00     0.064 H 
ATOM     17  H   LIG d   1       2.191  -3.750  -9.483  0.00  0.00     0.064 H 
ATOM     18  H   LIG d   1       6.717  -1.460  -7.761  0.00  0.00     0.050 H 
ATOM     19  H   LIG d   1       6.823  -1.819  -9.494  0.00  0.00     0.050 H 
ATOM     20  H   LIG d   1       4.901  -0.959 -10.962  0.00  0.00     0.028 H 
ATOM     21  H   LIG d   1       4.002   0.482 -10.415  0.00  0.00     0.028 H 
ATOM     22  H   LIG d   1       2.309   0.332  -8.690  0.00  0.00     0.082 H 
ATOM     23  H   LIG d   1       1.818  -1.236  -7.998  0.00  0.00     0.082 H 
ATOM     24  H   LIG d   1       4.415   1.335  -8.001  0.00  0.00     0.082 H 
ATOM     25  H   LIG d   1       5.520   0.414  -6.960  0.00  0.00     0.082 H 
ATOM     26  N   LIG d   1       3.676  -0.523  -7.303  0.00  0.00     0.236 N 
ATOM     27  H   LIG d   1       4.047  -1.456  -7.084  0.00  0.00     0.203 HD
ENDROOT
BRANCH  26  28
ATOM     28  C   LIG d   1       3.064   0.046  -6.085  0.00  0.00    -0.029 C 
ATOM     29  H   LIG d   1       3.118   1.133  -6.138  0.00  0.00     0.082 H 
ATOM     30  H   LIG d   1       2.020  -0.265  -6.036  0.00  0.00     0.082 H 
BRANCH  28  31
ATOM     31  C   LIG d   1       3.800  -0.441  -4.835  0.00  0.00    -0.001 C 
ATOM     32  C   LIG d   1       2.925  -0.200  -3.603  0.00  0.00    -0.045 C 
ATOM     33  C   LIG d   1       3.660  -0.687  -2.352  0.00  0.00    -0.053 C 
ATOM     34  H   LIG d   1       2.714   0.866  -3.509  0.00  0.00     0.027 H 
ATOM     35  H   LIG d   1       1.989  -0.748  -3.710  0.00  0.00     0.027 H 
ATOM     36  C   LIG d   1       3.955  -2.182  -2.484  0.00  0.00    -0.053 C 
ATOM     37  H   LIG d   1       4.597  -0.140  -2.245  0.00  0.00     0.026 H 
ATOM     38  H   LIG d   1       3.036  -0.516  -1.475  0.00  0.00     0.026 H 
ATOM     39  C   LIG d   1       4.831  -2.423  -3.716  0.00  0.00    -0.053 C 
ATOM     40  H   LIG d   1       4.479  -2.529  -1.593  0.00  0.00     0.026 H 
ATOM     41  H   LIG d   1       3.019  -2.730  -2.591  0.00  0.00     0.026 H 
ATOM     42  C   LIG d   1       4.096  -1.936  -4.966  0.00  0.00    -0.045 C 
ATOM     43  H   LIG d   1       5.767  -1.875  -3.609  0.00  0.00     0.026 H 
ATOM     44  H   LIG d   1       5.041  -3.488  -3.810  0.00  0.00     0.026 H 
ATOM     45  H   LIG d   1       3.159  -2.483  -5.074  0.00  0.00     0.027 H 
ATOM     46  H   LIG d   1       4.719  -2.107  -5.843  0.00  0.00     0.027 H 
ATOM     47  H   LIG d   1       4.736   0.107  -4.727  0.00  0.00     0.035 H 
ENDBRANCH  28  31
ENDBRANCH  26  28
BRANCH   1  48
ATOM     48  N   LIG d   1       5.348  -6.110  -7.211  0.00  0.00    -0.277 N 
ATOM     49  C   LIG d   1       4.939  -6.429  -5.967  0.00  0.00     0.248 C 
ATOM     50  O   LIG d   1       4.097  -5.752  -5.411  0.00  0.00    -0.270 OA
ATOM     51  H   LIG d   1       5.977  -6.682  -7.676  0.00  0.00     0.155 HD
BRANCH  49  52
ATOM     52  C   LIG d   1       5.517  -7.602  -5.279  0.00  0.00     0.037 A 
ATOM     53  C   LIG d   1       6.889  -7.663  -5.031  0.00  0.00    -0.047 A 
ATOM     54  C   LIG d   1       7.422  -8.758  -4.383  0.00  0.00    -0.026 A 
ATOM     55  H   LIG d   1       7.532  -6.853  -5.342  0.00  0.00     0.063 H 
ATOM     56  C   LIG d   1       6.598  -9.801  -3.988  0.00  0.00     0.123 A 
ATOM     57  H   LIG d   1       8.483  -8.804  -4.186  0.00  0.00     0.065 H 
ATOM     58  C   LIG d   1       5.235  -9.748  -4.237  0.00  0.00    -0.026 A 
ATOM     59  F   LIG d   1       7.127 -10.873  -3.358  0.00  0.00    -0.205 F 
ATOM     60  C   LIG d   1       4.692  -8.657  -4.879  0.00  0.00    -0.047 A 
ATOM     61  H   LIG d   1       4.599 -10.564  -3.928  0.00  0.00     0.065 H 
ATOM     62  H   LIG d   1       3.629  -8.616  -5.072  0.00  0.00     0.063 H 
ENDBRANCH  49  52
ENDBRANCH   1  48
TORSDOF 4
ENDMDL
MODEL 3
REMARK VINA RESULT:      -7.3      5.904     10.427
REMARK  4 active torsions:
REMARK  status: ('A' for Active; 'I' for Inactive)
REMARK    1  A    between atoms: C_6  and  C_7 
REMARK       I    between atoms: C_7  and  N_9 
REMARK    2  A    between atoms: N_9  and  C_10 
REMARK    3  A    between atoms: C_25  and  C_26 
REMARK    4  A    between atoms: C_25  and  N_61 
ROOT
ATOM      1  C   LIG d   1      10.389   3.003  -3.257  0.00  0.00     0.099 C 
ATOM      2  C   LIG d   1      11.375   2.054  -3.241  0.00  0.00    -0.034 C 
ATOM      3  C   LIG d   1      11.368   1.054  -4.220  0.00  0.00    -0.040 C 
ATOM      4  C   LIG d   1      10.404   1.032  -5.177  0.00  0.00     0.030 C 
ATOM      5  N   LIG d   1       9.477   2.018  -5.248  0.00  0.00    -0.310 N 
ATOM      6  C   LIG d   1       9.405   2.949  -4.265  0.00  0.00     0.273 C 
ATOM      7  O   LIG d   1       8.485   3.751  -4.256  0.00  0.00    -0.266 OA
ATOM      8  C   LIG d   1       8.560   2.172  -6.378  0.00  0.00     0.034 C 
ATOM      9  C   LIG d   1       8.389   0.880  -7.160  0.00  0.00     0.018 C 
ATOM     10  H   LIG d   1       7.916   1.114  -8.113  0.00  0.00     0.037 H 
ATOM     11  C   LIG d   1       9.765   0.275  -7.451  0.00  0.00    -0.031 C 
ATOM     12  C   LIG d   1      10.377  -0.154  -6.114  0.00  0.00     0.040 C 
ATOM     13  H   LIG d   1      11.382  -0.552  -6.255  0.00  0.00     0.042 H 
ATOM     14  C   LIG d   1       9.459  -1.218  -5.490  0.00  0.00    -0.024 C 
ATOM     15  C   LIG d   1       7.510  -0.117  -6.417  0.00  0.00    -0.027 C 
ATOM     16  H   LIG d   1      12.149   2.079  -2.488  0.00  0.00     0.064 H 
ATOM     17  H   LIG d   1      12.134   0.293  -4.214  0.00  0.00     0.064 H 
ATOM     18  H   LIG d   1       7.586   2.488  -6.003  0.00  0.00     0.050 H 
ATOM     19  H   LIG d   1       8.947   2.941  -7.045  0.00  0.00     0.050 H 
ATOM     20  H   LIG d   1      10.403   1.020  -7.928  0.00  0.00     0.028 H 
ATOM     21  H   LIG d   1       9.657  -0.591  -8.105  0.00  0.00     0.028 H 
ATOM     22  H   LIG d   1       9.314  -2.038  -6.193  0.00  0.00     0.082 H 
ATOM     23  H   LIG d   1       9.905  -1.595  -4.570  0.00  0.00     0.082 H 
ATOM     24  H   LIG d   1       7.311  -0.970  -7.066  0.00  0.00     0.082 H 
ATOM     25  H   LIG d   1       6.566   0.362  -6.158  0.00  0.00     0.082 H 
ATOM     26  N   LIG d   1       8.170  -0.562  -5.174  0.00  0.00     0.236 N 
ATOM     27  H   LIG d   1       8.349   0.256  -4.579  0.00  0.00     0.203 HD
ENDROOT
BRANCH  26  28
ATOM     28  C   LIG d   1       7.292  -1.500  -4.444  0.00  0.00    -0.029 C 
ATOM     29  H   LIG d   1       6.979  -2.292  -5.123  0.00  0.00     0.082 H 
ATOM     30  H   LIG d   1       7.850  -1.932  -3.613  0.00  0.00     0.082 H 
BRANCH  28  31
ATOM     31  C   LIG d   1       6.058  -0.773  -3.906  0.00  0.00    -0.001 C 
ATOM     32  C   LIG d   1       5.377  -1.641  -2.845  0.00  0.00    -0.045 C 
ATOM     33  C   LIG d   1       4.143  -0.914  -2.306  0.00  0.00    -0.053 C 
ATOM     34  H   LIG d   1       5.075  -2.589  -3.291  0.00  0.00     0.027 H 
ATOM     35  H   LIG d   1       6.073  -1.828  -2.028  0.00  0.00     0.027 H 
ATOM     36  C   LIG d   1       4.567   0.416  -1.682  0.00  0.00    -0.053 C 
ATOM     37  H   LIG d   1       3.446  -0.726  -3.123  0.00  0.00     0.026 H 
ATOM     38  H   LIG d   1       3.658  -1.533  -1.551  0.00  0.00     0.026 H 
ATOM     39  C   LIG d   1       5.247   1.285  -2.743  0.00  0.00    -0.053 C 
ATOM     40  H   LIG d   1       3.688   0.934  -1.298  0.00  0.00     0.026 H 
ATOM     41  H   LIG d   1       5.263   0.229  -0.864  0.00  0.00     0.026 H 
ATOM     42  C   LIG d   1       6.481   0.558  -3.281  0.00  0.00    -0.045 C 
ATOM     43  H   LIG d   1       4.551   1.472  -3.559  0.00  0.00     0.026 H 
ATOM     44  H   LIG d   1       5.549   2.232  -2.297  0.00  0.00     0.026 H 
ATOM     45  H   LIG d   1       7.178   0.370  -2.464  0.00  0.00     0.027 H 
ATOM     46  H   LIG d   1       6.965   1.176  -4.036  0.00  0.00     0.027 H 
ATOM     47  H   LIG d   1       5.361  -0.585  -4.723  0.00  0.00     0.035 H 
ENDBRANCH  28  31
ENDBRANCH  26  28
BRANCH   1  48
ATOM     48  N   LIG d   1      10.354   4.008  -2.283  0.00  0.00    -0.277 N 
ATOM     49  C   LIG d   1      11.086   5.128  -2.444  0.00  0.00     0.248 C 
ATOM     50  O   LIG d   1      11.722   5.297  -3.467  0.00  0.00    -0.270 OA
ATOM     51  H   LIG d   1       9.803   3.900  -1.493  0.00  0.00     0.155 HD
BRANCH  49  52
ATOM     52  C   LIG d   1      11.117   6.151  -1.378  0.00  0.00     0.037 A 
ATOM     53  C   LIG d   1      11.091   5.764  -0.037  0.00  0.00    -0.047 A 
ATOM     54  C   LIG d   1      11.126   6.723   0.954  0.00  0.00    -0.026 A 
ATOM     55  H   LIG d   1      11.048   4.718   0.225  0.00  0.00     0.063 H 
ATOM     56  C   LIG d   1      11.175   8.067   0.620  0.00  0.00     0.123 A 
ATOM     57  H   LIG d   1      11.111   6.425   1.992  0.00  0.00     0.065 H 
ATOM     58  C   LIG d   1      11.195   8.456  -0.711  0.00  0.00    -0.026 A 
ATOM     59  F   LIG d   1      11.204   9.002   1.595  0.00  0.00    -0.205 F 
ATOM     60  C   LIG d   1      11.166   7.507  -1.709  0.00  0.00    -0.047 A 
ATOM     61  H   LIG d   1      11.232   9.505  -0.966  0.00  0.00     0.065 H 
ATOM     62  H   LIG d   1      11.182   7.811  -2.746  0.00  0.00     0.063 H 
ENDBRANCH  49  52
ENDBRANCH   1  48
TORSDOF 4
ENDMDL
MODEL 4
REMARK VINA RESULT:      -7.3      4.502      8.189
REMARK  4 active torsions:
REMARK  status: ('A' for Active; 'I' for Inactive)
REMARK    1  A    between atoms: C_6  and  C_7 
REMARK       I    between atoms: C_7  and  N_9 
REMARK    2  A    between atoms: N_9  and  C_10 
REMARK    3  A    between atoms: C_25  and  C_26 
REMARK    4  A    between atoms: C_25  and  N_61 
ROOT
ATOM      1  C   LIG d   1       9.305   1.150  -5.891  0.00  0.00     0.099 C 
ATOM      2  C   LIG d   1      10.197   0.174  -5.535  0.00  0.00    -0.034 C 
ATOM      3  C   LIG d   1       9.916  -1.155  -5.873  0.00  0.00    -0.040 C 
ATOM      4  C   LIG d   1       8.783  -1.469  -6.552  0.00  0.00     0.030 C 
ATOM      5  N   LIG d   1       7.941  -0.497  -6.981  0.00  0.00    -0.310 N 
ATOM      6  C   LIG d   1       8.140   0.787  -6.595  0.00  0.00     0.273 C 
ATOM      7  O   LIG d   1       7.306   1.636  -6.863  0.00  0.00    -0.266 OA
ATOM      8  C   LIG d   1       6.832  -0.751  -7.902  0.00  0.00     0.034 C 
ATOM      9  C   LIG d   1       6.408  -2.211  -7.904  0.00  0.00     0.018 C 
ATOM     10  H   LIG d   1       5.775  -2.384  -8.773  0.00  0.00     0.037 H 
ATOM     11  C   LIG d   1       7.647  -3.101  -8.036  0.00  0.00    -0.031 C 
ATOM     12  C   LIG d   1       8.477  -2.936  -6.759  0.00  0.00     0.040 C 
ATOM     13  H   LIG d   1       9.399  -3.514  -6.815  0.00  0.00     0.042 H 
ATOM     14  C   LIG d   1       7.620  -3.403  -5.571  0.00  0.00    -0.024 C 
ATOM     15  C   LIG d   1       5.619  -2.570  -6.653  0.00  0.00    -0.027 C 
ATOM     16  H   LIG d   1      11.105   0.426  -5.007  0.00  0.00     0.064 H 
ATOM     17  H   LIG d   1      10.606  -1.936  -5.591  0.00  0.00     0.064 H 
ATOM     18  H   LIG d   1       5.981  -0.137  -7.608  0.00  0.00     0.050 H 
ATOM     19  H   LIG d   1       7.139  -0.471  -8.909  0.00  0.00     0.050 H 
ATOM     20  H   LIG d   1       8.234  -2.792  -8.901  0.00  0.00     0.028 H 
ATOM     21  H   LIG d   1       7.343  -4.142  -8.148  0.00  0.00     0.028 H 
ATOM     22  H   LIG d   1       7.274  -4.421  -5.743  0.00  0.00     0.082 H 
ATOM     23  H   LIG d   1       8.210  -3.364  -4.654  0.00  0.00     0.082 H 
ATOM     24  H   LIG d   1       5.228  -3.582  -6.755  0.00  0.00     0.082 H 
ATOM     25  H   LIG d   1       4.786  -1.875  -6.544  0.00  0.00     0.082 H 
ATOM     26  N   LIG d   1       6.475  -2.471  -5.454  0.00  0.00     0.236 N 
ATOM     27  H   LIG d   1       6.833  -1.511  -5.378  0.00  0.00     0.203 HD
ENDROOT
BRANCH  26  28
ATOM     28  C   LIG d   1       5.689  -2.785  -4.244  0.00  0.00    -0.029 C 
ATOM     29  H   LIG d   1       4.662  -3.005  -4.536  0.00  0.00     0.082 H 
ATOM     30  H   LIG d   1       6.124  -3.659  -3.758  0.00  0.00     0.082 H 
BRANCH  28  31
ATOM     31  C   LIG d   1       5.701  -1.604  -3.273  0.00  0.00    -0.001 C 
ATOM     32  C   LIG d   1       5.917  -0.305  -4.053  0.00  0.00    -0.045 C 
ATOM     33  C   LIG d   1       5.928   0.878  -3.082  0.00  0.00    -0.053 C 
ATOM     34  H   LIG d   1       6.870  -0.352  -4.581  0.00  0.00     0.027 H 
ATOM     35  H   LIG d   1       5.109  -0.175  -4.772  0.00  0.00     0.027 H 
ATOM     36  C   LIG d   1       4.591   0.943  -2.342  0.00  0.00    -0.053 C 
ATOM     37  H   LIG d   1       6.736   0.748  -2.361  0.00  0.00     0.026 H 
ATOM     38  H   LIG d   1       6.083   1.803  -3.638  0.00  0.00     0.026 H 
ATOM     39  C   LIG d   1       4.376  -0.355  -1.561  0.00  0.00    -0.053 C 
ATOM     40  H   LIG d   1       4.600   1.786  -1.650  0.00  0.00     0.026 H 
ATOM     41  H   LIG d   1       3.783   1.074  -3.062  0.00  0.00     0.026 H 
ATOM     42  C   LIG d   1       4.364  -1.537  -2.532  0.00  0.00    -0.045 C 
ATOM     43  H   LIG d   1       5.183  -0.484  -0.841  0.00  0.00     0.026 H 
ATOM     44  H   LIG d   1       3.423  -0.308  -1.035  0.00  0.00     0.026 H 
ATOM     45  H   LIG d   1       3.556  -1.408  -3.252  0.00  0.00     0.027 H 
ATOM     46  H   LIG d   1       4.210  -2.462  -1.977  0.00  0.00     0.027 H 
ATOM     47  H   LIG d   1       6.509  -1.732  -2.552  0.00  0.00     0.035 H 
ENDBRANCH  28  31
ENDBRANCH  26  28
BRANCH   1  48
ATOM     48  N   LIG d   1       9.544   2.488  -5.554  0.00  0.00    -0.277 N 
ATOM     49  C   LIG d   1       9.375   2.903  -4.283  0.00  0.00     0.248 C 
ATOM     50  O   LIG d   1       9.082   2.102  -3.415  0.00  0.00    -0.270 OA
ATOM     51  H   LIG d   1       9.832   3.116  -6.234  0.00  0.00     0.155 HD
BRANCH  49  52
ATOM     52  C   LIG d   1       9.543   4.331  -3.943  0.00  0.00     0.037 A 
ATOM     53  C   LIG d   1       9.298   5.313  -4.905  0.00  0.00    -0.047 A 
ATOM     54  C   LIG d   1       9.451   6.644  -4.581  0.00  0.00    -0.026 A 
ATOM     55  H   LIG d   1       8.983   5.031  -5.899  0.00  0.00     0.063 H 
ATOM     56  C   LIG d   1       9.860   7.007  -3.307  0.00  0.00     0.123 A 
ATOM     57  H   LIG d   1       9.256   7.405  -5.323  0.00  0.00     0.065 H 
ATOM     58  C   LIG d   1      10.111   6.035  -2.350  0.00  0.00    -0.026 A 
ATOM     59  F   LIG d   1      10.013   8.313  -2.997  0.00  0.00    -0.205 F 
ATOM     60  C   LIG d   1       9.956   4.703  -2.661  0.00  0.00    -0.047 A 
ATOM     61  H   LIG d   1      10.430   6.325  -1.359  0.00  0.00     0.065 H 
ATOM     62  H   LIG d   1      10.151   3.946  -1.915  0.00  0.00     0.063 H 
ENDBRANCH  49  52
ENDBRANCH   1  48
TORSDOF 4
ENDMDL
MODEL 5
REMARK VINA RESULT:      -7.2      5.853      9.247
REMARK  4 active torsions:
REMARK  status: ('A' for Active; 'I' for Inactive)
REMARK    1  A    between atoms: C_6  and  C_7 
REMARK       I    between atoms: C_7  and  N_9 
REMARK    2  A    between atoms: N_9  and  C_10 
REMARK    3  A    between atoms: C_25  and  C_26 
REMARK    4  A    between atoms: C_25  and  N_61 
ROOT
ATOM      1  C   LIG d   1       9.830   1.716  -4.718  0.00  0.00     0.099 C 
ATOM      2  C   LIG d   1       9.943   1.933  -6.065  0.00  0.00    -0.034 C 
ATOM      3  C   LIG d   1      10.917   2.828  -6.526  0.00  0.00    -0.040 C 
ATOM      4  C   LIG d   1      11.740   3.461  -5.653  0.00  0.00     0.030 C 
ATOM      5  N   LIG d   1      11.688   3.185  -4.326  0.00  0.00    -0.310 N 
ATOM      6  C   LIG d   1      10.702   2.391  -3.841  0.00  0.00     0.273 C 
ATOM      7  O   LIG d   1      10.571   2.256  -2.636  0.00  0.00    -0.266 OA
ATOM      8  C   LIG d   1      12.689   3.661  -3.371  0.00  0.00     0.034 C 
ATOM      9  C   LIG d   1      13.447   4.874  -3.888  0.00  0.00     0.018 C 
ATOM     10  H   LIG d   1      14.330   5.019  -3.267  0.00  0.00     0.037 H 
ATOM     11  C   LIG d   1      13.915   4.609  -5.322  0.00  0.00    -0.031 C 
ATOM     12  C   LIG d   1      12.669   4.517  -6.209  0.00  0.00     0.040 C 
ATOM     13  H   LIG d   1      12.940   4.283  -7.238  0.00  0.00     0.042 H 
ATOM     14  C   LIG d   1      11.934   5.866  -6.138  0.00  0.00    -0.024 C 
ATOM     15  C   LIG d   1      12.599   6.136  -3.824  0.00  0.00    -0.027 C 
ATOM     16  H   LIG d   1       9.298   1.418  -6.760  0.00  0.00     0.064 H 
ATOM     17  H   LIG d   1      11.011   3.015  -7.585  0.00  0.00     0.064 H 
ATOM     18  H   LIG d   1      12.191   3.927  -2.440  0.00  0.00     0.050 H 
ATOM     19  H   LIG d   1      13.399   2.858  -3.174  0.00  0.00     0.050 H 
ATOM     20  H   LIG d   1      14.468   3.670  -5.362  0.00  0.00     0.028 H 
ATOM     21  H   LIG d   1      14.551   5.427  -5.659  0.00  0.00     0.028 H 
ATOM     22  H   LIG d   1      12.615   6.671  -6.414  0.00  0.00     0.082 H 
ATOM     23  H   LIG d   1      11.081   5.855  -6.816  0.00  0.00     0.082 H 
ATOM     24  H   LIG d   1      13.218   6.995  -4.081  0.00  0.00     0.082 H 
ATOM     25  H   LIG d   1      12.219   6.261  -2.810  0.00  0.00     0.082 H 
ATOM     26  N   LIG d   1      11.452   6.037  -4.749  0.00  0.00     0.236 N 
ATOM     27  H   LIG d   1      10.884   5.221  -4.490  0.00  0.00     0.203 HD
ENDROOT
BRANCH  26  28
ATOM     28  C   LIG d   1      10.618   7.252  -4.650  0.00  0.00    -0.029 C 
ATOM     29  H   LIG d   1      11.037   8.023  -5.296  0.00  0.00     0.082 H 
ATOM     30  H   LIG d   1       9.606   7.013  -4.979  0.00  0.00     0.082 H 
BRANCH  28  31
ATOM     31  C   LIG d   1      10.577   7.761  -3.208  0.00  0.00    -0.001 C 
ATOM     32  C   LIG d   1      10.241   9.254  -3.204  0.00  0.00    -0.045 C 
ATOM     33  C   LIG d   1      10.200   9.764  -1.762  0.00  0.00    -0.053 C 
ATOM     34  H   LIG d   1      11.003   9.800  -3.761  0.00  0.00     0.027 H 
ATOM     35  H   LIG d   1       9.269   9.409  -3.671  0.00  0.00     0.027 H 
ATOM     36  C   LIG d   1       9.131   8.998  -0.980  0.00  0.00    -0.053 C 
ATOM     37  H   LIG d   1      11.173   9.609  -1.294  0.00  0.00     0.026 H 
ATOM     38  H   LIG d   1       9.961  10.827  -1.759  0.00  0.00     0.026 H 
ATOM     39  C   LIG d   1       9.467   7.505  -0.984  0.00  0.00    -0.053 C 
ATOM     40  H   LIG d   1       9.102   9.361   0.047  0.00  0.00     0.026 H 
ATOM     41  H   LIG d   1       8.158   9.153  -1.447  0.00  0.00     0.026 H 
ATOM     42  C   LIG d   1       9.508   6.996  -2.426  0.00  0.00    -0.045 C 
ATOM     43  H   LIG d   1      10.439   7.350  -0.517  0.00  0.00     0.026 H 
ATOM     44  H   LIG d   1       8.705   6.960  -0.428  0.00  0.00     0.026 H 
ATOM     45  H   LIG d   1       8.536   7.150  -2.894  0.00  0.00     0.027 H 
ATOM     46  H   LIG d   1       9.747   5.933  -2.429  0.00  0.00     0.027 H 
ATOM     47  H   LIG d   1      11.549   7.607  -2.740  0.00  0.00     0.035 H 
ENDBRANCH  28  31
ENDBRANCH  26  28
BRANCH   1  48
ATOM     48  N   LIG d   1       8.856   0.841  -4.219  0.00  0.00    -0.277 N 
ATOM     49  C   LIG d   1       7.602   1.283  -4.002  0.00  0.00     0.248 C 
ATOM     50  O   LIG d   1       7.297   2.421  -4.304  0.00  0.00    -0.270 OA
ATOM     51  H   LIG d   1       9.084  -0.082  -4.031  0.00  0.00     0.155 HD
BRANCH  49  52
ATOM     52  C   LIG d   1       6.597   0.385  -3.396  0.00  0.00     0.037 A 
ATOM     53  C   LIG d   1       5.548   0.916  -2.643  0.00  0.00    -0.047 A 
ATOM     54  C   LIG d   1       4.610   0.074  -2.084  0.00  0.00    -0.026 A 
ATOM     55  H   LIG d   1       5.468   1.983  -2.502  0.00  0.00     0.063 H 
ATOM     56  C   LIG d   1       4.715  -1.298  -2.259  0.00  0.00     0.123 A 
ATOM     57  H   LIG d   1       3.795   0.483  -1.505  0.00  0.00     0.065 H 
ATOM     58  C   LIG d   1       5.758  -1.830  -3.001  0.00  0.00    -0.026 A 
ATOM     59  F   LIG d   1       3.795  -2.118  -1.705  0.00  0.00    -0.205 F 
ATOM     60  C   LIG d   1       6.698  -0.998  -3.568  0.00  0.00    -0.047 A 
ATOM     61  H   LIG d   1       5.834  -2.899  -3.134  0.00  0.00     0.065 H 
ATOM     62  H   LIG d   1       7.510  -1.413  -4.148  0.00  0.00     0.063 H 
ENDBRANCH  49  52
ENDBRANCH   1  48
TORSDOF 4
ENDMDL
MODEL 6
REMARK VINA RESULT:      -7.1      5.502      8.294
REMARK  4 active torsions:
REMARK  status: ('A' for Active; 'I' for Inactive)
REMARK    1  A    between atoms: C_6  and  C_7 
REMARK       I    between atoms: C_7  and  N_9 
REMARK    2  A    between atoms: N_9  and  C_10 
REMARK    3  A    between atoms: C_25  and  C_26 
REMARK    4  A    between atoms: C_25  and  N_61 
ROOT
ATOM      1  C   LIG d   1       5.102  -4.277  -6.265  0.00  0.00     0.099 C 
ATOM      2  C   LIG d   1       5.971  -4.137  -7.313  0.00  0.00    -0.034 C 
ATOM      3  C   LIG d   1       6.509  -5.287  -7.904  0.00  0.00    -0.040 C 
ATOM      4  C   LIG d   1       6.166  -6.520  -7.451  0.00  0.00     0.030 C 
ATOM      5  N   LIG d   1       5.241  -6.664  -6.470  0.00  0.00    -0.310 N 
ATOM      6  C   LIG d   1       4.769  -5.572  -5.821  0.00  0.00     0.273 C 
ATOM      7  O   LIG d   1       4.045  -5.711  -4.849  0.00  0.00    -0.266 OA
ATOM      8  C   LIG d   1       4.668  -7.958  -6.098  0.00  0.00     0.034 C 
ATOM      9  C   LIG d   1       5.554  -9.122  -6.515  0.00  0.00     0.018 C 
ATOM     10  H   LIG d   1       4.971 -10.040  -6.449  0.00  0.00     0.037 H 
ATOM     11  C   LIG d   1       5.981  -8.938  -7.974  0.00  0.00    -0.031 C 
ATOM     12  C   LIG d   1       6.892  -7.708  -8.041  0.00  0.00     0.040 C 
ATOM     13  H   LIG d   1       7.192  -7.500  -9.068  0.00  0.00     0.042 H 
ATOM     14  C   LIG d   1       8.125  -7.981  -7.164  0.00  0.00    -0.024 C 
ATOM     15  C   LIG d   1       6.770  -9.256  -5.611  0.00  0.00    -0.027 C 
ATOM     16  H   LIG d   1       6.233  -3.157  -7.682  0.00  0.00     0.064 H 
ATOM     17  H   LIG d   1       7.203  -5.191  -8.725  0.00  0.00     0.064 H 
ATOM     18  H   LIG d   1       4.534  -7.988  -5.016  0.00  0.00     0.050 H 
ATOM     19  H   LIG d   1       3.695  -8.065  -6.576  0.00  0.00     0.050 H 
ATOM     20  H   LIG d   1       5.102  -8.781  -8.600  0.00  0.00     0.028 H 
ATOM     21  H   LIG d   1       6.524  -9.820  -8.314  0.00  0.00     0.028 H 
ATOM     22  H   LIG d   1       8.607  -8.905  -7.482  0.00  0.00     0.082 H 
ATOM     23  H   LIG d   1       8.827  -7.151  -7.247  0.00  0.00     0.082 H 
ATOM     24  H   LIG d   1       7.305 -10.171  -5.866  0.00  0.00     0.082 H 
ATOM     25  H   LIG d   1       6.441  -9.311  -4.574  0.00  0.00     0.082 H 
ATOM     26  N   LIG d   1       7.659  -8.086  -5.762  0.00  0.00     0.236 N 
ATOM     27  H   LIG d   1       7.136  -7.236  -5.520  0.00  0.00     0.203 HD
ENDROOT
BRANCH  26  28
ATOM     28  C   LIG d   1       8.817  -8.211  -4.853  0.00  0.00    -0.029 C 
ATOM     29  H   LIG d   1       8.769  -9.176  -4.350  0.00  0.00     0.082 H 
ATOM     30  H   LIG d   1       9.734  -8.151  -5.440  0.00  0.00     0.082 H 
BRANCH  28  31
ATOM     31  C   LIG d   1       8.805  -7.091  -3.811  0.00  0.00    -0.001 C 
ATOM     32  C   LIG d   1       9.819  -7.410  -2.709  0.00  0.00    -0.045 C 
ATOM     33  C   LIG d   1       9.808  -6.291  -1.666  0.00  0.00    -0.053 C 
ATOM     34  H   LIG d   1       9.552  -8.354  -2.232  0.00  0.00     0.027 H 
ATOM     35  H   LIG d   1      10.814  -7.491  -3.144  0.00  0.00     0.027 H 
ATOM     36  C   LIG d   1      10.182  -4.967  -2.336  0.00  0.00    -0.053 C 
ATOM     37  H   LIG d   1       8.811  -6.209  -1.231  0.00  0.00     0.026 H 
ATOM     38  H   LIG d   1      10.529  -6.518  -0.881  0.00  0.00     0.026 H 
ATOM     39  C   LIG d   1       9.168  -4.647  -3.437  0.00  0.00    -0.053 C 
ATOM     40  H   LIG d   1      10.174  -4.169  -1.592  0.00  0.00     0.026 H 
ATOM     41  H   LIG d   1      11.178  -5.048  -2.770  0.00  0.00     0.026 H 
ATOM     42  C   LIG d   1       9.180  -5.767  -4.479  0.00  0.00    -0.045 C 
ATOM     43  H   LIG d   1       8.173  -4.566  -3.002  0.00  0.00     0.026 H 
ATOM     44  H   LIG d   1       9.436  -3.705  -3.913  0.00  0.00     0.026 H 
ATOM     45  H   LIG d   1      10.175  -5.849  -4.915  0.00  0.00     0.027 H 
ATOM     46  H   LIG d   1       8.458  -5.540  -5.264  0.00  0.00     0.027 H 
ATOM     47  H   LIG d   1       7.810  -7.010  -3.375  0.00  0.00     0.035 H 
ENDBRANCH  28  31
ENDBRANCH  26  28
BRANCH   1  48
ATOM     48  N   LIG d   1       4.558  -3.148  -5.638  0.00  0.00    -0.277 N 
ATOM     49  C   LIG d   1       5.248  -2.519  -4.667  0.00  0.00     0.248 C 
ATOM     50  O   LIG d   1       6.372  -2.887  -4.383  0.00  0.00    -0.270 OA
ATOM     51  H   LIG d   1       3.685  -2.820  -5.903  0.00  0.00     0.155 HD
BRANCH  49  52
ATOM     52  C   LIG d   1       4.639  -1.382  -3.947  0.00  0.00     0.037 A 
ATOM     53  C   LIG d   1       4.946  -1.160  -2.603  0.00  0.00    -0.047 A 
ATOM     54  C   LIG d   1       4.379  -0.094  -1.937  0.00  0.00    -0.026 A 
ATOM     55  H   LIG d   1       5.628  -1.818  -2.087  0.00  0.00     0.063 H 
ATOM     56  C   LIG d   1       3.498   0.750  -2.596  0.00  0.00     0.123 A 
ATOM     57  H   LIG d   1       4.619   0.082  -0.898  0.00  0.00     0.065 H 
ATOM     58  C   LIG d   1       3.186   0.530  -3.929  0.00  0.00    -0.026 A 
ATOM     59  F   LIG d   1       2.942   1.790  -1.937  0.00  0.00    -0.205 F 
ATOM     60  C   LIG d   1       3.750  -0.529  -4.606  0.00  0.00    -0.047 A 
ATOM     61  H   LIG d   1       2.499   1.190  -4.438  0.00  0.00     0.065 H 
ATOM     62  H   LIG d   1       3.507  -0.699  -5.645  0.00  0.00     0.063 H 
ENDBRANCH  49  52
ENDBRANCH   1  48
TORSDOF 4
ENDMDL
MODEL 7
REMARK VINA RESULT:      -7.1      4.257      8.320
REMARK  4 active torsions:
REMARK  status: ('A' for Active; 'I' for Inactive)
REMARK    1  A    between atoms: C_6  and  C_7 
REMARK       I    between atoms: C_7  and  N_9 
REMARK    2  A    between atoms: N_9  and  C_10 
REMARK    3  A    between atoms: C_25  and  C_26 
REMARK    4  A    between atoms: C_25  and  N_61 
ROOT
ATOM      1  C   LIG d   1       7.577   1.461  -4.389  0.00  0.00     0.099 C 
ATOM      2  C   LIG d   1       6.697   1.032  -3.432  0.00  0.00    -0.034 C 
ATOM      3  C   LIG d   1       6.221  -0.283  -3.492  0.00  0.00    -0.040 C 
ATOM      4  C   LIG d   1       6.633  -1.122  -4.477  0.00  0.00     0.030 C 
ATOM      5  N   LIG d   1       7.569  -0.727  -5.376  0.00  0.00    -0.310 N 
ATOM      6  C   LIG d   1       7.983   0.563  -5.396  0.00  0.00     0.273 C 
ATOM      7  O   LIG d   1       8.717   0.950  -6.291  0.00  0.00    -0.266 OA
ATOM      8  C   LIG d   1       8.213  -1.648  -6.313  0.00  0.00     0.034 C 
ATOM      9  C   LIG d   1       7.392  -2.907  -6.540  0.00  0.00     0.018 C 
ATOM     10  H   LIG d   1       8.024  -3.648  -7.028  0.00  0.00     0.037 H 
ATOM     11  C   LIG d   1       6.949  -3.477  -5.190  0.00  0.00    -0.031 C 
ATOM     12  C   LIG d   1       5.971  -2.479  -4.561  0.00  0.00     0.040 C 
ATOM     13  H   LIG d   1       5.656  -2.812  -3.573  0.00  0.00     0.042 H 
ATOM     14  C   LIG d   1       4.759  -2.346  -5.497  0.00  0.00    -0.024 C 
ATOM     15  C   LIG d   1       6.188  -2.639  -7.432  0.00  0.00    -0.027 C 
ATOM     16  H   LIG d   1       6.380   1.695  -2.641  0.00  0.00     0.064 H 
ATOM     17  H   LIG d   1       5.520  -0.632  -2.749  0.00  0.00     0.064 H 
ATOM     18  H   LIG d   1       8.353  -1.141  -7.267  0.00  0.00     0.050 H 
ATOM     19  H   LIG d   1       9.189  -1.930  -5.917  0.00  0.00     0.050 H 
ATOM     20  H   LIG d   1       7.815  -3.605  -4.541  0.00  0.00     0.028 H 
ATOM     21  H   LIG d   1       6.454  -4.437  -5.339  0.00  0.00     0.028 H 
ATOM     22  H   LIG d   1       4.327  -3.329  -5.683  0.00  0.00     0.082 H 
ATOM     23  H   LIG d   1       4.012  -1.696  -5.042  0.00  0.00     0.082 H 
ATOM     24  H   LIG d   1       5.703  -3.586  -7.672  0.00  0.00     0.082 H 
ATOM     25  H   LIG d   1       6.523  -2.167  -8.355  0.00  0.00     0.082 H 
ATOM     26  N   LIG d   1       5.235  -1.734  -6.759  0.00  0.00     0.236 N 
ATOM     27  H   LIG d   1       5.712  -0.850  -6.541  0.00  0.00     0.203 HD
ENDROOT
BRANCH  26  28
ATOM     28  C   LIG d   1       4.090  -1.453  -7.648  0.00  0.00    -0.029 C 
ATOM     29  H   LIG d   1       4.231  -1.989  -8.586  0.00  0.00     0.082 H 
ATOM     30  H   LIG d   1       3.175  -1.799  -7.165  0.00  0.00     0.082 H 
BRANCH  28  31
ATOM     31  C   LIG d   1       3.982   0.047  -7.929  0.00  0.00    -0.001 C 
ATOM     32  C   LIG d   1       5.137   0.481  -8.834  0.00  0.00    -0.045 C 
ATOM     33  C   LIG d   1       5.030   1.981  -9.115  0.00  0.00    -0.053 C 
ATOM     34  H   LIG d   1       6.086   0.270  -8.338  0.00  0.00     0.027 H 
ATOM     35  H   LIG d   1       5.089  -0.069  -9.773  0.00  0.00     0.027 H 
ATOM     36  C   LIG d   1       3.699   2.275  -9.810  0.00  0.00    -0.053 C 
ATOM     37  H   LIG d   1       5.078   2.531  -8.174  0.00  0.00     0.026 H 
ATOM     38  H   LIG d   1       5.853   2.290  -9.759  0.00  0.00     0.026 H 
ATOM     39  C   LIG d   1       2.544   1.843  -8.904  0.00  0.00    -0.053 C 
ATOM     40  H   LIG d   1       3.623   3.345 -10.010  0.00  0.00     0.026 H 
ATOM     41  H   LIG d   1       3.651   1.726 -10.750  0.00  0.00     0.026 H 
ATOM     42  C   LIG d   1       2.652   0.343  -8.624  0.00  0.00    -0.045 C 
ATOM     43  H   LIG d   1       2.592   2.392  -7.965  0.00  0.00     0.026 H 
ATOM     44  H   LIG d   1       1.597   2.052  -9.401  0.00  0.00     0.026 H 
ATOM     45  H   LIG d   1       2.603  -0.208  -9.563  0.00  0.00     0.027 H 
ATOM     46  H   LIG d   1       1.829   0.034  -7.979  0.00  0.00     0.027 H 
ATOM     47  H   LIG d   1       4.031   0.597  -6.989  0.00  0.00     0.035 H 
ENDBRANCH  28  31
ENDBRANCH  26  28
BRANCH   1  48
ATOM     48  N   LIG d   1       8.061   2.775  -4.371  0.00  0.00    -0.277 N 
ATOM     49  C   LIG d   1       9.182   3.070  -3.685  0.00  0.00     0.248 C 
ATOM     50  O   LIG d   1       9.812   2.185  -3.139  0.00  0.00    -0.270 OA
ATOM     51  H   LIG d   1       7.590   3.472  -4.853  0.00  0.00     0.155 HD
BRANCH  49  52
ATOM     52  C   LIG d   1       9.646   4.470  -3.594  0.00  0.00     0.037 A 
ATOM     53  C   LIG d   1      10.313   4.914  -2.451  0.00  0.00    -0.047 A 
ATOM     54  C   LIG d   1      10.749   6.220  -2.374  0.00  0.00    -0.026 A 
ATOM     55  H   LIG d   1      10.493   4.235  -1.631  0.00  0.00     0.063 H 
ATOM     56  C   LIG d   1      10.515   7.094  -3.424  0.00  0.00     0.123 A 
ATOM     57  H   LIG d   1      11.270   6.563  -1.492  0.00  0.00     0.065 H 
ATOM     58  C   LIG d   1       9.847   6.660  -4.559  0.00  0.00    -0.026 A 
ATOM     59  F   LIG d   1      10.940   8.374  -3.341  0.00  0.00    -0.205 F 
ATOM     60  C   LIG d   1       9.412   5.356  -4.649  0.00  0.00    -0.047 A 
ATOM     61  H   LIG d   1       9.667   7.346  -5.374  0.00  0.00     0.065 H 
ATOM     62  H   LIG d   1       8.893   5.018  -5.534  0.00  0.00     0.063 H 
ENDBRANCH  49  52
ENDBRANCH   1  48
TORSDOF 4
ENDMDL
MODEL 8
REMARK VINA RESULT:      -7.1      5.870      9.466
REMARK  4 active torsions:
REMARK  status: ('A' for Active; 'I' for Inactive)
REMARK    1  A    between atoms: C_6  and  C_7 
REMARK       I    between atoms: C_7  and  N_9 
REMARK    2  A    between atoms: N_9  and  C_10 
REMARK    3  A    between atoms: C_25  and  C_26 
REMARK    4  A    between atoms: C_25  and  N_61 
ROOT
ATOM      1  C   LIG d   1       9.387   2.844  -4.125  0.00  0.00     0.099 C 
ATOM      2  C   LIG d   1       8.953   4.074  -4.539  0.00  0.00    -0.034 C 
ATOM      3  C   LIG d   1       9.861   4.937  -5.163  0.00  0.00    -0.040 C 
ATOM      4  C   LIG d   1      11.149   4.555  -5.363  0.00  0.00     0.030 C 
ATOM      5  N   LIG d   1      11.561   3.307  -5.032  0.00  0.00    -0.310 N 
ATOM      6  C   LIG d   1      10.730   2.481  -4.349  0.00  0.00     0.273 C 
ATOM      7  O   LIG d   1      11.147   1.414  -3.930  0.00  0.00    -0.266 OA
ATOM      8  C   LIG d   1      12.862   2.765  -5.425  0.00  0.00     0.034 C 
ATOM      9  C   LIG d   1      13.866   3.859  -5.752  0.00  0.00     0.018 C 
ATOM     10  H   LIG d   1      14.709   3.408  -6.274  0.00  0.00     0.037 H 
ATOM     11  C   LIG d   1      13.219   4.880  -6.692  0.00  0.00    -0.031 C 
ATOM     12  C   LIG d   1      12.106   5.589  -5.914  0.00  0.00     0.040 C 
ATOM     13  H   LIG d   1      11.577   6.298  -6.550  0.00  0.00     0.042 H 
ATOM     14  C   LIG d   1      12.747   6.311  -4.717  0.00  0.00    -0.024 C 
ATOM     15  C   LIG d   1      14.386   4.540  -4.494  0.00  0.00    -0.027 C 
ATOM     16  H   LIG d   1       7.925   4.371  -4.392  0.00  0.00     0.064 H 
ATOM     17  H   LIG d   1       9.535   5.913  -5.487  0.00  0.00     0.064 H 
ATOM     18  H   LIG d   1      13.254   2.159  -4.608  0.00  0.00     0.050 H 
ATOM     19  H   LIG d   1      12.731   2.132  -6.302  0.00  0.00     0.050 H 
ATOM     20  H   LIG d   1      12.797   4.369  -7.558  0.00  0.00     0.028 H 
ATOM     21  H   LIG d   1      13.964   5.606  -7.017  0.00  0.00     0.028 H 
ATOM     22  H   LIG d   1      13.535   6.978  -5.068  0.00  0.00     0.082 H 
ATOM     23  H   LIG d   1      11.989   6.884  -4.184  0.00  0.00     0.082 H 
ATOM     24  H   LIG d   1      15.191   5.224  -4.765  0.00  0.00     0.082 H 
ATOM     25  H   LIG d   1      14.774   3.784  -3.811  0.00  0.00     0.082 H 
ATOM     26  N   LIG d   1      13.299   5.274  -3.815  0.00  0.00     0.236 N 
ATOM     27  H   LIG d   1      12.551   4.613  -3.571  0.00  0.00     0.203 HD
ENDROOT
BRANCH  26  28
ATOM     28  C   LIG d   1      13.807   5.900  -2.578  0.00  0.00    -0.029 C 
ATOM     29  H   LIG d   1      14.340   5.149  -1.995  0.00  0.00     0.082 H 
ATOM     30  H   LIG d   1      14.491   6.706  -2.846  0.00  0.00     0.082 H 
BRANCH  28  31
ATOM     31  C   LIG d   1      12.653   6.466  -1.748  0.00  0.00    -0.001 C 
ATOM     32  C   LIG d   1      11.652   5.350  -1.441  0.00  0.00    -0.045 C 
ATOM     33  C   LIG d   1      10.497   5.915  -0.611  0.00  0.00    -0.053 C 
ATOM     34  H   LIG d   1      11.263   4.943  -2.375  0.00  0.00     0.027 H 
ATOM     35  H   LIG d   1      12.149   4.560  -0.880  0.00  0.00     0.027 H 
ATOM     36  C   LIG d   1      11.043   6.486   0.700  0.00  0.00    -0.053 C 
ATOM     37  H   LIG d   1       9.999   6.706  -1.172  0.00  0.00     0.026 H 
ATOM     38  H   LIG d   1       9.784   5.120  -0.393  0.00  0.00     0.026 H 
ATOM     39  C   LIG d   1      12.044   7.602   0.393  0.00  0.00    -0.053 C 
ATOM     40  H   LIG d   1      10.220   6.888   1.291  0.00  0.00     0.026 H 
ATOM     41  H   LIG d   1      11.540   5.695   1.261  0.00  0.00     0.026 H 
ATOM     42  C   LIG d   1      13.198   7.036  -0.437  0.00  0.00    -0.045 C 
ATOM     43  H   LIG d   1      11.546   8.392  -0.168  0.00  0.00     0.026 H 
ATOM     44  H   LIG d   1      12.432   8.007   1.326  0.00  0.00     0.026 H 
ATOM     45  H   LIG d   1      13.696   6.246   0.124  0.00  0.00     0.027 H 
ATOM     46  H   LIG d   1      13.911   7.831  -0.656  0.00  0.00     0.027 H 
ATOM     47  H   LIG d   1      12.155   7.256  -2.309  0.00  0.00     0.035 H 
ENDBRANCH  28  31
ENDBRANCH  26  28
BRANCH   1  48
ATOM     48  N   LIG d   1       8.511   1.960  -3.481  0.00  0.00    -0.277 N 
ATOM     49  C   LIG d   1       7.545   1.338  -4.185  0.00  0.00     0.248 C 
ATOM     50  O   LIG d   1       7.478   1.488  -5.390  0.00  0.00    -0.270 OA
ATOM     51  H   LIG d   1       8.599   1.797  -2.530  0.00  0.00     0.155 HD
BRANCH  49  52
ATOM     52  C   LIG d   1       6.567   0.473  -3.492  0.00  0.00     0.037 A 
ATOM     53  C   LIG d   1       6.627  -0.913  -3.647  0.00  0.00    -0.047 A 
ATOM     54  C   LIG d   1       5.715  -1.716  -2.994  0.00  0.00    -0.026 A 
ATOM     55  H   LIG d   1       7.387  -1.357  -4.272  0.00  0.00     0.063 H 
ATOM     56  C   LIG d   1       4.734  -1.148  -2.195  0.00  0.00     0.123 A 
ATOM     57  H   LIG d   1       5.763  -2.789  -3.108  0.00  0.00     0.065 H 
ATOM     58  C   LIG d   1       4.668   0.229  -2.044  0.00  0.00    -0.026 A 
ATOM     59  F   LIG d   1       3.841  -1.939  -1.562  0.00  0.00    -0.205 F 
ATOM     60  C   LIG d   1       5.577   1.040  -2.687  0.00  0.00    -0.047 A 
ATOM     61  H   LIG d   1       3.901   0.666  -1.421  0.00  0.00     0.065 H 
ATOM     62  H   LIG d   1       5.525   2.113  -2.568  0.00  0.00     0.063 H 
ENDBRANCH  49  52
ENDBRANCH   1  48
TORSDOF 4
ENDMDL
MODEL 9
REMARK VINA RESULT:      -7.0      3.373      5.827
REMARK  4 active torsions:
REMARK  status: ('A' for Active; 'I' for Inactive)
REMARK    1  A    between atoms: C_6  and  C_7 
REMARK       I    between atoms: C_7  and  N_9 
REMARK    2  A    between atoms: N_9  and  C_10 
REMARK    3  A    between atoms: C_25  and  C_26 
REMARK    4  A    between atoms: C_25  and  N_61 
ROOT
ATOM      1  C   LIG d   1       8.040   0.077  -4.957  0.00  0.00     0.099 C 
ATOM      2  C   LIG d   1       7.884   1.302  -4.367  0.00  0.00    -0.034 C 
ATOM      3  C   LIG d   1       6.834   1.486  -3.459  0.00  0.00    -0.040 C 
ATOM      4  C   LIG d   1       5.992   0.463  -3.161  0.00  0.00     0.030 C 
ATOM      5  N   LIG d   1       6.196  -0.774  -3.678  0.00  0.00    -0.310 N 
ATOM      6  C   LIG d   1       7.148  -0.961  -4.624  0.00  0.00     0.273 C 
ATOM      7  O   LIG d   1       7.236  -2.039  -5.189  0.00  0.00    -0.266 OA
ATOM      8  C   LIG d   1       5.466  -1.958  -3.225  0.00  0.00     0.034 C 
ATOM      9  C   LIG d   1       4.154  -1.600  -2.544  0.00  0.00     0.018 C 
ATOM     10  H   LIG d   1       3.791  -2.479  -2.012  0.00  0.00     0.037 H 
ATOM     11  C   LIG d   1       4.399  -0.492  -1.517  0.00  0.00    -0.031 C 
ATOM     12  C   LIG d   1       4.801   0.772  -2.283  0.00  0.00     0.040 C 
ATOM     13  H   LIG d   1       5.033   1.587  -1.597  0.00  0.00     0.042 H 
ATOM     14  C   LIG d   1       3.633   1.161  -3.206  0.00  0.00    -0.024 C 
ATOM     15  C   LIG d   1       3.095  -1.176  -3.552  0.00  0.00    -0.027 C 
ATOM     16  H   LIG d   1       8.562   2.111  -4.593  0.00  0.00     0.064 H 
ATOM     17  H   LIG d   1       6.693   2.449  -2.992  0.00  0.00     0.064 H 
ATOM     18  H   LIG d   1       5.255  -2.594  -4.084  0.00  0.00     0.050 H 
ATOM     19  H   LIG d   1       6.089  -2.510  -2.522  0.00  0.00     0.050 H 
ATOM     20  H   LIG d   1       5.202  -0.785  -0.840  0.00  0.00     0.028 H 
ATOM     21  H   LIG d   1       3.486  -0.307  -0.949  0.00  0.00     0.028 H 
ATOM     22  H   LIG d   1       2.721   1.271  -2.620  0.00  0.00     0.082 H 
ATOM     23  H   LIG d   1       3.861   2.099  -3.713  0.00  0.00     0.082 H 
ATOM     24  H   LIG d   1       2.141  -1.053  -3.037  0.00  0.00     0.082 H 
ATOM     25  H   LIG d   1       2.993  -1.950  -4.312  0.00  0.00     0.082 H 
ATOM     26  N   LIG d   1       3.485   0.086  -4.213  0.00  0.00     0.236 N 
ATOM     27  H   LIG d   1       4.385  -0.051  -4.689  0.00  0.00     0.203 HD
ENDROOT
BRANCH  26  28
ATOM     28  C   LIG d   1       2.468   0.468  -5.213  0.00  0.00    -0.029 C 
ATOM     29  H   LIG d   1       1.551  -0.088  -5.016  0.00  0.00     0.082 H 
ATOM     30  H   LIG d   1       2.271   1.537  -5.126  0.00  0.00     0.082 H 
BRANCH  28  31
ATOM     31  C   LIG d   1       2.960   0.153  -6.627  0.00  0.00    -0.001 C 
ATOM     32  C   LIG d   1       2.787   1.389  -7.513  0.00  0.00    -0.045 C 
ATOM     33  C   LIG d   1       3.280   1.076  -8.928  0.00  0.00    -0.053 C 
ATOM     34  H   LIG d   1       1.734   1.668  -7.548  0.00  0.00     0.027 H 
ATOM     35  H   LIG d   1       3.368   2.214  -7.102  0.00  0.00     0.027 H 
ATOM     36  C   LIG d   1       4.758   0.685  -8.878  0.00  0.00    -0.053 C 
ATOM     37  H   LIG d   1       2.699   0.250  -9.340  0.00  0.00     0.026 H 
ATOM     38  H   LIG d   1       3.156   1.956  -9.559  0.00  0.00     0.026 H 
ATOM     39  C   LIG d   1       4.930  -0.552  -7.993  0.00  0.00    -0.053 C 
ATOM     40  H   LIG d   1       5.108   0.461  -9.887  0.00  0.00     0.026 H 
ATOM     41  H   LIG d   1       5.338   1.511  -8.467  0.00  0.00     0.026 H 
ATOM     42  C   LIG d   1       4.438  -0.237  -6.579  0.00  0.00    -0.045 C 
ATOM     43  H   LIG d   1       4.350  -1.377  -8.405  0.00  0.00     0.026 H 
ATOM     44  H   LIG d   1       5.983  -0.828  -7.958  0.00  0.00     0.026 H 
ATOM     45  H   LIG d   1       5.018   0.588  -6.167  0.00  0.00     0.027 H 
ATOM     46  H   LIG d   1       4.560  -1.117  -5.948  0.00  0.00     0.027 H 
ATOM     47  H   LIG d   1       2.379  -0.672  -7.040  0.00  0.00     0.035 H 
ENDBRANCH  28  31
ENDBRANCH  26  28
BRANCH   1  48
ATOM     48  N   LIG d   1       9.068  -0.139  -5.884  0.00  0.00    -0.277 N 
ATOM     49  C   LIG d   1       8.960   0.349  -7.135  0.00  0.00     0.248 C 
ATOM     50  O   LIG d   1       8.004   1.035  -7.440  0.00  0.00    -0.270 OA
ATOM     51  H   LIG d   1       9.858  -0.638  -5.625  0.00  0.00     0.155 HD
BRANCH  49  52
ATOM     52  C   LIG d   1      10.004   0.049  -8.137  0.00  0.00     0.037 A 
ATOM     53  C   LIG d   1      11.287  -0.314  -7.725  0.00  0.00    -0.047 A 
ATOM     54  C   LIG d   1      12.255  -0.598  -8.665  0.00  0.00    -0.026 A 
ATOM     55  H   LIG d   1      11.520  -0.377  -6.672  0.00  0.00     0.063 H 
ATOM     56  C   LIG d   1      11.959  -0.512 -10.016  0.00  0.00     0.123 A 
ATOM     57  H   LIG d   1      13.247  -0.884  -8.347  0.00  0.00     0.065 H 
ATOM     58  C   LIG d   1      10.687  -0.146 -10.431  0.00  0.00    -0.026 A 
ATOM     59  F   LIG d   1      12.913  -0.786 -10.933  0.00  0.00    -0.205 F 
ATOM     60  C   LIG d   1       9.711   0.135  -9.501  0.00  0.00    -0.047 A 
ATOM     61  H   LIG d   1      10.463  -0.080 -11.486  0.00  0.00     0.065 H 
ATOM     62  H   LIG d   1       8.720   0.420  -9.825  0.00  0.00     0.063 H 
ENDBRANCH  49  52
ENDBRANCH   1  48
TORSDOF 4
ENDMDL
MODEL 10
REMARK VINA RESULT:      -6.9      6.637      9.808
REMARK  4 active torsions:
REMARK  status: ('A' for Active; 'I' for Inactive)
REMARK    1  A    between atoms: C_6  and  C_7 
REMARK       I    between atoms: C_7  and  N_9 
REMARK    2  A    between atoms: N_9  and  C_10 
REMARK    3  A    between atoms: C_25  and  C_26 
REMARK    4  A    between atoms: C_25  and  N_61 
ROOT
ATOM      1  C   LIG d   1       5.715  -4.471  -5.745  0.00  0.00     0.099 C 
ATOM      2  C   LIG d   1       6.925  -4.410  -6.384  0.00  0.00    -0.034 C 
ATOM      3  C   LIG d   1       7.485  -5.591  -6.885  0.00  0.00    -0.040 C 
ATOM      4  C   LIG d   1       6.834  -6.775  -6.749  0.00  0.00     0.030 C 
ATOM      5  N   LIG d   1       5.598  -6.826  -6.194  0.00  0.00    -0.310 N 
ATOM      6  C   LIG d   1       5.069  -5.717  -5.623  0.00  0.00     0.273 C 
ATOM      7  O   LIG d   1       4.021  -5.797  -5.002  0.00  0.00    -0.266 OA
ATOM      8  C   LIG d   1       4.759  -8.025  -6.224  0.00  0.00     0.034 C 
ATOM      9  C   LIG d   1       5.572  -9.291  -6.442  0.00  0.00     0.018 C 
ATOM     10  H   LIG d   1       4.889 -10.097  -6.709  0.00  0.00     0.037 H 
ATOM     11  C   LIG d   1       6.536  -9.082  -7.613  0.00  0.00    -0.031 C 
ATOM     12  C   LIG d   1       7.562  -8.026  -7.187  0.00  0.00     0.040 C 
ATOM     13  H   LIG d   1       8.251  -7.801  -8.002  0.00  0.00     0.042 H 
ATOM     14  C   LIG d   1       8.326  -8.569  -5.969  0.00  0.00    -0.024 C 
ATOM     15  C   LIG d   1       6.330  -9.697  -5.186  0.00  0.00    -0.027 C 
ATOM     16  H   LIG d   1       7.435  -3.466  -6.504  0.00  0.00     0.064 H 
ATOM     17  H   LIG d   1       8.442  -5.559  -7.382  0.00  0.00     0.064 H 
ATOM     18  H   LIG d   1       4.226  -8.107  -5.276  0.00  0.00     0.050 H 
ATOM     19  H   LIG d   1       4.032  -7.928  -7.030  0.00  0.00     0.050 H 
ATOM     20  H   LIG d   1       5.986  -8.732  -8.487  0.00  0.00     0.028 H 
ATOM     21  H   LIG d   1       7.043 -10.018  -7.845  0.00  0.00     0.028 H 
ATOM     22  H   LIG d   1       8.764  -9.538  -6.210  0.00  0.00     0.082 H 
ATOM     23  H   LIG d   1       9.113  -7.869  -5.686  0.00  0.00     0.082 H 
ATOM     24  H   LIG d   1       6.793 -10.671  -5.348  0.00  0.00     0.082 H 
ATOM     25  H   LIG d   1       5.631  -9.768  -4.353  0.00  0.00     0.082 H 
ATOM     26  N   LIG d   1       7.359  -8.691  -4.855  0.00  0.00     0.236 N 
ATOM     27  H   LIG d   1       6.903  -7.782  -4.709  0.00  0.00     0.203 HD
ENDROOT
BRANCH  26  28
ATOM     28  C   LIG d   1       8.062  -9.078  -3.615  0.00  0.00    -0.029 C 
ATOM     29  H   LIG d   1       9.101  -9.305  -3.853  0.00  0.00     0.082 H 
ATOM     30  H   LIG d   1       8.023  -8.244  -2.912  0.00  0.00     0.082 H 
BRANCH  28  31
ATOM     31  C   LIG d   1       7.404 -10.307  -2.984  0.00  0.00    -0.001 C 
ATOM     32  C   LIG d   1       8.428 -11.440  -2.888  0.00  0.00    -0.045 C 
ATOM     33  C   LIG d   1       7.771 -12.670  -2.257  0.00  0.00    -0.053 C 
ATOM     34  H   LIG d   1       8.787 -11.692  -3.886  0.00  0.00     0.027 H 
ATOM     35  H   LIG d   1       9.267 -11.120  -2.270  0.00  0.00     0.027 H 
ATOM     36  C   LIG d   1       7.267 -12.316  -0.856  0.00  0.00    -0.053 C 
ATOM     37  H   LIG d   1       6.931 -12.990  -2.875  0.00  0.00     0.026 H 
ATOM     38  H   LIG d   1       8.500 -13.477  -2.189  0.00  0.00     0.026 H 
ATOM     39  C   LIG d   1       6.242 -11.183  -0.953  0.00  0.00    -0.053 C 
ATOM     40  H   LIG d   1       6.798 -13.192  -0.407  0.00  0.00     0.026 H 
ATOM     41  H   LIG d   1       8.106 -11.997  -0.239  0.00  0.00     0.026 H 
ATOM     42  C   LIG d   1       6.901  -9.954  -1.583  0.00  0.00    -0.045 C 
ATOM     43  H   LIG d   1       5.404 -11.503  -1.570  0.00  0.00     0.026 H 
ATOM     44  H   LIG d   1       5.885 -10.932   0.045  0.00  0.00     0.026 H 
ATOM     45  H   LIG d   1       7.740  -9.634  -0.966  0.00  0.00     0.027 H 
ATOM     46  H   LIG d   1       6.172  -9.148  -1.652  0.00  0.00     0.027 H 
ATOM     47  H   LIG d   1       6.565 -10.627  -3.602  0.00  0.00     0.035 H 
ENDBRANCH  28  31
ENDBRANCH  26  28
BRANCH   1  48
ATOM     48  N   LIG d   1       5.132  -3.313  -5.216  0.00  0.00    -0.277 N 
ATOM     49  C   LIG d   1       5.737  -2.656  -4.206  0.00  0.00     0.248 C 
ATOM     50  O   LIG d   1       6.821  -3.029  -3.801  0.00  0.00    -0.270 OA
ATOM     51  H   LIG d   1       4.295  -2.982  -5.576  0.00  0.00     0.155 HD
BRANCH  49  52
ATOM     52  C   LIG d   1       5.081  -1.484  -3.590  0.00  0.00     0.037 A 
ATOM     53  C   LIG d   1       3.706  -1.497  -3.350  0.00  0.00    -0.047 A 
ATOM     54  C   LIG d   1       3.100  -0.403  -2.770  0.00  0.00    -0.026 A 
ATOM     55  H   LIG d   1       3.118  -2.364  -3.614  0.00  0.00     0.063 H 
ATOM     56  C   LIG d   1       3.852   0.712  -2.435  0.00  0.00     0.123 A 
ATOM     57  H   LIG d   1       2.036  -0.414  -2.579  0.00  0.00     0.065 H 
ATOM     58  C   LIG d   1       5.217   0.732  -2.676  0.00  0.00    -0.026 A 
ATOM     59  F   LIG d   1       3.252   1.783  -1.871  0.00  0.00    -0.205 F 
ATOM     60  C   LIG d   1       5.833  -0.357  -3.251  0.00  0.00    -0.047 A 
ATOM     61  H   LIG d   1       5.798   1.605  -2.414  0.00  0.00     0.065 H 
ATOM     62  H   LIG d   1       6.898  -0.341  -3.438  0.00  0.00     0.063 H 
ENDBRANCH  49  52
ENDBRANCH   1  48
TORSDOF 4
ENDMDL
