MODEL 1
REMARK VINA RESULT:      -5.3      0.000      0.000
REMARK WARNING: 32 MAX_TORS EXCEEDED!!!
REMARK  40 active torsions:
REMARK  status: ('A' for Active; 'I' for Inactive)
REMARK    1  A    between atoms: C_1  and  C_2 
REMARK    2  A    between atoms: C_2  and  C_3 
REMARK    3  A    between atoms: C_3  and  C_4 
REMARK    4  A    between atoms: C_4  and  C_5 
REMARK    5  A    between atoms: C_5  and  C_6 
REMARK    6  A    between atoms: C_6  and  C_7 
REMARK    7  A    between atoms: C_7  and  C_8 
REMARK    8  A    between atoms: C_8  and  C_9 
REMARK    9  A    between atoms: C_9  and  C_10 
REMARK   10  A    between atoms: C_10  and  C_11 
REMARK   11  A    between atoms: C_11  and  C_12 
REMARK   12  A    between atoms: C_12  and  C_13 
REMARK   13  A    between atoms: C_13  and  C_14 
REMARK   14  A    between atoms: C_14  and  C_15 
REMARK   15  A    between atoms: C_15  and  C_17 
REMARK   16  A    between atoms: C_15  and  O_58 
REMARK       I    between atoms: C_17  and  N_19 
REMARK   17  A    between atoms: N_19  and  C_20 
REMARK   18  A    between atoms: C_20  and  C_22 
REMARK   19  A    between atoms: C_20  and  C_40 
REMARK   20  A    between atoms: C_22  and  O_23 
REMARK   21  A    between atoms: O_23  and  C_24 
REMARK   22  A    between atoms: C_26  and  O_39 
REMARK   23  A    between atoms: C_28  and  O_38 
REMARK   24  A    between atoms: C_30  and  O_37 
REMARK   25  A    between atoms: C_32  and  C_35 
REMARK   26  A    between atoms: C_35  and  O_36 
REMARK   27  A    between atoms: C_40  and  C_42 
REMARK   28  A    between atoms: C_40  and  O_57 
REMARK   29  A    between atoms: C_43  and  C_44 
REMARK   30  A    between atoms: C_44  and  C_45 
REMARK   31  A    between atoms: C_45  and  C_46 
REMARK   32  A    between atoms: C_47  and  C_48 
REMARK   33  A    between atoms: C_48  and  C_49 
REMARK   34  A    between atoms: C_49  and  C_50 
REMARK   35  A    between atoms: C_50  and  C_51 
REMARK   36  A    between atoms: C_51  and  C_52 
REMARK   37  A    between atoms: C_52  and  C_53 
REMARK   38  A    between atoms: C_53  and  C_54 
REMARK   39  A    between atoms: C_54  and  C_55 
REMARK   40  A    between atoms: C_55  and  C_56 
ROOT
ATOM      1  C   LIG d   1       1.864  -4.642 -10.488  0.00  0.00     0.076 C 
ATOM      2  H   LIG d   1       2.727  -4.409 -11.113  0.00  0.00     0.055 H 
ENDROOT
BRANCH   1   3
ATOM      3  N   LIG d   1       2.319  -4.997  -9.142  0.00  0.00    -0.305 N 
ATOM      4  C   LIG d   1       3.637  -5.046  -8.867  0.00  0.00     0.242 C 
ATOM      5  O   LIG d   1       4.447  -4.798  -9.735  0.00  0.00    -0.273 OA
ATOM      6  H   LIG d   1       1.671  -5.194  -8.448  0.00  0.00     0.149 HD
BRANCH   4   7
ATOM      7  C   LIG d   1       4.106  -5.411  -7.482  0.00  0.00     0.131 C 
ATOM      8  H   LIG d   1       4.319  -6.479  -7.441  0.00  0.00     0.069 H 
BRANCH   7   9
ATOM      9  C   LIG d   1       5.377  -4.625  -7.151  0.00  0.00    -0.018 C 
ATOM     10  H   LIG d   1       5.486  -3.799  -7.853  0.00  0.00     0.029 H 
ATOM     11  H   LIG d   1       6.241  -5.284  -7.227  0.00  0.00     0.029 H 
BRANCH   9  12
ATOM     12  C   LIG d   1       5.278  -4.073  -5.727  0.00  0.00    -0.050 C 
ATOM     13  H   LIG d   1       4.489  -4.598  -5.188  0.00  0.00     0.027 H 
ATOM     14  H   LIG d   1       5.046  -3.010  -5.765  0.00  0.00     0.027 H 
BRANCH  12  15
ATOM     15  C   LIG d   1       6.612  -4.280  -5.007  0.00  0.00    -0.053 C 
ATOM     16  H   LIG d   1       6.585  -5.221  -4.457  0.00  0.00     0.026 H 
ATOM     17  H   LIG d   1       6.780  -3.458  -4.311  0.00  0.00     0.026 H 
BRANCH  15  18
ATOM     18  C   LIG d   1       7.746  -4.321  -6.033  0.00  0.00    -0.053 C 
ATOM     19  H   LIG d   1       7.346  -4.107  -7.025  0.00  0.00     0.026 H 
ATOM     20  H   LIG d   1       8.201  -5.310  -6.031  0.00  0.00     0.026 H 
BRANCH  18  21
ATOM     21  C   LIG d   1       8.799  -3.273  -5.671  0.00  0.00    -0.053 C 
ATOM     22  H   LIG d   1       9.781  -3.619  -5.990  0.00  0.00     0.026 H 
ATOM     23  H   LIG d   1       8.802  -3.118  -4.591  0.00  0.00     0.026 H 
BRANCH  21  24
ATOM     24  C   LIG d   1       8.470  -1.955  -6.374  0.00  0.00    -0.053 C 
ATOM     25  H   LIG d   1       7.433  -1.969  -6.708  0.00  0.00     0.026 H 
ATOM     26  H   LIG d   1       9.127  -1.828  -7.234  0.00  0.00     0.026 H 
BRANCH  24  27
ATOM     27  C   LIG d   1       8.675  -0.792  -5.400  0.00  0.00    -0.053 C 
ATOM     28  H   LIG d   1       8.544   0.152  -5.928  0.00  0.00     0.026 H 
ATOM     29  H   LIG d   1       9.682  -0.840  -4.985  0.00  0.00     0.026 H 
BRANCH  27  30
ATOM     30  C   LIG d   1       7.652  -0.889  -4.267  0.00  0.00    -0.053 C 
ATOM     31  H   LIG d   1       8.098  -0.528  -3.341  0.00  0.00     0.026 H 
ATOM     32  H   LIG d   1       7.344  -1.927  -4.143  0.00  0.00     0.026 H 
BRANCH  30  33
ATOM     33  C   LIG d   1       6.430  -0.033  -4.610  0.00  0.00    -0.053 C 
ATOM     34  H   LIG d   1       6.437   0.202  -5.674  0.00  0.00     0.026 H 
ATOM     35  H   LIG d   1       6.461   0.892  -4.034  0.00  0.00     0.026 H 
BRANCH  33  36
ATOM     36  C   LIG d   1       5.154  -0.805  -4.267  0.00  0.00    -0.053 C 
ATOM     37  H   LIG d   1       4.944  -1.529  -5.054  0.00  0.00     0.026 H 
ATOM     38  H   LIG d   1       4.320  -0.109  -4.182  0.00  0.00     0.026 H 
BRANCH  36  39
ATOM     39  C   LIG d   1       5.344  -1.537  -2.937  0.00  0.00    -0.053 C 
ATOM     40  H   LIG d   1       6.349  -1.353  -2.560  0.00  0.00     0.026 H 
ATOM     41  H   LIG d   1       5.203  -2.608  -3.088  0.00  0.00     0.026 H 
BRANCH  39  42
ATOM     42  C   LIG d   1       4.317  -1.026  -1.923  0.00  0.00    -0.053 C 
ATOM     43  H   LIG d   1       4.832  -0.518  -1.109  0.00  0.00     0.026 H 
ATOM     44  H   LIG d   1       3.750  -1.868  -1.525  0.00  0.00     0.026 H 
BRANCH  42  45
ATOM     45  C   LIG d   1       3.362  -0.050  -2.613  0.00  0.00    -0.056 C 
ATOM     46  H   LIG d   1       2.338  -0.272  -2.317  0.00  0.00     0.026 H 
ATOM     47  H   LIG d   1       3.458  -0.151  -3.694  0.00  0.00     0.026 H 
BRANCH  45  48
ATOM     48  C   LIG d   1       3.713   1.382  -2.201  0.00  0.00    -0.065 C 
ATOM     49  H   LIG d   1       3.002   1.729  -1.452  0.00  0.00     0.023 H 
ATOM     50  H   LIG d   1       4.720   1.403  -1.784  0.00  0.00     0.023 H 
ATOM     51  H   LIG d   1       3.669   2.033  -3.074  0.00  0.00     0.023 H 
ENDBRANCH  45  48
ENDBRANCH  42  45
ENDBRANCH  39  42
ENDBRANCH  36  39
ENDBRANCH  33  36
ENDBRANCH  30  33
ENDBRANCH  27  30
ENDBRANCH  24  27
ENDBRANCH  21  24
ENDBRANCH  18  21
ENDBRANCH  15  18
ENDBRANCH  12  15
ENDBRANCH   9  12
ENDBRANCH   7   9
BRANCH   7  52
ATOM     52  O   LIG d   1       3.086  -5.092  -6.534  0.00  0.00    -0.383 OA
ATOM     53  H   LIG d   1       3.423  -4.726  -5.704  0.00  0.00     0.210 HD
ENDBRANCH   7  52
ENDBRANCH   4   7
ENDBRANCH   1   3
BRANCH   1  54
ATOM     54  C   LIG d   1       1.098  -5.819 -11.094  0.00  0.00     0.072 C 
ATOM     55  H   LIG d   1       0.381  -5.449 -11.827  0.00  0.00     0.058 H 
ATOM     56  H   LIG d   1       1.800  -6.496 -11.583  0.00  0.00     0.058 H 
BRANCH  54  57
ATOM     57  O   LIG d   1       0.403  -6.519 -10.060  0.00  0.00    -0.347 OA
BRANCH  57  58
ATOM     58  C   LIG d   1      -0.984  -6.729 -10.332  0.00  0.00     0.188 C 
ATOM     59  H   LIG d   1      -1.215  -7.791 -10.245  0.00  0.00     0.094 H 
ATOM     60  O   LIG d   1      -1.284  -6.282 -11.656  0.00  0.00    -0.341 OA
ATOM     61  C   LIG d   1      -2.647  -6.470 -12.041  0.00  0.00     0.113 C 
ATOM     62  C   LIG d   1      -3.556  -5.670 -11.102  0.00  0.00     0.112 C 
ATOM     63  H   LIG d   1      -2.899  -7.528 -11.977  0.00  0.00     0.065 H 
ATOM     64  C   LIG d   1      -3.310  -6.122  -9.660  0.00  0.00     0.114 C 
ATOM     65  H   LIG d   1      -3.331  -4.608 -11.196  0.00  0.00     0.065 H 
ATOM     66  C   LIG d   1      -1.826  -5.940  -9.325  0.00  0.00     0.134 C 
ATOM     67  H   LIG d   1      -3.582  -7.171  -9.554  0.00  0.00     0.065 H 
ATOM     68  H   LIG d   1      -1.566  -4.883  -9.383  0.00  0.00     0.067 H 
BRANCH  61  69
ATOM     69  C   LIG d   1      -2.843  -5.984 -13.478  0.00  0.00     0.073 C 
ATOM     70  H   LIG d   1      -3.063  -4.917 -13.474  0.00  0.00     0.058 H 
ATOM     71  H   LIG d   1      -1.933  -6.165 -14.050  0.00  0.00     0.058 H 
BRANCH  69  72
ATOM     72  O   LIG d   1      -3.931  -6.693 -14.076  0.00  0.00    -0.392 OA
ATOM     73  H   LIG d   1      -4.722  -6.739 -13.522  0.00  0.00     0.209 HD
ENDBRANCH  69  72
ENDBRANCH  61  69
BRANCH  62  74
ATOM     74  O   LIG d   1      -4.922  -5.901 -11.449  0.00  0.00    -0.387 OA
ATOM     75  H   LIG d   1      -5.531  -5.225 -11.121  0.00  0.00     0.210 HD
ENDBRANCH  62  74
BRANCH  64  76
ATOM     76  O   LIG d   1      -4.101  -5.331  -8.769  0.00  0.00    -0.386 OA
ATOM     77  H   LIG d   1      -4.183  -4.405  -9.032  0.00  0.00     0.210 HD
ENDBRANCH  64  76
BRANCH  66  78
ATOM     78  O   LIG d   1      -1.570  -6.423  -8.006  0.00  0.00    -0.384 OA
ATOM     79  H   LIG d   1      -1.093  -7.265  -7.980  0.00  0.00     0.210 HD
ENDBRANCH  66  78
ENDBRANCH  57  58
ENDBRANCH  54  57
ENDBRANCH   1  54
BRANCH   1  80
ATOM     80  C   LIG d   1       0.945  -3.421 -10.412  0.00  0.00     0.094 C 
ATOM     81  H   LIG d   1       0.570  -3.312  -9.395  0.00  0.00     0.066 H 
BRANCH  80  82
ATOM     82  C   LIG d   1       1.718  -2.185 -10.798  0.00  0.00    -0.058 C 
ATOM     83  C   LIG d   1       2.808  -2.293 -11.515  0.00  0.00    -0.085 C 
ATOM     84  H   LIG d   1       3.109  -3.256 -11.899  0.00  0.00     0.057 H 
ATOM     85  H   LIG d   1       1.372  -1.212 -10.483  0.00  0.00     0.059 H 
BRANCH  83  86
ATOM     86  C   LIG d   1       3.643  -1.072 -11.804  0.00  0.00    -0.031 C 
ATOM     87  H   LIG d   1       4.623  -1.184 -11.337  0.00  0.00     0.031 H 
ATOM     88  H   LIG d   1       3.765  -0.962 -12.882  0.00  0.00     0.031 H 
BRANCH  86  89
ATOM     89  C   LIG d   1       2.947   0.168 -11.240  0.00  0.00    -0.031 C 
ATOM     90  H   LIG d   1       2.232   0.546 -11.969  0.00  0.00     0.031 H 
ATOM     91  H   LIG d   1       2.424  -0.097 -10.321  0.00  0.00     0.031 H 
BRANCH  89  92
ATOM     92  C   LIG d   1       3.974   1.231 -10.945  0.00  0.00    -0.088 C 
ATOM     93  C   LIG d   1       3.808   2.037  -9.927  0.00  0.00    -0.088 C 
ATOM     94  H   LIG d   1       4.465   2.885  -9.797  0.00  0.00     0.057 H 
ATOM     95  H   LIG d   1       4.847   1.327 -11.574  0.00  0.00     0.057 H 
BRANCH  93  96
ATOM     96  C   LIG d   1       2.700   1.783  -8.937  0.00  0.00    -0.035 C 
ATOM     97  H   LIG d   1       2.275   2.735  -8.617  0.00  0.00     0.031 H 
ATOM     98  H   LIG d   1       1.926   1.178  -9.407  0.00  0.00     0.031 H 
BRANCH  96  99
ATOM     99  C   LIG d   1       3.263   1.042  -7.723  0.00  0.00    -0.050 C 
ATOM    100  H   LIG d   1       4.343   0.945  -7.825  0.00  0.00     0.027 H 
ATOM    101  H   LIG d   1       3.032   1.601  -6.816  0.00  0.00     0.027 H 
BRANCH  99 102
ATOM    102  C   LIG d   1       2.631  -0.349  -7.638  0.00  0.00    -0.053 C 
ATOM    103  H   LIG d   1       2.226  -0.504  -6.638  0.00  0.00     0.026 H 
ATOM    104  H   LIG d   1       1.827  -0.429  -8.371  0.00  0.00     0.026 H 
BRANCH 102 105
ATOM    105  C   LIG d   1       3.694  -1.410  -7.930  0.00  0.00    -0.053 C 
ATOM    106  H   LIG d   1       3.594  -2.230  -7.218  0.00  0.00     0.026 H 
ATOM    107  H   LIG d   1       3.560  -1.790  -8.943  0.00  0.00     0.026 H 
BRANCH 105 108
ATOM    108  C   LIG d   1       5.085  -0.787  -7.798  0.00  0.00    -0.053 C 
ATOM    109  H   LIG d   1       4.999   0.300  -7.810  0.00  0.00     0.026 H 
ATOM    110  H   LIG d   1       5.538  -1.105  -6.859  0.00  0.00     0.026 H 
BRANCH 108 111
ATOM    111  C   LIG d   1       5.960  -1.242  -8.967  0.00  0.00    -0.053 C 
ATOM    112  H   LIG d   1       6.465  -2.172  -8.703  0.00  0.00     0.026 H 
ATOM    113  H   LIG d   1       5.336  -1.404  -9.846  0.00  0.00     0.026 H 
BRANCH 111 114
ATOM    114  C   LIG d   1       7.003  -0.164  -9.273  0.00  0.00    -0.053 C 
ATOM    115  H   LIG d   1       8.001  -0.600  -9.223  0.00  0.00     0.026 H 
ATOM    116  H   LIG d   1       6.830   0.235 -10.273  0.00  0.00     0.026 H 
BRANCH 114 117
ATOM    117  C   LIG d   1       6.886   0.964  -8.246  0.00  0.00    -0.056 C 
ATOM    118  H   LIG d   1       6.098   1.652  -8.551  0.00  0.00     0.026 H 
ATOM    119  H   LIG d   1       6.643   0.542  -7.270  0.00  0.00     0.026 H 
BRANCH 117 120
ATOM    120  C   LIG d   1       8.217   1.715  -8.160  0.00  0.00    -0.065 C 
ATOM    121  H   LIG d   1       9.040   1.007  -8.256  0.00  0.00     0.023 H 
ATOM    122  H   LIG d   1       8.272   2.448  -8.964  0.00  0.00     0.023 H 
ATOM    123  H   LIG d   1       8.285   2.223  -7.198  0.00  0.00     0.023 H 
ENDBRANCH 117 120
ENDBRANCH 114 117
ENDBRANCH 111 114
ENDBRANCH 108 111
ENDBRANCH 105 108
ENDBRANCH 102 105
ENDBRANCH  99 102
ENDBRANCH  96  99
ENDBRANCH  93  96
ENDBRANCH  89  92
ENDBRANCH  86  89
ENDBRANCH  83  86
ENDBRANCH  80  82
BRANCH  80 124
ATOM    124  O   LIG d   1      -0.155  -3.595 -11.309  0.00  0.00    -0.386 OA
ATOM    125  H   LIG d   1       0.009  -3.260 -12.201  0.00  0.00     0.210 HD
ENDBRANCH  80 124
ENDBRANCH   1  80
TORSDOF 40
ENDMDL
MODEL 2
REMARK VINA RESULT:      -5.1      4.033      8.003
REMARK WARNING: 32 MAX_TORS EXCEEDED!!!
REMARK  40 active torsions:
REMARK  status: ('A' for Active; 'I' for Inactive)
REMARK    1  A    between atoms: C_1  and  C_2 
REMARK    2  A    between atoms: C_2  and  C_3 
REMARK    3  A    between atoms: C_3  and  C_4 
REMARK    4  A    between atoms: C_4  and  C_5 
REMARK    5  A    between atoms: C_5  and  C_6 
REMARK    6  A    between atoms: C_6  and  C_7 
REMARK    7  A    between atoms: C_7  and  C_8 
REMARK    8  A    between atoms: C_8  and  C_9 
REMARK    9  A    between atoms: C_9  and  C_10 
REMARK   10  A    between atoms: C_10  and  C_11 
REMARK   11  A    between atoms: C_11  and  C_12 
REMARK   12  A    between atoms: C_12  and  C_13 
REMARK   13  A    between atoms: C_13  and  C_14 
REMARK   14  A    between atoms: C_14  and  C_15 
REMARK   15  A    between atoms: C_15  and  C_17 
REMARK   16  A    between atoms: C_15  and  O_58 
REMARK       I    between atoms: C_17  and  N_19 
REMARK   17  A    between atoms: N_19  and  C_20 
REMARK   18  A    between atoms: C_20  and  C_22 
REMARK   19  A    between atoms: C_20  and  C_40 
REMARK   20  A    between atoms: C_22  and  O_23 
REMARK   21  A    between atoms: O_23  and  C_24 
REMARK   22  A    between atoms: C_26  and  O_39 
REMARK   23  A    between atoms: C_28  and  O_38 
REMARK   24  A    between atoms: C_30  and  O_37 
REMARK   25  A    between atoms: C_32  and  C_35 
REMARK   26  A    between atoms: C_35  and  O_36 
REMARK   27  A    between atoms: C_40  and  C_42 
REMARK   28  A    between atoms: C_40  and  O_57 
REMARK   29  A    between atoms: C_43  and  C_44 
REMARK   30  A    between atoms: C_44  and  C_45 
REMARK   31  A    between atoms: C_45  and  C_46 
REMARK   32  A    between atoms: C_47  and  C_48 
REMARK   33  A    between atoms: C_48  and  C_49 
REMARK   34  A    between atoms: C_49  and  C_50 
REMARK   35  A    between atoms: C_50  and  C_51 
REMARK   36  A    between atoms: C_51  and  C_52 
REMARK   37  A    between atoms: C_52  and  C_53 
REMARK   38  A    between atoms: C_53  and  C_54 
REMARK   39  A    between atoms: C_54  and  C_55 
REMARK   40  A    between atoms: C_55  and  C_56 
ROOT
ATOM      1  C   LIG d   1       5.293  -6.309  -6.637  0.00  0.00     0.076 C 
ATOM      2  H   LIG d   1       4.756  -6.958  -7.329  0.00  0.00     0.055 H 
ENDROOT
BRANCH   1   3
ATOM      3  N   LIG d   1       6.040  -5.301  -7.392  0.00  0.00    -0.305 N 
ATOM      4  C   LIG d   1       5.636  -4.951  -8.629  0.00  0.00     0.242 C 
ATOM      5  O   LIG d   1       4.655  -5.471  -9.117  0.00  0.00    -0.273 OA
ATOM      6  H   LIG d   1       6.824  -4.885  -7.002  0.00  0.00     0.149 HD
BRANCH   4   7
ATOM      7  C   LIG d   1       6.404  -3.914  -9.408  0.00  0.00     0.131 C 
ATOM      8  H   LIG d   1       6.612  -4.292 -10.409  0.00  0.00     0.069 H 
BRANCH   7   9
ATOM      9  C   LIG d   1       5.571  -2.633  -9.510  0.00  0.00    -0.018 C 
ATOM     10  H   LIG d   1       4.542  -2.889  -9.762  0.00  0.00     0.029 H 
ATOM     11  H   LIG d   1       5.986  -1.991 -10.287  0.00  0.00     0.029 H 
BRANCH   9  12
ATOM     12  C   LIG d   1       5.600  -1.898  -8.169  0.00  0.00    -0.050 C 
ATOM     13  H   LIG d   1       6.155  -0.966  -8.278  0.00  0.00     0.027 H 
ATOM     14  H   LIG d   1       6.086  -2.524  -7.422  0.00  0.00     0.027 H 
BRANCH  12  15
ATOM     15  C   LIG d   1       4.169  -1.590  -7.725  0.00  0.00    -0.053 C 
ATOM     16  H   LIG d   1       3.650  -2.522  -7.499  0.00  0.00     0.026 H 
ATOM     17  H   LIG d   1       3.644  -1.068  -8.527  0.00  0.00     0.026 H 
BRANCH  15  18
ATOM     18  C   LIG d   1       4.200  -0.707  -6.477  0.00  0.00    -0.053 C 
ATOM     19  H   LIG d   1       5.131  -0.138  -6.458  0.00  0.00     0.026 H 
ATOM     20  H   LIG d   1       4.139  -1.333  -5.588  0.00  0.00     0.026 H 
BRANCH  18  21
ATOM     21  C   LIG d   1       3.014   0.259  -6.505  0.00  0.00    -0.053 C 
ATOM     22  H   LIG d   1       3.279   1.175  -5.979  0.00  0.00     0.026 H 
ATOM     23  H   LIG d   1       2.156  -0.205  -6.016  0.00  0.00     0.026 H 
BRANCH  21  24
ATOM     24  C   LIG d   1       2.657   0.587  -7.955  0.00  0.00    -0.053 C 
ATOM     25  H   LIG d   1       1.639   0.260  -8.163  0.00  0.00     0.026 H 
ATOM     26  H   LIG d   1       3.348   0.073  -8.624  0.00  0.00     0.026 H 
BRANCH  24  27
ATOM     27  C   LIG d   1       2.763   2.098  -8.177  0.00  0.00    -0.053 C 
ATOM     28  H   LIG d   1       3.273   2.555  -7.329  0.00  0.00     0.026 H 
ATOM     29  H   LIG d   1       1.763   2.521  -8.271  0.00  0.00     0.026 H 
BRANCH  27  30
ATOM     30  C   LIG d   1       3.555   2.371  -9.457  0.00  0.00    -0.053 C 
ATOM     31  H   LIG d   1       3.603   3.446  -9.633  0.00  0.00     0.026 H 
ATOM     32  H   LIG d   1       3.063   1.886 -10.299  0.00  0.00     0.026 H 
BRANCH  30  33
ATOM     33  C   LIG d   1       4.973   1.815  -9.306  0.00  0.00    -0.053 C 
ATOM     34  H   LIG d   1       5.052   1.268  -8.367  0.00  0.00     0.026 H 
ATOM     35  H   LIG d   1       5.688   2.639  -9.308  0.00  0.00     0.026 H 
BRANCH  33  36
ATOM     36  C   LIG d   1       5.278   0.873 -10.473  0.00  0.00    -0.053 C 
ATOM     37  H   LIG d   1       5.566  -0.104 -10.086  0.00  0.00     0.026 H 
ATOM     38  H   LIG d   1       6.095   1.284 -11.067  0.00  0.00     0.026 H 
BRANCH  36  39
ATOM     39  C   LIG d   1       4.033   0.729 -11.351  0.00  0.00    -0.053 C 
ATOM     40  H   LIG d   1       3.901   1.632 -11.946  0.00  0.00     0.026 H 
ATOM     41  H   LIG d   1       3.158   0.580 -10.717  0.00  0.00     0.026 H 
BRANCH  39  42
ATOM     42  C   LIG d   1       4.201  -0.475 -12.280  0.00  0.00    -0.053 C 
ATOM     43  H   LIG d   1       4.961  -1.143 -11.875  0.00  0.00     0.026 H 
ATOM     44  H   LIG d   1       4.509  -0.132 -13.268  0.00  0.00     0.026 H 
BRANCH  42  45
ATOM     45  C   LIG d   1       2.870  -1.222 -12.391  0.00  0.00    -0.056 C 
ATOM     46  H   LIG d   1       3.056  -2.296 -12.408  0.00  0.00     0.026 H 
ATOM     47  H   LIG d   1       2.364  -0.926 -13.309  0.00  0.00     0.026 H 
BRANCH  45  48
ATOM     48  C   LIG d   1       1.991  -0.876 -11.187  0.00  0.00    -0.065 C 
ATOM     49  H   LIG d   1       1.724   0.180 -11.223  0.00  0.00     0.023 H 
ATOM     50  H   LIG d   1       1.084  -1.481 -11.215  0.00  0.00     0.023 H 
ATOM     51  H   LIG d   1       2.536  -1.083 -10.267  0.00  0.00     0.023 H 
ENDBRANCH  45  48
ENDBRANCH  42  45
ENDBRANCH  39  42
ENDBRANCH  36  39
ENDBRANCH  33  36
ENDBRANCH  30  33
ENDBRANCH  27  30
ENDBRANCH  24  27
ENDBRANCH  21  24
ENDBRANCH  18  21
ENDBRANCH  15  18
ENDBRANCH  12  15
ENDBRANCH   9  12
ENDBRANCH   7   9
BRANCH   7  52
ATOM     52  O   LIG d   1       7.635  -3.630  -8.741  0.00  0.00    -0.383 OA
ATOM     53  H   LIG d   1       8.406  -3.633  -9.324  0.00  0.00     0.210 HD
ENDBRANCH   7  52
ENDBRANCH   4   7
ENDBRANCH   1   3
BRANCH   1  54
ATOM     54  C   LIG d   1       6.266  -7.146  -5.804  0.00  0.00     0.072 C 
ATOM     55  H   LIG d   1       7.266  -6.717  -5.872  0.00  0.00     0.058 H 
ATOM     56  H   LIG d   1       5.942  -7.149  -4.762  0.00  0.00     0.058 H 
BRANCH  54  57
ATOM     57  O   LIG d   1       6.288  -8.486  -6.300  0.00  0.00    -0.347 OA
BRANCH  57  58
ATOM     58  C   LIG d   1       6.182  -9.484  -5.283  0.00  0.00     0.188 C 
ATOM     59  H   LIG d   1       6.650 -10.405  -5.628  0.00  0.00     0.094 H 
ATOM     60  O   LIG d   1       4.804  -9.727  -4.995  0.00  0.00    -0.341 OA
ATOM     61  C   LIG d   1       4.583 -10.732  -4.003  0.00  0.00     0.113 C 
ATOM     62  C   LIG d   1       5.225 -10.294  -2.684  0.00  0.00     0.112 C 
ATOM     63  H   LIG d   1       5.029 -11.670  -4.331  0.00  0.00     0.065 H 
ATOM     64  C   LIG d   1       6.718 -10.044  -2.911  0.00  0.00     0.114 C 
ATOM     65  H   LIG d   1       4.750  -9.376  -2.334  0.00  0.00     0.065 H 
ATOM     66  C   LIG d   1       6.888  -8.996  -4.014  0.00  0.00     0.134 C 
ATOM     67  H   LIG d   1       7.202 -10.972  -3.211  0.00  0.00     0.065 H 
ATOM     68  H   LIG d   1       6.447  -8.052  -3.692  0.00  0.00     0.067 H 
BRANCH  61  69
ATOM     69  C   LIG d   1       3.078 -10.926  -3.799  0.00  0.00     0.073 C 
ATOM     70  H   LIG d   1       2.580 -10.938  -4.768  0.00  0.00     0.058 H 
ATOM     71  H   LIG d   1       2.901 -11.872  -3.287  0.00  0.00     0.058 H 
BRANCH  69  72
ATOM     72  O   LIG d   1       2.562  -9.852  -3.010  0.00  0.00    -0.392 OA
ATOM     73  H   LIG d   1       2.874  -8.979  -3.283  0.00  0.00     0.209 HD
ENDBRANCH  69  72
ENDBRANCH  61  69
BRANCH  62  74
ATOM     74  O   LIG d   1       5.055 -11.321  -1.705  0.00  0.00    -0.387 OA
ATOM     75  H   LIG d   1       5.870 -11.791  -1.483  0.00  0.00     0.210 HD
ENDBRANCH  62  74
BRANCH  64  76
ATOM     76  O   LIG d   1       7.313  -9.565  -1.702  0.00  0.00    -0.386 OA
ATOM     77  H   LIG d   1       8.251  -9.783  -1.611  0.00  0.00     0.210 HD
ENDBRANCH  64  76
BRANCH  66  78
ATOM     78  O   LIG d   1       8.278  -8.806  -4.285  0.00  0.00    -0.384 OA
ATOM     79  H   LIG d   1       8.850  -8.933  -3.515  0.00  0.00     0.210 HD
ENDBRANCH  66  78
ENDBRANCH  57  58
ENDBRANCH  54  57
ENDBRANCH   1  54
BRANCH   1  80
ATOM     80  C   LIG d   1       4.295  -5.615  -5.708  0.00  0.00     0.094 C 
ATOM     81  H   LIG d   1       3.972  -6.312  -4.935  0.00  0.00     0.066 H 
BRANCH  80  82
ATOM     82  C   LIG d   1       4.954  -4.421  -5.064  0.00  0.00    -0.058 C 
ATOM     83  C   LIG d   1       4.315  -3.734  -4.152  0.00  0.00    -0.085 C 
ATOM     84  H   LIG d   1       3.350  -4.068  -3.801  0.00  0.00     0.057 H 
ATOM     85  H   LIG d   1       5.953  -4.134  -5.356  0.00  0.00     0.059 H 
BRANCH  83  86
ATOM     86  C   LIG d   1       4.926  -2.474  -3.591  0.00  0.00    -0.031 C 
ATOM     87  H   LIG d   1       5.948  -2.679  -3.272  0.00  0.00     0.031 H 
ATOM     88  H   LIG d   1       4.933  -1.701  -4.360  0.00  0.00     0.031 H 
BRANCH  86  89
ATOM     89  C   LIG d   1       4.102  -1.996  -2.394  0.00  0.00    -0.031 C 
ATOM     90  H   LIG d   1       3.615  -2.850  -1.924  0.00  0.00     0.031 H 
ATOM     91  H   LIG d   1       4.759  -1.511  -1.673  0.00  0.00     0.031 H 
BRANCH  89  92
ATOM     92  C   LIG d   1       3.058  -1.016  -2.862  0.00  0.00    -0.088 C 
ATOM     93  C   LIG d   1       3.166   0.252  -2.554  0.00  0.00    -0.088 C 
ATOM     94  H   LIG d   1       2.352   0.930  -2.766  0.00  0.00     0.057 H 
ATOM     95  H   LIG d   1       2.220  -1.360  -3.452  0.00  0.00     0.057 H 
BRANCH  93  96
ATOM     96  C   LIG d   1       4.425   0.766  -1.904  0.00  0.00    -0.035 C 
ATOM     97  H   LIG d   1       4.163   1.448  -1.095  0.00  0.00     0.031 H 
ATOM     98  H   LIG d   1       4.994  -0.072  -1.504  0.00  0.00     0.031 H 
BRANCH  96  99
ATOM     99  C   LIG d   1       5.268   1.507  -2.943  0.00  0.00    -0.050 C 
ATOM    100  H   LIG d   1       4.694   1.621  -3.862  0.00  0.00     0.027 H 
ATOM    101  H   LIG d   1       5.539   2.490  -2.558  0.00  0.00     0.027 H 
BRANCH  99 102
ATOM    102  C   LIG d   1       6.540   0.706  -3.232  0.00  0.00    -0.053 C 
ATOM    103  H   LIG d   1       6.931   0.297  -2.301  0.00  0.00     0.026 H 
ATOM    104  H   LIG d   1       6.308  -0.110  -3.918  0.00  0.00     0.026 H 
BRANCH 102 105
ATOM    105  C   LIG d   1       7.587   1.624  -3.868  0.00  0.00    -0.053 C 
ATOM    106  H   LIG d   1       7.093   2.329  -4.537  0.00  0.00     0.026 H 
ATOM    107  H   LIG d   1       8.112   2.172  -3.085  0.00  0.00     0.026 H 
BRANCH 105 108
ATOM    108  C   LIG d   1       8.587   0.782  -4.662  0.00  0.00    -0.053 C 
ATOM    109  H   LIG d   1       9.348   1.432  -5.094  0.00  0.00     0.026 H 
ATOM    110  H   LIG d   1       9.061   0.059  -3.998  0.00  0.00     0.026 H 
BRANCH 108 111
ATOM    111  C   LIG d   1       7.853   0.041  -5.782  0.00  0.00    -0.053 C 
ATOM    112  H   LIG d   1       8.504  -0.731  -6.195  0.00  0.00     0.026 H 
ATOM    113  H   LIG d   1       6.950  -0.420  -5.382  0.00  0.00     0.026 H 
BRANCH 111 114
ATOM    114  C   LIG d   1       7.475   1.032  -6.885  0.00  0.00    -0.053 C 
ATOM    115  H   LIG d   1       6.596   0.666  -7.417  0.00  0.00     0.026 H 
ATOM    116  H   LIG d   1       7.253   2.002  -6.441  0.00  0.00     0.026 H 
BRANCH 114 117
ATOM    117  C   LIG d   1       8.642   1.174  -7.865  0.00  0.00    -0.056 C 
ATOM    118  H   LIG d   1       8.466   2.029  -8.517  0.00  0.00     0.026 H 
ATOM    119  H   LIG d   1       9.567   1.326  -7.308  0.00  0.00     0.026 H 
BRANCH 117 120
ATOM    120  C   LIG d   1       8.756  -0.098  -8.708  0.00  0.00    -0.065 C 
ATOM    121  H   LIG d   1       7.834  -0.245  -9.271  0.00  0.00     0.023 H 
ATOM    122  H   LIG d   1       9.593  -0.001  -9.400  0.00  0.00     0.023 H 
ATOM    123  H   LIG d   1       8.922  -0.953  -8.054  0.00  0.00     0.023 H 
ENDBRANCH 117 120
ENDBRANCH 114 117
ENDBRANCH 111 114
ENDBRANCH 108 111
ENDBRANCH 105 108
ENDBRANCH 102 105
ENDBRANCH  99 102
ENDBRANCH  96  99
ENDBRANCH  93  96
ENDBRANCH  89  92
ENDBRANCH  86  89
ENDBRANCH  83  86
ENDBRANCH  80  82
BRANCH  80 124
ATOM    124  O   LIG d   1       3.161  -5.182  -6.463  0.00  0.00    -0.386 OA
ATOM    125  H   LIG d   1       3.258  -5.297  -7.419  0.00  0.00     0.210 HD
ENDBRANCH  80 124
ENDBRANCH   1  80
TORSDOF 40
ENDMDL
MODEL 3
REMARK VINA RESULT:      -5.1      6.346     12.218
REMARK WARNING: 32 MAX_TORS EXCEEDED!!!
REMARK  40 active torsions:
REMARK  status: ('A' for Active; 'I' for Inactive)
REMARK    1  A    between atoms: C_1  and  C_2 
REMARK    2  A    between atoms: C_2  and  C_3 
REMARK    3  A    between atoms: C_3  and  C_4 
REMARK    4  A    between atoms: C_4  and  C_5 
REMARK    5  A    between atoms: C_5  and  C_6 
REMARK    6  A    between atoms: C_6  and  C_7 
REMARK    7  A    between atoms: C_7  and  C_8 
REMARK    8  A    between atoms: C_8  and  C_9 
REMARK    9  A    between atoms: C_9  and  C_10 
REMARK   10  A    between atoms: C_10  and  C_11 
REMARK   11  A    between atoms: C_11  and  C_12 
REMARK   12  A    between atoms: C_12  and  C_13 
REMARK   13  A    between atoms: C_13  and  C_14 
REMARK   14  A    between atoms: C_14  and  C_15 
REMARK   15  A    between atoms: C_15  and  C_17 
REMARK   16  A    between atoms: C_15  and  O_58 
REMARK       I    between atoms: C_17  and  N_19 
REMARK   17  A    between atoms: N_19  and  C_20 
REMARK   18  A    between atoms: C_20  and  C_22 
REMARK   19  A    between atoms: C_20  and  C_40 
REMARK   20  A    between atoms: C_22  and  O_23 
REMARK   21  A    between atoms: O_23  and  C_24 
REMARK   22  A    between atoms: C_26  and  O_39 
REMARK   23  A    between atoms: C_28  and  O_38 
REMARK   24  A    between atoms: C_30  and  O_37 
REMARK   25  A    between atoms: C_32  and  C_35 
REMARK   26  A    between atoms: C_35  and  O_36 
REMARK   27  A    between atoms: C_40  and  C_42 
REMARK   28  A    between atoms: C_40  and  O_57 
REMARK   29  A    between atoms: C_43  and  C_44 
REMARK   30  A    between atoms: C_44  and  C_45 
REMARK   31  A    between atoms: C_45  and  C_46 
REMARK   32  A    between atoms: C_47  and  C_48 
REMARK   33  A    between atoms: C_48  and  C_49 
REMARK   34  A    between atoms: C_49  and  C_50 
REMARK   35  A    between atoms: C_50  and  C_51 
REMARK   36  A    between atoms: C_51  and  C_52 
REMARK   37  A    between atoms: C_52  and  C_53 
REMARK   38  A    between atoms: C_53  and  C_54 
REMARK   39  A    between atoms: C_54  and  C_55 
REMARK   40  A    between atoms: C_55  and  C_56 
ROOT
ATOM      1  C   LIG d   1       9.295   2.373  -5.466  0.00  0.00     0.076 C 
ATOM      2  H   LIG d   1      10.368   2.264  -5.625  0.00  0.00     0.055 H 
ENDROOT
BRANCH   1   3
ATOM      3  N   LIG d   1       8.584   2.094  -6.715  0.00  0.00    -0.305 N 
ATOM      4  C   LIG d   1       9.227   2.202  -7.895  0.00  0.00     0.242 C 
ATOM      5  O   LIG d   1      10.394   2.532  -7.921  0.00  0.00    -0.273 OA
ATOM      6  H   LIG d   1       7.651   1.829  -6.694  0.00  0.00     0.149 HD
BRANCH   4   7
ATOM      7  C   LIG d   1       8.497   1.915  -9.181  0.00  0.00     0.131 C 
ATOM      8  H   LIG d   1       9.130   2.186 -10.026  0.00  0.00     0.069 H 
BRANCH   7   9
ATOM      9  C   LIG d   1       8.160   0.424  -9.255  0.00  0.00    -0.018 C 
ATOM     10  H   LIG d   1       8.685  -0.105  -8.460  0.00  0.00     0.029 H 
ATOM     11  H   LIG d   1       8.470   0.029 -10.222  0.00  0.00     0.029 H 
BRANCH   9  12
ATOM     12  C   LIG d   1       6.652   0.233  -9.084  0.00  0.00    -0.050 C 
ATOM     13  H   LIG d   1       6.250  -0.284  -9.957  0.00  0.00     0.027 H 
ATOM     14  H   LIG d   1       6.171   1.206  -8.985  0.00  0.00     0.027 H 
BRANCH  12  15
ATOM     15  C   LIG d   1       6.382  -0.600  -7.830  0.00  0.00    -0.053 C 
ATOM     16  H   LIG d   1       5.876   0.016  -7.087  0.00  0.00     0.026 H 
ATOM     17  H   LIG d   1       7.327  -0.959  -7.421  0.00  0.00     0.026 H 
BRANCH  15  18
ATOM     18  C   LIG d   1       5.497  -1.795  -8.191  0.00  0.00    -0.053 C 
ATOM     19  H   LIG d   1       5.924  -2.705  -7.767  0.00  0.00     0.026 H 
ATOM     20  H   LIG d   1       5.442  -1.891  -9.275  0.00  0.00     0.026 H 
BRANCH  18  21
ATOM     21  C   LIG d   1       4.092  -1.579  -7.626  0.00  0.00    -0.053 C 
ATOM     22  H   LIG d   1       3.701  -2.526  -7.255  0.00  0.00     0.026 H 
ATOM     23  H   LIG d   1       3.438  -1.199  -8.411  0.00  0.00     0.026 H 
BRANCH  21  24
ATOM     24  C   LIG d   1       4.153  -0.568  -6.480  0.00  0.00    -0.053 C 
ATOM     25  H   LIG d   1       5.108  -0.043  -6.507  0.00  0.00     0.026 H 
ATOM     26  H   LIG d   1       4.054  -1.091  -5.528  0.00  0.00     0.026 H 
BRANCH  24  27
ATOM     27  C   LIG d   1       3.012   0.442  -6.629  0.00  0.00    -0.053 C 
ATOM     28  H   LIG d   1       3.308   1.392  -6.185  0.00  0.00     0.026 H 
ATOM     29  H   LIG d   1       2.125   0.063  -6.122  0.00  0.00     0.026 H 
BRANCH  27  30
ATOM     30  C   LIG d   1       2.704   0.646  -8.113  0.00  0.00    -0.053 C 
ATOM     31  H   LIG d   1       1.636   0.514  -8.284  0.00  0.00     0.026 H 
ATOM     32  H   LIG d   1       3.260  -0.081  -8.704  0.00  0.00     0.026 H 
BRANCH  30  33
ATOM     33  C   LIG d   1       3.116   2.061  -8.528  0.00  0.00    -0.053 C 
ATOM     34  H   LIG d   1       3.890   2.427  -7.855  0.00  0.00     0.026 H 
ATOM     35  H   LIG d   1       2.249   2.721  -8.478  0.00  0.00     0.026 H 
BRANCH  33  36
ATOM     36  C   LIG d   1       3.654   2.035  -9.961  0.00  0.00    -0.053 C 
ATOM     37  H   LIG d   1       4.743   2.069  -9.941  0.00  0.00     0.026 H 
ATOM     38  H   LIG d   1       3.273   2.898 -10.507  0.00  0.00     0.026 H 
BRANCH  36  39
ATOM     39  C   LIG d   1       3.196   0.751 -10.655  0.00  0.00    -0.053 C 
ATOM     40  H   LIG d   1       2.243   0.927 -11.154  0.00  0.00     0.026 H 
ATOM     41  H   LIG d   1       3.076  -0.040  -9.913  0.00  0.00     0.026 H 
BRANCH  39  42
ATOM     42  C   LIG d   1       4.243   0.328 -11.687  0.00  0.00    -0.053 C 
ATOM     43  H   LIG d   1       5.226   0.676 -11.371  0.00  0.00     0.026 H 
ATOM     44  H   LIG d   1       3.997   0.765 -12.655  0.00  0.00     0.026 H 
BRANCH  42  45
ATOM     45  C   LIG d   1       4.255  -1.198 -11.805  0.00  0.00    -0.056 C 
ATOM     46  H   LIG d   1       5.133  -1.595 -11.296  0.00  0.00     0.026 H 
ATOM     47  H   LIG d   1       4.285  -1.480 -12.857  0.00  0.00     0.026 H 
BRANCH  45  48
ATOM     48  C   LIG d   1       2.989  -1.768 -11.159  0.00  0.00    -0.065 C 
ATOM     49  H   LIG d   1       2.115  -1.262 -11.566  0.00  0.00     0.023 H 
ATOM     50  H   LIG d   1       2.923  -2.835 -11.371  0.00  0.00     0.023 H 
ATOM     51  H   LIG d   1       3.031  -1.614 -10.081  0.00  0.00     0.023 H 
ENDBRANCH  45  48
ENDBRANCH  42  45
ENDBRANCH  39  42
ENDBRANCH  36  39
ENDBRANCH  33  36
ENDBRANCH  30  33
ENDBRANCH  27  30
ENDBRANCH  24  27
ENDBRANCH  21  24
ENDBRANCH  18  21
ENDBRANCH  15  18
ENDBRANCH  12  15
ENDBRANCH   9  12
ENDBRANCH   7   9
BRANCH   7  52
ATOM     52  O   LIG d   1       7.291   2.680  -9.226  0.00  0.00    -0.383 OA
ATOM     53  H   LIG d   1       7.346   3.528  -8.767  0.00  0.00     0.210 HD
ENDBRANCH   7  52
ENDBRANCH   4   7
ENDBRANCH   1   3
BRANCH   1  54
ATOM     54  C   LIG d   1       8.989   3.802  -5.014  0.00  0.00     0.072 C 
ATOM     55  H   LIG d   1       8.714   4.407  -5.878  0.00  0.00     0.058 H 
ATOM     56  H   LIG d   1       8.162   3.789  -4.302  0.00  0.00     0.058 H 
BRANCH  54  57
ATOM     57  O   LIG d   1      10.146   4.362  -4.389  0.00  0.00    -0.347 OA
BRANCH  57  58
ATOM     58  C   LIG d   1       9.890   4.946  -3.110  0.00  0.00     0.188 C 
ATOM     59  H   LIG d   1       8.909   4.630  -2.756  0.00  0.00     0.094 H 
ATOM     60  O   LIG d   1       9.921   6.370  -3.221  0.00  0.00    -0.341 OA
ATOM     61  C   LIG d   1       9.651   7.057  -1.997  0.00  0.00     0.113 C 
ATOM     62  C   LIG d   1      10.715   6.685  -0.960  0.00  0.00     0.112 C 
ATOM     63  H   LIG d   1       8.667   6.769  -1.629  0.00  0.00     0.065 H 
ATOM     64  C   LIG d   1      10.717   5.166  -0.765  0.00  0.00     0.114 C 
ATOM     65  H   LIG d   1      11.695   7.009  -1.310  0.00  0.00     0.065 H 
ATOM     66  C   LIG d   1      10.963   4.490  -2.117  0.00  0.00     0.134 C 
ATOM     67  H   LIG d   1       9.754   4.848  -0.368  0.00  0.00     0.065 H 
ATOM     68  H   LIG d   1      11.948   4.770  -2.492  0.00  0.00     0.067 H 
BRANCH  61  69
ATOM     69  C   LIG d   1       9.683   8.568  -2.242  0.00  0.00     0.073 C 
ATOM     70  H   LIG d   1      10.680   8.949  -2.025  0.00  0.00     0.058 H 
ATOM     71  H   LIG d   1       9.434   8.772  -3.283  0.00  0.00     0.058 H 
BRANCH  69  72
ATOM     72  O   LIG d   1       8.731   9.208  -1.389  0.00  0.00    -0.392 OA
ATOM     73  H   LIG d   1       8.239   8.599  -0.823  0.00  0.00     0.209 HD
ENDBRANCH  69  72
ENDBRANCH  61  69
BRANCH  62  74
ATOM     74  O   LIG d   1      10.416   7.326   0.282  0.00  0.00    -0.387 OA
ATOM     75  H   LIG d   1      10.880   6.947   1.041  0.00  0.00     0.210 HD
ENDBRANCH  62  74
BRANCH  64  76
ATOM     76  O   LIG d   1      11.755   4.801   0.147  0.00  0.00    -0.386 OA
ATOM     77  H   LIG d   1      11.574   3.994   0.647  0.00  0.00     0.210 HD
ENDBRANCH  64  76
BRANCH  66  78
ATOM     78  O   LIG d   1      10.897   3.071  -1.962  0.00  0.00    -0.384 OA
ATOM     79  H   LIG d   1      10.105   2.669  -2.346  0.00  0.00     0.210 HD
ENDBRANCH  66  78
ENDBRANCH  57  58
ENDBRANCH  54  57
ENDBRANCH   1  54
BRANCH   1  80
ATOM     80  C   LIG d   1       8.837   1.389  -4.387  0.00  0.00     0.094 C 
ATOM     81  H   LIG d   1       9.599   1.318  -3.612  0.00  0.00     0.066 H 
BRANCH  80  82
ATOM     82  C   LIG d   1       7.546   1.877  -3.777  0.00  0.00    -0.058 C 
ATOM     83  C   LIG d   1       6.637   1.016  -3.395  0.00  0.00    -0.085 C 
ATOM     84  H   LIG d   1       6.843  -0.043  -3.439  0.00  0.00     0.057 H 
ATOM     85  H   LIG d   1       7.373   2.936  -3.657  0.00  0.00     0.059 H 
BRANCH  83  86
ATOM     86  C   LIG d   1       5.301   1.504  -2.893  0.00  0.00    -0.031 C 
ATOM     87  H   LIG d   1       5.445   2.408  -2.300  0.00  0.00     0.031 H 
ATOM     88  H   LIG d   1       4.654   1.726  -3.742  0.00  0.00     0.031 H 
BRANCH  86  89
ATOM     89  C   LIG d   1       4.655   0.422  -2.027  0.00  0.00    -0.031 C 
ATOM     90  H   LIG d   1       5.287  -0.465  -2.022  0.00  0.00     0.031 H 
ATOM     91  H   LIG d   1       4.541   0.792  -1.009  0.00  0.00     0.031 H 
BRANCH  89  92
ATOM     92  C   LIG d   1       3.301   0.071  -2.589  0.00  0.00    -0.088 C 
ATOM     93  C   LIG d   1       3.027  -1.169  -2.909  0.00  0.00    -0.088 C 
ATOM     94  H   LIG d   1       2.114  -1.401  -3.439  0.00  0.00     0.057 H 
ATOM     95  H   LIG d   1       2.557   0.842  -2.727  0.00  0.00     0.057 H 
BRANCH  93  96
ATOM     96  C   LIG d   1       3.983  -2.273  -2.537  0.00  0.00    -0.035 C 
ATOM     97  H   LIG d   1       4.741  -1.883  -1.857  0.00  0.00     0.031 H 
ATOM     98  H   LIG d   1       3.436  -3.079  -2.049  0.00  0.00     0.031 H 
BRANCH  96  99
ATOM     99  C   LIG d   1       4.660  -2.808  -3.801  0.00  0.00    -0.050 C 
ATOM    100  H   LIG d   1       4.572  -3.893  -3.828  0.00  0.00     0.027 H 
ATOM    101  H   LIG d   1       4.177  -2.382  -4.681  0.00  0.00     0.027 H 
BRANCH  99 102
ATOM    102  C   LIG d   1       6.139  -2.415  -3.792  0.00  0.00    -0.053 C 
ATOM    103  H   LIG d   1       6.227  -1.330  -3.842  0.00  0.00     0.026 H 
ATOM    104  H   LIG d   1       6.605  -2.776  -2.875  0.00  0.00     0.026 H 
BRANCH 102 105
ATOM    105  C   LIG d   1       6.840  -3.041  -5.000  0.00  0.00    -0.053 C 
ATOM    106  H   LIG d   1       6.109  -3.577  -5.606  0.00  0.00     0.026 H 
ATOM    107  H   LIG d   1       7.303  -2.256  -5.598  0.00  0.00     0.026 H 
BRANCH 105 108
ATOM    108  C   LIG d   1       7.915  -4.017  -4.516  0.00  0.00    -0.053 C 
ATOM    109  H   LIG d   1       7.622  -4.430  -3.550  0.00  0.00     0.026 H 
ATOM    110  H   LIG d   1       8.025  -4.824  -5.239  0.00  0.00     0.026 H 
BRANCH 108 111
ATOM    111  C   LIG d   1       9.246  -3.276  -4.371  0.00  0.00    -0.053 C 
ATOM    112  H   LIG d   1       9.748  -3.237  -5.338  0.00  0.00     0.026 H 
ATOM    113  H   LIG d   1       9.061  -2.262  -4.016  0.00  0.00     0.026 H 
BRANCH 111 114
ATOM    114  C   LIG d   1      10.133  -4.015  -3.366  0.00  0.00    -0.053 C 
ATOM    115  H   LIG d   1      11.113  -4.193  -3.808  0.00  0.00     0.026 H 
ATOM    116  H   LIG d   1      10.245  -3.410  -2.466  0.00  0.00     0.026 H 
BRANCH 114 117
ATOM    117  C   LIG d   1       9.486  -5.354  -3.003  0.00  0.00    -0.056 C 
ATOM    118  H   LIG d   1       8.423  -5.319  -3.242  0.00  0.00     0.026 H 
ATOM    119  H   LIG d   1       9.961  -6.153  -3.573  0.00  0.00     0.026 H 
BRANCH 117 120
ATOM    120  C   LIG d   1       9.665  -5.617  -1.506  0.00  0.00    -0.065 C 
ATOM    121  H   LIG d   1      10.703  -5.884  -1.306  0.00  0.00     0.023 H 
ATOM    122  H   LIG d   1       9.406  -4.719  -0.946  0.00  0.00     0.023 H 
ATOM    123  H   LIG d   1       9.014  -6.437  -1.202  0.00  0.00     0.023 H 
ENDBRANCH 117 120
ENDBRANCH 114 117
ENDBRANCH 111 114
ENDBRANCH 108 111
ENDBRANCH 105 108
ENDBRANCH 102 105
ENDBRANCH  99 102
ENDBRANCH  96  99
ENDBRANCH  93  96
ENDBRANCH  89  92
ENDBRANCH  86  89
ENDBRANCH  83  86
ENDBRANCH  80  82
BRANCH  80 124
ATOM    124  O   LIG d   1       8.630   0.101  -4.972  0.00  0.00    -0.386 OA
ATOM    125  H   LIG d   1       9.391  -0.491  -4.896  0.00  0.00     0.210 HD
ENDBRANCH  80 124
ENDBRANCH   1  80
TORSDOF 40
ENDMDL
MODEL 4
REMARK VINA RESULT:      -5.1      7.378     13.102
REMARK WARNING: 32 MAX_TORS EXCEEDED!!!
REMARK  40 active torsions:
REMARK  status: ('A' for Active; 'I' for Inactive)
REMARK    1  A    between atoms: C_1  and  C_2 
REMARK    2  A    between atoms: C_2  and  C_3 
REMARK    3  A    between atoms: C_3  and  C_4 
REMARK    4  A    between atoms: C_4  and  C_5 
REMARK    5  A    between atoms: C_5  and  C_6 
REMARK    6  A    between atoms: C_6  and  C_7 
REMARK    7  A    between atoms: C_7  and  C_8 
REMARK    8  A    between atoms: C_8  and  C_9 
REMARK    9  A    between atoms: C_9  and  C_10 
REMARK   10  A    between atoms: C_10  and  C_11 
REMARK   11  A    between atoms: C_11  and  C_12 
REMARK   12  A    between atoms: C_12  and  C_13 
REMARK   13  A    between atoms: C_13  and  C_14 
REMARK   14  A    between atoms: C_14  and  C_15 
REMARK   15  A    between atoms: C_15  and  C_17 
REMARK   16  A    between atoms: C_15  and  O_58 
REMARK       I    between atoms: C_17  and  N_19 
REMARK   17  A    between atoms: N_19  and  C_20 
REMARK   18  A    between atoms: C_20  and  C_22 
REMARK   19  A    between atoms: C_20  and  C_40 
REMARK   20  A    between atoms: C_22  and  O_23 
REMARK   21  A    between atoms: O_23  and  C_24 
REMARK   22  A    between atoms: C_26  and  O_39 
REMARK   23  A    between atoms: C_28  and  O_38 
REMARK   24  A    between atoms: C_30  and  O_37 
REMARK   25  A    between atoms: C_32  and  C_35 
REMARK   26  A    between atoms: C_35  and  O_36 
REMARK   27  A    between atoms: C_40  and  C_42 
REMARK   28  A    between atoms: C_40  and  O_57 
REMARK   29  A    between atoms: C_43  and  C_44 
REMARK   30  A    between atoms: C_44  and  C_45 
REMARK   31  A    between atoms: C_45  and  C_46 
REMARK   32  A    between atoms: C_47  and  C_48 
REMARK   33  A    between atoms: C_48  and  C_49 
REMARK   34  A    between atoms: C_49  and  C_50 
REMARK   35  A    between atoms: C_50  and  C_51 
REMARK   36  A    between atoms: C_51  and  C_52 
REMARK   37  A    between atoms: C_52  and  C_53 
REMARK   38  A    between atoms: C_53  and  C_54 
REMARK   39  A    between atoms: C_54  and  C_55 
REMARK   40  A    between atoms: C_55  and  C_56 
ROOT
ATOM      1  C   LIG d   1      10.553   3.910  -4.092  0.00  0.00     0.076 C 
ATOM      2  H   LIG d   1      11.617   3.672  -4.105  0.00  0.00     0.055 H 
ENDROOT
BRANCH   1   3
ATOM      3  N   LIG d   1      10.003   3.764  -5.441  0.00  0.00    -0.305 N 
ATOM      4  C   LIG d   1      10.798   3.367  -6.454  0.00  0.00     0.242 C 
ATOM      5  O   LIG d   1      11.970   3.131  -6.248  0.00  0.00    -0.273 OA
ATOM      6  H   LIG d   1       9.065   3.952  -5.606  0.00  0.00     0.149 HD
BRANCH   4   7
ATOM      7  C   LIG d   1      10.233   3.217  -7.843  0.00  0.00     0.131 C 
ATOM      8  H   LIG d   1      11.039   3.300  -8.573  0.00  0.00     0.069 H 
BRANCH   7   9
ATOM      9  C   LIG d   1       9.565   1.846  -7.976  0.00  0.00    -0.018 C 
ATOM     10  H   LIG d   1       9.823   1.232  -7.114  0.00  0.00     0.029 H 
ATOM     11  H   LIG d   1       9.912   1.360  -8.887  0.00  0.00     0.029 H 
BRANCH   9  12
ATOM     12  C   LIG d   1       8.047   2.024  -8.039  0.00  0.00    -0.050 C 
ATOM     13  H   LIG d   1       7.809   3.083  -8.154  0.00  0.00     0.027 H 
ATOM     14  H   LIG d   1       7.598   1.649  -7.119  0.00  0.00     0.027 H 
BRANCH  12  15
ATOM     15  C   LIG d   1       7.491   1.245  -9.232  0.00  0.00    -0.053 C 
ATOM     16  H   LIG d   1       8.296   1.035  -9.935  0.00  0.00     0.026 H 
ATOM     17  H   LIG d   1       6.722   1.839  -9.728  0.00  0.00     0.026 H 
BRANCH  15  18
ATOM     18  C   LIG d   1       6.882  -0.070  -8.744  0.00  0.00    -0.053 C 
ATOM     19  H   LIG d   1       7.676  -0.729  -8.390  0.00  0.00     0.026 H 
ATOM     20  H   LIG d   1       6.351  -0.551  -9.565  0.00  0.00     0.026 H 
BRANCH  18  21
ATOM     21  C   LIG d   1       5.906   0.211  -7.600  0.00  0.00    -0.053 C 
ATOM     22  H   LIG d   1       5.198   0.980  -7.908  0.00  0.00     0.026 H 
ATOM     23  H   LIG d   1       6.460   0.557  -6.727  0.00  0.00     0.026 H 
BRANCH  21  24
ATOM     24  C   LIG d   1       5.148  -1.070  -7.249  0.00  0.00    -0.053 C 
ATOM     25  H   LIG d   1       4.090  -0.842  -7.116  0.00  0.00     0.026 H 
ATOM     26  H   LIG d   1       5.549  -1.487  -6.325  0.00  0.00     0.026 H 
BRANCH  24  27
ATOM     27  C   LIG d   1       5.312  -2.086  -8.382  0.00  0.00    -0.053 C 
ATOM     28  H   LIG d   1       6.060  -2.826  -8.100  0.00  0.00     0.026 H 
ATOM     29  H   LIG d   1       5.631  -1.571  -9.288  0.00  0.00     0.026 H 
BRANCH  27  30
ATOM     30  C   LIG d   1       3.975  -2.785  -8.637  0.00  0.00    -0.053 C 
ATOM     31  H   LIG d   1       3.623  -3.246  -7.714  0.00  0.00     0.026 H 
ATOM     32  H   LIG d   1       4.105  -3.551  -9.400  0.00  0.00     0.026 H 
BRANCH  30  33
ATOM     33  C   LIG d   1       2.946  -1.757  -9.116  0.00  0.00    -0.053 C 
ATOM     34  H   LIG d   1       2.814  -0.992  -8.352  0.00  0.00     0.026 H 
ATOM     35  H   LIG d   1       1.994  -2.256  -9.300  0.00  0.00     0.026 H 
BRANCH  33  36
ATOM     36  C   LIG d   1       3.439  -1.108 -10.411  0.00  0.00    -0.053 C 
ATOM     37  H   LIG d   1       2.861  -1.488 -11.252  0.00  0.00     0.026 H 
ATOM     38  H   LIG d   1       4.493  -1.344 -10.557  0.00  0.00     0.026 H 
BRANCH  36  39
ATOM     39  C   LIG d   1       3.266   0.410 -10.317  0.00  0.00    -0.053 C 
ATOM     40  H   LIG d   1       2.750   0.773 -11.206  0.00  0.00     0.026 H 
ATOM     41  H   LIG d   1       4.246   0.884 -10.247  0.00  0.00     0.026 H 
BRANCH  39  42
ATOM     42  C   LIG d   1       2.443   0.753  -9.073  0.00  0.00    -0.053 C 
ATOM     43  H   LIG d   1       2.614  -0.000  -8.305  0.00  0.00     0.026 H 
ATOM     44  H   LIG d   1       1.384   0.773  -9.332  0.00  0.00     0.026 H 
BRANCH  42  45
ATOM     45  C   LIG d   1       2.866   2.126  -8.546  0.00  0.00    -0.056 C 
ATOM     46  H   LIG d   1       3.193   2.033  -7.511  0.00  0.00     0.026 H 
ATOM     47  H   LIG d   1       2.020   2.811  -8.601  0.00  0.00     0.026 H 
BRANCH  45  48
ATOM     48  C   LIG d   1       4.017   2.666  -9.398  0.00  0.00    -0.065 C 
ATOM     49  H   LIG d   1       4.767   3.119  -8.751  0.00  0.00     0.023 H 
ATOM     50  H   LIG d   1       4.468   1.847  -9.960  0.00  0.00     0.023 H 
ATOM     51  H   LIG d   1       3.635   3.415 -10.092  0.00  0.00     0.023 H 
ENDBRANCH  45  48
ENDBRANCH  42  45
ENDBRANCH  39  42
ENDBRANCH  36  39
ENDBRANCH  33  36
ENDBRANCH  30  33
ENDBRANCH  27  30
ENDBRANCH  24  27
ENDBRANCH  21  24
ENDBRANCH  18  21
ENDBRANCH  15  18
ENDBRANCH  12  15
ENDBRANCH   9  12
ENDBRANCH   7   9
BRANCH   7  52
ATOM     52  O   LIG d   1       9.269   4.243  -8.080  0.00  0.00    -0.383 OA
ATOM     53  H   LIG d   1       8.887   4.226  -8.968  0.00  0.00     0.210 HD
ENDBRANCH   7  52
ENDBRANCH   4   7
ENDBRANCH   1   3
BRANCH   1  54
ATOM     54  C   LIG d   1      10.358   5.350  -3.615  0.00  0.00     0.072 C 
ATOM     55  H   LIG d   1      11.315   5.758  -3.287  0.00  0.00     0.058 H 
ATOM     56  H   LIG d   1       9.967   5.955  -4.434  0.00  0.00     0.058 H 
BRANCH  54  57
ATOM     57  O   LIG d   1       9.433   5.370  -2.525  0.00  0.00    -0.347 OA
BRANCH  57  58
ATOM     58  C   LIG d   1       9.781   6.288  -1.486  0.00  0.00     0.188 C 
ATOM     59  H   LIG d   1       9.165   6.092  -0.608  0.00  0.00     0.094 H 
ATOM     60  O   LIG d   1       9.557   7.625  -1.936  0.00  0.00    -0.341 OA
ATOM     61  C   LIG d   1       9.851   8.627  -0.960  0.00  0.00     0.113 C 
ATOM     62  C   LIG d   1      11.331   8.545  -0.577  0.00  0.00     0.112 C 
ATOM     63  H   LIG d   1       9.237   8.462  -0.075  0.00  0.00     0.065 H 
ATOM     64  C   LIG d   1      11.638   7.140  -0.053  0.00  0.00     0.114 C 
ATOM     65  H   LIG d   1      11.946   8.750  -1.454  0.00  0.00     0.065 H 
ATOM     66  C   LIG d   1      11.258   6.113  -1.124  0.00  0.00     0.134 C 
ATOM     67  H   LIG d   1      11.060   6.953   0.852  0.00  0.00     0.065 H 
ATOM     68  H   LIG d   1      11.871   6.268  -2.012  0.00  0.00     0.067 H 
BRANCH  61  69
ATOM     69  C   LIG d   1       9.549  10.010  -1.541  0.00  0.00     0.073 C 
ATOM     70  H   LIG d   1      10.082  10.768  -0.968  0.00  0.00     0.058 H 
ATOM     71  H   LIG d   1       9.874  10.045  -2.582  0.00  0.00     0.058 H 
BRANCH  69  72
ATOM     72  O   LIG d   1       8.143  10.260  -1.471  0.00  0.00    -0.392 OA
ATOM     73  H   LIG d   1       7.881  10.825  -0.732  0.00  0.00     0.209 HD
ENDBRANCH  69  72
ENDBRANCH  61  69
BRANCH  62  74
ATOM     74  O   LIG d   1      11.615   9.508   0.440  0.00  0.00    -0.387 OA
ATOM     75  H   LIG d   1      12.127  10.267   0.131  0.00  0.00     0.210 HD
ENDBRANCH  62  74
BRANCH  64  76
ATOM     76  O   LIG d   1      13.033   7.031   0.240  0.00  0.00    -0.386 OA
ATOM     77  H   LIG d   1      13.426   7.842   0.590  0.00  0.00     0.210 HD
ENDBRANCH  64  76
BRANCH  66  78
ATOM     78  O   LIG d   1      11.473   4.794  -0.620  0.00  0.00    -0.384 OA
ATOM     79  H   LIG d   1      10.982   4.106  -1.092  0.00  0.00     0.210 HD
ENDBRANCH  66  78
ENDBRANCH  57  58
ENDBRANCH  54  57
ENDBRANCH   1  54
BRANCH   1  80
ATOM     80  C   LIG d   1       9.828   2.956  -3.140  0.00  0.00     0.094 C 
ATOM     81  H   LIG d   1       9.114   3.516  -2.538  0.00  0.00     0.066 H 
BRANCH  80  82
ATOM     82  C   LIG d   1       9.097   1.907  -3.940  0.00  0.00    -0.058 C 
ATOM     83  C   LIG d   1       7.816   1.715  -3.749  0.00  0.00    -0.085 C 
ATOM     84  H   LIG d   1       7.266   2.359  -3.080  0.00  0.00     0.057 H 
ATOM     85  H   LIG d   1       9.630   1.316  -4.670  0.00  0.00     0.059 H 
BRANCH  83  86
ATOM     86  C   LIG d   1       7.108   0.591  -4.463  0.00  0.00    -0.031 C 
ATOM     87  H   LIG d   1       6.054   0.590  -4.183  0.00  0.00     0.031 H 
ATOM     88  H   LIG d   1       7.198   0.732  -5.540  0.00  0.00     0.031 H 
BRANCH  86  89
ATOM     89  C   LIG d   1       7.743  -0.744  -4.069  0.00  0.00    -0.031 C 
ATOM     90  H   LIG d   1       8.557  -0.566  -3.367  0.00  0.00     0.031 H 
ATOM     91  H   LIG d   1       6.992  -1.379  -3.601  0.00  0.00     0.031 H 
BRANCH  89  92
ATOM     92  C   LIG d   1       8.282  -1.427  -5.300  0.00  0.00    -0.088 C 
ATOM     93  C   LIG d   1       8.076  -2.707  -5.481  0.00  0.00    -0.088 C 
ATOM     94  H   LIG d   1       8.578  -3.226  -6.285  0.00  0.00     0.057 H 
ATOM     95  H   LIG d   1       8.837  -0.859  -6.033  0.00  0.00     0.057 H 
BRANCH  93  96
ATOM     96  C   LIG d   1       7.141  -3.457  -4.568  0.00  0.00    -0.035 C 
ATOM     97  H   LIG d   1       7.710  -4.173  -3.974  0.00  0.00     0.031 H 
ATOM     98  H   LIG d   1       6.639  -2.753  -3.905  0.00  0.00     0.031 H 
BRANCH  96  99
ATOM     99  C   LIG d   1       6.100  -4.203  -5.406  0.00  0.00    -0.050 C 
ATOM    100  H   LIG d   1       6.158  -3.866  -6.440  0.00  0.00     0.027 H 
ATOM    101  H   LIG d   1       6.296  -5.274  -5.361  0.00  0.00     0.027 H 
BRANCH  99 102
ATOM    102  C   LIG d   1       4.702  -3.918  -4.852  0.00  0.00    -0.053 C 
ATOM    103  H   LIG d   1       4.051  -3.590  -5.663  0.00  0.00     0.026 H 
ATOM    104  H   LIG d   1       4.296  -4.825  -4.404  0.00  0.00     0.026 H 
BRANCH 102 105
ATOM    105  C   LIG d   1       4.789  -2.819  -3.790  0.00  0.00    -0.053 C 
ATOM    106  H   LIG d   1       4.559  -3.241  -2.812  0.00  0.00     0.026 H 
ATOM    107  H   LIG d   1       5.797  -2.404  -3.779  0.00  0.00     0.026 H 
BRANCH 105 108
ATOM    108  C   LIG d   1       3.785  -1.713  -4.119  0.00  0.00    -0.053 C 
ATOM    109  H   LIG d   1       4.272  -0.946  -4.721  0.00  0.00     0.026 H 
ATOM    110  H   LIG d   1       2.948  -2.135  -4.675  0.00  0.00     0.026 H 
BRANCH 108 111
ATOM    111  C   LIG d   1       3.270  -1.090  -2.819  0.00  0.00    -0.053 C 
ATOM    112  H   LIG d   1       2.805  -0.128  -3.036  0.00  0.00     0.026 H 
ATOM    113  H   LIG d   1       2.536  -1.755  -2.363  0.00  0.00     0.026 H 
BRANCH 111 114
ATOM    114  C   LIG d   1       4.441  -0.885  -1.855  0.00  0.00    -0.053 C 
ATOM    115  H   LIG d   1       4.206  -1.345  -0.895  0.00  0.00     0.026 H 
ATOM    116  H   LIG d   1       5.338  -1.345  -2.269  0.00  0.00     0.026 H 
BRANCH 114 117
ATOM    117  C   LIG d   1       4.681   0.614  -1.657  0.00  0.00    -0.056 C 
ATOM    118  H   LIG d   1       4.608   0.856  -0.597  0.00  0.00     0.026 H 
ATOM    119  H   LIG d   1       5.675   0.873  -2.021  0.00  0.00     0.026 H 
BRANCH 117 120
ATOM    120  C   LIG d   1       3.629   1.405  -2.436  0.00  0.00    -0.065 C 
ATOM    121  H   LIG d   1       2.645   0.968  -2.266  0.00  0.00     0.023 H 
ATOM    122  H   LIG d   1       3.629   2.441  -2.097  0.00  0.00     0.023 H 
ATOM    123  H   LIG d   1       3.863   1.370  -3.500  0.00  0.00     0.023 H 
ENDBRANCH 117 120
ENDBRANCH 114 117
ENDBRANCH 111 114
ENDBRANCH 108 111
ENDBRANCH 105 108
ENDBRANCH 102 105
ENDBRANCH  99 102
ENDBRANCH  96  99
ENDBRANCH  93  96
ENDBRANCH  89  92
ENDBRANCH  86  89
ENDBRANCH  83  86
ENDBRANCH  80  82
BRANCH  80 124
ATOM    124  O   LIG d   1      10.781   2.322  -2.283  0.00  0.00    -0.386 OA
ATOM    125  H   LIG d   1      10.735   1.356  -2.291  0.00  0.00     0.210 HD
ENDBRANCH  80 124
ENDBRANCH   1  80
TORSDOF 40
ENDMDL
MODEL 5
REMARK VINA RESULT:      -5.1      1.895      3.629
REMARK WARNING: 32 MAX_TORS EXCEEDED!!!
REMARK  40 active torsions:
REMARK  status: ('A' for Active; 'I' for Inactive)
REMARK    1  A    between atoms: C_1  and  C_2 
REMARK    2  A    between atoms: C_2  and  C_3 
REMARK    3  A    between atoms: C_3  and  C_4 
REMARK    4  A    between atoms: C_4  and  C_5 
REMARK    5  A    between atoms: C_5  and  C_6 
REMARK    6  A    between atoms: C_6  and  C_7 
REMARK    7  A    between atoms: C_7  and  C_8 
REMARK    8  A    between atoms: C_8  and  C_9 
REMARK    9  A    between atoms: C_9  and  C_10 
REMARK   10  A    between atoms: C_10  and  C_11 
REMARK   11  A    between atoms: C_11  and  C_12 
REMARK   12  A    between atoms: C_12  and  C_13 
REMARK   13  A    between atoms: C_13  and  C_14 
REMARK   14  A    between atoms: C_14  and  C_15 
REMARK   15  A    between atoms: C_15  and  C_17 
REMARK   16  A    between atoms: C_15  and  O_58 
REMARK       I    between atoms: C_17  and  N_19 
REMARK   17  A    between atoms: N_19  and  C_20 
REMARK   18  A    between atoms: C_20  and  C_22 
REMARK   19  A    between atoms: C_20  and  C_40 
REMARK   20  A    between atoms: C_22  and  O_23 
REMARK   21  A    between atoms: O_23  and  C_24 
REMARK   22  A    between atoms: C_26  and  O_39 
REMARK   23  A    between atoms: C_28  and  O_38 
REMARK   24  A    between atoms: C_30  and  O_37 
REMARK   25  A    between atoms: C_32  and  C_35 
REMARK   26  A    between atoms: C_35  and  O_36 
REMARK   27  A    between atoms: C_40  and  C_42 
REMARK   28  A    between atoms: C_40  and  O_57 
REMARK   29  A    between atoms: C_43  and  C_44 
REMARK   30  A    between atoms: C_44  and  C_45 
REMARK   31  A    between atoms: C_45  and  C_46 
REMARK   32  A    between atoms: C_47  and  C_48 
REMARK   33  A    between atoms: C_48  and  C_49 
REMARK   34  A    between atoms: C_49  and  C_50 
REMARK   35  A    between atoms: C_50  and  C_51 
REMARK   36  A    between atoms: C_51  and  C_52 
REMARK   37  A    between atoms: C_52  and  C_53 
REMARK   38  A    between atoms: C_53  and  C_54 
REMARK   39  A    between atoms: C_54  and  C_55 
REMARK   40  A    between atoms: C_55  and  C_56 
ROOT
ATOM      1  C   LIG d   1       2.332  -3.900 -10.282  0.00  0.00     0.076 C 
ATOM      2  H   LIG d   1       3.259  -3.828 -10.851  0.00  0.00     0.055 H 
ENDROOT
BRANCH   1   3
ATOM      3  N   LIG d   1       2.598  -4.544  -8.994  0.00  0.00    -0.305 N 
ATOM      4  C   LIG d   1       3.867  -4.784  -8.610  0.00  0.00     0.242 C 
ATOM      5  O   LIG d   1       4.789  -4.468  -9.332  0.00  0.00    -0.273 OA
ATOM      6  H   LIG d   1       1.861  -4.796  -8.416  0.00  0.00     0.149 HD
BRANCH   4   7
ATOM      7  C   LIG d   1       4.143  -5.446  -7.285  0.00  0.00     0.131 C 
ATOM      8  H   LIG d   1       4.185  -6.527  -7.421  0.00  0.00     0.069 H 
BRANCH   7   9
ATOM      9  C   LIG d   1       5.481  -4.949  -6.735  0.00  0.00    -0.018 C 
ATOM     10  H   LIG d   1       5.806  -4.078  -7.304  0.00  0.00     0.029 H 
ATOM     11  H   LIG d   1       6.226  -5.739  -6.822  0.00  0.00     0.029 H 
BRANCH   9  12
ATOM     12  C   LIG d   1       5.316  -4.563  -5.264  0.00  0.00    -0.050 C 
ATOM     13  H   LIG d   1       5.437  -5.449  -4.640  0.00  0.00     0.027 H 
ATOM     14  H   LIG d   1       4.324  -4.141  -5.107  0.00  0.00     0.027 H 
BRANCH  12  15
ATOM     15  C   LIG d   1       6.376  -3.527  -4.886  0.00  0.00    -0.053 C 
ATOM     16  H   LIG d   1       6.703  -2.998  -5.782  0.00  0.00     0.026 H 
ATOM     17  H   LIG d   1       7.230  -4.030  -4.430  0.00  0.00     0.026 H 
BRANCH  15  18
ATOM     18  C   LIG d   1       5.782  -2.528  -3.891  0.00  0.00    -0.053 C 
ATOM     19  H   LIG d   1       5.848  -1.521  -4.305  0.00  0.00     0.026 H 
ATOM     20  H   LIG d   1       6.339  -2.573  -2.956  0.00  0.00     0.026 H 
BRANCH  18  21
ATOM     21  C   LIG d   1       4.316  -2.877  -3.631  0.00  0.00    -0.053 C 
ATOM     22  H   LIG d   1       4.229  -3.940  -3.410  0.00  0.00     0.026 H 
ATOM     23  H   LIG d   1       3.723  -2.640  -4.515  0.00  0.00     0.026 H 
BRANCH  21  24
ATOM     24  C   LIG d   1       3.802  -2.065  -2.441  0.00  0.00    -0.053 C 
ATOM     25  H   LIG d   1       3.445  -2.741  -1.665  0.00  0.00     0.026 H 
ATOM     26  H   LIG d   1       2.983  -1.422  -2.767  0.00  0.00     0.026 H 
BRANCH  24  27
ATOM     27  C   LIG d   1       4.937  -1.202  -1.884  0.00  0.00    -0.053 C 
ATOM     28  H   LIG d   1       5.826  -1.330  -2.499  0.00  0.00     0.026 H 
ATOM     29  H   LIG d   1       5.155  -1.506  -0.861  0.00  0.00     0.026 H 
BRANCH  27  30
ATOM     30  C   LIG d   1       4.514   0.268  -1.901  0.00  0.00    -0.053 C 
ATOM     31  H   LIG d   1       5.237   0.849  -2.473  0.00  0.00     0.026 H 
ATOM     32  H   LIG d   1       4.471   0.646  -0.880  0.00  0.00     0.026 H 
BRANCH  30  33
ATOM     33  C   LIG d   1       3.133   0.394  -2.549  0.00  0.00    -0.053 C 
ATOM     34  H   LIG d   1       2.500   1.034  -1.935  0.00  0.00     0.026 H 
ATOM     35  H   LIG d   1       2.678  -0.594  -2.630  0.00  0.00     0.026 H 
BRANCH  33  36
ATOM     36  C   LIG d   1       3.277   1.005  -3.944  0.00  0.00    -0.053 C 
ATOM     37  H   LIG d   1       4.288   0.835  -4.312  0.00  0.00     0.026 H 
ATOM     38  H   LIG d   1       3.084   2.076  -3.893  0.00  0.00     0.026 H 
BRANCH  36  39
ATOM     39  C   LIG d   1       2.272   0.350  -4.894  0.00  0.00    -0.053 C 
ATOM     40  H   LIG d   1       1.345   0.923  -4.894  0.00  0.00     0.026 H 
ATOM     41  H   LIG d   1       2.068  -0.668  -4.562  0.00  0.00     0.026 H 
BRANCH  39  42
ATOM     42  C   LIG d   1       2.853   0.319  -6.309  0.00  0.00    -0.053 C 
ATOM     43  H   LIG d   1       2.902   1.332  -6.705  0.00  0.00     0.026 H 
ATOM     44  H   LIG d   1       2.215  -0.291  -6.950  0.00  0.00     0.026 H 
BRANCH  42  45
ATOM     45  C   LIG d   1       4.259  -0.283  -6.268  0.00  0.00    -0.056 C 
ATOM     46  H   LIG d   1       4.477  -0.630  -5.259  0.00  0.00     0.026 H 
ATOM     47  H   LIG d   1       4.987   0.476  -6.557  0.00  0.00     0.026 H 
BRANCH  45  48
ATOM     48  C   LIG d   1       4.337  -1.461  -7.242  0.00  0.00    -0.065 C 
ATOM     49  H   LIG d   1       3.333  -1.834  -7.442  0.00  0.00     0.023 H 
ATOM     50  H   LIG d   1       4.794  -1.132  -8.175  0.00  0.00     0.023 H 
ATOM     51  H   LIG d   1       4.940  -2.256  -6.804  0.00  0.00     0.023 H 
ENDBRANCH  45  48
ENDBRANCH  42  45
ENDBRANCH  39  42
ENDBRANCH  36  39
ENDBRANCH  33  36
ENDBRANCH  30  33
ENDBRANCH  27  30
ENDBRANCH  24  27
ENDBRANCH  21  24
ENDBRANCH  18  21
ENDBRANCH  15  18
ENDBRANCH  12  15
ENDBRANCH   9  12
ENDBRANCH   7   9
BRANCH   7  52
ATOM     52  O   LIG d   1       3.099  -5.124  -6.364  0.00  0.00    -0.383 OA
ATOM     53  H   LIG d   1       2.373  -5.762  -6.354  0.00  0.00     0.210 HD
ENDBRANCH   7  52
ENDBRANCH   4   7
ENDBRANCH   1   3
BRANCH   1  54
ATOM     54  C   LIG d   1       1.315  -4.731 -11.067  0.00  0.00     0.072 C 
ATOM     55  H   LIG d   1       0.667  -4.067 -11.640  0.00  0.00     0.058 H 
ATOM     56  H   LIG d   1       1.841  -5.402 -11.747  0.00  0.00     0.058 H 
BRANCH  54  57
ATOM     57  O   LIG d   1       0.524  -5.499 -10.158  0.00  0.00    -0.347 OA
BRANCH  57  58
ATOM     58  C   LIG d   1      -0.836  -5.663 -10.566  0.00  0.00     0.188 C 
ATOM     59  H   LIG d   1      -0.974  -6.661 -10.980  0.00  0.00     0.094 H 
ATOM     60  O   LIG d   1      -1.157  -4.685 -11.557  0.00  0.00    -0.341 OA
ATOM     61  C   LIG d   1      -2.494  -4.776 -12.055  0.00  0.00     0.113 C 
ATOM     62  C   LIG d   1      -3.481  -4.559 -10.904  0.00  0.00     0.112 C 
ATOM     63  H   LIG d   1      -2.653  -5.762 -12.489  0.00  0.00     0.065 H 
ATOM     64  C   LIG d   1      -3.214  -5.598  -9.812  0.00  0.00     0.114 C 
ATOM     65  H   LIG d   1      -3.349  -3.557 -10.495  0.00  0.00     0.065 H 
ATOM     66  C   LIG d   1      -1.757  -5.481  -9.355  0.00  0.00     0.134 C 
ATOM     67  H   LIG d   1      -3.394  -6.597 -10.206  0.00  0.00     0.065 H 
ATOM     68  H   LIG d   1      -1.590  -4.498  -8.915  0.00  0.00     0.067 H 
BRANCH  61  69
ATOM     69  C   LIG d   1      -2.714  -3.704 -13.125  0.00  0.00     0.073 C 
ATOM     70  H   LIG d   1      -1.784  -3.538 -13.669  0.00  0.00     0.058 H 
ATOM     71  H   LIG d   1      -3.486  -4.038 -13.819  0.00  0.00     0.058 H 
BRANCH  69  72
ATOM     72  O   LIG d   1      -3.126  -2.486 -12.502  0.00  0.00    -0.392 OA
ATOM     73  H   LIG d   1      -3.939  -2.113 -12.868  0.00  0.00     0.209 HD
ENDBRANCH  69  72
ENDBRANCH  61  69
BRANCH  62  74
ATOM     74  O   LIG d   1      -4.817  -4.705 -11.388  0.00  0.00    -0.387 OA
ATOM     75  H   LIG d   1      -4.955  -5.494 -11.929  0.00  0.00     0.210 HD
ENDBRANCH  62  74
BRANCH  64  76
ATOM     76  O   LIG d   1      -4.083  -5.359  -8.701  0.00  0.00    -0.386 OA
ATOM     77  H   LIG d   1      -4.914  -4.926  -8.937  0.00  0.00     0.210 HD
ENDBRANCH  64  76
BRANCH  66  78
ATOM     78  O   LIG d   1      -1.476  -6.492  -8.386  0.00  0.00    -0.384 OA
ATOM     79  H   LIG d   1      -2.246  -6.767  -7.869  0.00  0.00     0.210 HD
ENDBRANCH  66  78
ENDBRANCH  57  58
ENDBRANCH  54  57
ENDBRANCH   1  54
BRANCH   1  80
ATOM     80  C   LIG d   1       1.768  -2.497 -10.045  0.00  0.00     0.094 C 
ATOM     81  H   LIG d   1       1.673  -2.320  -8.974  0.00  0.00     0.066 H 
BRANCH  80  82
ATOM     82  C   LIG d   1       2.702  -1.474 -10.642  0.00  0.00    -0.058 C 
ATOM     83  C   LIG d   1       2.687  -0.240 -10.203  0.00  0.00    -0.085 C 
ATOM     84  H   LIG d   1       2.066   0.026  -9.361  0.00  0.00     0.057 H 
ATOM     85  H   LIG d   1       3.382  -1.759 -11.431  0.00  0.00     0.059 H 
BRANCH  83  86
ATOM     86  C   LIG d   1       3.535   0.809 -10.876  0.00  0.00    -0.031 C 
ATOM     87  H   LIG d   1       3.983   0.390 -11.778  0.00  0.00     0.031 H 
ATOM     88  H   LIG d   1       2.913   1.663 -11.143  0.00  0.00     0.031 H 
BRANCH  86  89
ATOM     89  C   LIG d   1       4.640   1.261  -9.920  0.00  0.00    -0.031 C 
ATOM     90  H   LIG d   1       4.887   2.304 -10.118  0.00  0.00     0.031 H 
ATOM     91  H   LIG d   1       4.295   1.158  -8.892  0.00  0.00     0.031 H 
BRANCH  89  92
ATOM     92  C   LIG d   1       5.865   0.407 -10.128  0.00  0.00    -0.088 C 
ATOM     93  C   LIG d   1       6.946   0.631  -9.423  0.00  0.00    -0.088 C 
ATOM     94  H   LIG d   1       7.864   0.117  -9.665  0.00  0.00     0.057 H 
ATOM     95  H   LIG d   1       5.851  -0.389 -10.858  0.00  0.00     0.057 H 
BRANCH  93  96
ATOM     96  C   LIG d   1       6.908   1.605  -8.273  0.00  0.00    -0.035 C 
ATOM     97  H   LIG d   1       7.390   2.536  -8.570  0.00  0.00     0.031 H 
ATOM     98  H   LIG d   1       5.872   1.803  -8.000  0.00  0.00     0.031 H 
BRANCH  96  99
ATOM     99  C   LIG d   1       7.647   1.007  -7.074  0.00  0.00    -0.050 C 
ATOM    100  H   LIG d   1       6.929   0.552  -6.394  0.00  0.00     0.027 H 
ATOM    101  H   LIG d   1       8.350   0.250  -7.421  0.00  0.00     0.027 H 
BRANCH  99 102
ATOM    102  C   LIG d   1       8.411   2.114  -6.344  0.00  0.00    -0.053 C 
ATOM    103  H   LIG d   1       7.737   2.945  -6.136  0.00  0.00     0.026 H 
ATOM    104  H   LIG d   1       8.807   1.724  -5.406  0.00  0.00     0.026 H 
BRANCH 102 105
ATOM    105  C   LIG d   1       9.567   2.600  -7.222  0.00  0.00    -0.053 C 
ATOM    106  H   LIG d   1      10.206   1.756  -7.482  0.00  0.00     0.026 H 
ATOM    107  H   LIG d   1       9.167   3.048  -8.132  0.00  0.00     0.026 H 
BRANCH 105 108
ATOM    108  C   LIG d   1      10.384   3.643  -6.456  0.00  0.00    -0.053 C 
ATOM    109  H   LIG d   1      10.309   3.449  -5.385  0.00  0.00     0.026 H 
ATOM    110  H   LIG d   1      11.428   3.583  -6.763  0.00  0.00     0.026 H 
BRANCH 108 111
ATOM    111  C   LIG d   1       9.841   5.040  -6.760  0.00  0.00    -0.053 C 
ATOM    112  H   LIG d   1       8.940   5.216  -6.174  0.00  0.00     0.026 H 
ATOM    113  H   LIG d   1      10.594   5.786  -6.504  0.00  0.00     0.026 H 
BRANCH 111 114
ATOM    114  C   LIG d   1       9.508   5.143  -8.251  0.00  0.00    -0.053 C 
ATOM    115  H   LIG d   1      10.015   4.345  -8.792  0.00  0.00     0.026 H 
ATOM    116  H   LIG d   1       8.431   5.050  -8.389  0.00  0.00     0.026 H 
BRANCH 114 117
ATOM    117  C   LIG d   1       9.976   6.499  -8.785  0.00  0.00    -0.056 C 
ATOM    118  H   LIG d   1      11.064   6.543  -8.759  0.00  0.00     0.026 H 
ATOM    119  H   LIG d   1       9.631   6.624  -9.811  0.00  0.00     0.026 H 
BRANCH 117 120
ATOM    120  C   LIG d   1       9.398   7.616  -7.913  0.00  0.00    -0.065 C 
ATOM    121  H   LIG d   1       8.620   8.143  -8.465  0.00  0.00     0.023 H 
ATOM    122  H   LIG d   1       8.973   7.186  -7.006  0.00  0.00     0.023 H 
ATOM    123  H   LIG d   1      10.191   8.316  -7.647  0.00  0.00     0.023 H 
ENDBRANCH 117 120
ENDBRANCH 114 117
ENDBRANCH 111 114
ENDBRANCH 108 111
ENDBRANCH 105 108
ENDBRANCH 102 105
ENDBRANCH  99 102
ENDBRANCH  96  99
ENDBRANCH  93  96
ENDBRANCH  89  92
ENDBRANCH  86  89
ENDBRANCH  83  86
ENDBRANCH  80  82
BRANCH  80 124
ATOM    124  O   LIG d   1       0.484  -2.388 -10.663  0.00  0.00    -0.386 OA
ATOM    125  H   LIG d   1       0.420  -1.673 -11.311  0.00  0.00     0.210 HD
ENDBRANCH  80 124
ENDBRANCH   1  80
TORSDOF 40
ENDMDL
MODEL 6
REMARK VINA RESULT:      -5.1      7.690     13.297
REMARK WARNING: 32 MAX_TORS EXCEEDED!!!
REMARK  40 active torsions:
REMARK  status: ('A' for Active; 'I' for Inactive)
REMARK    1  A    between atoms: C_1  and  C_2 
REMARK    2  A    between atoms: C_2  and  C_3 
REMARK    3  A    between atoms: C_3  and  C_4 
REMARK    4  A    between atoms: C_4  and  C_5 
REMARK    5  A    between atoms: C_5  and  C_6 
REMARK    6  A    between atoms: C_6  and  C_7 
REMARK    7  A    between atoms: C_7  and  C_8 
REMARK    8  A    between atoms: C_8  and  C_9 
REMARK    9  A    between atoms: C_9  and  C_10 
REMARK   10  A    between atoms: C_10  and  C_11 
REMARK   11  A    between atoms: C_11  and  C_12 
REMARK   12  A    between atoms: C_12  and  C_13 
REMARK   13  A    between atoms: C_13  and  C_14 
REMARK   14  A    between atoms: C_14  and  C_15 
REMARK   15  A    between atoms: C_15  and  C_17 
REMARK   16  A    between atoms: C_15  and  O_58 
REMARK       I    between atoms: C_17  and  N_19 
REMARK   17  A    between atoms: N_19  and  C_20 
REMARK   18  A    between atoms: C_20  and  C_22 
REMARK   19  A    between atoms: C_20  and  C_40 
REMARK   20  A    between atoms: C_22  and  O_23 
REMARK   21  A    between atoms: O_23  and  C_24 
REMARK   22  A    between atoms: C_26  and  O_39 
REMARK   23  A    between atoms: C_28  and  O_38 
REMARK   24  A    between atoms: C_30  and  O_37 
REMARK   25  A    between atoms: C_32  and  C_35 
REMARK   26  A    between atoms: C_35  and  O_36 
REMARK   27  A    between atoms: C_40  and  C_42 
REMARK   28  A    between atoms: C_40  and  O_57 
REMARK   29  A    between atoms: C_43  and  C_44 
REMARK   30  A    between atoms: C_44  and  C_45 
REMARK   31  A    between atoms: C_45  and  C_46 
REMARK   32  A    between atoms: C_47  and  C_48 
REMARK   33  A    between atoms: C_48  and  C_49 
REMARK   34  A    between atoms: C_49  and  C_50 
REMARK   35  A    between atoms: C_50  and  C_51 
REMARK   36  A    between atoms: C_51  and  C_52 
REMARK   37  A    between atoms: C_52  and  C_53 
REMARK   38  A    between atoms: C_53  and  C_54 
REMARK   39  A    between atoms: C_54  and  C_55 
REMARK   40  A    between atoms: C_55  and  C_56 
ROOT
ATOM      1  C   LIG d   1      10.587   4.484  -3.997  0.00  0.00     0.076 C 
ATOM      2  H   LIG d   1      11.654   4.270  -4.056  0.00  0.00     0.055 H 
ENDROOT
BRANCH   1   3
ATOM      3  N   LIG d   1       9.962   4.215  -5.293  0.00  0.00    -0.305 N 
ATOM      4  C   LIG d   1      10.730   3.988  -6.377  0.00  0.00     0.242 C 
ATOM      5  O   LIG d   1      11.939   4.008  -6.279  0.00  0.00    -0.273 OA
ATOM      6  H   LIG d   1       8.996   4.199  -5.372  0.00  0.00     0.149 HD
BRANCH   4   7
ATOM      7  C   LIG d   1      10.089   3.712  -7.713  0.00  0.00     0.131 C 
ATOM      8  H   LIG d   1      10.863   3.509  -8.452  0.00  0.00     0.069 H 
BRANCH   7   9
ATOM      9  C   LIG d   1       9.167   2.496  -7.593  0.00  0.00    -0.018 C 
ATOM     10  H   LIG d   1       8.642   2.531  -6.640  0.00  0.00     0.029 H 
ATOM     11  H   LIG d   1       9.761   1.583  -7.647  0.00  0.00     0.029 H 
BRANCH   9  12
ATOM     12  C   LIG d   1       8.150   2.512  -8.736  0.00  0.00    -0.050 C 
ATOM     13  H   LIG d   1       8.596   2.065  -9.625  0.00  0.00     0.027 H 
ATOM     14  H   LIG d   1       7.863   3.541  -8.952  0.00  0.00     0.027 H 
BRANCH  12  15
ATOM     15  C   LIG d   1       6.912   1.711  -8.329  0.00  0.00    -0.053 C 
ATOM     16  H   LIG d   1       6.040   2.099  -8.855  0.00  0.00     0.026 H 
ATOM     17  H   LIG d   1       6.758   1.802  -7.253  0.00  0.00     0.026 H 
BRANCH  15  18
ATOM     18  C   LIG d   1       7.115   0.239  -8.692  0.00  0.00    -0.053 C 
ATOM     19  H   LIG d   1       8.182   0.017  -8.728  0.00  0.00     0.026 H 
ATOM     20  H   LIG d   1       6.669   0.041  -9.666  0.00  0.00     0.026 H 
BRANCH  18  21
ATOM     21  C   LIG d   1       6.447  -0.644  -7.636  0.00  0.00    -0.053 C 
ATOM     22  H   LIG d   1       5.783  -0.036  -7.022  0.00  0.00     0.026 H 
ATOM     23  H   LIG d   1       7.212  -1.097  -7.004  0.00  0.00     0.026 H 
BRANCH  21  24
ATOM     24  C   LIG d   1       5.639  -1.743  -8.327  0.00  0.00    -0.053 C 
ATOM     25  H   LIG d   1       6.174  -2.690  -8.253  0.00  0.00     0.026 H 
ATOM     26  H   LIG d   1       5.500  -1.486  -9.378  0.00  0.00     0.026 H 
BRANCH  24  27
ATOM     27  C   LIG d   1       4.273  -1.875  -7.650  0.00  0.00    -0.053 C 
ATOM     28  H   LIG d   1       4.250  -2.786  -7.052  0.00  0.00     0.026 H 
ATOM     29  H   LIG d   1       3.494  -1.920  -8.411  0.00  0.00     0.026 H 
BRANCH  27  30
ATOM     30  C   LIG d   1       4.034  -0.665  -6.745  0.00  0.00    -0.053 C 
ATOM     31  H   LIG d   1       4.879   0.019  -6.821  0.00  0.00     0.026 H 
ATOM     32  H   LIG d   1       3.927  -0.998  -5.713  0.00  0.00     0.026 H 
BRANCH  30  33
ATOM     33  C   LIG d   1       2.756   0.054  -7.184  0.00  0.00    -0.053 C 
ATOM     34  H   LIG d   1       2.095   0.176  -6.326  0.00  0.00     0.026 H 
ATOM     35  H   LIG d   1       2.251  -0.536  -7.950  0.00  0.00     0.026 H 
BRANCH  33  36
ATOM     36  C   LIG d   1       3.113   1.429  -7.752  0.00  0.00    -0.053 C 
ATOM     37  H   LIG d   1       4.194   1.563  -7.727  0.00  0.00     0.026 H 
ATOM     38  H   LIG d   1       2.636   2.205  -7.154  0.00  0.00     0.026 H 
BRANCH  36  39
ATOM     39  C   LIG d   1       2.621   1.526  -9.198  0.00  0.00    -0.053 C 
ATOM     40  H   LIG d   1       1.806   2.246  -9.258  0.00  0.00     0.026 H 
ATOM     41  H   LIG d   1       2.267   0.548  -9.528  0.00  0.00     0.026 H 
BRANCH  39  42
ATOM     42  C   LIG d   1       3.772   1.981 -10.098  0.00  0.00    -0.053 C 
ATOM     43  H   LIG d   1       4.616   2.287  -9.482  0.00  0.00     0.026 H 
ATOM     44  H   LIG d   1       3.443   2.824 -10.709  0.00  0.00     0.026 H 
BRANCH  42  45
ATOM     45  C   LIG d   1       4.194   0.826 -11.009  0.00  0.00    -0.056 C 
ATOM     46  H   LIG d   1       5.107   0.375 -10.624  0.00  0.00     0.026 H 
ATOM     47  H   LIG d   1       4.371   1.204 -12.016  0.00  0.00     0.026 H 
BRANCH  45  48
ATOM     48  C   LIG d   1       3.082  -0.225 -11.046  0.00  0.00    -0.065 C 
ATOM     49  H   LIG d   1       3.204  -0.852 -11.928  0.00  0.00     0.023 H 
ATOM     50  H   LIG d   1       3.137  -0.843 -10.149  0.00  0.00     0.023 H 
ATOM     51  H   LIG d   1       2.113   0.272 -11.085  0.00  0.00     0.023 H 
ENDBRANCH  45  48
ENDBRANCH  42  45
ENDBRANCH  39  42
ENDBRANCH  36  39
ENDBRANCH  33  36
ENDBRANCH  30  33
ENDBRANCH  27  30
ENDBRANCH  24  27
ENDBRANCH  21  24
ENDBRANCH  18  21
ENDBRANCH  15  18
ENDBRANCH  12  15
ENDBRANCH   9  12
ENDBRANCH   7   9
BRANCH   7  52
ATOM     52  O   LIG d   1       9.327   4.849  -8.121  0.00  0.00    -0.383 OA
ATOM     53  H   LIG d   1       9.421   5.615  -7.538  0.00  0.00     0.210 HD
ENDBRANCH   7  52
ENDBRANCH   4   7
ENDBRANCH   1   3
BRANCH   1  54
ATOM     54  C   LIG d   1      10.382   5.954  -3.627  0.00  0.00     0.072 C 
ATOM     55  H   LIG d   1      11.320   6.372  -3.260  0.00  0.00     0.058 H 
ATOM     56  H   LIG d   1      10.058   6.509  -4.509  0.00  0.00     0.058 H 
BRANCH  54  57
ATOM     57  O   LIG d   1       9.385   6.055  -2.608  0.00  0.00    -0.347 OA
BRANCH  57  58
ATOM     58  C   LIG d   1       9.606   7.122  -1.683  0.00  0.00     0.188 C 
ATOM     59  H   LIG d   1       8.697   7.298  -1.108  0.00  0.00     0.094 H 
ATOM     60  O   LIG d   1       9.955   8.309  -2.399  0.00  0.00    -0.341 OA
ATOM     61  C   LIG d   1      10.174   9.449  -1.566  0.00  0.00     0.113 C 
ATOM     62  C   LIG d   1      11.338   9.166  -0.611  0.00  0.00     0.112 C 
ATOM     63  H   LIG d   1       9.273   9.656  -0.989  0.00  0.00     0.065 H 
ATOM     64  C   LIG d   1      11.017   7.918   0.215  0.00  0.00     0.114 C 
ATOM     65  H   LIG d   1      12.249   8.998  -1.186  0.00  0.00     0.065 H 
ATOM     66  C   LIG d   1      10.747   6.746  -0.733  0.00  0.00     0.134 C 
ATOM     67  H   LIG d   1      10.135   8.102   0.828  0.00  0.00     0.065 H 
ATOM     68  H   LIG d   1      11.645   6.530  -1.312  0.00  0.00     0.067 H 
BRANCH  61  69
ATOM     69  C   LIG d   1      10.512  10.661  -2.438  0.00  0.00     0.073 C 
ATOM     70  H   LIG d   1       9.596  11.069  -2.861  0.00  0.00     0.058 H 
ATOM     71  H   LIG d   1      11.002  11.421  -1.828  0.00  0.00     0.058 H 
BRANCH  69  72
ATOM     72  O   LIG d   1      11.388  10.258  -3.493  0.00  0.00    -0.392 OA
ATOM     73  H   LIG d   1      11.927   9.484  -3.282  0.00  0.00     0.209 HD
ENDBRANCH  69  72
ENDBRANCH  61  69
BRANCH  62  74
ATOM     74  O   LIG d   1      11.523  10.283   0.261  0.00  0.00    -0.387 OA
ATOM     75  H   LIG d   1      12.442  10.574   0.337  0.00  0.00     0.210 HD
ENDBRANCH  62  74
BRANCH  64  76
ATOM     76  O   LIG d   1      12.127   7.602   1.059  0.00  0.00    -0.386 OA
ATOM     77  H   LIG d   1      12.082   6.722   1.457  0.00  0.00     0.210 HD
ENDBRANCH  64  76
BRANCH  66  78
ATOM     78  O   LIG d   1      10.376   5.592   0.023  0.00  0.00    -0.384 OA
ATOM     79  H   LIG d   1      10.950   4.827  -0.119  0.00  0.00     0.210 HD
ENDBRANCH  66  78
ENDBRANCH  57  58
ENDBRANCH  54  57
ENDBRANCH   1  54
BRANCH   1  80
ATOM     80  C   LIG d   1       9.947   3.596  -2.927  0.00  0.00     0.094 C 
ATOM     81  H   LIG d   1       9.101   4.118  -2.481  0.00  0.00     0.066 H 
BRANCH  80  82
ATOM     82  C   LIG d   1       9.468   2.314  -3.561  0.00  0.00    -0.058 C 
ATOM     83  C   LIG d   1       8.185   2.099  -3.713  0.00  0.00    -0.085 C 
ATOM     84  H   LIG d   1       7.474   2.872  -3.463  0.00  0.00     0.057 H 
ATOM     85  H   LIG d   1      10.183   1.574  -3.887  0.00  0.00     0.059 H 
BRANCH  83  86
ATOM     86  C   LIG d   1       7.701   0.771  -4.239  0.00  0.00    -0.031 C 
ATOM     87  H   LIG d   1       7.997   0.665  -5.284  0.00  0.00     0.031 H 
ATOM     88  H   LIG d   1       8.144  -0.034  -3.653  0.00  0.00     0.031 H 
BRANCH  86  89
ATOM     89  C   LIG d   1       6.177   0.704  -4.129  0.00  0.00    -0.031 C 
ATOM     90  H   LIG d   1       5.733   1.474  -4.759  0.00  0.00     0.031 H 
ATOM     91  H   LIG d   1       5.833  -0.277  -4.458  0.00  0.00     0.031 H 
BRANCH  89  92
ATOM     92  C   LIG d   1       5.766   0.927  -2.697  0.00  0.00    -0.088 C 
ATOM     93  C   LIG d   1       4.503   0.848  -2.358  0.00  0.00    -0.088 C 
ATOM     94  H   LIG d   1       4.191   1.144  -1.368  0.00  0.00     0.057 H 
ATOM     95  H   LIG d   1       6.513   1.152  -1.950  0.00  0.00     0.057 H 
BRANCH  93  96
ATOM     96  C   LIG d   1       3.487   0.344  -3.351  0.00  0.00    -0.035 C 
ATOM     97  H   LIG d   1       2.736   1.115  -3.525  0.00  0.00     0.031 H 
ATOM     98  H   LIG d   1       3.985   0.103  -4.289  0.00  0.00     0.031 H 
BRANCH  96  99
ATOM     99  C   LIG d   1       2.810  -0.910  -2.794  0.00  0.00    -0.050 C 
ATOM    100  H   LIG d   1       2.236  -0.649  -1.906  0.00  0.00     0.027 H 
ATOM    101  H   LIG d   1       2.144  -1.329  -3.547  0.00  0.00     0.027 H 
BRANCH  99 102
ATOM    102  C   LIG d   1       3.877  -1.944  -2.426  0.00  0.00    -0.053 C 
ATOM    103  H   LIG d   1       4.768  -1.433  -2.061  0.00  0.00     0.026 H 
ATOM    104  H   LIG d   1       3.492  -2.603  -1.647  0.00  0.00     0.026 H 
BRANCH 102 105
ATOM    105  C   LIG d   1       4.233  -2.770  -3.663  0.00  0.00    -0.053 C 
ATOM    106  H   LIG d   1       4.011  -3.821  -3.475  0.00  0.00     0.026 H 
ATOM    107  H   LIG d   1       3.648  -2.421  -4.514  0.00  0.00     0.026 H 
BRANCH 105 108
ATOM    108  C   LIG d   1       5.724  -2.612  -3.970  0.00  0.00    -0.053 C 
ATOM    109  H   LIG d   1       5.906  -1.621  -4.387  0.00  0.00     0.026 H 
ATOM    110  H   LIG d   1       6.299  -2.730  -3.051  0.00  0.00     0.026 H 
BRANCH 108 111
ATOM    111  C   LIG d   1       6.153  -3.677  -4.981  0.00  0.00    -0.053 C 
ATOM    112  H   LIG d   1       6.037  -4.667  -4.537  0.00  0.00     0.026 H 
ATOM    113  H   LIG d   1       5.529  -3.603  -5.873  0.00  0.00     0.026 H 
BRANCH 111 114
ATOM    114  C   LIG d   1       7.618  -3.457  -5.363  0.00  0.00    -0.053 C 
ATOM    115  H   LIG d   1       8.062  -4.406  -5.664  0.00  0.00     0.026 H 
ATOM    116  H   LIG d   1       7.675  -2.750  -6.191  0.00  0.00     0.026 H 
BRANCH 114 117
ATOM    117  C   LIG d   1       8.379  -2.897  -4.160  0.00  0.00    -0.056 C 
ATOM    118  H   LIG d   1       9.115  -2.170  -4.503  0.00  0.00     0.026 H 
ATOM    119  H   LIG d   1       7.678  -2.412  -3.480  0.00  0.00     0.026 H 
BRANCH 117 120
ATOM    120  C   LIG d   1       9.090  -4.039  -3.430  0.00  0.00    -0.065 C 
ATOM    121  H   LIG d   1       8.365  -4.808  -3.166  0.00  0.00     0.023 H 
ATOM    122  H   LIG d   1       9.853  -4.467  -4.081  0.00  0.00     0.023 H 
ATOM    123  H   LIG d   1       9.559  -3.654  -2.524  0.00  0.00     0.023 H 
ENDBRANCH 117 120
ENDBRANCH 114 117
ENDBRANCH 111 114
ENDBRANCH 108 111
ENDBRANCH 105 108
ENDBRANCH 102 105
ENDBRANCH  99 102
ENDBRANCH  96  99
ENDBRANCH  93  96
ENDBRANCH  89  92
ENDBRANCH  86  89
ENDBRANCH  83  86
ENDBRANCH  80  82
BRANCH  80 124
ATOM    124  O   LIG d   1      10.910   3.297  -1.915  0.00  0.00    -0.386 OA
ATOM    125  H   LIG d   1      10.920   3.929  -1.183  0.00  0.00     0.210 HD
ENDBRANCH  80 124
ENDBRANCH   1  80
TORSDOF 40
ENDMDL
MODEL 7
REMARK VINA RESULT:      -5.0      9.390     14.819
REMARK WARNING: 32 MAX_TORS EXCEEDED!!!
REMARK  40 active torsions:
REMARK  status: ('A' for Active; 'I' for Inactive)
REMARK    1  A    between atoms: C_1  and  C_2 
REMARK    2  A    between atoms: C_2  and  C_3 
REMARK    3  A    between atoms: C_3  and  C_4 
REMARK    4  A    between atoms: C_4  and  C_5 
REMARK    5  A    between atoms: C_5  and  C_6 
REMARK    6  A    between atoms: C_6  and  C_7 
REMARK    7  A    between atoms: C_7  and  C_8 
REMARK    8  A    between atoms: C_8  and  C_9 
REMARK    9  A    between atoms: C_9  and  C_10 
REMARK   10  A    between atoms: C_10  and  C_11 
REMARK   11  A    between atoms: C_11  and  C_12 
REMARK   12  A    between atoms: C_12  and  C_13 
REMARK   13  A    between atoms: C_13  and  C_14 
REMARK   14  A    between atoms: C_14  and  C_15 
REMARK   15  A    between atoms: C_15  and  C_17 
REMARK   16  A    between atoms: C_15  and  O_58 
REMARK       I    between atoms: C_17  and  N_19 
REMARK   17  A    between atoms: N_19  and  C_20 
REMARK   18  A    between atoms: C_20  and  C_22 
REMARK   19  A    between atoms: C_20  and  C_40 
REMARK   20  A    between atoms: C_22  and  O_23 
REMARK   21  A    between atoms: O_23  and  C_24 
REMARK   22  A    between atoms: C_26  and  O_39 
REMARK   23  A    between atoms: C_28  and  O_38 
REMARK   24  A    between atoms: C_30  and  O_37 
REMARK   25  A    between atoms: C_32  and  C_35 
REMARK   26  A    between atoms: C_35  and  O_36 
REMARK   27  A    between atoms: C_40  and  C_42 
REMARK   28  A    between atoms: C_40  and  O_57 
REMARK   29  A    between atoms: C_43  and  C_44 
REMARK   30  A    between atoms: C_44  and  C_45 
REMARK   31  A    between atoms: C_45  and  C_46 
REMARK   32  A    between atoms: C_47  and  C_48 
REMARK   33  A    between atoms: C_48  and  C_49 
REMARK   34  A    between atoms: C_49  and  C_50 
REMARK   35  A    between atoms: C_50  and  C_51 
REMARK   36  A    between atoms: C_51  and  C_52 
REMARK   37  A    between atoms: C_52  and  C_53 
REMARK   38  A    between atoms: C_53  and  C_54 
REMARK   39  A    between atoms: C_54  and  C_55 
REMARK   40  A    between atoms: C_55  and  C_56 
ROOT
ATOM      1  C   LIG d   1      11.857   5.468  -1.167  0.00  0.00     0.076 C 
ATOM      2  H   LIG d   1      11.396   6.254  -1.766  0.00  0.00     0.055 H 
ENDROOT
BRANCH   1   3
ATOM      3  N   LIG d   1      11.434   4.160  -1.669  0.00  0.00    -0.305 N 
ATOM      4  C   LIG d   1      10.377   4.065  -2.500  0.00  0.00     0.242 C 
ATOM      5  O   LIG d   1       9.775   5.065  -2.831  0.00  0.00    -0.273 OA
ATOM      6  H   LIG d   1      11.916   3.360  -1.405  0.00  0.00     0.149 HD
BRANCH   4   7
ATOM      7  C   LIG d   1       9.941   2.719  -3.017  0.00  0.00     0.131 C 
ATOM      8  H   LIG d   1       9.287   2.244  -2.286  0.00  0.00     0.069 H 
BRANCH   7   9
ATOM      9  C   LIG d   1       9.185   2.900  -4.335  0.00  0.00    -0.018 C 
ATOM     10  H   LIG d   1       9.736   2.412  -5.139  0.00  0.00     0.029 H 
ATOM     11  H   LIG d   1       9.086   3.963  -4.555  0.00  0.00     0.029 H 
BRANCH   9  12
ATOM     12  C   LIG d   1       7.795   2.272  -4.216  0.00  0.00    -0.050 C 
ATOM     13  H   LIG d   1       7.186   2.572  -5.070  0.00  0.00     0.027 H 
ATOM     14  H   LIG d   1       7.321   2.609  -3.296  0.00  0.00     0.027 H 
BRANCH  12  15
ATOM     15  C   LIG d   1       7.925   0.747  -4.195  0.00  0.00    -0.053 C 
ATOM     16  H   LIG d   1       8.919   0.473  -3.845  0.00  0.00     0.026 H 
ATOM     17  H   LIG d   1       7.772   0.355  -5.201  0.00  0.00     0.026 H 
BRANCH  15  18
ATOM     18  C   LIG d   1       6.872   0.159  -3.254  0.00  0.00    -0.053 C 
ATOM     19  H   LIG d   1       7.340  -0.104  -2.304  0.00  0.00     0.026 H 
ATOM     20  H   LIG d   1       6.440  -0.733  -3.705  0.00  0.00     0.026 H 
BRANCH  18  21
ATOM     21  C   LIG d   1       5.771   1.192  -3.009  0.00  0.00    -0.053 C 
ATOM     22  H   LIG d   1       5.236   1.381  -3.940  0.00  0.00     0.026 H 
ATOM     23  H   LIG d   1       6.216   2.121  -2.652  0.00  0.00     0.026 H 
BRANCH  21  24
ATOM     24  C   LIG d   1       4.795   0.659  -1.959  0.00  0.00    -0.053 C 
ATOM     25  H   LIG d   1       4.833   1.290  -1.072  0.00  0.00     0.026 H 
ATOM     26  H   LIG d   1       5.072  -0.361  -1.691  0.00  0.00     0.026 H 
BRANCH  24  27
ATOM     27  C   LIG d   1       3.375   0.668  -2.531  0.00  0.00    -0.053 C 
ATOM     28  H   LIG d   1       3.334   1.335  -3.391  0.00  0.00     0.026 H 
ATOM     29  H   LIG d   1       2.679   1.014  -1.767  0.00  0.00     0.026 H 
BRANCH  27  30
ATOM     30  C   LIG d   1       2.992  -0.748  -2.965  0.00  0.00    -0.053 C 
ATOM     31  H   LIG d   1       3.118  -0.845  -4.044  0.00  0.00     0.026 H 
ATOM     32  H   LIG d   1       1.952  -0.941  -2.702  0.00  0.00     0.026 H 
BRANCH  30  33
ATOM     33  C   LIG d   1       3.893  -1.761  -2.255  0.00  0.00    -0.053 C 
ATOM     34  H   LIG d   1       3.307  -2.321  -1.527  0.00  0.00     0.026 H 
ATOM     35  H   LIG d   1       4.699  -1.233  -1.743  0.00  0.00     0.026 H 
BRANCH  33  36
ATOM     36  C   LIG d   1       4.488  -2.725  -3.284  0.00  0.00    -0.053 C 
ATOM     37  H   LIG d   1       4.036  -3.709  -3.163  0.00  0.00     0.026 H 
ATOM     38  H   LIG d   1       5.565  -2.798  -3.133  0.00  0.00     0.026 H 
BRANCH  36  39
ATOM     39  C   LIG d   1       4.206  -2.203  -4.694  0.00  0.00    -0.053 C 
ATOM     40  H   LIG d   1       3.888  -1.162  -4.640  0.00  0.00     0.026 H 
ATOM     41  H   LIG d   1       3.417  -2.800  -5.151  0.00  0.00     0.026 H 
BRANCH  39  42
ATOM     42  C   LIG d   1       5.478  -2.305  -5.539  0.00  0.00    -0.053 C 
ATOM     43  H   LIG d   1       5.439  -3.209  -6.146  0.00  0.00     0.026 H 
ATOM     44  H   LIG d   1       6.347  -2.346  -4.882  0.00  0.00     0.026 H 
BRANCH  42  45
ATOM     45  C   LIG d   1       5.583  -1.080  -6.450  0.00  0.00    -0.056 C 
ATOM     46  H   LIG d   1       5.813  -1.402  -7.466  0.00  0.00     0.026 H 
ATOM     47  H   LIG d   1       6.375  -0.426  -6.087  0.00  0.00     0.026 H 
BRANCH  45  48
ATOM     48  C   LIG d   1       4.253  -0.324  -6.443  0.00  0.00    -0.065 C 
ATOM     49  H   LIG d   1       3.458  -0.983  -6.792  0.00  0.00     0.023 H 
ATOM     50  H   LIG d   1       4.030   0.008  -5.429  0.00  0.00     0.023 H 
ATOM     51  H   LIG d   1       4.323   0.541  -7.101  0.00  0.00     0.023 H 
ENDBRANCH  45  48
ENDBRANCH  42  45
ENDBRANCH  39  42
ENDBRANCH  36  39
ENDBRANCH  33  36
ENDBRANCH  30  33
ENDBRANCH  27  30
ENDBRANCH  24  27
ENDBRANCH  21  24
ENDBRANCH  18  21
ENDBRANCH  15  18
ENDBRANCH  12  15
ENDBRANCH   9  12
ENDBRANCH   7   9
BRANCH   7  52
ATOM     52  O   LIG d   1      11.088   1.896  -3.234  0.00  0.00    -0.383 OA
ATOM     53  H   LIG d   1      11.531   2.054  -4.079  0.00  0.00     0.210 HD
ENDBRANCH   7  52
ENDBRANCH   4   7
ENDBRANCH   1   3
BRANCH   1  54
ATOM     54  C   LIG d   1      11.424   5.619   0.292  0.00  0.00     0.072 C 
ATOM     55  H   LIG d   1      11.209   4.636   0.712  0.00  0.00     0.058 H 
ATOM     56  H   LIG d   1      12.226   6.089   0.862  0.00  0.00     0.058 H 
BRANCH  54  57
ATOM     57  O   LIG d   1      10.251   6.433   0.360  0.00  0.00    -0.347 OA
BRANCH  57  58
ATOM     58  C   LIG d   1      10.421   7.744  -0.182  0.00  0.00     0.188 C 
ATOM     59  H   LIG d   1      11.099   7.699  -1.035  0.00  0.00     0.094 H 
ATOM     60  O   LIG d   1      10.968   8.606   0.818  0.00  0.00    -0.341 OA
ATOM     61  C   LIG d   1      11.203   9.943   0.370  0.00  0.00     0.113 C 
ATOM     62  C   LIG d   1       9.877  10.576  -0.062  0.00  0.00     0.112 C 
ATOM     63  H   LIG d   1      11.891   9.927  -0.474  0.00  0.00     0.065 H 
ATOM     64  C   LIG d   1       9.245   9.716  -1.160  0.00  0.00     0.114 C 
ATOM     65  H   LIG d   1       9.202  10.628   0.793  0.00  0.00     0.065 H 
ATOM     66  C   LIG d   1       9.064   8.288  -0.636  0.00  0.00     0.134 C 
ATOM     67  H   LIG d   1       9.896   9.704  -2.034  0.00  0.00     0.065 H 
ATOM     68  H   LIG d   1       8.373   8.294   0.207  0.00  0.00     0.067 H 
BRANCH  61  69
ATOM     69  C   LIG d   1      11.812  10.763   1.510  0.00  0.00     0.073 C 
ATOM     70  H   LIG d   1      12.697  11.285   1.148  0.00  0.00     0.058 H 
ATOM     71  H   LIG d   1      11.081  11.489   1.865  0.00  0.00     0.058 H 
BRANCH  69  72
ATOM     72  O   LIG d   1      12.178   9.890   2.582  0.00  0.00    -0.392 OA
ATOM     73  H   LIG d   1      12.826  10.268   3.192  0.00  0.00     0.209 HD
ENDBRANCH  69  72
ENDBRANCH  61  69
BRANCH  62  74
ATOM     74  O   LIG d   1      10.116  11.892  -0.562  0.00  0.00    -0.387 OA
ATOM     75  H   LIG d   1      10.086  11.958  -1.527  0.00  0.00     0.210 HD
ENDBRANCH  62  74
BRANCH  64  76
ATOM     76  O   LIG d   1       7.972  10.258  -1.520  0.00  0.00    -0.386 OA
ATOM     77  H   LIG d   1       7.717  11.038  -1.009  0.00  0.00     0.210 HD
ENDBRANCH  64  76
BRANCH  66  78
ATOM     78  O   LIG d   1       8.541   7.460  -1.675  0.00  0.00    -0.384 OA
ATOM     79  H   LIG d   1       8.116   7.949  -2.394  0.00  0.00     0.210 HD
ENDBRANCH  66  78
ENDBRANCH  57  58
ENDBRANCH  54  57
ENDBRANCH   1  54
BRANCH   1  80
ATOM     80  C   LIG d   1      13.380   5.584  -1.261  0.00  0.00     0.094 C 
ATOM     81  H   LIG d   1      13.817   4.587  -1.318  0.00  0.00     0.066 H 
BRANCH  80  82
ATOM     82  C   LIG d   1      13.750   6.365  -2.496  0.00  0.00    -0.058 C 
ATOM     83  C   LIG d   1      12.880   7.179  -3.040  0.00  0.00    -0.085 C 
ATOM     84  H   LIG d   1      11.929   7.354  -2.559  0.00  0.00     0.057 H 
ATOM     85  H   LIG d   1      14.731   6.253  -2.933  0.00  0.00     0.059 H 
BRANCH  83  86
ATOM     86  C   LIG d   1      13.206   7.872  -4.339  0.00  0.00    -0.031 C 
ATOM     87  H   LIG d   1      14.012   8.588  -4.175  0.00  0.00     0.031 H 
ATOM     88  H   LIG d   1      13.521   7.133  -5.076  0.00  0.00     0.031 H 
BRANCH  86  89
ATOM     89  C   LIG d   1      11.966   8.607  -4.851  0.00  0.00    -0.031 C 
ATOM     90  H   LIG d   1      11.921   9.599  -4.404  0.00  0.00     0.031 H 
ATOM     91  H   LIG d   1      12.021   8.699  -5.936  0.00  0.00     0.031 H 
BRANCH  89  92
ATOM     92  C   LIG d   1      10.731   7.830  -4.475  0.00  0.00    -0.088 C 
ATOM     93  C   LIG d   1       9.575   8.140  -5.008  0.00  0.00    -0.088 C 
ATOM     94  H   LIG d   1       8.670   7.681  -4.638  0.00  0.00     0.057 H 
ATOM     95  H   LIG d   1      10.799   7.018  -3.766  0.00  0.00     0.057 H 
BRANCH  93  96
ATOM     96  C   LIG d   1       9.509   9.136  -6.137  0.00  0.00    -0.035 C 
ATOM     97  H   LIG d   1       8.777   9.907  -5.898  0.00  0.00     0.031 H 
ATOM     98  H   LIG d   1      10.488   9.593  -6.276  0.00  0.00     0.031 H 
BRANCH  96  99
ATOM     99  C   LIG d   1       9.093   8.419  -7.424  0.00  0.00    -0.050 C 
ATOM    100  H   LIG d   1       8.615   7.473  -7.174  0.00  0.00     0.027 H 
ATOM    101  H   LIG d   1       8.393   9.044  -7.979  0.00  0.00     0.027 H 
BRANCH  99 102
ATOM    102  C   LIG d   1      10.331   8.155  -8.283  0.00  0.00    -0.053 C 
ATOM    103  H   LIG d   1      10.131   8.456  -9.312  0.00  0.00     0.026 H 
ATOM    104  H   LIG d   1      11.173   8.729  -7.894  0.00  0.00     0.026 H 
BRANCH 102 105
ATOM    105  C   LIG d   1      10.670   6.663  -8.243  0.00  0.00    -0.053 C 
ATOM    106  H   LIG d   1      10.476   6.273  -7.244  0.00  0.00     0.026 H 
ATOM    107  H   LIG d   1      10.054   6.131  -8.968  0.00  0.00     0.026 H 
BRANCH 105 108
ATOM    108  C   LIG d   1      12.148   6.468  -8.588  0.00  0.00    -0.053 C 
ATOM    109  H   LIG d   1      12.235   5.822  -9.463  0.00  0.00     0.026 H 
ATOM    110  H   LIG d   1      12.602   7.435  -8.804  0.00  0.00     0.026 H 
BRANCH 108 111
ATOM    111  C   LIG d   1      12.867   5.819  -7.403  0.00  0.00    -0.053 C 
ATOM    112  H   LIG d   1      13.592   5.093  -7.770  0.00  0.00     0.026 H 
ATOM    113  H   LIG d   1      13.382   6.588  -6.826  0.00  0.00     0.026 H 
BRANCH 111 114
ATOM    114  C   LIG d   1      11.843   5.113  -6.512  0.00  0.00    -0.053 C 
ATOM    115  H   LIG d   1      11.213   5.856  -6.022  0.00  0.00     0.026 H 
ATOM    116  H   LIG d   1      11.223   4.455  -7.121  0.00  0.00     0.026 H 
BRANCH 114 117
ATOM    117  C   LIG d   1      12.575   4.286  -5.452  0.00  0.00    -0.056 C 
ATOM    118  H   LIG d   1      12.306   4.648  -4.460  0.00  0.00     0.026 H 
ATOM    119  H   LIG d   1      12.289   3.238  -5.547  0.00  0.00     0.026 H 
BRANCH 117 120
ATOM    120  C   LIG d   1      14.086   4.423  -5.653  0.00  0.00    -0.065 C 
ATOM    121  H   LIG d   1      14.470   5.205  -4.999  0.00  0.00     0.023 H 
ATOM    122  H   LIG d   1      14.571   3.477  -5.414  0.00  0.00     0.023 H 
ATOM    123  H   LIG d   1      14.291   4.685  -6.692  0.00  0.00     0.023 H 
ENDBRANCH 117 120
ENDBRANCH 114 117
ENDBRANCH 111 114
ENDBRANCH 108 111
ENDBRANCH 105 108
ENDBRANCH 102 105
ENDBRANCH  99 102
ENDBRANCH  96  99
ENDBRANCH  93  96
ENDBRANCH  89  92
ENDBRANCH  86  89
ENDBRANCH  83  86
ENDBRANCH  80  82
BRANCH  80 124
ATOM    124  O   LIG d   1      13.880   6.258  -0.104  0.00  0.00    -0.386 OA
ATOM    125  H   LIG d   1      14.058   5.673   0.646  0.00  0.00     0.210 HD
ENDBRANCH  80 124
ENDBRANCH   1  80
TORSDOF 40
ENDMDL
MODEL 8
REMARK VINA RESULT:      -4.9      9.203     14.516
REMARK WARNING: 32 MAX_TORS EXCEEDED!!!
REMARK  40 active torsions:
REMARK  status: ('A' for Active; 'I' for Inactive)
REMARK    1  A    between atoms: C_1  and  C_2 
REMARK    2  A    between atoms: C_2  and  C_3 
REMARK    3  A    between atoms: C_3  and  C_4 
REMARK    4  A    between atoms: C_4  and  C_5 
REMARK    5  A    between atoms: C_5  and  C_6 
REMARK    6  A    between atoms: C_6  and  C_7 
REMARK    7  A    between atoms: C_7  and  C_8 
REMARK    8  A    between atoms: C_8  and  C_9 
REMARK    9  A    between atoms: C_9  and  C_10 
REMARK   10  A    between atoms: C_10  and  C_11 
REMARK   11  A    between atoms: C_11  and  C_12 
REMARK   12  A    between atoms: C_12  and  C_13 
REMARK   13  A    between atoms: C_13  and  C_14 
REMARK   14  A    between atoms: C_14  and  C_15 
REMARK   15  A    between atoms: C_15  and  C_17 
REMARK   16  A    between atoms: C_15  and  O_58 
REMARK       I    between atoms: C_17  and  N_19 
REMARK   17  A    between atoms: N_19  and  C_20 
REMARK   18  A    between atoms: C_20  and  C_22 
REMARK   19  A    between atoms: C_20  and  C_40 
REMARK   20  A    between atoms: C_22  and  O_23 
REMARK   21  A    between atoms: O_23  and  C_24 
REMARK   22  A    between atoms: C_26  and  O_39 
REMARK   23  A    between atoms: C_28  and  O_38 
REMARK   24  A    between atoms: C_30  and  O_37 
REMARK   25  A    between atoms: C_32  and  C_35 
REMARK   26  A    between atoms: C_35  and  O_36 
REMARK   27  A    between atoms: C_40  and  C_42 
REMARK   28  A    between atoms: C_40  and  O_57 
REMARK   29  A    between atoms: C_43  and  C_44 
REMARK   30  A    between atoms: C_44  and  C_45 
REMARK   31  A    between atoms: C_45  and  C_46 
REMARK   32  A    between atoms: C_47  and  C_48 
REMARK   33  A    between atoms: C_48  and  C_49 
REMARK   34  A    between atoms: C_49  and  C_50 
REMARK   35  A    between atoms: C_50  and  C_51 
REMARK   36  A    between atoms: C_51  and  C_52 
REMARK   37  A    between atoms: C_52  and  C_53 
REMARK   38  A    between atoms: C_53  and  C_54 
REMARK   39  A    between atoms: C_54  and  C_55 
REMARK   40  A    between atoms: C_55  and  C_56 
ROOT
ATOM      1  C   LIG d   1      11.639   5.509  -1.255  0.00  0.00     0.076 C 
ATOM      2  H   LIG d   1      11.114   6.317  -1.765  0.00  0.00     0.055 H 
ENDROOT
BRANCH   1   3
ATOM      3  N   LIG d   1      11.184   4.221  -1.782  0.00  0.00    -0.305 N 
ATOM      4  C   LIG d   1      10.158   4.174  -2.655  0.00  0.00     0.242 C 
ATOM      5  O   LIG d   1       9.611   5.200  -3.003  0.00  0.00    -0.273 OA
ATOM      6  H   LIG d   1      11.622   3.401  -1.505  0.00  0.00     0.149 HD
BRANCH   4   7
ATOM      7  C   LIG d   1       9.688   2.850  -3.198  0.00  0.00     0.131 C 
ATOM      8  H   LIG d   1       8.906   2.449  -2.553  0.00  0.00     0.069 H 
BRANCH   7   9
ATOM      9  C   LIG d   1       9.132   3.046  -4.610  0.00  0.00    -0.018 C 
ATOM     10  H   LIG d   1       9.956   3.081  -5.323  0.00  0.00     0.029 H 
ATOM     11  H   LIG d   1       8.574   3.981  -4.654  0.00  0.00     0.029 H 
BRANCH   9  12
ATOM     12  C   LIG d   1       8.205   1.880  -4.960  0.00  0.00    -0.050 C 
ATOM     13  H   LIG d   1       8.803   1.005  -5.218  0.00  0.00     0.027 H 
ATOM     14  H   LIG d   1       7.579   2.155  -5.808  0.00  0.00     0.027 H 
BRANCH  12  15
ATOM     15  C   LIG d   1       7.320   1.554  -3.756  0.00  0.00    -0.053 C 
ATOM     16  H   LIG d   1       6.411   2.154  -3.801  0.00  0.00     0.026 H 
ATOM     17  H   LIG d   1       7.859   1.782  -2.836  0.00  0.00     0.026 H 
BRANCH  15  18
ATOM     18  C   LIG d   1       6.953   0.069  -3.778  0.00  0.00    -0.053 C 
ATOM     19  H   LIG d   1       6.015  -0.082  -3.243  0.00  0.00     0.026 H 
ATOM     20  H   LIG d   1       7.743  -0.506  -3.297  0.00  0.00     0.026 H 
BRANCH  18  21
ATOM     21  C   LIG d   1       6.794  -0.395  -5.227  0.00  0.00    -0.053 C 
ATOM     22  H   LIG d   1       7.759  -0.721  -5.613  0.00  0.00     0.026 H 
ATOM     23  H   LIG d   1       6.419   0.430  -5.835  0.00  0.00     0.026 H 
BRANCH  21  24
ATOM     24  C   LIG d   1       5.803  -1.559  -5.283  0.00  0.00    -0.053 C 
ATOM     25  H   LIG d   1       6.076  -2.232  -6.096  0.00  0.00     0.026 H 
ATOM     26  H   LIG d   1       4.798  -1.173  -5.454  0.00  0.00     0.026 H 
BRANCH  24  27
ATOM     27  C   LIG d   1       5.837  -2.323  -3.957  0.00  0.00    -0.053 C 
ATOM     28  H   LIG d   1       6.217  -1.670  -3.172  0.00  0.00     0.026 H 
ATOM     29  H   LIG d   1       6.489  -3.191  -4.055  0.00  0.00     0.026 H 
BRANCH  27  30
ATOM     30  C   LIG d   1       4.423  -2.783  -3.598  0.00  0.00    -0.053 C 
ATOM     31  H   LIG d   1       4.422  -3.861  -3.434  0.00  0.00     0.026 H 
ATOM     32  H   LIG d   1       3.743  -2.539  -4.413  0.00  0.00     0.026 H 
BRANCH  30  33
ATOM     33  C   LIG d   1       3.965  -2.073  -2.322  0.00  0.00    -0.053 C 
ATOM     34  H   LIG d   1       4.813  -1.566  -1.863  0.00  0.00     0.026 H 
ATOM     35  H   LIG d   1       3.558  -2.806  -1.624  0.00  0.00     0.026 H 
BRANCH  33  36
ATOM     36  C   LIG d   1       2.884  -1.046  -2.670  0.00  0.00    -0.053 C 
ATOM     37  H   LIG d   1       2.044  -1.156  -1.985  0.00  0.00     0.026 H 
ATOM     38  H   LIG d   1       2.544  -1.210  -3.692  0.00  0.00     0.026 H 
BRANCH  36  39
ATOM     39  C   LIG d   1       3.463   0.365  -2.545  0.00  0.00    -0.053 C 
ATOM     40  H   LIG d   1       4.522   0.303  -2.298  0.00  0.00     0.026 H 
ATOM     41  H   LIG d   1       2.936   0.905  -1.758  0.00  0.00     0.026 H 
BRANCH  39  42
ATOM     42  C   LIG d   1       3.291   1.105  -3.874  0.00  0.00    -0.053 C 
ATOM     43  H   LIG d   1       4.262   1.222  -4.353  0.00  0.00     0.026 H 
ATOM     44  H   LIG d   1       2.857   2.088  -3.688  0.00  0.00     0.026 H 
BRANCH  42  45
ATOM     45  C   LIG d   1       2.363   0.302  -4.788  0.00  0.00    -0.056 C 
ATOM     46  H   LIG d   1       1.355   0.714  -4.734  0.00  0.00     0.026 H 
ATOM     47  H   LIG d   1       2.348  -0.739  -4.466  0.00  0.00     0.026 H 
BRANCH  45  48
ATOM     48  C   LIG d   1       2.871   0.385  -6.229  0.00  0.00    -0.065 C 
ATOM     49  H   LIG d   1       3.760   1.014  -6.265  0.00  0.00     0.023 H 
ATOM     50  H   LIG d   1       3.119  -0.616  -6.584  0.00  0.00     0.023 H 
ATOM     51  H   LIG d   1       2.096   0.813  -6.864  0.00  0.00     0.023 H 
ENDBRANCH  45  48
ENDBRANCH  42  45
ENDBRANCH  39  42
ENDBRANCH  36  39
ENDBRANCH  33  36
ENDBRANCH  30  33
ENDBRANCH  27  30
ENDBRANCH  24  27
ENDBRANCH  21  24
ENDBRANCH  18  21
ENDBRANCH  15  18
ENDBRANCH  12  15
ENDBRANCH   9  12
ENDBRANCH   7   9
BRANCH   7  52
ATOM     52  O   LIG d   1      10.785   1.935  -3.240  0.00  0.00    -0.383 OA
ATOM     53  H   LIG d   1      11.627   2.319  -2.961  0.00  0.00     0.210 HD
ENDBRANCH   7  52
ENDBRANCH   4   7
ENDBRANCH   1   3
BRANCH   1  54
ATOM     54  C   LIG d   1      11.347   5.578   0.245  0.00  0.00     0.072 C 
ATOM     55  H   LIG d   1      11.033   4.596   0.600  0.00  0.00     0.058 H 
ATOM     56  H   LIG d   1      12.248   5.886   0.777  0.00  0.00     0.058 H 
BRANCH  54  57
ATOM     57  O   LIG d   1      10.304   6.526   0.484  0.00  0.00    -0.347 OA
BRANCH  57  58
ATOM     58  C   LIG d   1      10.497   7.780  -0.174  0.00  0.00     0.188 C 
ATOM     59  H   LIG d   1      11.114   7.634  -1.060  0.00  0.00     0.094 H 
ATOM     60  O   LIG d   1      11.147   8.690   0.715  0.00  0.00    -0.341 OA
ATOM     61  C   LIG d   1      11.411   9.974   0.146  0.00  0.00     0.113 C 
ATOM     62  C   LIG d   1      10.089  10.635  -0.253  0.00  0.00     0.112 C 
ATOM     63  H   LIG d   1      12.040   9.857  -0.736  0.00  0.00     0.065 H 
ATOM     64  C   LIG d   1       9.348   9.724  -1.236  0.00  0.00     0.114 C 
ATOM     65  H   LIG d   1       9.476  10.789   0.635  0.00  0.00     0.065 H 
ATOM     66  C   LIG d   1       9.138   8.353  -0.585  0.00  0.00     0.134 C 
ATOM     67  H   LIG d   1       9.938   9.610  -2.144  0.00  0.00     0.065 H 
ATOM     68  H   LIG d   1       8.506   8.461   0.296  0.00  0.00     0.067 H 
BRANCH  61  69
ATOM     69  C   LIG d   1      12.131  10.850   1.174  0.00  0.00     0.073 C 
ATOM     70  H   LIG d   1      12.504  10.226   1.985  0.00  0.00     0.058 H 
ATOM     71  H   LIG d   1      12.966  11.360   0.694  0.00  0.00     0.058 H 
BRANCH  69  72
ATOM     72  O   LIG d   1      11.218  11.817   1.697  0.00  0.00    -0.392 OA
ATOM     73  H   LIG d   1      10.290  11.624   1.507  0.00  0.00     0.209 HD
ENDBRANCH  69  72
ENDBRANCH  61  69
BRANCH  62  74
ATOM     74  O   LIG d   1      10.353  11.894  -0.875  0.00  0.00    -0.387 OA
ATOM     75  H   LIG d   1       9.764  12.100  -1.614  0.00  0.00     0.210 HD
ENDBRANCH  62  74
BRANCH  64  76
ATOM     76  O   LIG d   1       8.079  10.298  -1.559  0.00  0.00    -0.386 OA
ATOM     77  H   LIG d   1       8.135  11.180  -1.953  0.00  0.00     0.210 HD
ENDBRANCH  64  76
BRANCH  66  78
ATOM     78  O   LIG d   1       8.511   7.472  -1.518  0.00  0.00    -0.384 OA
ATOM     79  H   LIG d   1       7.663   7.117  -1.216  0.00  0.00     0.210 HD
ENDBRANCH  66  78
ENDBRANCH  57  58
ENDBRANCH  54  57
ENDBRANCH   1  54
BRANCH   1  80
ATOM     80  C   LIG d   1      13.145   5.652  -1.487  0.00  0.00     0.094 C 
ATOM     81  H   LIG d   1      13.582   4.668  -1.651  0.00  0.00     0.066 H 
BRANCH  80  82
ATOM     82  C   LIG d   1      13.386   6.517  -2.699  0.00  0.00    -0.058 C 
ATOM     83  C   LIG d   1      12.406   7.223  -3.204  0.00  0.00    -0.085 C 
ATOM     84  H   LIG d   1      11.448   7.251  -2.707  0.00  0.00     0.057 H 
ATOM     85  H   LIG d   1      14.367   6.553  -3.150  0.00  0.00     0.059 H 
BRANCH  83  86
ATOM     86  C   LIG d   1      12.615   7.996  -4.482  0.00  0.00    -0.031 C 
ATOM     87  H   LIG d   1      13.559   8.539  -4.427  0.00  0.00     0.031 H 
ATOM     88  H   LIG d   1      12.643   7.305  -5.324  0.00  0.00     0.031 H 
BRANCH  86  89
ATOM     89  C   LIG d   1      11.466   8.987  -4.673  0.00  0.00    -0.031 C 
ATOM     90  H   LIG d   1      11.499   9.739  -3.885  0.00  0.00     0.031 H 
ATOM     91  H   LIG d   1      11.563   9.474  -5.643  0.00  0.00     0.031 H 
BRANCH  89  92
ATOM     92  C   LIG d   1      10.152   8.251  -4.609  0.00  0.00    -0.088 C 
ATOM     93  C   LIG d   1       9.335   8.281  -5.632  0.00  0.00    -0.088 C 
ATOM     94  H   LIG d   1       8.338   7.876  -5.539  0.00  0.00     0.057 H 
ATOM     95  H   LIG d   1       9.885   7.699  -3.720  0.00  0.00     0.057 H 
BRANCH  93  96
ATOM     96  C   LIG d   1       9.785   8.882  -6.939  0.00  0.00    -0.035 C 
ATOM     97  H   LIG d   1       9.449   9.917  -6.998  0.00  0.00     0.031 H 
ATOM     98  H   LIG d   1      10.873   8.849  -6.998  0.00  0.00     0.031 H 
BRANCH  96  99
ATOM     99  C   LIG d   1       9.186   8.085  -8.100  0.00  0.00    -0.050 C 
ATOM    100  H   LIG d   1       8.101   8.184  -8.086  0.00  0.00     0.027 H 
ATOM    101  H   LIG d   1       9.574   8.467  -9.043  0.00  0.00     0.027 H 
BRANCH  99 102
ATOM    102  C   LIG d   1       9.565   6.609  -7.953  0.00  0.00    -0.053 C 
ATOM    103  H   LIG d   1      10.384   6.514  -7.240  0.00  0.00     0.026 H 
ATOM    104  H   LIG d   1       8.704   6.046  -7.594  0.00  0.00     0.026 H 
BRANCH 102 105
ATOM    105  C   LIG d   1      10.004   6.059  -9.312  0.00  0.00    -0.053 C 
ATOM    106  H   LIG d   1       9.127   5.893  -9.937  0.00  0.00     0.026 H 
ATOM    107  H   LIG d   1      10.667   6.775  -9.797  0.00  0.00     0.026 H 
BRANCH 105 108
ATOM    108  C   LIG d   1      10.744   4.734  -9.110  0.00  0.00    -0.053 C 
ATOM    109  H   LIG d   1      10.816   4.209 -10.063  0.00  0.00     0.026 H 
ATOM    110  H   LIG d   1      11.745   4.932  -8.727  0.00  0.00     0.026 H 
BRANCH 108 111
ATOM    111  C   LIG d   1       9.975   3.869  -8.108  0.00  0.00    -0.053 C 
ATOM    112  H   LIG d   1      10.662   3.496  -7.348  0.00  0.00     0.026 H 
ATOM    113  H   LIG d   1       9.198   4.468  -7.633  0.00  0.00     0.026 H 
BRANCH 111 114
ATOM    114  C   LIG d   1       9.334   2.689  -8.841  0.00  0.00    -0.053 C 
ATOM    115  H   LIG d   1       9.613   2.720  -9.894  0.00  0.00     0.026 H 
ATOM    116  H   LIG d   1       9.684   1.755  -8.400  0.00  0.00     0.026 H 
BRANCH 114 117
ATOM    117  C   LIG d   1       7.812   2.775  -8.712  0.00  0.00    -0.056 C 
ATOM    118  H   LIG d   1       7.555   3.378  -7.842  0.00  0.00     0.026 H 
ATOM    119  H   LIG d   1       7.398   3.236  -9.609  0.00  0.00     0.026 H 
BRANCH 117 120
ATOM    120  C   LIG d   1       7.234   1.368  -8.548  0.00  0.00    -0.065 C 
ATOM    121  H   LIG d   1       8.031   0.632  -8.660  0.00  0.00     0.023 H 
ATOM    122  H   LIG d   1       6.787   1.272  -7.559  0.00  0.00     0.023 H 
ATOM    123  H   LIG d   1       6.473   1.197  -9.310  0.00  0.00     0.023 H 
ENDBRANCH 117 120
ENDBRANCH 114 117
ENDBRANCH 111 114
ENDBRANCH 108 111
ENDBRANCH 105 108
ENDBRANCH 102 105
ENDBRANCH  99 102
ENDBRANCH  96  99
ENDBRANCH  93  96
ENDBRANCH  89  92
ENDBRANCH  86  89
ENDBRANCH  83  86
ENDBRANCH  80  82
BRANCH  80 124
ATOM    124  O   LIG d   1      13.749   6.258  -0.342  0.00  0.00    -0.386 OA
ATOM    125  H   LIG d   1      14.431   6.910  -0.557  0.00  0.00     0.210 HD
ENDBRANCH  80 124
ENDBRANCH   1  80
TORSDOF 40
ENDMDL
MODEL 9
REMARK VINA RESULT:      -4.9      8.537     13.469
REMARK WARNING: 32 MAX_TORS EXCEEDED!!!
REMARK  40 active torsions:
REMARK  status: ('A' for Active; 'I' for Inactive)
REMARK    1  A    between atoms: C_1  and  C_2 
REMARK    2  A    between atoms: C_2  and  C_3 
REMARK    3  A    between atoms: C_3  and  C_4 
REMARK    4  A    between atoms: C_4  and  C_5 
REMARK    5  A    between atoms: C_5  and  C_6 
REMARK    6  A    between atoms: C_6  and  C_7 
REMARK    7  A    between atoms: C_7  and  C_8 
REMARK    8  A    between atoms: C_8  and  C_9 
REMARK    9  A    between atoms: C_9  and  C_10 
REMARK   10  A    between atoms: C_10  and  C_11 
REMARK   11  A    between atoms: C_11  and  C_12 
REMARK   12  A    between atoms: C_12  and  C_13 
REMARK   13  A    between atoms: C_13  and  C_14 
REMARK   14  A    between atoms: C_14  and  C_15 
REMARK   15  A    between atoms: C_15  and  C_17 
REMARK   16  A    between atoms: C_15  and  O_58 
REMARK       I    between atoms: C_17  and  N_19 
REMARK   17  A    between atoms: N_19  and  C_20 
REMARK   18  A    between atoms: C_20  and  C_22 
REMARK   19  A    between atoms: C_20  and  C_40 
REMARK   20  A    between atoms: C_22  and  O_23 
REMARK   21  A    between atoms: O_23  and  C_24 
REMARK   22  A    between atoms: C_26  and  O_39 
REMARK   23  A    between atoms: C_28  and  O_38 
REMARK   24  A    between atoms: C_30  and  O_37 
REMARK   25  A    between atoms: C_32  and  C_35 
REMARK   26  A    between atoms: C_35  and  O_36 
REMARK   27  A    between atoms: C_40  and  C_42 
REMARK   28  A    between atoms: C_40  and  O_57 
REMARK   29  A    between atoms: C_43  and  C_44 
REMARK   30  A    between atoms: C_44  and  C_45 
REMARK   31  A    between atoms: C_45  and  C_46 
REMARK   32  A    between atoms: C_47  and  C_48 
REMARK   33  A    between atoms: C_48  and  C_49 
REMARK   34  A    between atoms: C_49  and  C_50 
REMARK   35  A    between atoms: C_50  and  C_51 
REMARK   36  A    between atoms: C_51  and  C_52 
REMARK   37  A    between atoms: C_52  and  C_53 
REMARK   38  A    between atoms: C_53  and  C_54 
REMARK   39  A    between atoms: C_54  and  C_55 
REMARK   40  A    between atoms: C_55  and  C_56 
ROOT
ATOM      1  C   LIG d   1       9.286   8.276  -6.535  0.00  0.00     0.076 C 
ATOM      2  H   LIG d   1       8.276   7.899  -6.368  0.00  0.00     0.055 H 
ENDROOT
BRANCH   1   3
ATOM      3  N   LIG d   1      10.258   7.323  -5.996  0.00  0.00    -0.305 N 
ATOM      4  C   LIG d   1       9.862   6.382  -5.116  0.00  0.00     0.242 C 
ATOM      5  O   LIG d   1       8.701   6.326  -4.769  0.00  0.00    -0.273 OA
ATOM      6  H   LIG d   1      11.186   7.367  -6.274  0.00  0.00     0.149 HD
BRANCH   4   7
ATOM      7  C   LIG d   1      10.861   5.400  -4.560  0.00  0.00     0.131 C 
ATOM      8  H   LIG d   1      11.017   5.601  -3.501  0.00  0.00     0.069 H 
BRANCH   7   9
ATOM      9  C   LIG d   1      10.328   3.976  -4.735  0.00  0.00    -0.018 C 
ATOM     10  H   LIG d   1      11.115   3.342  -5.142  0.00  0.00     0.029 H 
ATOM     11  H   LIG d   1       9.480   3.987  -5.419  0.00  0.00     0.029 H 
BRANCH   9  12
ATOM     12  C   LIG d   1       9.884   3.428  -3.378  0.00  0.00    -0.050 C 
ATOM     13  H   LIG d   1       9.145   4.100  -2.939  0.00  0.00     0.027 H 
ATOM     14  H   LIG d   1      10.745   3.354  -2.716  0.00  0.00     0.027 H 
BRANCH  12  15
ATOM     15  C   LIG d   1       9.263   2.042  -3.566  0.00  0.00    -0.053 C 
ATOM     16  H   LIG d   1       9.209   1.536  -2.603  0.00  0.00     0.026 H 
ATOM     17  H   LIG d   1       9.880   1.458  -4.249  0.00  0.00     0.026 H 
BRANCH  15  18
ATOM     18  C   LIG d   1       7.856   2.188  -4.147  0.00  0.00    -0.053 C 
ATOM     19  H   LIG d   1       7.910   2.705  -5.106  0.00  0.00     0.026 H 
ATOM     20  H   LIG d   1       7.237   2.762  -3.459  0.00  0.00     0.026 H 
BRANCH  18  21
ATOM     21  C   LIG d   1       7.241   0.801  -4.350  0.00  0.00    -0.053 C 
ATOM     22  H   LIG d   1       8.026   0.090  -4.607  0.00  0.00     0.026 H 
ATOM     23  H   LIG d   1       6.510   0.843  -5.157  0.00  0.00     0.026 H 
BRANCH  21  24
ATOM     24  C   LIG d   1       6.551   0.355  -3.060  0.00  0.00    -0.053 C 
ATOM     25  H   LIG d   1       7.269   0.369  -2.239  0.00  0.00     0.026 H 
ATOM     26  H   LIG d   1       6.164  -0.657  -3.186  0.00  0.00     0.026 H 
BRANCH  24  27
ATOM     27  C   LIG d   1       5.396   1.307  -2.744  0.00  0.00    -0.053 C 
ATOM     28  H   LIG d   1       5.171   1.910  -3.623  0.00  0.00     0.026 H 
ATOM     29  H   LIG d   1       5.679   1.960  -1.918  0.00  0.00     0.026 H 
BRANCH  27  30
ATOM     30  C   LIG d   1       4.160   0.496  -2.352  0.00  0.00    -0.053 C 
ATOM     31  H   LIG d   1       3.579   0.262  -3.245  0.00  0.00     0.026 H 
ATOM     32  H   LIG d   1       3.548   1.076  -1.662  0.00  0.00     0.026 H 
BRANCH  30  33
ATOM     33  C   LIG d   1       4.598  -0.805  -1.675  0.00  0.00    -0.053 C 
ATOM     34  H   LIG d   1       4.377  -0.753  -0.609  0.00  0.00     0.026 H 
ATOM     35  H   LIG d   1       5.670  -0.945  -1.817  0.00  0.00     0.026 H 
BRANCH  33  36
ATOM     36  C   LIG d   1       3.843  -1.983  -2.295  0.00  0.00    -0.053 C 
ATOM     37  H   LIG d   1       2.892  -2.117  -1.781  0.00  0.00     0.026 H 
ATOM     38  H   LIG d   1       4.441  -2.889  -2.198  0.00  0.00     0.026 H 
BRANCH  36  39
ATOM     39  C   LIG d   1       3.586  -1.699  -3.777  0.00  0.00    -0.053 C 
ATOM     40  H   LIG d   1       3.711  -0.635  -3.971  0.00  0.00     0.026 H 
ATOM     41  H   LIG d   1       2.569  -1.998  -4.033  0.00  0.00     0.026 H 
BRANCH  39  42
ATOM     42  C   LIG d   1       4.580  -2.494  -4.628  0.00  0.00    -0.053 C 
ATOM     43  H   LIG d   1       4.131  -3.442  -4.921  0.00  0.00     0.026 H 
ATOM     44  H   LIG d   1       5.483  -2.684  -4.047  0.00  0.00     0.026 H 
BRANCH  42  45
ATOM     45  C   LIG d   1       4.937  -1.689  -5.879  0.00  0.00    -0.056 C 
ATOM     46  H   LIG d   1       4.744  -2.291  -6.766  0.00  0.00     0.026 H 
ATOM     47  H   LIG d   1       5.992  -1.416  -5.846  0.00  0.00     0.026 H 
BRANCH  45  48
ATOM     48  C   LIG d   1       4.083  -0.419  -5.928  0.00  0.00    -0.065 C 
ATOM     49  H   LIG d   1       3.029  -0.689  -5.894  0.00  0.00     0.023 H 
ATOM     50  H   LIG d   1       4.324   0.214  -5.073  0.00  0.00     0.023 H 
ATOM     51  H   LIG d   1       4.291   0.123  -6.850  0.00  0.00     0.023 H 
ENDBRANCH  45  48
ENDBRANCH  42  45
ENDBRANCH  39  42
ENDBRANCH  36  39
ENDBRANCH  33  36
ENDBRANCH  30  33
ENDBRANCH  27  30
ENDBRANCH  24  27
ENDBRANCH  21  24
ENDBRANCH  18  21
ENDBRANCH  15  18
ENDBRANCH  12  15
ENDBRANCH   9  12
ENDBRANCH   7   9
BRANCH   7  52
ATOM     52  O   LIG d   1      12.101   5.535  -5.258  0.00  0.00    -0.383 OA
ATOM     53  H   LIG d   1      12.004   5.777  -6.189  0.00  0.00     0.210 HD
ENDBRANCH   7  52
ENDBRANCH   4   7
ENDBRANCH   1   3
BRANCH   1  54
ATOM     54  C   LIG d   1       9.450   9.624  -5.831  0.00  0.00     0.072 C 
ATOM     55  H   LIG d   1       9.351  10.430  -6.559  0.00  0.00     0.058 H 
ATOM     56  H   LIG d   1       8.680   9.730  -5.066  0.00  0.00     0.058 H 
BRANCH  54  57
ATOM     57  O   LIG d   1      10.741   9.690  -5.221  0.00  0.00    -0.347 OA
BRANCH  57  58
ATOM     58  C   LIG d   1      10.707   9.960  -3.818  0.00  0.00     0.188 C 
ATOM     59  H   LIG d   1      11.726  10.032  -3.438  0.00  0.00     0.094 H 
ATOM     60  O   LIG d   1      10.019   8.905  -3.145  0.00  0.00    -0.341 OA
ATOM     61  C   LIG d   1       9.950   9.064  -1.727  0.00  0.00     0.113 C 
ATOM     62  C   LIG d   1       9.188  10.351  -1.396  0.00  0.00     0.112 C 
ATOM     63  H   LIG d   1      10.958   9.124  -1.319  0.00  0.00     0.065 H 
ATOM     64  C   LIG d   1       9.892  11.536  -2.063  0.00  0.00     0.114 C 
ATOM     65  H   LIG d   1       8.166  10.276  -1.770  0.00  0.00     0.065 H 
ATOM     66  C   LIG d   1       9.976  11.283  -3.572  0.00  0.00     0.134 C 
ATOM     67  H   LIG d   1      10.896  11.643  -1.655  0.00  0.00     0.065 H 
ATOM     68  H   LIG d   1       8.970  11.226  -3.989  0.00  0.00     0.067 H 
BRANCH  61  69
ATOM     69  C   LIG d   1       9.220   7.867  -1.113  0.00  0.00     0.073 C 
ATOM     70  H   LIG d   1       9.311   7.008  -1.777  0.00  0.00     0.058 H 
ATOM     71  H   LIG d   1       9.663   7.628  -0.146  0.00  0.00     0.058 H 
BRANCH  69  72
ATOM     72  O   LIG d   1       7.839   8.191  -0.938  0.00  0.00    -0.392 OA
ATOM     73  H   LIG d   1       7.521   8.077  -0.032  0.00  0.00     0.209 HD
ENDBRANCH  69  72
ENDBRANCH  61  69
BRANCH  62  74
ATOM     74  O   LIG d   1       9.166  10.543   0.019  0.00  0.00    -0.387 OA
ATOM     75  H   LIG d   1       9.027  11.461   0.289  0.00  0.00     0.210 HD
ENDBRANCH  62  74
BRANCH  64  76
ATOM     76  O   LIG d   1       9.148  12.733  -1.821  0.00  0.00    -0.386 OA
ATOM     77  H   LIG d   1       8.817  13.160  -2.623  0.00  0.00     0.210 HD
ENDBRANCH  64  76
BRANCH  66  78
ATOM     78  O   LIG d   1      10.693  12.349  -4.197  0.00  0.00    -0.384 OA
ATOM     79  H   LIG d   1      11.309  12.059  -4.885  0.00  0.00     0.210 HD
ENDBRANCH  66  78
ENDBRANCH  57  58
ENDBRANCH  54  57
ENDBRANCH   1  54
BRANCH   1  80
ATOM     80  C   LIG d   1       9.523   8.454  -8.036  0.00  0.00     0.094 C 
ATOM     81  H   LIG d   1      10.332   9.165  -8.194  0.00  0.00     0.066 H 
BRANCH  80  82
ATOM     82  C   LIG d   1       9.896   7.126  -8.646  0.00  0.00    -0.058 C 
ATOM     83  C   LIG d   1       9.034   6.483  -9.392  0.00  0.00    -0.085 C 
ATOM     84  H   LIG d   1       8.087   6.939  -9.638  0.00  0.00     0.057 H 
ATOM     85  H   LIG d   1      10.875   6.706  -8.467  0.00  0.00     0.059 H 
BRANCH  83  86
ATOM     86  C   LIG d   1       9.363   5.104  -9.906  0.00  0.00    -0.031 C 
ATOM     87  H   LIG d   1       9.185   5.066 -10.982  0.00  0.00     0.031 H 
ATOM     88  H   LIG d   1      10.410   4.881  -9.703  0.00  0.00     0.031 H 
BRANCH  86  89
ATOM     89  C   LIG d   1       8.477   4.073  -9.206  0.00  0.00    -0.031 C 
ATOM     90  H   LIG d   1       7.562   4.554  -8.861  0.00  0.00     0.031 H 
ATOM     91  H   LIG d   1       8.226   3.275  -9.904  0.00  0.00     0.031 H 
BRANCH  89  92
ATOM     92  C   LIG d   1       9.215   3.495  -8.026  0.00  0.00    -0.088 C 
ATOM     93  C   LIG d   1       9.077   2.228  -7.724  0.00  0.00    -0.088 C 
ATOM     94  H   LIG d   1       9.490   1.844  -6.803  0.00  0.00     0.057 H 
ATOM     95  H   LIG d   1       9.858   4.126  -7.429  0.00  0.00     0.057 H 
BRANCH  93  96
ATOM     96  C   LIG d   1       8.342   1.305  -8.662  0.00  0.00    -0.035 C 
ATOM     97  H   LIG d   1       8.230   1.789  -9.633  0.00  0.00     0.031 H 
ATOM     98  H   LIG d   1       8.908   0.381  -8.780  0.00  0.00     0.031 H 
BRANCH  96  99
ATOM     99  C   LIG d   1       6.960   0.989  -8.087  0.00  0.00    -0.050 C 
ATOM    100  H   LIG d   1       7.073   0.440  -7.153  0.00  0.00     0.027 H 
ATOM    101  H   LIG d   1       6.422   1.918  -7.901  0.00  0.00     0.027 H 
BRANCH  99 102
ATOM    102  C   LIG d   1       6.175   0.137  -9.087  0.00  0.00    -0.053 C 
ATOM    103  H   LIG d   1       6.871  -0.397  -9.735  0.00  0.00     0.026 H 
ATOM    104  H   LIG d   1       5.557  -0.581  -8.547  0.00  0.00     0.026 H 
BRANCH 102 105
ATOM    105  C   LIG d   1       5.280   1.043  -9.935  0.00  0.00    -0.053 C 
ATOM    106  H   LIG d   1       5.877   1.520 -10.713  0.00  0.00     0.026 H 
ATOM    107  H   LIG d   1       4.492   0.447 -10.396  0.00  0.00     0.026 H 
BRANCH 105 108
ATOM    108  C   LIG d   1       4.652   2.118  -9.044  0.00  0.00    -0.053 C 
ATOM    109  H   LIG d   1       5.051   2.029  -8.033  0.00  0.00     0.026 H 
ATOM    110  H   LIG d   1       4.889   3.104  -9.443  0.00  0.00     0.026 H 
BRANCH 108 111
ATOM    111  C   LIG d   1       3.134   1.930  -9.012  0.00  0.00    -0.053 C 
ATOM    112  H   LIG d   1       2.806   1.789  -7.982  0.00  0.00     0.026 H 
ATOM    113  H   LIG d   1       2.650   2.813  -9.431  0.00  0.00     0.026 H 
BRANCH 111 114
ATOM    114  C   LIG d   1       2.756   0.700  -9.841  0.00  0.00    -0.053 C 
ATOM    115  H   LIG d   1       2.058   0.991 -10.626  0.00  0.00     0.026 H 
ATOM    116  H   LIG d   1       3.653   0.275 -10.290  0.00  0.00     0.026 H 
BRANCH 114 117
ATOM    117  C   LIG d   1       2.096  -0.341  -8.934  0.00  0.00    -0.056 C 
ATOM    118  H   LIG d   1       2.217  -0.044  -7.892  0.00  0.00     0.026 H 
ATOM    119  H   LIG d   1       1.034  -0.409  -9.171  0.00  0.00     0.026 H 
BRANCH 117 120
ATOM    120  C   LIG d   1       2.757  -1.703  -9.157  0.00  0.00    -0.065 C 
ATOM    121  H   LIG d   1       2.510  -2.367  -8.329  0.00  0.00     0.023 H 
ATOM    122  H   LIG d   1       2.393  -2.135 -10.090  0.00  0.00     0.023 H 
ATOM    123  H   LIG d   1       3.839  -1.577  -9.211  0.00  0.00     0.023 H 
ENDBRANCH 117 120
ENDBRANCH 114 117
ENDBRANCH 111 114
ENDBRANCH 108 111
ENDBRANCH 105 108
ENDBRANCH 102 105
ENDBRANCH  99 102
ENDBRANCH  96  99
ENDBRANCH  93  96
ENDBRANCH  89  92
ENDBRANCH  86  89
ENDBRANCH  83  86
ENDBRANCH  80  82
BRANCH  80 124
ATOM    124  O   LIG d   1       8.330   8.942  -8.654  0.00  0.00    -0.386 OA
ATOM    125  H   LIG d   1       7.525   8.489  -8.367  0.00  0.00     0.210 HD
ENDBRANCH  80 124
ENDBRANCH   1  80
TORSDOF 40
ENDMDL
