MODEL 1
REMARK VINA RESULT:      -7.5      0.000      0.000
REMARK  4 active torsions:
REMARK  status: ('A' for Active; 'I' for Inactive)
REMARK    1  A    between atoms: C_4  and  C_7 
REMARK    2  A    between atoms: C_7  and  C_8 
REMARK    3  A    between atoms: C_14  and  O_18 
REMARK    4  A    between atoms: O_18  and  C_19 
REMARK       I    between atoms: C_19  and  N_21 
ROOT
ATOM      1  C   LIG d   1       8.259   1.500  -4.177  0.00  0.00     0.176 A 
ATOM      2  C   LIG d   1       8.372   2.413  -5.326  0.00  0.00     0.232 A 
ATOM      3  O   LIG d   1       7.974   2.233  -6.464  0.00  0.00    -0.283 OA
ATOM      4  C   LIG d   1       9.073   3.595  -4.792  0.00  0.00     0.068 A 
ATOM      5  C   LIG d   1       9.482   4.800  -5.363  0.00  0.00    -0.044 A 
ATOM      6  C   LIG d   1      10.129   5.731  -4.598  0.00  0.00    -0.018 A 
ATOM      7  C   LIG d   1      10.380   5.477  -3.253  0.00  0.00     0.137 A 
ATOM      8  C   LIG d   1       9.980   4.284  -2.673  0.00  0.00     0.024 A 
ATOM      9  C   LIG d   1       9.321   3.328  -3.436  0.00  0.00     0.143 A 
ATOM     10  O   LIG d   1       8.833   2.110  -3.114  0.00  0.00    -0.451 OA
ATOM     11  H   LIG d   1       9.288   4.999  -6.406  0.00  0.00     0.063 H 
ATOM     12  H   LIG d   1      10.446   6.664  -5.039  0.00  0.00     0.065 H 
ATOM     13  H   LIG d   1      10.180   4.098  -1.628  0.00  0.00     0.069 H 
ENDROOT
BRANCH   7  14
ATOM     14  O   LIG d   1      11.025   6.408  -2.502  0.00  0.00    -0.411 OA
BRANCH  14  15
ATOM     15  C   LIG d   1      10.288   7.379  -1.930  0.00  0.00     0.408 C 
ATOM     16  O   LIG d   1       9.335   7.089  -1.233  0.00  0.00    -0.226 OA
ATOM     17  N   LIG d   1      10.607   8.674  -2.129  0.00  0.00    -0.263 N 
ATOM     18  C   LIG d   1       9.816   9.752  -1.515  0.00  0.00     0.041 C 
ATOM     19  C   LIG d   1      11.752   9.050  -2.973  0.00  0.00     0.041 C 
ATOM     20  C   LIG d   1       9.441  10.761  -2.600  0.00  0.00     0.064 C 
ATOM     21  H   LIG d   1       8.911   9.337  -1.073  0.00  0.00     0.049 H 
ATOM     22  H   LIG d   1      10.407  10.248  -0.745  0.00  0.00     0.049 H 
ATOM     23  O   LIG d   1      10.621  11.160  -3.303  0.00  0.00    -0.377 OA
ATOM     24  H   LIG d   1       8.978  11.635  -2.143  0.00  0.00     0.058 H 
ATOM     25  H   LIG d   1       8.741  10.300  -3.297  0.00  0.00     0.058 H 
ATOM     26  C   LIG d   1      11.280  10.094  -3.991  0.00  0.00     0.064 C 
ATOM     27  H   LIG d   1      12.139  10.487  -4.534  0.00  0.00     0.058 H 
ATOM     28  H   LIG d   1      10.586   9.630  -4.693  0.00  0.00     0.058 H 
ATOM     29  H   LIG d   1      12.542   9.473  -2.352  0.00  0.00     0.049 H 
ATOM     30  H   LIG d   1      12.128   8.171  -3.496  0.00  0.00     0.049 H 
ENDBRANCH  14  15
ENDBRANCH   7  14
BRANCH   1  31
ATOM     31  C   LIG d   1       7.683   0.272  -4.182  0.00  0.00    -0.008 C 
ATOM     32  H   LIG d   1       8.119  -0.526  -4.763  0.00  0.00     0.066 H 
BRANCH  31  33
ATOM     33  C   LIG d   1       6.465   0.029  -3.397  0.00  0.00    -0.021 A 
ATOM     34  C   LIG d   1       6.029  -1.279  -3.162  0.00  0.00    -0.054 A 
ATOM     35  C   LIG d   1       4.886  -1.499  -2.424  0.00  0.00    -0.061 A 
ATOM     36  H   LIG d   1       6.586  -2.116  -3.558  0.00  0.00     0.062 H 
ATOM     37  C   LIG d   1       4.169  -0.429  -1.914  0.00  0.00    -0.062 A 
ATOM     38  H   LIG d   1       4.547  -2.509  -2.242  0.00  0.00     0.062 H 
ATOM     39  C   LIG d   1       4.595   0.869  -2.142  0.00  0.00    -0.061 A 
ATOM     40  H   LIG d   1       3.273  -0.607  -1.340  0.00  0.00     0.062 H 
ATOM     41  C   LIG d   1       5.736   1.106  -2.879  0.00  0.00    -0.054 A 
ATOM     42  H   LIG d   1       4.030   1.698  -1.742  0.00  0.00     0.062 H 
ATOM     43  H   LIG d   1       6.066   2.118  -3.054  0.00  0.00     0.062 H 
ENDBRANCH  31  33
ENDBRANCH   1  31
TORSDOF 4
ENDMDL
MODEL 2
REMARK VINA RESULT:      -7.3      1.438      2.135
REMARK  4 active torsions:
REMARK  status: ('A' for Active; 'I' for Inactive)
REMARK    1  A    between atoms: C_4  and  C_7 
REMARK    2  A    between atoms: C_7  and  C_8 
REMARK    3  A    between atoms: C_14  and  O_18 
REMARK    4  A    between atoms: O_18  and  C_19 
REMARK       I    between atoms: C_19  and  N_21 
ROOT
ATOM      1  C   LIG d   1       8.169   1.132  -4.411  0.00  0.00     0.176 A 
ATOM      2  C   LIG d   1       8.348   1.860  -5.678  0.00  0.00     0.232 A 
ATOM      3  O   LIG d   1       7.963   1.533  -6.787  0.00  0.00    -0.283 OA
ATOM      4  C   LIG d   1       9.097   3.075  -5.304  0.00  0.00     0.068 A 
ATOM      5  C   LIG d   1       9.574   4.163  -6.034  0.00  0.00    -0.044 A 
ATOM      6  C   LIG d   1      10.252   5.165  -5.397  0.00  0.00    -0.018 A 
ATOM      7  C   LIG d   1      10.465   5.101  -4.023  0.00  0.00     0.137 A 
ATOM      8  C   LIG d   1       9.996   4.026  -3.286  0.00  0.00     0.024 A 
ATOM      9  C   LIG d   1       9.305   2.999  -3.918  0.00  0.00     0.143 A 
ATOM     10  O   LIG d   1       8.752   1.866  -3.434  0.00  0.00    -0.451 OA
ATOM     11  H   LIG d   1       9.409   4.214  -7.100  0.00  0.00     0.063 H 
ATOM     12  H   LIG d   1      10.622   6.008  -5.961  0.00  0.00     0.065 H 
ATOM     13  H   LIG d   1      10.167   3.986  -2.220  0.00  0.00     0.069 H 
ENDROOT
BRANCH   7  14
ATOM     14  O   LIG d   1      11.140   6.102  -3.400  0.00  0.00    -0.411 OA
BRANCH  14  15
ATOM     15  C   LIG d   1      10.428   7.133  -2.906  0.00  0.00     0.408 C 
ATOM     16  O   LIG d   1       9.856   7.894  -3.661  0.00  0.00    -0.226 OA
ATOM     17  N   LIG d   1      10.350   7.321  -1.573  0.00  0.00    -0.263 N 
ATOM     18  C   LIG d   1       9.579   8.441  -1.011  0.00  0.00     0.041 C 
ATOM     19  C   LIG d   1      11.039   6.416  -0.639  0.00  0.00     0.041 C 
ATOM     20  C   LIG d   1      10.463   9.188  -0.011  0.00  0.00     0.064 C 
ATOM     21  H   LIG d   1       9.278   9.117  -1.810  0.00  0.00     0.049 H 
ATOM     22  H   LIG d   1       8.695   8.058  -0.501  0.00  0.00     0.049 H 
ATOM     23  O   LIG d   1      11.007   8.256   0.927  0.00  0.00    -0.377 OA
ATOM     24  H   LIG d   1       9.868   9.931   0.518  0.00  0.00     0.058 H 
ATOM     25  H   LIG d   1      11.274   9.683  -0.545  0.00  0.00     0.058 H 
ATOM     26  C   LIG d   1      11.855   7.265   0.342  0.00  0.00     0.064 C 
ATOM     27  H   LIG d   1      12.261   6.625   1.125  0.00  0.00     0.058 H 
ATOM     28  H   LIG d   1      12.672   7.753  -0.191  0.00  0.00     0.058 H 
ATOM     29  H   LIG d   1      10.304   5.826  -0.092  0.00  0.00     0.049 H 
ATOM     30  H   LIG d   1      11.704   5.753  -1.193  0.00  0.00     0.049 H 
ENDBRANCH  14  15
ENDBRANCH   7  14
BRANCH   1  31
ATOM     31  C   LIG d   1       7.534  -0.055  -4.251  0.00  0.00    -0.008 C 
ATOM     32  H   LIG d   1       7.910  -0.939  -4.744  0.00  0.00     0.066 H 
BRANCH  31  33
ATOM     33  C   LIG d   1       6.333  -0.138  -3.408  0.00  0.00    -0.021 A 
ATOM     34  C   LIG d   1       5.722   1.029  -2.937  0.00  0.00    -0.054 A 
ATOM     35  C   LIG d   1       4.596   0.943  -2.147  0.00  0.00    -0.061 A 
ATOM     36  H   LIG d   1       6.132   1.996  -3.191  0.00  0.00     0.062 H 
ATOM     37  C   LIG d   1       4.068  -0.295  -1.820  0.00  0.00    -0.062 A 
ATOM     38  H   LIG d   1       4.123   1.843  -1.781  0.00  0.00     0.062 H 
ATOM     39  C   LIG d   1       4.666  -1.455  -2.284  0.00  0.00    -0.061 A 
ATOM     40  H   LIG d   1       3.187  -0.356  -1.199  0.00  0.00     0.062 H 
ATOM     41  C   LIG d   1       5.793  -1.386  -3.074  0.00  0.00    -0.054 A 
ATOM     42  H   LIG d   1       4.248  -2.416  -2.024  0.00  0.00     0.062 H 
ATOM     43  H   LIG d   1       6.257  -2.291  -3.434  0.00  0.00     0.062 H 
ENDBRANCH  31  33
ENDBRANCH   1  31
TORSDOF 4
ENDMDL
MODEL 3
REMARK VINA RESULT:      -7.1      1.870      2.675
REMARK  4 active torsions:
REMARK  status: ('A' for Active; 'I' for Inactive)
REMARK    1  A    between atoms: C_4  and  C_7 
REMARK    2  A    between atoms: C_7  and  C_8 
REMARK    3  A    between atoms: C_14  and  O_18 
REMARK    4  A    between atoms: O_18  and  C_19 
REMARK       I    between atoms: C_19  and  N_21 
ROOT
ATOM      1  C   LIG d   1       7.625   0.663  -3.991  0.00  0.00     0.176 A 
ATOM      2  C   LIG d   1       7.905   0.701  -5.435  0.00  0.00     0.232 A 
ATOM      3  O   LIG d   1       7.647  -0.152  -6.267  0.00  0.00    -0.283 OA
ATOM      4  C   LIG d   1       8.566   2.001  -5.650  0.00  0.00     0.068 A 
ATOM      5  C   LIG d   1       9.075   2.637  -6.783  0.00  0.00    -0.044 A 
ATOM      6  C   LIG d   1       9.646   3.873  -6.670  0.00  0.00    -0.018 A 
ATOM      7  C   LIG d   1       9.721   4.499  -5.429  0.00  0.00     0.137 A 
ATOM      8  C   LIG d   1       9.219   3.879  -4.296  0.00  0.00     0.024 A 
ATOM      9  C   LIG d   1       8.635   2.622  -4.393  0.00  0.00     0.143 A 
ATOM     10  O   LIG d   1       8.077   1.822  -3.457  0.00  0.00    -0.451 OA
ATOM     11  H   LIG d   1       9.018   2.153  -7.747  0.00  0.00     0.063 H 
ATOM     12  H   LIG d   1      10.041   4.366  -7.546  0.00  0.00     0.065 H 
ATOM     13  H   LIG d   1       9.282   4.373  -3.338  0.00  0.00     0.069 H 
ENDROOT
BRANCH   7  14
ATOM     14  O   LIG d   1      10.291   5.727  -5.328  0.00  0.00    -0.411 OA
BRANCH  14  15
ATOM     15  C   LIG d   1      11.327   5.876  -4.480  0.00  0.00     0.408 C 
ATOM     16  O   LIG d   1      12.375   5.299  -4.693  0.00  0.00    -0.226 OA
ATOM     17  N   LIG d   1      11.201   6.665  -3.395  0.00  0.00    -0.263 N 
ATOM     18  C   LIG d   1      12.319   6.842  -2.453  0.00  0.00     0.041 C 
ATOM     19  C   LIG d   1       9.940   7.369  -3.112  0.00  0.00     0.041 C 
ATOM     20  C   LIG d   1      11.807   6.588  -1.035  0.00  0.00     0.064 C 
ATOM     21  H   LIG d   1      13.112   6.134  -2.689  0.00  0.00     0.049 H 
ATOM     22  H   LIG d   1      12.701   7.860  -2.525  0.00  0.00     0.049 H 
ATOM     23  O   LIG d   1      10.646   7.389  -0.801  0.00  0.00    -0.377 OA
ATOM     24  H   LIG d   1      12.581   6.850  -0.315  0.00  0.00     0.058 H 
ATOM     25  H   LIG d   1      11.550   5.534  -0.927  0.00  0.00     0.058 H 
ATOM     26  C   LIG d   1       9.543   7.085  -1.659  0.00  0.00     0.064 C 
ATOM     27  H   LIG d   1       8.689   7.705  -1.387  0.00  0.00     0.058 H 
ATOM     28  H   LIG d   1       9.278   6.033  -1.553  0.00  0.00     0.058 H 
ATOM     29  H   LIG d   1      10.079   8.441  -3.252  0.00  0.00     0.049 H 
ATOM     30  H   LIG d   1       9.160   7.010  -3.783  0.00  0.00     0.049 H 
ENDBRANCH  14  15
ENDBRANCH   7  14
BRANCH   1  31
ATOM     31  C   LIG d   1       7.021  -0.347  -3.317  0.00  0.00    -0.008 C 
ATOM     32  H   LIG d   1       7.607  -1.174  -2.945  0.00  0.00     0.066 H 
BRANCH  31  33
ATOM     33  C   LIG d   1       5.569  -0.316  -3.093  0.00  0.00    -0.021 A 
ATOM     34  C   LIG d   1       4.801  -1.467  -3.297  0.00  0.00    -0.054 A 
ATOM     35  C   LIG d   1       3.440  -1.430  -3.084  0.00  0.00    -0.061 A 
ATOM     36  H   LIG d   1       5.273  -2.383  -3.620  0.00  0.00     0.062 H 
ATOM     37  C   LIG d   1       2.832  -0.257  -2.668  0.00  0.00    -0.062 A 
ATOM     38  H   LIG d   1       2.844  -2.318  -3.241  0.00  0.00     0.062 H 
ATOM     39  C   LIG d   1       3.585   0.887  -2.463  0.00  0.00    -0.061 A 
ATOM     40  H   LIG d   1       1.765  -0.233  -2.507  0.00  0.00     0.062 H 
ATOM     41  C   LIG d   1       4.947   0.866  -2.673  0.00  0.00    -0.054 A 
ATOM     42  H   LIG d   1       3.103   1.797  -2.140  0.00  0.00     0.062 H 
ATOM     43  H   LIG d   1       5.533   1.759  -2.512  0.00  0.00     0.062 H 
ENDBRANCH  31  33
ENDBRANCH   1  31
TORSDOF 4
ENDMDL
MODEL 4
REMARK VINA RESULT:      -6.9      7.905     12.868
REMARK  4 active torsions:
REMARK  status: ('A' for Active; 'I' for Inactive)
REMARK    1  A    between atoms: C_4  and  C_7 
REMARK    2  A    between atoms: C_7  and  C_8 
REMARK    3  A    between atoms: C_14  and  O_18 
REMARK    4  A    between atoms: O_18  and  C_19 
REMARK       I    between atoms: C_19  and  N_21 
ROOT
ATOM      1  C   LIG d   1       6.222  -2.726  -5.102  0.00  0.00     0.176 A 
ATOM      2  C   LIG d   1       5.101  -2.917  -6.037  0.00  0.00     0.232 A 
ATOM      3  O   LIG d   1       4.404  -2.059  -6.550  0.00  0.00    -0.283 OA
ATOM      4  C   LIG d   1       5.013  -4.378  -6.215  0.00  0.00     0.068 A 
ATOM      5  C   LIG d   1       4.171  -5.198  -6.967  0.00  0.00    -0.044 A 
ATOM      6  C   LIG d   1       4.333  -6.555  -6.930  0.00  0.00    -0.018 A 
ATOM      7  C   LIG d   1       5.335  -7.119  -6.146  0.00  0.00     0.137 A 
ATOM      8  C   LIG d   1       6.178  -6.316  -5.395  0.00  0.00     0.024 A 
ATOM      9  C   LIG d   1       6.027  -4.935  -5.420  0.00  0.00     0.143 A 
ATOM     10  O   LIG d   1       6.710  -3.951  -4.795  0.00  0.00    -0.451 OA
ATOM     11  H   LIG d   1       3.393  -4.763  -7.576  0.00  0.00     0.063 H 
ATOM     12  H   LIG d   1       3.682  -7.191  -7.512  0.00  0.00     0.065 H 
ATOM     13  H   LIG d   1       6.953  -6.764  -4.790  0.00  0.00     0.069 H 
ENDROOT
BRANCH   7  14
ATOM     14  O   LIG d   1       5.487  -8.469  -6.117  0.00  0.00    -0.411 OA
BRANCH  14  15
ATOM     15  C   LIG d   1       5.169  -9.117  -4.980  0.00  0.00     0.408 C 
ATOM     16  O   LIG d   1       4.018  -9.126  -4.589  0.00  0.00    -0.226 OA
ATOM     17  N   LIG d   1       6.125  -9.754  -4.277  0.00  0.00    -0.263 N 
ATOM     18  C   LIG d   1       5.800 -10.468  -3.031  0.00  0.00     0.041 C 
ATOM     19  C   LIG d   1       7.526  -9.752  -4.727  0.00  0.00     0.041 C 
ATOM     20  C   LIG d   1       6.768 -10.011  -1.940  0.00  0.00     0.064 C 
ATOM     21  H   LIG d   1       4.778 -10.238  -2.733  0.00  0.00     0.049 H 
ATOM     22  H   LIG d   1       5.905 -11.542  -3.186  0.00  0.00     0.049 H 
ATOM     23  O   LIG d   1       8.111 -10.141  -2.416  0.00  0.00    -0.377 OA
ATOM     24  H   LIG d   1       6.636 -10.629  -1.052  0.00  0.00     0.058 H 
ATOM     25  H   LIG d   1       6.569  -8.969  -1.693  0.00  0.00     0.058 H 
ATOM     26  C   LIG d   1       8.411  -9.325  -3.550  0.00  0.00     0.064 C 
ATOM     27  H   LIG d   1       9.459  -9.449  -3.821  0.00  0.00     0.058 H 
ATOM     28  H   LIG d   1       8.217  -8.280  -3.309  0.00  0.00     0.058 H 
ATOM     29  H   LIG d   1       7.807 -10.751  -5.056  0.00  0.00     0.049 H 
ATOM     30  H   LIG d   1       7.645  -9.047  -5.551  0.00  0.00     0.049 H 
ENDBRANCH  14  15
ENDBRANCH   7  14
BRANCH   1  31
ATOM     31  C   LIG d   1       6.684  -1.540  -4.635  0.00  0.00    -0.008 C 
ATOM     32  H   LIG d   1       7.614  -1.139  -5.008  0.00  0.00     0.066 H 
BRANCH  31  33
ATOM     33  C   LIG d   1       5.918  -0.800  -3.622  0.00  0.00    -0.021 A 
ATOM     34  C   LIG d   1       6.008   0.595  -3.552  0.00  0.00    -0.054 A 
ATOM     35  C   LIG d   1       5.287   1.281  -2.599  0.00  0.00    -0.061 A 
ATOM     36  H   LIG d   1       6.642   1.132  -4.243  0.00  0.00     0.062 H 
ATOM     37  C   LIG d   1       4.473   0.595  -1.713  0.00  0.00    -0.062 A 
ATOM     38  H   LIG d   1       5.355   2.358  -2.543  0.00  0.00     0.062 H 
ATOM     39  C   LIG d   1       4.378  -0.786  -1.777  0.00  0.00    -0.061 A 
ATOM     40  H   LIG d   1       3.913   1.137  -0.967  0.00  0.00     0.062 H 
ATOM     41  C   LIG d   1       5.094  -1.487  -2.723  0.00  0.00    -0.054 A 
ATOM     42  H   LIG d   1       3.742  -1.313  -1.082  0.00  0.00     0.062 H 
ATOM     43  H   LIG d   1       5.018  -2.563  -2.771  0.00  0.00     0.062 H 
ENDBRANCH  31  33
ENDBRANCH   1  31
TORSDOF 4
ENDMDL
MODEL 5
REMARK VINA RESULT:      -6.9      8.161     12.833
REMARK  4 active torsions:
REMARK  status: ('A' for Active; 'I' for Inactive)
REMARK    1  A    between atoms: C_4  and  C_7 
REMARK    2  A    between atoms: C_7  and  C_8 
REMARK    3  A    between atoms: C_14  and  O_18 
REMARK    4  A    between atoms: O_18  and  C_19 
REMARK       I    between atoms: C_19  and  N_21 
ROOT
ATOM      1  C   LIG d   1       4.432  -0.765  -6.893  0.00  0.00     0.176 A 
ATOM      2  C   LIG d   1       3.403   0.173  -7.372  0.00  0.00     0.232 A 
ATOM      3  O   LIG d   1       3.155   1.288  -6.946  0.00  0.00    -0.283 OA
ATOM      4  C   LIG d   1       2.741  -0.538  -8.481  0.00  0.00     0.068 A 
ATOM      5  C   LIG d   1       1.697  -0.201  -9.342  0.00  0.00    -0.044 A 
ATOM      6  C   LIG d   1       1.290  -1.089 -10.298  0.00  0.00    -0.018 A 
ATOM      7  C   LIG d   1       1.916  -2.327 -10.414  0.00  0.00     0.137 A 
ATOM      8  C   LIG d   1       2.954  -2.675  -9.566  0.00  0.00     0.024 A 
ATOM      9  C   LIG d   1       3.380  -1.784  -8.589  0.00  0.00     0.143 A 
ATOM     10  O   LIG d   1       4.356  -1.879  -7.659  0.00  0.00    -0.451 OA
ATOM     11  H   LIG d   1       1.211   0.759  -9.253  0.00  0.00     0.063 H 
ATOM     12  H   LIG d   1       0.481  -0.830 -10.965  0.00  0.00     0.065 H 
ATOM     13  H   LIG d   1       3.433  -3.638  -9.665  0.00  0.00     0.069 H 
ENDROOT
BRANCH   7  14
ATOM     14  O   LIG d   1       1.503  -3.202 -11.368  0.00  0.00    -0.411 OA
BRANCH  14  15
ATOM     15  C   LIG d   1       0.913  -4.344 -10.966  0.00  0.00     0.408 C 
ATOM     16  O   LIG d   1      -0.129  -4.302 -10.340  0.00  0.00    -0.226 OA
ATOM     17  N   LIG d   1       1.476  -5.533 -11.257  0.00  0.00    -0.263 N 
ATOM     18  C   LIG d   1       0.850  -6.793 -10.826  0.00  0.00     0.041 C 
ATOM     19  C   LIG d   1       2.740  -5.609 -12.007  0.00  0.00     0.041 C 
ATOM     20  C   LIG d   1       1.904  -7.646 -10.120  0.00  0.00     0.064 C 
ATOM     21  H   LIG d   1       0.031  -6.581 -10.140  0.00  0.00     0.049 H 
ATOM     22  H   LIG d   1       0.470  -7.330 -11.696  0.00  0.00     0.049 H 
ATOM     23  O   LIG d   1       3.057  -7.763 -10.958  0.00  0.00    -0.377 OA
ATOM     24  H   LIG d   1       1.498  -8.637  -9.920  0.00  0.00     0.058 H 
ATOM     25  H   LIG d   1       2.184  -7.170  -9.180  0.00  0.00     0.058 H 
ATOM     26  C   LIG d   1       3.704  -6.520 -11.238  0.00  0.00     0.064 C 
ATOM     27  H   LIG d   1       4.593  -6.701 -11.843  0.00  0.00     0.058 H 
ATOM     28  H   LIG d   1       3.991  -6.039 -10.303  0.00  0.00     0.058 H 
ATOM     29  H   LIG d   1       2.554  -6.023 -12.997  0.00  0.00     0.049 H 
ATOM     30  H   LIG d   1       3.172  -4.613 -12.101  0.00  0.00     0.049 H 
ENDBRANCH  14  15
ENDBRANCH   7  14
BRANCH   1  31
ATOM     31  C   LIG d   1       5.301  -0.550  -5.874  0.00  0.00    -0.008 C 
ATOM     32  H   LIG d   1       6.289  -0.165  -6.080  0.00  0.00     0.066 H 
BRANCH  31  33
ATOM     33  C   LIG d   1       4.899  -0.843  -4.492  0.00  0.00    -0.021 A 
ATOM     34  C   LIG d   1       4.435  -2.118  -4.149  0.00  0.00    -0.054 A 
ATOM     35  C   LIG d   1       4.060  -2.384  -2.850  0.00  0.00    -0.061 A 
ATOM     36  H   LIG d   1       4.370  -2.891  -4.901  0.00  0.00     0.062 H 
ATOM     37  C   LIG d   1       4.143  -1.395  -1.884  0.00  0.00    -0.062 A 
ATOM     38  H   LIG d   1       3.701  -3.368  -2.583  0.00  0.00     0.062 H 
ATOM     39  C   LIG d   1       4.602  -0.132  -2.215  0.00  0.00    -0.061 A 
ATOM     40  H   LIG d   1       3.844  -1.609  -0.869  0.00  0.00     0.062 H 
ATOM     41  C   LIG d   1       4.979   0.152  -3.510  0.00  0.00    -0.054 A 
ATOM     42  H   LIG d   1       4.662   0.634  -1.456  0.00  0.00     0.062 H 
ATOM     43  H   LIG d   1       5.338   1.137  -3.766  0.00  0.00     0.062 H 
ENDBRANCH  31  33
ENDBRANCH   1  31
TORSDOF 4
ENDMDL
MODEL 6
REMARK VINA RESULT:      -6.8      8.891     13.280
REMARK  4 active torsions:
REMARK  status: ('A' for Active; 'I' for Inactive)
REMARK    1  A    between atoms: C_4  and  C_7 
REMARK    2  A    between atoms: C_7  and  C_8 
REMARK    3  A    between atoms: C_14  and  O_18 
REMARK    4  A    between atoms: O_18  and  C_19 
REMARK       I    between atoms: C_19  and  N_21 
ROOT
ATOM      1  C   LIG d   1       4.380  -0.824  -7.022  0.00  0.00     0.176 A 
ATOM      2  C   LIG d   1       3.385   0.116  -7.565  0.00  0.00     0.232 A 
ATOM      3  O   LIG d   1       3.163   1.258  -7.202  0.00  0.00    -0.283 OA
ATOM      4  C   LIG d   1       2.718  -0.634  -8.645  0.00  0.00     0.068 A 
ATOM      5  C   LIG d   1       1.697  -0.314  -9.539  0.00  0.00    -0.044 A 
ATOM      6  C   LIG d   1       1.277  -1.240 -10.454  0.00  0.00    -0.018 A 
ATOM      7  C   LIG d   1       1.868  -2.499 -10.495  0.00  0.00     0.137 A 
ATOM      8  C   LIG d   1       2.885  -2.830  -9.614  0.00  0.00     0.024 A 
ATOM      9  C   LIG d   1       3.322  -1.901  -8.678  0.00  0.00     0.143 A 
ATOM     10  O   LIG d   1       4.282  -1.974  -7.729  0.00  0.00    -0.451 OA
ATOM     11  H   LIG d   1       1.237   0.663  -9.508  0.00  0.00     0.063 H 
ATOM     12  H   LIG d   1       0.486  -0.993 -11.146  0.00  0.00     0.065 H 
ATOM     13  H   LIG d   1       3.337  -3.811  -9.654  0.00  0.00     0.069 H 
ENDROOT
BRANCH   7  14
ATOM     14  O   LIG d   1       1.444  -3.411 -11.407  0.00  0.00    -0.411 OA
BRANCH  14  15
ATOM     15  C   LIG d   1       0.246  -3.994 -11.210  0.00  0.00     0.408 C 
ATOM     16  O   LIG d   1       0.052  -4.662 -10.213  0.00  0.00    -0.226 OA
ATOM     17  N   LIG d   1      -0.738  -3.837 -12.117  0.00  0.00    -0.263 N 
ATOM     18  C   LIG d   1      -2.055  -4.466 -11.923  0.00  0.00     0.041 C 
ATOM     19  C   LIG d   1      -0.525  -3.038 -13.335  0.00  0.00     0.041 C 
ATOM     20  C   LIG d   1      -2.426  -5.224 -13.197  0.00  0.00     0.064 C 
ATOM     21  H   LIG d   1      -2.010  -5.159 -11.084  0.00  0.00     0.049 H 
ATOM     22  H   LIG d   1      -2.802  -3.697 -11.725  0.00  0.00     0.049 H 
ATOM     23  O   LIG d   1      -2.299  -4.350 -14.321  0.00  0.00    -0.377 OA
ATOM     24  H   LIG d   1      -3.455  -5.577 -13.125  0.00  0.00     0.058 H 
ATOM     25  H   LIG d   1      -1.756  -6.075 -13.320  0.00  0.00     0.058 H 
ATOM     26  C   LIG d   1      -0.970  -3.871 -14.542  0.00  0.00     0.064 C 
ATOM     27  H   LIG d   1      -0.951  -3.251 -15.438  0.00  0.00     0.058 H 
ATOM     28  H   LIG d   1      -0.295  -4.717 -14.670  0.00  0.00     0.058 H 
ATOM     29  H   LIG d   1      -1.115  -2.124 -13.281  0.00  0.00     0.049 H 
ATOM     30  H   LIG d   1       0.531  -2.788 -13.430  0.00  0.00     0.049 H 
ENDBRANCH  14  15
ENDBRANCH   7  14
BRANCH   1  31
ATOM     31  C   LIG d   1       5.240  -0.581  -6.003  0.00  0.00    -0.008 C 
ATOM     32  H   LIG d   1       6.212  -0.156  -6.206  0.00  0.00     0.066 H 
BRANCH  31  33
ATOM     33  C   LIG d   1       4.850  -0.895  -4.621  0.00  0.00    -0.021 A 
ATOM     34  C   LIG d   1       4.857   0.105  -3.643  0.00  0.00    -0.054 A 
ATOM     35  C   LIG d   1       4.490  -0.198  -2.350  0.00  0.00    -0.061 A 
ATOM     36  H   LIG d   1       5.150   1.113  -3.901  0.00  0.00     0.062 H 
ATOM     37  C   LIG d   1       4.113  -1.488  -2.017  0.00  0.00    -0.062 A 
ATOM     38  H   LIG d   1       4.495   0.573  -1.593  0.00  0.00     0.062 H 
ATOM     39  C   LIG d   1       4.103  -2.484  -2.979  0.00  0.00    -0.061 A 
ATOM     40  H   LIG d   1       3.830  -1.720  -1.002  0.00  0.00     0.062 H 
ATOM     41  C   LIG d   1       4.469  -2.197  -4.277  0.00  0.00    -0.054 A 
ATOM     42  H   LIG d   1       3.809  -3.487  -2.711  0.00  0.00     0.062 H 
ATOM     43  H   LIG d   1       4.460  -2.975  -5.026  0.00  0.00     0.062 H 
ENDBRANCH  31  33
ENDBRANCH   1  31
TORSDOF 4
ENDMDL
MODEL 7
REMARK VINA RESULT:      -6.6      8.479     13.244
REMARK  4 active torsions:
REMARK  status: ('A' for Active; 'I' for Inactive)
REMARK    1  A    between atoms: C_4  and  C_7 
REMARK    2  A    between atoms: C_7  and  C_8 
REMARK    3  A    between atoms: C_14  and  O_18 
REMARK    4  A    between atoms: O_18  and  C_19 
REMARK       I    between atoms: C_19  and  N_21 
ROOT
ATOM      1  C   LIG d   1       4.198  -0.749  -7.078  0.00  0.00     0.176 A 
ATOM      2  C   LIG d   1       3.298   0.220  -7.724  0.00  0.00     0.232 A 
ATOM      3  O   LIG d   1       3.128   1.390  -7.429  0.00  0.00    -0.283 OA
ATOM      4  C   LIG d   1       2.651  -0.542  -8.807  0.00  0.00     0.068 A 
ATOM      5  C   LIG d   1       1.705  -0.206  -9.776  0.00  0.00    -0.044 A 
ATOM      6  C   LIG d   1       1.283  -1.149 -10.671  0.00  0.00    -0.018 A 
ATOM      7  C   LIG d   1       1.794  -2.442 -10.617  0.00  0.00     0.137 A 
ATOM      8  C   LIG d   1       2.734  -2.789  -9.660  0.00  0.00     0.024 A 
ATOM      9  C   LIG d   1       3.174  -1.843  -8.743  0.00  0.00     0.143 A 
ATOM     10  O   LIG d   1       4.070  -1.926  -7.735  0.00  0.00    -0.451 OA
ATOM     11  H   LIG d   1       1.307   0.797  -9.819  0.00  0.00     0.063 H 
ATOM     12  H   LIG d   1       0.550  -0.890 -11.421  0.00  0.00     0.065 H 
ATOM     13  H   LIG d   1       3.125  -3.796  -9.627  0.00  0.00     0.069 H 
ENDROOT
BRANCH   7  14
ATOM     14  O   LIG d   1       1.368  -3.372 -11.510  0.00  0.00    -0.411 OA
BRANCH  14  15
ATOM     15  C   LIG d   1       1.551  -4.672 -11.208  0.00  0.00     0.408 C 
ATOM     16  O   LIG d   1       2.631  -5.195 -11.403  0.00  0.00    -0.226 OA
ATOM     17  N   LIG d   1       0.538  -5.393 -10.688  0.00  0.00    -0.263 N 
ATOM     18  C   LIG d   1       0.715  -6.814 -10.351  0.00  0.00     0.041 C 
ATOM     19  C   LIG d   1      -0.780  -4.783 -10.448  0.00  0.00     0.041 C 
ATOM     20  C   LIG d   1      -0.426  -7.611 -10.982  0.00  0.00     0.064 C 
ATOM     21  H   LIG d   1       1.669  -7.168 -10.741  0.00  0.00     0.049 H 
ATOM     22  H   LIG d   1       0.692  -6.940  -9.268  0.00  0.00     0.049 H 
ATOM     23  O   LIG d   1      -1.675  -7.021 -10.613  0.00  0.00    -0.377 OA
ATOM     24  H   LIG d   1      -0.392  -8.641 -10.628  0.00  0.00     0.058 H 
ATOM     25  H   LIG d   1      -0.322  -7.595 -12.067  0.00  0.00     0.058 H 
ATOM     26  C   LIG d   1      -1.849  -5.681 -11.080  0.00  0.00     0.064 C 
ATOM     27  H   LIG d   1      -2.839  -5.323 -10.796  0.00  0.00     0.058 H 
ATOM     28  H   LIG d   1      -1.750  -5.657 -12.165  0.00  0.00     0.058 H 
ATOM     29  H   LIG d   1      -0.955  -4.701  -9.376  0.00  0.00     0.049 H 
ATOM     30  H   LIG d   1      -0.816  -3.794 -10.903  0.00  0.00     0.049 H 
ENDBRANCH  14  15
ENDBRANCH   7  14
BRANCH   1  31
ATOM     31  C   LIG d   1       5.011  -0.507  -6.019  0.00  0.00    -0.008 C 
ATOM     32  H   LIG d   1       5.974  -0.044  -6.174  0.00  0.00     0.066 H 
BRANCH  31  33
ATOM     33  C   LIG d   1       4.582  -0.876  -4.663  0.00  0.00    -0.021 A 
ATOM     34  C   LIG d   1       4.594  -2.217  -4.262  0.00  0.00    -0.054 A 
ATOM     35  C   LIG d   1       4.190  -2.554  -2.988  0.00  0.00    -0.061 A 
ATOM     36  H   LIG d   1       4.919  -2.985  -4.948  0.00  0.00     0.062 H 
ATOM     37  C   LIG d   1       3.774  -1.572  -2.106  0.00  0.00    -0.062 A 
ATOM     38  H   LIG d   1       4.199  -3.589  -2.676  0.00  0.00     0.062 H 
ATOM     39  C   LIG d   1       3.760  -0.243  -2.495  0.00  0.00    -0.061 A 
ATOM     40  H   LIG d   1       3.456  -1.842  -1.111  0.00  0.00     0.062 H 
ATOM     41  C   LIG d   1       4.159   0.112  -3.766  0.00  0.00    -0.054 A 
ATOM     42  H   LIG d   1       3.433   0.517  -1.802  0.00  0.00     0.062 H 
ATOM     43  H   LIG d   1       4.148   1.148  -4.068  0.00  0.00     0.062 H 
ENDBRANCH  31  33
ENDBRANCH   1  31
TORSDOF 4
ENDMDL
MODEL 8
REMARK VINA RESULT:      -6.6      7.996     11.050
REMARK  4 active torsions:
REMARK  status: ('A' for Active; 'I' for Inactive)
REMARK    1  A    between atoms: C_4  and  C_7 
REMARK    2  A    between atoms: C_7  and  C_8 
REMARK    3  A    between atoms: C_14  and  O_18 
REMARK    4  A    between atoms: O_18  and  C_19 
REMARK       I    between atoms: C_19  and  N_21 
ROOT
ATOM      1  C   LIG d   1       1.642  -3.065 -10.746  0.00  0.00     0.176 A 
ATOM      2  C   LIG d   1       1.384  -1.644 -11.032  0.00  0.00     0.232 A 
ATOM      3  O   LIG d   1       0.759  -1.173 -11.967  0.00  0.00    -0.283 OA
ATOM      4  C   LIG d   1       2.049  -0.919  -9.934  0.00  0.00     0.068 A 
ATOM      5  C   LIG d   1       2.176   0.435  -9.623  0.00  0.00    -0.044 A 
ATOM      6  C   LIG d   1       2.870   0.816  -8.509  0.00  0.00    -0.018 A 
ATOM      7  C   LIG d   1       3.449  -0.144  -7.685  0.00  0.00     0.137 A 
ATOM      8  C   LIG d   1       3.331  -1.492  -7.981  0.00  0.00     0.024 A 
ATOM      9  C   LIG d   1       2.629  -1.896  -9.110  0.00  0.00     0.143 A 
ATOM     10  O   LIG d   1       2.369  -3.126  -9.606  0.00  0.00    -0.451 OA
ATOM     11  H   LIG d   1       1.726   1.181 -10.262  0.00  0.00     0.063 H 
ATOM     12  H   LIG d   1       2.969   1.864  -8.268  0.00  0.00     0.065 H 
ATOM     13  H   LIG d   1       3.785  -2.229  -7.334  0.00  0.00     0.069 H 
ENDROOT
BRANCH   7  14
ATOM     14  O   LIG d   1       4.138   0.245  -6.580  0.00  0.00    -0.411 OA
BRANCH  14  15
ATOM     15  C   LIG d   1       3.492   0.242  -5.398  0.00  0.00     0.408 C 
ATOM     16  O   LIG d   1       2.625   1.065  -5.177  0.00  0.00    -0.226 OA
ATOM     17  N   LIG d   1       3.807  -0.673  -4.461  0.00  0.00    -0.263 N 
ATOM     18  C   LIG d   1       3.115  -0.695  -3.162  0.00  0.00     0.041 C 
ATOM     19  C   LIG d   1       4.857  -1.675  -4.702  0.00  0.00     0.041 C 
ATOM     20  C   LIG d   1       4.165  -0.729  -2.051  0.00  0.00     0.064 C 
ATOM     21  H   LIG d   1       2.501   0.198  -3.058  0.00  0.00     0.049 H 
ATOM     22  H   LIG d   1       2.487  -1.584  -3.096  0.00  0.00     0.049 H 
ATOM     23  O   LIG d   1       5.083  -1.796  -2.300  0.00  0.00    -0.377 OA
ATOM     24  H   LIG d   1       3.675  -0.887  -1.090  0.00  0.00     0.058 H 
ATOM     25  H   LIG d   1       4.704   0.219  -2.033  0.00  0.00     0.058 H 
ATOM     26  C   LIG d   1       5.825  -1.657  -3.514  0.00  0.00     0.064 C 
ATOM     27  H   LIG d   1       6.530  -2.484  -3.606  0.00  0.00     0.058 H 
ATOM     28  H   LIG d   1       6.370  -0.713  -3.503  0.00  0.00     0.058 H 
ATOM     29  H   LIG d   1       4.407  -2.663  -4.795  0.00  0.00     0.049 H 
ATOM     30  H   LIG d   1       5.395  -1.430  -5.618  0.00  0.00     0.049 H 
ENDBRANCH  14  15
ENDBRANCH   7  14
BRANCH   1  31
ATOM     31  C   LIG d   1       1.224  -4.121 -11.488  0.00  0.00    -0.008 C 
ATOM     32  H   LIG d   1       1.509  -4.197 -12.526  0.00  0.00     0.066 H 
BRANCH  31  33
ATOM     33  C   LIG d   1       0.383  -5.160 -10.877  0.00  0.00    -0.021 A 
ATOM     34  C   LIG d   1       0.827  -6.486 -10.830  0.00  0.00    -0.054 A 
ATOM     35  C   LIG d   1       0.032  -7.455 -10.255  0.00  0.00    -0.061 A 
ATOM     36  H   LIG d   1       1.790  -6.750 -11.242  0.00  0.00     0.062 H 
ATOM     37  C   LIG d   1      -1.202  -7.119  -9.725  0.00  0.00    -0.062 A 
ATOM     38  H   LIG d   1       0.373  -8.479 -10.218  0.00  0.00     0.062 H 
ATOM     39  C   LIG d   1      -1.648  -5.809  -9.767  0.00  0.00    -0.061 A 
ATOM     40  H   LIG d   1      -1.821  -7.882  -9.279  0.00  0.00     0.062 H 
ATOM     41  C   LIG d   1      -0.866  -4.828 -10.340  0.00  0.00    -0.054 A 
ATOM     42  H   LIG d   1      -2.612  -5.555  -9.353  0.00  0.00     0.062 H 
ATOM     43  H   LIG d   1      -1.216  -3.807 -10.371  0.00  0.00     0.062 H 
ENDBRANCH  31  33
ENDBRANCH   1  31
TORSDOF 4
ENDMDL
MODEL 9
REMARK VINA RESULT:      -6.3      3.197      8.707
REMARK  4 active torsions:
REMARK  status: ('A' for Active; 'I' for Inactive)
REMARK    1  A    between atoms: C_4  and  C_7 
REMARK    2  A    between atoms: C_7  and  C_8 
REMARK    3  A    between atoms: C_14  and  O_18 
REMARK    4  A    between atoms: O_18  and  C_19 
REMARK       I    between atoms: C_19  and  N_21 
ROOT
ATOM      1  C   LIG d   1      10.634   4.143  -2.735  0.00  0.00     0.176 A 
ATOM      2  C   LIG d   1      10.900   4.294  -4.175  0.00  0.00     0.232 A 
ATOM      3  O   LIG d   1      11.750   4.986  -4.708  0.00  0.00    -0.283 OA
ATOM      4  C   LIG d   1       9.908   3.420  -4.828  0.00  0.00     0.068 A 
ATOM      5  C   LIG d   1       9.633   3.119  -6.162  0.00  0.00    -0.044 A 
ATOM      6  C   LIG d   1       8.624   2.249  -6.469  0.00  0.00    -0.018 A 
ATOM      7  C   LIG d   1       7.872   1.664  -5.455  0.00  0.00     0.137 A 
ATOM      8  C   LIG d   1       8.134   1.954  -4.126  0.00  0.00     0.024 A 
ATOM      9  C   LIG d   1       9.156   2.836  -3.796  0.00  0.00     0.143 A 
ATOM     10  O   LIG d   1       9.606   3.273  -2.599  0.00  0.00    -0.451 OA
ATOM     11  H   LIG d   1      10.216   3.572  -6.950  0.00  0.00     0.063 H 
ATOM     12  H   LIG d   1       8.411   2.015  -7.502  0.00  0.00     0.065 H 
ATOM     13  H   LIG d   1       7.545   1.495  -3.346  0.00  0.00     0.069 H 
ENDROOT
BRANCH   7  14
ATOM     14  O   LIG d   1       6.872   0.801  -5.771  0.00  0.00    -0.411 OA
BRANCH  14  15
ATOM     15  C   LIG d   1       7.004  -0.486  -5.397  0.00  0.00     0.408 C 
ATOM     16  O   LIG d   1       7.916  -1.157  -5.840  0.00  0.00    -0.226 OA
ATOM     17  N   LIG d   1       6.126  -1.031  -4.532  0.00  0.00    -0.263 N 
ATOM     18  C   LIG d   1       6.250  -2.435  -4.111  0.00  0.00     0.041 C 
ATOM     19  C   LIG d   1       5.010  -0.241  -3.987  0.00  0.00     0.041 C 
ATOM     20  C   LIG d   1       4.897  -3.122  -4.295  0.00  0.00     0.064 C 
ATOM     21  H   LIG d   1       7.001  -2.936  -4.720  0.00  0.00     0.049 H 
ATOM     22  H   LIG d   1       6.540  -2.479  -3.060  0.00  0.00     0.049 H 
ATOM     23  O   LIG d   1       3.883  -2.350  -3.646  0.00  0.00    -0.377 OA
ATOM     24  H   LIG d   1       4.931  -4.119  -3.858  0.00  0.00     0.058 H 
ATOM     25  H   LIG d   1       4.672  -3.197  -5.359  0.00  0.00     0.058 H 
ATOM     26  C   LIG d   1       3.715  -1.036  -4.183  0.00  0.00     0.064 C 
ATOM     27  H   LIG d   1       2.898  -0.534  -3.664  0.00  0.00     0.058 H 
ATOM     28  H   LIG d   1       3.485  -1.103  -5.246  0.00  0.00     0.058 H 
ATOM     29  H   LIG d   1       5.174  -0.059  -2.926  0.00  0.00     0.049 H 
ATOM     30  H   LIG d   1       4.941   0.710  -4.516  0.00  0.00     0.049 H 
ENDBRANCH  14  15
ENDBRANCH   7  14
BRANCH   1  31
ATOM     31  C   LIG d   1      11.300   4.760  -1.728  0.00  0.00    -0.008 C 
ATOM     32  H   LIG d   1      12.153   4.281  -1.272  0.00  0.00     0.066 H 
BRANCH  31  33
ATOM     33  C   LIG d   1      10.861   6.081  -1.257  0.00  0.00    -0.021 A 
ATOM     34  C   LIG d   1       9.681   6.648  -1.753  0.00  0.00    -0.054 A 
ATOM     35  C   LIG d   1       9.275   7.887  -1.306  0.00  0.00    -0.061 A 
ATOM     36  H   LIG d   1       9.091   6.116  -2.485  0.00  0.00     0.062 H 
ATOM     37  C   LIG d   1      10.030   8.570  -0.367  0.00  0.00    -0.062 A 
ATOM     38  H   LIG d   1       8.366   8.327  -1.688  0.00  0.00     0.062 H 
ATOM     39  C   LIG d   1      11.198   8.016   0.129  0.00  0.00    -0.061 A 
ATOM     40  H   LIG d   1       9.709   9.542  -0.023  0.00  0.00     0.062 H 
ATOM     41  C   LIG d   1      11.619   6.778  -0.309  0.00  0.00    -0.054 A 
ATOM     42  H   LIG d   1      11.781   8.556   0.860  0.00  0.00     0.062 H 
ATOM     43  H   LIG d   1      12.529   6.347   0.080  0.00  0.00     0.062 H 
ENDBRANCH  31  33
ENDBRANCH   1  31
TORSDOF 4
ENDMDL
MODEL 10
REMARK VINA RESULT:      -6.3      3.019      3.813
REMARK  4 active torsions:
REMARK  status: ('A' for Active; 'I' for Inactive)
REMARK    1  A    between atoms: C_4  and  C_7 
REMARK    2  A    between atoms: C_7  and  C_8 
REMARK    3  A    between atoms: C_14  and  O_18 
REMARK    4  A    between atoms: O_18  and  C_19 
REMARK       I    between atoms: C_19  and  N_21 
ROOT
ATOM      1  C   LIG d   1       6.791  -0.235  -5.805  0.00  0.00     0.176 A 
ATOM      2  C   LIG d   1       7.044   0.229  -7.178  0.00  0.00     0.232 A 
ATOM      3  O   LIG d   1       6.627  -0.252  -8.217  0.00  0.00    -0.283 OA
ATOM      4  C   LIG d   1       7.916   1.407  -7.015  0.00  0.00     0.068 A 
ATOM      5  C   LIG d   1       8.505   2.290  -7.919  0.00  0.00    -0.044 A 
ATOM      6  C   LIG d   1       9.285   3.315  -7.460  0.00  0.00    -0.018 A 
ATOM      7  C   LIG d   1       9.491   3.479  -6.094  0.00  0.00     0.137 A 
ATOM      8  C   LIG d   1       8.912   2.609  -5.184  0.00  0.00     0.024 A 
ATOM      9  C   LIG d   1       8.117   1.562  -5.634  0.00  0.00     0.143 A 
ATOM     10  O   LIG d   1       7.447   0.598  -4.964  0.00  0.00    -0.451 OA
ATOM     11  H   LIG d   1       8.346   2.165  -8.980  0.00  0.00     0.063 H 
ATOM     12  H   LIG d   1       9.742   4.000  -8.160  0.00  0.00     0.065 H 
ATOM     13  H   LIG d   1       9.078   2.745  -4.126  0.00  0.00     0.069 H 
ENDROOT
BRANCH   7  14
ATOM     14  O   LIG d   1      10.267   4.501  -5.648  0.00  0.00    -0.411 OA
BRANCH  14  15
ATOM     15  C   LIG d   1       9.710   5.723  -5.550  0.00  0.00     0.408 C 
ATOM     16  O   LIG d   1       8.876   5.943  -4.693  0.00  0.00    -0.226 OA
ATOM     17  N   LIG d   1      10.076   6.701  -6.401  0.00  0.00    -0.263 N 
ATOM     18  C   LIG d   1       9.479   8.044  -6.314  0.00  0.00     0.041 C 
ATOM     19  C   LIG d   1      11.079   6.457  -7.451  0.00  0.00     0.041 C 
ATOM     20  C   LIG d   1       8.990   8.451  -7.703  0.00  0.00     0.064 C 
ATOM     21  H   LIG d   1       8.640   8.028  -5.620  0.00  0.00     0.049 H 
ATOM     22  H   LIG d   1      10.229   8.756  -5.968  0.00  0.00     0.049 H 
ATOM     23  O   LIG d   1      10.052   8.289  -8.646  0.00  0.00    -0.377 OA
ATOM     24  H   LIG d   1       8.674   9.494  -7.688  0.00  0.00     0.058 H 
ATOM     25  H   LIG d   1       8.149   7.820  -7.990  0.00  0.00     0.058 H 
ATOM     26  C   LIG d   1      10.506   6.941  -8.788  0.00  0.00     0.064 C 
ATOM     27  H   LIG d   1      11.282   6.896  -9.552  0.00  0.00     0.058 H 
ATOM     28  H   LIG d   1       9.671   6.303  -9.078  0.00  0.00     0.058 H 
ATOM     29  H   LIG d   1      11.991   7.005  -7.221  0.00  0.00     0.049 H 
ATOM     30  H   LIG d   1      11.297   5.390  -7.509  0.00  0.00     0.049 H 
ENDBRANCH  14  15
ENDBRANCH   7  14
BRANCH   1  31
ATOM     31  C   LIG d   1       6.034  -1.302  -5.446  0.00  0.00    -0.008 C 
ATOM     32  H   LIG d   1       6.255  -2.280  -5.847  0.00  0.00     0.066 H 
BRANCH  31  33
ATOM     33  C   LIG d   1       4.912  -1.127  -4.513  0.00  0.00    -0.021 A 
ATOM     34  C   LIG d   1       3.826  -0.317  -4.862  0.00  0.00    -0.054 A 
ATOM     35  C   LIG d   1       2.778  -0.159  -3.982  0.00  0.00    -0.061 A 
ATOM     36  H   LIG d   1       3.809   0.182  -5.820  0.00  0.00     0.062 H 
ATOM     37  C   LIG d   1       2.797  -0.798  -2.754  0.00  0.00    -0.062 A 
ATOM     38  H   LIG d   1       1.938   0.466  -4.250  0.00  0.00     0.062 H 
ATOM     39  C   LIG d   1       3.868  -1.602  -2.400  0.00  0.00    -0.061 A 
ATOM     40  H   LIG d   1       1.975  -0.668  -2.067  0.00  0.00     0.062 H 
ATOM     41  C   LIG d   1       4.925  -1.770  -3.269  0.00  0.00    -0.054 A 
ATOM     42  H   LIG d   1       3.875  -2.096  -1.441  0.00  0.00     0.062 H 
ATOM     43  H   LIG d   1       5.758  -2.397  -2.992  0.00  0.00     0.062 H 
ENDBRANCH  31  33
ENDBRANCH   1  31
TORSDOF 4
ENDMDL
