MODEL 1
REMARK VINA RESULT:      -5.0      0.000      0.000
REMARK  10 active torsions:
REMARK  status: ('A' for Active; 'I' for Inactive)
REMARK    1  A    between atoms: C_1  and  N_2 
REMARK    2  A    between atoms: N_6  and  C_21 
REMARK    3  A    between atoms: N_9  and  C_17 
REMARK    4  A    between atoms: N_13  and  C_16 
REMARK    5  A    between atoms: C_17  and  C_18 
REMARK    6  A    between atoms: C_18  and  C_19 
REMARK    7  A    between atoms: C_19  and  N_20 
REMARK    8  A    between atoms: C_21  and  C_22 
REMARK    9  A    between atoms: C_22  and  C_23 
REMARK   10  A    between atoms: C_23  and  N_24 
ROOT
ATOM      1  N   LIG d   1       9.301   0.671  -4.678  0.00  0.00     0.234 N 
ATOM      2  C   LIG d   1       8.248  -0.340  -4.731  0.00  0.00    -0.031 C 
ATOM      3  C   LIG d   1       7.109  -0.077  -3.753  0.00  0.00     0.000 C 
ATOM      4  C   LIG d   1       6.152  -1.277  -3.769  0.00  0.00     0.004 C 
ATOM      5  N   LIG d   1       4.837  -0.819  -4.328  0.00  0.00    -0.301 N 
ATOM      6  C   LIG d   1       4.682  -1.571  -5.618  0.00  0.00     0.012 C 
ATOM      7  C   LIG d   1       3.932  -0.680  -6.606  0.00  0.00     0.012 C 
ATOM      8  N   LIG d   1       4.621  -0.741  -7.922  0.00  0.00    -0.301 N 
ATOM      9  C   LIG d   1       4.880   0.654  -8.364  0.00  0.00     0.000 C 
ATOM     10  C   LIG d   1       6.237   0.704  -9.066  0.00  0.00    -0.027 C 
ATOM     11  C   LIG d   1       7.025   1.918  -8.575  0.00  0.00    -0.000 C 
ATOM     12  N   LIG d   1       8.361   1.466  -8.103  0.00  0.00    -0.300 N 
ATOM     13  C   LIG d   1       8.482   1.861  -6.674  0.00  0.00     0.039 C 
ATOM     14  C   LIG d   1       9.644   1.096  -6.045  0.00  0.00    -0.019 C 
ATOM     15  H   LIG d   1       7.844  -0.393  -5.748  0.00  0.00     0.082 H 
ATOM     16  H   LIG d   1       8.691  -1.318  -4.501  0.00  0.00     0.082 H 
ATOM     17  H   LIG d   1       7.492   0.035  -2.740  0.00  0.00     0.033 H 
ATOM     18  H   LIG d   1       6.546   0.809  -4.047  0.00  0.00     0.033 H 
ATOM     19  H   LIG d   1       6.545  -2.060  -4.402  0.00  0.00     0.043 H 
ATOM     20  H   LIG d   1       5.982  -1.632  -2.759  0.00  0.00     0.043 H 
ATOM     21  H   LIG d   1       5.670  -1.805  -5.998  0.00  0.00     0.044 H 
ATOM     22  H   LIG d   1       4.114  -2.472  -5.415  0.00  0.00     0.044 H 
ATOM     23  H   LIG d   1       2.913  -1.040  -6.733  0.00  0.00     0.044 H 
ATOM     24  H   LIG d   1       3.927   0.348  -6.255  0.00  0.00     0.044 H 
ATOM     25  H   LIG d   1       4.095   0.952  -9.055  0.00  0.00     0.043 H 
ATOM     26  H   LIG d   1       4.886   1.305  -7.495  0.00  0.00     0.043 H 
ATOM     27  H   LIG d   1       6.795  -0.206  -8.847  0.00  0.00     0.029 H 
ATOM     28  H   LIG d   1       6.085   0.783 -10.144  0.00  0.00     0.029 H 
ATOM     29  H   LIG d   1       7.165   2.624  -9.388  0.00  0.00     0.043 H 
ATOM     30  H   LIG d   1       6.506   2.392  -7.747  0.00  0.00     0.043 H 
ATOM     31  H   LIG d   1       8.672   2.931  -6.631  0.00  0.00     0.048 H 
ATOM     32  H   LIG d   1       7.546   1.620  -6.177  0.00  0.00     0.048 H 
ATOM     33  H   LIG d   1      10.526   1.737  -6.003  0.00  0.00     0.083 H 
ATOM     34  H   LIG d   1       9.870   0.214  -6.645  0.00  0.00     0.083 H 
ATOM     35  H   LIG d   1      10.134   0.247  -4.270  0.00  0.00     0.203 HD
ENDROOT
BRANCH   5  36
ATOM     36  C   LIG d   1       3.811  -1.432  -3.413  0.00  0.00     0.004 C 
ATOM     37  H   LIG d   1       3.267  -2.212  -3.948  0.00  0.00     0.043 H 
ATOM     38  H   LIG d   1       4.310  -1.866  -2.547  0.00  0.00     0.043 H 
BRANCH  36  39
ATOM     39  C   LIG d   1       2.831  -0.353  -2.950  0.00  0.00     0.000 C 
ATOM     40  H   LIG d   1       2.230  -0.021  -3.797  0.00  0.00     0.033 H 
ATOM     41  H   LIG d   1       2.178  -0.761  -2.180  0.00  0.00     0.033 H 
BRANCH  39  42
ATOM     42  C   LIG d   1       3.611   0.834  -2.382  0.00  0.00    -0.034 C 
ATOM     43  H   LIG d   1       3.191   1.115  -1.416  0.00  0.00     0.081 H 
ATOM     44  H   LIG d   1       4.656   0.555  -2.256  0.00  0.00     0.081 H 
BRANCH  42  45
ATOM     45  N   LIG d   1       3.516   1.971  -3.307  0.00  0.00     0.219 N 
ATOM     46  H   LIG d   1       4.438   2.345  -3.475  0.00  0.00     0.199 HD
ATOM     47  H   LIG d   1       3.114   1.662  -4.180  0.00  0.00     0.199 HD
ATOM     48  H   LIG d   1       2.932   2.687  -2.902  0.00  0.00     0.199 HD
ENDBRANCH  42  45
ENDBRANCH  39  42
ENDBRANCH  36  39
ENDBRANCH   5  36
BRANCH   8  49
ATOM     49  C   LIG d   1       3.663  -1.340  -8.891  0.00  0.00     0.004 C 
ATOM     50  H   LIG d   1       4.049  -1.225  -9.905  0.00  0.00     0.043 H 
ATOM     51  H   LIG d   1       3.536  -2.400  -8.670  0.00  0.00     0.043 H 
BRANCH  49  52
ATOM     52  C   LIG d   1       2.311  -0.631  -8.777  0.00  0.00     0.000 C 
ATOM     53  H   LIG d   1       1.708  -1.120  -8.013  0.00  0.00     0.033 H 
ATOM     54  H   LIG d   1       2.471   0.412  -8.502  0.00  0.00     0.033 H 
BRANCH  52  55
ATOM     55  C   LIG d   1       1.584  -0.699 -10.121  0.00  0.00    -0.034 C 
ATOM     56  H   LIG d   1       0.817   0.076 -10.159  0.00  0.00     0.081 H 
ATOM     57  H   LIG d   1       2.298  -0.543 -10.930  0.00  0.00     0.081 H 
BRANCH  55  58
ATOM     58  N   LIG d   1       0.954  -2.018 -10.271  0.00  0.00     0.219 N 
ATOM     59  H   LIG d   1       0.228  -1.966 -10.969  0.00  0.00     0.199 HD
ATOM     60  H   LIG d   1       1.649  -2.692 -10.557  0.00  0.00     0.199 HD
ATOM     61  H   LIG d   1       0.554  -2.301  -9.389  0.00  0.00     0.199 HD
ENDBRANCH  55  58
ENDBRANCH  52  55
ENDBRANCH  49  52
ENDBRANCH   8  49
BRANCH   1  62
ATOM     62  C   LIG d   1       8.934   1.835  -3.871  0.00  0.00    -0.043 C 
ATOM     63  H   LIG d   1       8.467   2.586  -4.509  0.00  0.00     0.078 H 
ATOM     64  H   LIG d   1       8.232   1.532  -3.094  0.00  0.00     0.078 H 
ATOM     65  H   LIG d   1       9.828   2.254  -3.411  0.00  0.00     0.078 H 
ENDBRANCH   1  62
BRANCH  12  66
ATOM     66  C   LIG d   1       9.381   2.236  -8.865  0.00  0.00    -0.013 C 
ATOM     67  H   LIG d   1      10.093   1.547  -9.318  0.00  0.00     0.039 H 
ATOM     68  H   LIG d   1       8.890   2.817  -9.645  0.00  0.00     0.039 H 
ATOM     69  H   LIG d   1       9.907   2.910  -8.188  0.00  0.00     0.039 H 
ENDBRANCH  12  66
TORSDOF 10
ENDMDL
MODEL 2
REMARK VINA RESULT:      -4.8      0.959      5.471
REMARK  10 active torsions:
REMARK  status: ('A' for Active; 'I' for Inactive)
REMARK    1  A    between atoms: C_1  and  N_2 
REMARK    2  A    between atoms: N_6  and  C_21 
REMARK    3  A    between atoms: N_9  and  C_17 
REMARK    4  A    between atoms: N_13  and  C_16 
REMARK    5  A    between atoms: C_17  and  C_18 
REMARK    6  A    between atoms: C_18  and  C_19 
REMARK    7  A    between atoms: C_19  and  N_20 
REMARK    8  A    between atoms: C_21  and  C_22 
REMARK    9  A    between atoms: C_22  and  C_23 
REMARK   10  A    between atoms: C_23  and  N_24 
ROOT
ATOM      1  N   LIG d   1       7.845   2.160  -9.065  0.00  0.00     0.234 N 
ATOM      2  C   LIG d   1       6.476   1.806  -8.701  0.00  0.00    -0.031 C 
ATOM      3  C   LIG d   1       5.965   0.559  -9.413  0.00  0.00     0.000 C 
ATOM      4  C   LIG d   1       4.475   0.378  -9.092  0.00  0.00     0.004 C 
ATOM      5  N   LIG d   1       4.320  -0.878  -8.286  0.00  0.00    -0.301 N 
ATOM      6  C   LIG d   1       3.835  -0.417  -6.942  0.00  0.00     0.012 C 
ATOM      7  C   LIG d   1       4.403  -1.355  -5.879  0.00  0.00     0.012 C 
ATOM      8  N   LIG d   1       4.925  -0.539  -4.752  0.00  0.00    -0.301 N 
ATOM      9  C   LIG d   1       6.321  -0.974  -4.485  0.00  0.00     0.000 C 
ATOM     10  C   LIG d   1       7.156   0.252  -4.113  0.00  0.00    -0.027 C 
ATOM     11  C   LIG d   1       8.490   0.210  -4.859  0.00  0.00    -0.000 C 
ATOM     12  N   LIG d   1       8.676   1.493  -5.586  0.00  0.00    -0.300 N 
ATOM     13  C   LIG d   1       8.816   1.168  -7.030  0.00  0.00     0.039 C 
ATOM     14  C   LIG d   1       8.622   2.442  -7.847  0.00  0.00    -0.019 C 
ATOM     15  H   LIG d   1       6.415   1.653  -7.618  0.00  0.00     0.082 H 
ATOM     16  H   LIG d   1       5.818   2.649  -8.952  0.00  0.00     0.082 H 
ATOM     17  H   LIG d   1       6.067   0.665 -10.492  0.00  0.00     0.033 H 
ATOM     18  H   LIG d   1       6.496  -0.327  -9.066  0.00  0.00     0.033 H 
ATOM     19  H   LIG d   1       4.114   1.212  -8.508  0.00  0.00     0.043 H 
ATOM     20  H   LIG d   1       3.908   0.261 -10.009  0.00  0.00     0.043 H 
ATOM     21  H   LIG d   1       4.189   0.593  -6.779  0.00  0.00     0.044 H 
ATOM     22  H   LIG d   1       2.751  -0.460  -6.944  0.00  0.00     0.044 H 
ATOM     23  H   LIG d   1       3.618  -2.006  -5.499  0.00  0.00     0.044 H 
ATOM     24  H   LIG d   1       5.213  -1.947  -6.295  0.00  0.00     0.044 H 
ATOM     25  H   LIG d   1       6.313  -1.680  -3.658  0.00  0.00     0.043 H 
ATOM     26  H   LIG d   1       6.723  -1.441  -5.378  0.00  0.00     0.043 H 
ATOM     27  H   LIG d   1       6.615   1.158  -4.385  0.00  0.00     0.029 H 
ATOM     28  H   LIG d   1       7.342   0.251  -3.038  0.00  0.00     0.029 H 
ATOM     29  H   LIG d   1       9.307   0.089  -4.153  0.00  0.00     0.043 H 
ATOM     30  H   LIG d   1       8.491  -0.602  -5.580  0.00  0.00     0.043 H 
ATOM     31  H   LIG d   1       9.814   0.767  -7.194  0.00  0.00     0.048 H 
ATOM     32  H   LIG d   1       8.062   0.427  -7.283  0.00  0.00     0.048 H 
ATOM     33  H   LIG d   1       9.594   2.846  -8.134  0.00  0.00     0.083 H 
ATOM     34  H   LIG d   1       8.089   3.183  -7.250  0.00  0.00     0.083 H 
ATOM     35  H   LIG d   1       7.820   3.017  -9.618  0.00  0.00     0.203 HD
ENDROOT
BRANCH   5  36
ATOM     36  C   LIG d   1       3.129  -1.566  -8.896  0.00  0.00     0.004 C 
ATOM     37  H   LIG d   1       3.434  -2.081  -9.807  0.00  0.00     0.043 H 
ATOM     38  H   LIG d   1       2.725  -2.289  -8.188  0.00  0.00     0.043 H 
BRANCH  36  39
ATOM     39  C   LIG d   1       2.057  -0.527  -9.233  0.00  0.00     0.000 C 
ATOM     40  H   LIG d   1       1.361  -0.441  -8.399  0.00  0.00     0.033 H 
ATOM     41  H   LIG d   1       2.530   0.438  -9.413  0.00  0.00     0.033 H 
BRANCH  39  42
ATOM     42  C   LIG d   1       1.299  -0.965 -10.487  0.00  0.00    -0.034 C 
ATOM     43  H   LIG d   1       0.412  -0.343 -10.612  0.00  0.00     0.081 H 
ATOM     44  H   LIG d   1       1.944  -0.856 -11.359  0.00  0.00     0.081 H 
BRANCH  42  45
ATOM     45  N   LIG d   1       0.896  -2.371 -10.351  0.00  0.00     0.219 N 
ATOM     46  H   LIG d   1      -0.097  -2.453 -10.511  0.00  0.00     0.199 HD
ATOM     47  H   LIG d   1       1.393  -2.931 -11.028  0.00  0.00     0.199 HD
ATOM     48  H   LIG d   1       1.114  -2.695  -9.421  0.00  0.00     0.199 HD
ENDBRANCH  42  45
ENDBRANCH  39  42
ENDBRANCH  36  39
ENDBRANCH   5  36
BRANCH   8  49
ATOM     49  C   LIG d   1       4.118  -0.883  -3.549  0.00  0.00     0.004 C 
ATOM     50  H   LIG d   1       3.615  -1.837  -3.709  0.00  0.00     0.043 H 
ATOM     51  H   LIG d   1       4.772  -0.960  -2.681  0.00  0.00     0.043 H 
BRANCH  49  52
ATOM     52  C   LIG d   1       3.074   0.209  -3.306  0.00  0.00     0.000 C 
ATOM     53  H   LIG d   1       2.659   0.534  -4.259  0.00  0.00     0.033 H 
ATOM     54  H   LIG d   1       2.276  -0.185  -2.678  0.00  0.00     0.033 H 
BRANCH  52  55
ATOM     55  C   LIG d   1       3.734   1.399  -2.606  0.00  0.00    -0.034 C 
ATOM     56  H   LIG d   1       4.320   1.967  -3.329  0.00  0.00     0.081 H 
ATOM     57  H   LIG d   1       2.965   2.041  -2.176  0.00  0.00     0.081 H 
BRANCH  55  58
ATOM     58  N   LIG d   1       4.617   0.910  -1.538  0.00  0.00     0.219 N 
ATOM     59  H   LIG d   1       4.465  -0.077  -1.401  0.00  0.00     0.199 HD
ATOM     60  H   LIG d   1       5.579   1.070  -1.798  0.00  0.00     0.199 HD
ATOM     61  H   LIG d   1       4.414   1.404  -0.682  0.00  0.00     0.199 HD
ENDBRANCH  55  58
ENDBRANCH  52  55
ENDBRANCH  49  52
ENDBRANCH   8  49
BRANCH   1  62
ATOM     62  C   LIG d   1       8.513   1.123  -9.852  0.00  0.00    -0.043 C 
ATOM     63  H   LIG d   1       8.796   0.297  -9.199  0.00  0.00     0.078 H 
ATOM     64  H   LIG d   1       7.834   0.759 -10.623  0.00  0.00     0.078 H 
ATOM     65  H   LIG d   1       9.405   1.540 -10.320  0.00  0.00     0.078 H 
ENDBRANCH   1  62
BRANCH  12  66
ATOM     66  C   LIG d   1       9.970   2.072  -5.133  0.00  0.00    -0.013 C 
ATOM     67  H   LIG d   1      10.000   3.132  -5.381  0.00  0.00     0.039 H 
ATOM     68  H   LIG d   1      10.067   1.948  -4.055  0.00  0.00     0.039 H 
ATOM     69  H   LIG d   1      10.791   1.558  -5.633  0.00  0.00     0.039 H 
ENDBRANCH  12  66
TORSDOF 10
ENDMDL
MODEL 3
REMARK VINA RESULT:      -4.6      3.576      5.843
REMARK  10 active torsions:
REMARK  status: ('A' for Active; 'I' for Inactive)
REMARK    1  A    between atoms: C_1  and  N_2 
REMARK    2  A    between atoms: N_6  and  C_21 
REMARK    3  A    between atoms: N_9  and  C_17 
REMARK    4  A    between atoms: N_13  and  C_16 
REMARK    5  A    between atoms: C_17  and  C_18 
REMARK    6  A    between atoms: C_18  and  C_19 
REMARK    7  A    between atoms: C_19  and  N_20 
REMARK    8  A    between atoms: C_21  and  C_22 
REMARK    9  A    between atoms: C_22  and  C_23 
REMARK   10  A    between atoms: C_23  and  N_24 
ROOT
ATOM      1  N   LIG d   1      12.298  -0.173  -5.428  0.00  0.00     0.234 N 
ATOM      2  C   LIG d   1      11.335  -1.264  -5.560  0.00  0.00    -0.031 C 
ATOM      3  C   LIG d   1      11.465  -2.319  -4.467  0.00  0.00     0.000 C 
ATOM      4  C   LIG d   1      10.532  -3.492  -4.794  0.00  0.00     0.004 C 
ATOM      5  N   LIG d   1       9.464  -3.548  -3.741  0.00  0.00    -0.301 N 
ATOM      6  C   LIG d   1       8.187  -3.243  -4.469  0.00  0.00     0.012 C 
ATOM      7  C   LIG d   1       7.262  -2.486  -3.518  0.00  0.00     0.012 C 
ATOM      8  N   LIG d   1       6.670  -1.332  -4.245  0.00  0.00    -0.301 N 
ATOM      9  C   LIG d   1       6.902  -0.114  -3.426  0.00  0.00     0.000 C 
ATOM     10  C   LIG d   1       7.200   1.058  -4.362  0.00  0.00    -0.027 C 
ATOM     11  C   LIG d   1       8.392   1.851  -3.828  0.00  0.00    -0.000 C 
ATOM     12  N   LIG d   1       9.409   1.977  -4.905  0.00  0.00    -0.300 N 
ATOM     13  C   LIG d   1      10.666   1.360  -4.402  0.00  0.00     0.039 C 
ATOM     14  C   LIG d   1      11.605   1.116  -5.580  0.00  0.00    -0.019 C 
ATOM     15  H   LIG d   1      10.319  -0.856  -5.548  0.00  0.00     0.082 H 
ATOM     16  H   LIG d   1      11.486  -1.747  -6.534  0.00  0.00     0.082 H 
ATOM     17  H   LIG d   1      12.484  -2.700  -4.421  0.00  0.00     0.033 H 
ATOM     18  H   LIG d   1      11.169  -1.910  -3.501  0.00  0.00     0.033 H 
ATOM     19  H   LIG d   1      10.064  -3.341  -5.756  0.00  0.00     0.043 H 
ATOM     20  H   LIG d   1      11.083  -4.425  -4.764  0.00  0.00     0.043 H 
ATOM     21  H   LIG d   1       8.423  -2.629  -5.330  0.00  0.00     0.044 H 
ATOM     22  H   LIG d   1       7.737  -4.184  -4.767  0.00  0.00     0.044 H 
ATOM     23  H   LIG d   1       6.454  -3.137  -3.189  0.00  0.00     0.044 H 
ATOM     24  H   LIG d   1       7.821  -2.119  -2.663  0.00  0.00     0.044 H 
ATOM     25  H   LIG d   1       6.004   0.093  -2.849  0.00  0.00     0.043 H 
ATOM     26  H   LIG d   1       7.746  -0.287  -2.766  0.00  0.00     0.043 H 
ATOM     27  H   LIG d   1       7.431   0.680  -5.358  0.00  0.00     0.029 H 
ATOM     28  H   LIG d   1       6.327   1.710  -4.417  0.00  0.00     0.029 H 
ATOM     29  H   LIG d   1       8.074   2.847  -3.533  0.00  0.00     0.043 H 
ATOM     30  H   LIG d   1       8.840   1.333  -2.985  0.00  0.00     0.043 H 
ATOM     31  H   LIG d   1      11.124   2.048  -3.695  0.00  0.00     0.048 H 
ATOM     32  H   LIG d   1      10.409   0.425  -3.911  0.00  0.00     0.048 H 
ATOM     33  H   LIG d   1      12.349   1.913  -5.628  0.00  0.00     0.083 H 
ATOM     34  H   LIG d   1      11.033   1.104  -6.509  0.00  0.00     0.083 H 
ATOM     35  H   LIG d   1      12.976  -0.249  -6.187  0.00  0.00     0.203 HD
ENDROOT
BRANCH   5  36
ATOM     36  C   LIG d   1       9.357  -5.010  -3.399  0.00  0.00     0.004 C 
ATOM     37  H   LIG d   1       8.331  -5.345  -3.551  0.00  0.00     0.043 H 
ATOM     38  H   LIG d   1      10.025  -5.584  -4.041  0.00  0.00     0.043 H 
BRANCH  36  39
ATOM     39  C   LIG d   1       9.750  -5.221  -1.935  0.00  0.00     0.000 C 
ATOM     40  H   LIG d   1      10.471  -4.458  -1.640  0.00  0.00     0.033 H 
ATOM     41  H   LIG d   1       8.864  -5.146  -1.306  0.00  0.00     0.033 H 
BRANCH  39  42
ATOM     42  C   LIG d   1      10.378  -6.606  -1.770  0.00  0.00    -0.034 C 
ATOM     43  H   LIG d   1       9.734  -7.354  -2.234  0.00  0.00     0.081 H 
ATOM     44  H   LIG d   1      11.356  -6.622  -2.250  0.00  0.00     0.081 H 
BRANCH  42  45
ATOM     45  N   LIG d   1      10.530  -6.909  -0.341  0.00  0.00     0.219 N 
ATOM     46  H   LIG d   1       9.619  -6.976   0.087  0.00  0.00     0.199 HD
ATOM     47  H   LIG d   1      11.018  -7.786  -0.233  0.00  0.00     0.199 HD
ATOM     48  H   LIG d   1      11.058  -6.174   0.104  0.00  0.00     0.199 HD
ENDBRANCH  42  45
ENDBRANCH  39  42
ENDBRANCH  36  39
ENDBRANCH   5  36
BRANCH   8  49
ATOM     49  C   LIG d   1       5.199  -1.555  -4.298  0.00  0.00     0.004 C 
ATOM     50  H   LIG d   1       4.704  -0.644  -4.635  0.00  0.00     0.043 H 
ATOM     51  H   LIG d   1       4.979  -2.366  -4.993  0.00  0.00     0.043 H 
BRANCH  49  52
ATOM     52  C   LIG d   1       4.689  -1.926  -2.904  0.00  0.00     0.000 C 
ATOM     53  H   LIG d   1       4.651  -3.010  -2.807  0.00  0.00     0.033 H 
ATOM     54  H   LIG d   1       5.362  -1.516  -2.151  0.00  0.00     0.033 H 
BRANCH  52  55
ATOM     55  C   LIG d   1       3.286  -1.347  -2.703  0.00  0.00    -0.034 C 
ATOM     56  H   LIG d   1       2.644  -2.101  -2.245  0.00  0.00     0.081 H 
ATOM     57  H   LIG d   1       3.342  -0.474  -2.053  0.00  0.00     0.081 H 
BRANCH  55  58
ATOM     58  N   LIG d   1       2.728  -0.954  -4.004  0.00  0.00     0.219 N 
ATOM     59  H   LIG d   1       3.163  -1.496  -4.734  0.00  0.00     0.199 HD
ATOM     60  H   LIG d   1       1.733  -1.122  -4.008  0.00  0.00     0.199 HD
ATOM     61  H   LIG d   1       2.903   0.027  -4.162  0.00  0.00     0.199 HD
ENDBRANCH  55  58
ENDBRANCH  52  55
ENDBRANCH  49  52
ENDBRANCH   8  49
BRANCH   1  62
ATOM     62  C   LIG d   1      13.023  -0.202  -4.157  0.00  0.00    -0.043 C 
ATOM     63  H   LIG d   1      14.078  -0.401  -4.346  0.00  0.00     0.078 H 
ATOM     64  H   LIG d   1      12.918   0.760  -3.657  0.00  0.00     0.078 H 
ATOM     65  H   LIG d   1      12.613  -0.988  -3.523  0.00  0.00     0.078 H 
ENDBRANCH   1  62
BRANCH  12  66
ATOM     66  C   LIG d   1       9.672   3.429  -5.095  0.00  0.00    -0.013 C 
ATOM     67  H   LIG d   1       9.802   3.905  -4.124  0.00  0.00     0.039 H 
ATOM     68  H   LIG d   1      10.577   3.560  -5.688  0.00  0.00     0.039 H 
ATOM     69  H   LIG d   1       8.829   3.885  -5.615  0.00  0.00     0.039 H 
ENDBRANCH  12  66
TORSDOF 10
ENDMDL
MODEL 4
REMARK VINA RESULT:      -4.5      8.849     12.471
REMARK  10 active torsions:
REMARK  status: ('A' for Active; 'I' for Inactive)
REMARK    1  A    between atoms: C_1  and  N_2 
REMARK    2  A    between atoms: N_6  and  C_21 
REMARK    3  A    between atoms: N_9  and  C_17 
REMARK    4  A    between atoms: N_13  and  C_16 
REMARK    5  A    between atoms: C_17  and  C_18 
REMARK    6  A    between atoms: C_18  and  C_19 
REMARK    7  A    between atoms: C_19  and  N_20 
REMARK    8  A    between atoms: C_21  and  C_22 
REMARK    9  A    between atoms: C_22  and  C_23 
REMARK   10  A    between atoms: C_23  and  N_24 
ROOT
ATOM      1  N   LIG d   1       9.879  13.586  -3.688  0.00  0.00     0.234 N 
ATOM      2  C   LIG d   1       9.476  12.272  -4.184  0.00  0.00    -0.031 C 
ATOM      3  C   LIG d   1      10.412  11.718  -5.251  0.00  0.00     0.000 C 
ATOM      4  C   LIG d   1       9.807  10.427  -5.820  0.00  0.00     0.004 C 
ATOM      5  N   LIG d   1      10.705   9.285  -5.443  0.00  0.00    -0.301 N 
ATOM      6  C   LIG d   1       9.880   8.434  -4.521  0.00  0.00     0.012 C 
ATOM      7  C   LIG d   1      10.813   7.803  -3.489  0.00  0.00     0.012 C 
ATOM      8  N   LIG d   1      10.196   7.935  -2.143  0.00  0.00    -0.301 N 
ATOM      9  C   LIG d   1      11.204   8.548  -1.240  0.00  0.00     0.000 C 
ATOM     10  C   LIG d   1      10.491   9.503  -0.282  0.00  0.00    -0.027 C 
ATOM     11  C   LIG d   1      11.275  10.812  -0.184  0.00  0.00    -0.000 C 
ATOM     12  N   LIG d   1      10.357  11.945  -0.475  0.00  0.00    -0.300 N 
ATOM     13  C   LIG d   1      10.913  12.676  -1.645  0.00  0.00     0.039 C 
ATOM     14  C   LIG d   1       9.833  13.592  -2.217  0.00  0.00    -0.019 C 
ATOM     15  H   LIG d   1       9.424  11.567  -3.347  0.00  0.00     0.082 H 
ATOM     16  H   LIG d   1       8.467  12.355  -4.609  0.00  0.00     0.082 H 
ATOM     17  H   LIG d   1      10.524  12.427  -6.070  0.00  0.00     0.033 H 
ATOM     18  H   LIG d   1      11.384  11.476  -4.823  0.00  0.00     0.033 H 
ATOM     19  H   LIG d   1       8.828  10.254  -5.397  0.00  0.00     0.043 H 
ATOM     20  H   LIG d   1       9.768  10.480  -6.902  0.00  0.00     0.043 H 
ATOM     21  H   LIG d   1       9.152   9.069  -4.030  0.00  0.00     0.044 H 
ATOM     22  H   LIG d   1       9.397   7.666  -5.115  0.00  0.00     0.044 H 
ATOM     23  H   LIG d   1      10.945   6.744  -3.705  0.00  0.00     0.044 H 
ATOM     24  H   LIG d   1      11.773   8.309  -3.491  0.00  0.00     0.044 H 
ATOM     25  H   LIG d   1      11.693   7.757  -0.677  0.00  0.00     0.043 H 
ATOM     26  H   LIG d   1      11.929   9.093  -1.837  0.00  0.00     0.043 H 
ATOM     27  H   LIG d   1       9.486   9.707  -0.651  0.00  0.00     0.029 H 
ATOM     28  H   LIG d   1      10.427   9.045   0.706  0.00  0.00     0.029 H 
ATOM     29  H   LIG d   1      11.670  10.934   0.820  0.00  0.00     0.043 H 
ATOM     30  H   LIG d   1      12.081  10.822  -0.912  0.00  0.00     0.043 H 
ATOM     31  H   LIG d   1      11.762  13.266  -1.307  0.00  0.00     0.048 H 
ATOM     32  H   LIG d   1      11.228  11.942  -2.382  0.00  0.00     0.048 H 
ATOM     33  H   LIG d   1       9.992  14.612  -1.863  0.00  0.00     0.083 H 
ATOM     34  H   LIG d   1       8.851  13.248  -1.890  0.00  0.00     0.083 H 
ATOM     35  H   LIG d   1       9.205  14.276  -4.018  0.00  0.00     0.203 HD
ENDROOT
BRANCH   5  36
ATOM     36  C   LIG d   1      10.816   8.468  -6.703  0.00  0.00     0.004 C 
ATOM     37  H   LIG d   1      11.047   9.124  -7.542  0.00  0.00     0.043 H 
ATOM     38  H   LIG d   1      11.610   7.731  -6.589  0.00  0.00     0.043 H 
BRANCH  36  39
ATOM     39  C   LIG d   1       9.489   7.754  -6.965  0.00  0.00     0.000 C 
ATOM     40  H   LIG d   1       9.571   6.711  -6.659  0.00  0.00     0.033 H 
ATOM     41  H   LIG d   1       8.696   8.238  -6.396  0.00  0.00     0.033 H 
BRANCH  39  42
ATOM     42  C   LIG d   1       9.159   7.822  -8.458  0.00  0.00    -0.034 C 
ATOM     43  H   LIG d   1      10.085   7.837  -9.034  0.00  0.00     0.081 H 
ATOM     44  H   LIG d   1       8.571   6.949  -8.741  0.00  0.00     0.081 H 
BRANCH  42  45
ATOM     45  N   LIG d   1       8.389   9.041  -8.735  0.00  0.00     0.219 N 
ATOM     46  H   LIG d   1       9.021   9.820  -8.844  0.00  0.00     0.199 HD
ATOM     47  H   LIG d   1       7.858   8.918  -9.585  0.00  0.00     0.199 HD
ATOM     48  H   LIG d   1       7.759   9.223  -7.969  0.00  0.00     0.199 HD
ENDBRANCH  42  45
ENDBRANCH  39  42
ENDBRANCH  36  39
ENDBRANCH   5  36
BRANCH   8  49
ATOM     49  C   LIG d   1       9.934   6.558  -1.642  0.00  0.00     0.004 C 
ATOM     50  H   LIG d   1      10.533   6.374  -0.750  0.00  0.00     0.043 H 
ATOM     51  H   LIG d   1       8.877   6.454  -1.397  0.00  0.00     0.043 H 
BRANCH  49  52
ATOM     52  C   LIG d   1      10.308   5.543  -2.725  0.00  0.00     0.000 C 
ATOM     53  H   LIG d   1       9.408   5.219  -3.246  0.00  0.00     0.033 H 
ATOM     54  H   LIG d   1      10.993   6.006  -3.435  0.00  0.00     0.033 H 
BRANCH  52  55
ATOM     55  C   LIG d   1      10.984   4.332  -2.078  0.00  0.00    -0.034 C 
ATOM     56  H   LIG d   1      10.301   3.483  -2.092  0.00  0.00     0.081 H 
ATOM     57  H   LIG d   1      11.888   4.081  -2.633  0.00  0.00     0.081 H 
BRANCH  55  58
ATOM     58  N   LIG d   1      11.337   4.653  -0.688  0.00  0.00     0.219 N 
ATOM     59  H   LIG d   1      11.944   3.937  -0.321  0.00  0.00     0.199 HD
ATOM     60  H   LIG d   1      11.811   5.544  -0.658  0.00  0.00     0.199 HD
ATOM     61  H   LIG d   1      10.497   4.702  -0.131  0.00  0.00     0.199 HD
ENDBRANCH  55  58
ENDBRANCH  52  55
ENDBRANCH  49  52
ENDBRANCH   8  49
BRANCH   1  62
ATOM     62  C   LIG d   1      11.210  13.985  -4.146  0.00  0.00    -0.043 C 
ATOM     63  H   LIG d   1      11.950  13.278  -3.771  0.00  0.00     0.078 H 
ATOM     64  H   LIG d   1      11.232  13.991  -5.236  0.00  0.00     0.078 H 
ATOM     65  H   LIG d   1      11.438  14.983  -3.772  0.00  0.00     0.078 H 
ENDBRANCH   1  62
BRANCH  12  66
ATOM     66  C   LIG d   1      10.413  12.867   0.692  0.00  0.00    -0.013 C 
ATOM     67  H   LIG d   1      11.271  12.615   1.314  0.00  0.00     0.039 H 
ATOM     68  H   LIG d   1      10.508  13.894   0.340  0.00  0.00     0.039 H 
ATOM     69  H   LIG d   1       9.498  12.768   1.277  0.00  0.00     0.039 H 
ENDBRANCH  12  66
TORSDOF 10
ENDMDL
MODEL 5
REMARK VINA RESULT:      -4.5      8.197     11.901
REMARK  10 active torsions:
REMARK  status: ('A' for Active; 'I' for Inactive)
REMARK    1  A    between atoms: C_1  and  N_2 
REMARK    2  A    between atoms: N_6  and  C_21 
REMARK    3  A    between atoms: N_9  and  C_17 
REMARK    4  A    between atoms: N_13  and  C_16 
REMARK    5  A    between atoms: C_17  and  C_18 
REMARK    6  A    between atoms: C_18  and  C_19 
REMARK    7  A    between atoms: C_19  and  N_20 
REMARK    8  A    between atoms: C_21  and  C_22 
REMARK    9  A    between atoms: C_22  and  C_23 
REMARK   10  A    between atoms: C_23  and  N_24 
ROOT
ATOM      1  N   LIG d   1       9.674  11.634  -0.902  0.00  0.00     0.234 N 
ATOM      2  C   LIG d   1       9.237  10.894  -2.084  0.00  0.00    -0.031 C 
ATOM      3  C   LIG d   1       9.846  11.415  -3.380  0.00  0.00     0.000 C 
ATOM      4  C   LIG d   1       9.196  10.687  -4.563  0.00  0.00     0.004 C 
ATOM      5  N   LIG d   1      10.246   9.850  -5.232  0.00  0.00    -0.301 N 
ATOM      6  C   LIG d   1       9.803   8.431  -5.020  0.00  0.00     0.012 C 
ATOM      7  C   LIG d   1      11.047   7.556  -4.882  0.00  0.00     0.012 C 
ATOM      8  N   LIG d   1      10.856   6.633  -3.732  0.00  0.00    -0.301 N 
ATOM      9  C   LIG d   1      12.041   6.761  -2.846  0.00  0.00     0.000 C 
ATOM     10  C   LIG d   1      11.582   6.658  -1.391  0.00  0.00    -0.027 C 
ATOM     11  C   LIG d   1      12.260   7.747  -0.560  0.00  0.00    -0.000 C 
ATOM     12  N   LIG d   1      11.217   8.517   0.168  0.00  0.00    -0.300 N 
ATOM     13  C   LIG d   1      11.339   9.938  -0.255  0.00  0.00     0.039 C 
ATOM     14  C   LIG d   1      10.073  10.687   0.152  0.00  0.00    -0.019 C 
ATOM     15  H   LIG d   1       9.492   9.836  -1.965  0.00  0.00     0.082 H 
ATOM     16  H   LIG d   1       8.144  10.965  -2.155  0.00  0.00     0.082 H 
ATOM     17  H   LIG d   1       9.654  12.481  -3.493  0.00  0.00     0.033 H 
ATOM     18  H   LIG d   1      10.918  11.218  -3.408  0.00  0.00     0.033 H 
ATOM     19  H   LIG d   1       8.405  10.038  -4.214  0.00  0.00     0.043 H 
ATOM     20  H   LIG d   1       8.828  11.406  -5.287  0.00  0.00     0.043 H 
ATOM     21  H   LIG d   1       9.212   8.390  -4.113  0.00  0.00     0.044 H 
ATOM     22  H   LIG d   1       9.221   8.129  -5.885  0.00  0.00     0.044 H 
ATOM     23  H   LIG d   1      11.185   6.960  -5.782  0.00  0.00     0.044 H 
ATOM     24  H   LIG d   1      11.922   8.172  -4.701  0.00  0.00     0.044 H 
ATOM     25  H   LIG d   1      12.734   5.954  -3.072  0.00  0.00     0.043 H 
ATOM     26  H   LIG d   1      12.511   7.724  -3.020  0.00  0.00     0.043 H 
ATOM     27  H   LIG d   1      10.500   6.781  -1.340  0.00  0.00     0.029 H 
ATOM     28  H   LIG d   1      11.852   5.678  -0.993  0.00  0.00     0.029 H 
ATOM     29  H   LIG d   1      12.930   7.296   0.168  0.00  0.00     0.043 H 
ATOM     30  H   LIG d   1      12.806   8.427  -1.206  0.00  0.00     0.043 H 
ATOM     31  H   LIG d   1      12.205  10.368   0.242  0.00  0.00     0.048 H 
ATOM     32  H   LIG d   1      11.471   9.957  -1.334  0.00  0.00     0.048 H 
ATOM     33  H   LIG d   1      10.255  11.242   1.074  0.00  0.00     0.083 H 
ATOM     34  H   LIG d   1       9.262   9.976   0.316  0.00  0.00     0.083 H 
ATOM     35  H   LIG d   1       8.882  12.171  -0.548  0.00  0.00     0.203 HD
ENDROOT
BRANCH   5  36
ATOM     36  C   LIG d   1      10.032  10.091  -6.703  0.00  0.00     0.004 C 
ATOM     37  H   LIG d   1       9.969   9.135  -7.222  0.00  0.00     0.043 H 
ATOM     38  H   LIG d   1       9.106  10.646  -6.849  0.00  0.00     0.043 H 
BRANCH  36  39
ATOM     39  C   LIG d   1      11.205  10.899  -7.262  0.00  0.00     0.000 C 
ATOM     40  H   LIG d   1      11.977  10.994  -6.499  0.00  0.00     0.033 H 
ATOM     41  H   LIG d   1      11.616  10.389  -8.133  0.00  0.00     0.033 H 
BRANCH  39  42
ATOM     42  C   LIG d   1      10.717  12.291  -7.670  0.00  0.00    -0.034 C 
ATOM     43  H   LIG d   1      11.025  13.019  -6.919  0.00  0.00     0.081 H 
ATOM     44  H   LIG d   1      11.148  12.559  -8.633  0.00  0.00     0.081 H 
BRANCH  42  45
ATOM     45  N   LIG d   1       9.252  12.285  -7.774  0.00  0.00     0.219 N 
ATOM     46  H   LIG d   1       8.953  11.455  -8.263  0.00  0.00     0.199 HD
ATOM     47  H   LIG d   1       8.848  12.294  -6.849  0.00  0.00     0.199 HD
ATOM     48  H   LIG d   1       8.947  13.102  -8.281  0.00  0.00     0.199 HD
ENDBRANCH  42  45
ENDBRANCH  39  42
ENDBRANCH  36  39
ENDBRANCH   5  36
BRANCH   8  49
ATOM     49  C   LIG d   1      10.859   5.247  -4.276  0.00  0.00     0.004 C 
ATOM     50  H   LIG d   1      10.794   5.282  -5.364  0.00  0.00     0.043 H 
ATOM     51  H   LIG d   1      11.781   4.744  -3.984  0.00  0.00     0.043 H 
BRANCH  49  52
ATOM     52  C   LIG d   1       9.659   4.478  -3.718  0.00  0.00     0.000 C 
ATOM     53  H   LIG d   1       9.243   5.018  -2.869  0.00  0.00     0.033 H 
ATOM     54  H   LIG d   1       8.900   4.379  -4.494  0.00  0.00     0.033 H 
BRANCH  52  55
ATOM     55  C   LIG d   1      10.110   3.087  -3.265  0.00  0.00    -0.034 C 
ATOM     56  H   LIG d   1       9.235   2.477  -3.039  0.00  0.00     0.081 H 
ATOM     57  H   LIG d   1      10.687   2.615  -4.061  0.00  0.00     0.081 H 
BRANCH  55  58
ATOM     58  N   LIG d   1      10.944   3.211  -2.062  0.00  0.00     0.219 N 
ATOM     59  H   LIG d   1      11.449   2.351  -1.914  0.00  0.00     0.199 HD
ATOM     60  H   LIG d   1      11.599   3.970  -2.183  0.00  0.00     0.199 HD
ATOM     61  H   LIG d   1      10.357   3.399  -1.264  0.00  0.00     0.199 HD
ENDBRANCH  55  58
ENDBRANCH  52  55
ENDBRANCH  49  52
ENDBRANCH   8  49
BRANCH   1  62
ATOM     62  C   LIG d   1      10.772  12.560  -1.181  0.00  0.00    -0.043 C 
ATOM     63  H   LIG d   1      10.391  13.415  -1.741  0.00  0.00     0.078 H 
ATOM     64  H   LIG d   1      11.205  12.904  -0.242  0.00  0.00     0.078 H 
ATOM     65  H   LIG d   1      11.535  12.051  -1.769  0.00  0.00     0.078 H 
ENDBRANCH   1  62
BRANCH  12  66
ATOM     66  C   LIG d   1      11.553   8.454   1.616  0.00  0.00    -0.013 C 
ATOM     67  H   LIG d   1      12.635   8.426   1.737  0.00  0.00     0.039 H 
ATOM     68  H   LIG d   1      11.154   9.334   2.121  0.00  0.00     0.039 H 
ATOM     69  H   LIG d   1      11.115   7.556   2.052  0.00  0.00     0.039 H 
ENDBRANCH  12  66
TORSDOF 10
ENDMDL
MODEL 6
REMARK VINA RESULT:      -4.5      3.666      6.220
REMARK  10 active torsions:
REMARK  status: ('A' for Active; 'I' for Inactive)
REMARK    1  A    between atoms: C_1  and  N_2 
REMARK    2  A    between atoms: N_6  and  C_21 
REMARK    3  A    between atoms: N_9  and  C_17 
REMARK    4  A    between atoms: N_13  and  C_16 
REMARK    5  A    between atoms: C_17  and  C_18 
REMARK    6  A    between atoms: C_18  and  C_19 
REMARK    7  A    between atoms: C_19  and  N_20 
REMARK    8  A    between atoms: C_21  and  C_22 
REMARK    9  A    between atoms: C_22  and  C_23 
REMARK   10  A    between atoms: C_23  and  N_24 
ROOT
ATOM      1  N   LIG d   1       3.882  -0.206  -8.943  0.00  0.00     0.234 N 
ATOM      2  C   LIG d   1       4.773  -0.701  -7.896  0.00  0.00    -0.031 C 
ATOM      3  C   LIG d   1       4.227  -0.488  -6.489  0.00  0.00     0.000 C 
ATOM      4  C   LIG d   1       5.306  -0.883  -5.472  0.00  0.00     0.004 C 
ATOM      5  N   LIG d   1       4.820  -2.086  -4.719  0.00  0.00    -0.301 N 
ATOM      6  C   LIG d   1       5.766  -3.188  -5.097  0.00  0.00     0.012 C 
ATOM      7  C   LIG d   1       4.990  -4.503  -5.114  0.00  0.00     0.012 C 
ATOM      8  N   LIG d   1       5.351  -5.256  -6.344  0.00  0.00    -0.301 N 
ATOM      9  C   LIG d   1       4.089  -5.631  -7.033  0.00  0.00     0.000 C 
ATOM     10  C   LIG d   1       4.303  -5.526  -8.543  0.00  0.00    -0.027 C 
ATOM     11  C   LIG d   1       3.110  -4.817  -9.183  0.00  0.00    -0.000 C 
ATOM     12  N   LIG d   1       3.607  -3.678  -9.998  0.00  0.00    -0.300 N 
ATOM     13  C   LIG d   1       2.982  -2.440  -9.458  0.00  0.00     0.039 C 
ATOM     14  C   LIG d   1       3.740  -1.228  -9.993  0.00  0.00    -0.019 C 
ATOM     15  H   LIG d   1       4.961  -1.768  -8.053  0.00  0.00     0.082 H 
ATOM     16  H   LIG d   1       5.736  -0.179  -7.982  0.00  0.00     0.082 H 
ATOM     17  H   LIG d   1       3.979   0.560  -6.328  0.00  0.00     0.033 H 
ATOM     18  H   LIG d   1       3.353  -1.116  -6.317  0.00  0.00     0.033 H 
ATOM     19  H   LIG d   1       6.224  -1.140  -5.981  0.00  0.00     0.043 H 
ATOM     20  H   LIG d   1       5.459  -0.080  -4.761  0.00  0.00     0.043 H 
ATOM     21  H   LIG d   1       6.163  -2.974  -6.082  0.00  0.00     0.044 H 
ATOM     22  H   LIG d   1       6.555  -3.224  -4.353  0.00  0.00     0.044 H 
ATOM     23  H   LIG d   1       5.260  -5.106  -4.249  0.00  0.00     0.044 H 
ATOM     24  H   LIG d   1       3.921  -4.309  -5.117  0.00  0.00     0.044 H 
ATOM     25  H   LIG d   1       3.838  -6.655  -6.766  0.00  0.00     0.043 H 
ATOM     26  H   LIG d   1       3.300  -4.954  -6.721  0.00  0.00     0.043 H 
ATOM     27  H   LIG d   1       5.213  -4.961  -8.745  0.00  0.00     0.029 H 
ATOM     28  H   LIG d   1       4.399  -6.527  -8.967  0.00  0.00     0.029 H 
ATOM     29  H   LIG d   1       2.575  -5.503  -9.834  0.00  0.00     0.043 H 
ATOM     30  H   LIG d   1       2.447  -4.431  -8.414  0.00  0.00     0.043 H 
ATOM     31  H   LIG d   1       1.946  -2.409  -9.789  0.00  0.00     0.048 H 
ATOM     32  H   LIG d   1       3.034  -2.483  -8.374  0.00  0.00     0.048 H 
ATOM     33  H   LIG d   1       3.196  -0.796 -10.834  0.00  0.00     0.083 H 
ATOM     34  H   LIG d   1       4.732  -1.534 -10.327  0.00  0.00     0.083 H 
ATOM     35  H   LIG d   1       4.311   0.615  -9.370  0.00  0.00     0.203 HD
ENDROOT
BRANCH   5  36
ATOM     36  C   LIG d   1       5.155  -1.785  -3.282  0.00  0.00     0.004 C 
ATOM     37  H   LIG d   1       5.933  -2.467  -2.939  0.00  0.00     0.043 H 
ATOM     38  H   LIG d   1       5.511  -0.758  -3.200  0.00  0.00     0.043 H 
BRANCH  36  39
ATOM     39  C   LIG d   1       3.904  -1.962  -2.419  0.00  0.00     0.000 C 
ATOM     40  H   LIG d   1       3.539  -2.984  -2.515  0.00  0.00     0.033 H 
ATOM     41  H   LIG d   1       4.150  -1.761  -1.377  0.00  0.00     0.033 H 
BRANCH  39  42
ATOM     42  C   LIG d   1       2.821  -0.987  -2.885  0.00  0.00    -0.034 C 
ATOM     43  H   LIG d   1       2.677  -1.090  -3.961  0.00  0.00     0.081 H 
ATOM     44  H   LIG d   1       1.886  -1.210  -2.371  0.00  0.00     0.081 H 
BRANCH  42  45
ATOM     45  N   LIG d   1       3.233   0.389  -2.576  0.00  0.00     0.219 N 
ATOM     46  H   LIG d   1       4.175   0.384  -2.214  0.00  0.00     0.199 HD
ATOM     47  H   LIG d   1       3.198   0.947  -3.416  0.00  0.00     0.199 HD
ATOM     48  H   LIG d   1       2.610   0.780  -1.886  0.00  0.00     0.199 HD
ENDBRANCH  42  45
ENDBRANCH  39  42
ENDBRANCH  36  39
ENDBRANCH   5  36
BRANCH   8  49
ATOM     49  C   LIG d   1       6.009  -6.519  -5.909  0.00  0.00     0.004 C 
ATOM     50  H   LIG d   1       6.541  -6.962  -6.751  0.00  0.00     0.043 H 
ATOM     51  H   LIG d   1       6.715  -6.303  -5.107  0.00  0.00     0.043 H 
BRANCH  49  52
ATOM     52  C   LIG d   1       4.948  -7.499  -5.404  0.00  0.00     0.000 C 
ATOM     53  H   LIG d   1       4.448  -7.076  -4.533  0.00  0.00     0.033 H 
ATOM     54  H   LIG d   1       4.217  -7.679  -6.192  0.00  0.00     0.033 H 
BRANCH  52  55
ATOM     55  C   LIG d   1       5.616  -8.819  -5.016  0.00  0.00    -0.034 C 
ATOM     56  H   LIG d   1       6.264  -9.151  -5.828  0.00  0.00     0.081 H 
ATOM     57  H   LIG d   1       6.209  -8.676  -4.113  0.00  0.00     0.081 H 
BRANCH  55  58
ATOM     58  N   LIG d   1       4.585  -9.836  -4.768  0.00  0.00     0.219 N 
ATOM     59  H   LIG d   1       5.003 -10.753  -4.795  0.00  0.00     0.199 HD
ATOM     60  H   LIG d   1       4.171  -9.681  -3.861  0.00  0.00     0.199 HD
ATOM     61  H   LIG d   1       3.871  -9.771  -5.478  0.00  0.00     0.199 HD
ENDBRANCH  55  58
ENDBRANCH  52  55
ENDBRANCH  49  52
ENDBRANCH   8  49
BRANCH   1  62
ATOM     62  C   LIG d   1       2.563   0.175  -8.437  0.00  0.00    -0.043 C 
ATOM     63  H   LIG d   1       2.359  -0.366  -7.513  0.00  0.00     0.078 H 
ATOM     64  H   LIG d   1       2.544   1.247  -8.242  0.00  0.00     0.078 H 
ATOM     65  H   LIG d   1       1.804  -0.074  -9.179  0.00  0.00     0.078 H 
ENDBRANCH   1  62
BRANCH  12  66
ATOM     66  C   LIG d   1       3.091  -3.868 -11.381  0.00  0.00    -0.013 C 
ATOM     67  H   LIG d   1       3.319  -4.879 -11.718  0.00  0.00     0.039 H 
ATOM     68  H   LIG d   1       2.012  -3.716 -11.392  0.00  0.00     0.039 H 
ATOM     69  H   LIG d   1       3.566  -3.147 -12.048  0.00  0.00     0.039 H 
ENDBRANCH  12  66
TORSDOF 10
ENDMDL
MODEL 7
REMARK VINA RESULT:      -4.5      7.383     11.461
REMARK  10 active torsions:
REMARK  status: ('A' for Active; 'I' for Inactive)
REMARK    1  A    between atoms: C_1  and  N_2 
REMARK    2  A    between atoms: N_6  and  C_21 
REMARK    3  A    between atoms: N_9  and  C_17 
REMARK    4  A    between atoms: N_13  and  C_16 
REMARK    5  A    between atoms: C_17  and  C_18 
REMARK    6  A    between atoms: C_18  and  C_19 
REMARK    7  A    between atoms: C_19  and  N_20 
REMARK    8  A    between atoms: C_21  and  C_22 
REMARK    9  A    between atoms: C_22  and  C_23 
REMARK   10  A    between atoms: C_23  and  N_24 
ROOT
ATOM      1  N   LIG d   1      10.914   4.148  -3.439  0.00  0.00     0.234 N 
ATOM      2  C   LIG d   1      11.138   5.302  -4.307  0.00  0.00    -0.031 C 
ATOM      3  C   LIG d   1       9.954   5.610  -5.217  0.00  0.00     0.000 C 
ATOM      4  C   LIG d   1      10.356   6.720  -6.197  0.00  0.00     0.004 C 
ATOM      5  N   LIG d   1       9.532   7.936  -5.889  0.00  0.00    -0.301 N 
ATOM      6  C   LIG d   1      10.519   8.963  -5.414  0.00  0.00     0.012 C 
ATOM      7  C   LIG d   1       9.836   9.835  -4.363  0.00  0.00     0.012 C 
ATOM      8  N   LIG d   1      10.761  10.008  -3.212  0.00  0.00    -0.301 N 
ATOM      9  C   LIG d   1      10.021   9.643  -1.977  0.00  0.00     0.000 C 
ATOM     10  C   LIG d   1      10.977   8.924  -1.024  0.00  0.00    -0.027 C 
ATOM     11  C   LIG d   1      10.289   7.690  -0.442  0.00  0.00    -0.000 C 
ATOM     12  N   LIG d   1      11.154   6.502  -0.674  0.00  0.00    -0.300 N 
ATOM     13  C   LIG d   1      10.363   5.529  -1.475  0.00  0.00     0.039 C 
ATOM     14  C   LIG d   1      11.309   4.485  -2.062  0.00  0.00    -0.019 C 
ATOM     15  H   LIG d   1      11.360   6.181  -3.694  0.00  0.00     0.082 H 
ATOM     16  H   LIG d   1      12.019   5.103  -4.932  0.00  0.00     0.082 H 
ATOM     17  H   LIG d   1       9.677   4.731  -5.797  0.00  0.00     0.033 H 
ATOM     18  H   LIG d   1       9.103   5.964  -4.634  0.00  0.00     0.033 H 
ATOM     19  H   LIG d   1      11.401   6.969  -6.073  0.00  0.00     0.043 H 
ATOM     20  H   LIG d   1      10.139   6.416  -7.214  0.00  0.00     0.043 H 
ATOM     21  H   LIG d   1      11.367   8.446  -4.980  0.00  0.00     0.044 H 
ATOM     22  H   LIG d   1      10.817   9.562  -6.268  0.00  0.00     0.044 H 
ATOM     23  H   LIG d   1       9.617  10.816  -4.780  0.00  0.00     0.044 H 
ATOM     24  H   LIG d   1       8.923   9.361  -4.017  0.00  0.00     0.044 H 
ATOM     25  H   LIG d   1       9.650  10.553  -1.511  0.00  0.00     0.043 H 
ATOM     26  H   LIG d   1       9.195   8.988  -2.239  0.00  0.00     0.043 H 
ATOM     27  H   LIG d   1      11.873   8.620  -1.567  0.00  0.00     0.029 H 
ATOM     28  H   LIG d   1      11.257   9.599  -0.214  0.00  0.00     0.029 H 
ATOM     29  H   LIG d   1      10.149   7.813   0.629  0.00  0.00     0.043 H 
ATOM     30  H   LIG d   1       9.334   7.526  -0.931  0.00  0.00     0.043 H 
ATOM     31  H   LIG d   1       9.642   5.052  -0.815  0.00  0.00     0.048 H 
ATOM     32  H   LIG d   1       9.854   6.077  -2.263  0.00  0.00     0.048 H 
ATOM     33  H   LIG d   1      11.278   3.579  -1.454  0.00  0.00     0.083 H 
ATOM     34  H   LIG d   1      12.327   4.876  -2.070  0.00  0.00     0.083 H 
ATOM     35  H   LIG d   1      11.516   3.387  -3.753  0.00  0.00     0.203 HD
ENDROOT
BRANCH   5  36
ATOM     36  C   LIG d   1       9.093   8.438  -7.239  0.00  0.00     0.004 C 
ATOM     37  H   LIG d   1       8.008   8.374  -7.315  0.00  0.00     0.043 H 
ATOM     38  H   LIG d   1       9.405   9.475  -7.360  0.00  0.00     0.043 H 
BRANCH  36  39
ATOM     39  C   LIG d   1       9.732   7.581  -8.334  0.00  0.00     0.000 C 
ATOM     40  H   LIG d   1      10.466   6.910  -7.887  0.00  0.00     0.033 H 
ATOM     41  H   LIG d   1       8.961   6.995  -8.833  0.00  0.00     0.033 H 
BRANCH  39  42
ATOM     42  C   LIG d   1      10.424   8.489  -9.353  0.00  0.00    -0.034 C 
ATOM     43  H   LIG d   1      10.490   9.500  -8.952  0.00  0.00     0.081 H 
ATOM     44  H   LIG d   1      11.426   8.112  -9.553  0.00  0.00     0.081 H 
BRANCH  42  45
ATOM     45  N   LIG d   1       9.648   8.505 -10.600  0.00  0.00     0.219 N 
ATOM     46  H   LIG d   1       9.198   7.612 -10.728  0.00  0.00     0.199 HD
ATOM     47  H   LIG d   1       8.948   9.231 -10.551  0.00  0.00     0.199 HD
ATOM     48  H   LIG d   1      10.265   8.686 -11.377  0.00  0.00     0.199 HD
ENDBRANCH  42  45
ENDBRANCH  39  42
ENDBRANCH  36  39
ENDBRANCH   5  36
BRANCH   8  49
ATOM     49  C   LIG d   1      11.082  11.459  -3.121  0.00  0.00     0.004 C 
ATOM     50  H   LIG d   1      12.116  11.585  -2.797  0.00  0.00     0.043 H 
ATOM     51  H   LIG d   1      10.950  11.923  -4.099  0.00  0.00     0.043 H 
BRANCH  49  52
ATOM     52  C   LIG d   1      10.147  12.126  -2.111  0.00  0.00     0.000 C 
ATOM     53  H   LIG d   1       9.512  11.371  -1.649  0.00  0.00     0.033 H 
ATOM     54  H   LIG d   1      10.739  12.624  -1.342  0.00  0.00     0.033 H 
BRANCH  52  55
ATOM     55  C   LIG d   1       9.272  13.157  -2.828  0.00  0.00    -0.034 C 
ATOM     56  H   LIG d   1       9.206  14.062  -2.223  0.00  0.00     0.081 H 
ATOM     57  H   LIG d   1       9.712  13.397  -3.795  0.00  0.00     0.081 H 
BRANCH  55  58
ATOM     58  N   LIG d   1       7.925  12.603  -3.026  0.00  0.00     0.219 N 
ATOM     59  H   LIG d   1       7.906  12.063  -3.877  0.00  0.00     0.199 HD
ATOM     60  H   LIG d   1       7.688  12.009  -2.245  0.00  0.00     0.199 HD
ATOM     61  H   LIG d   1       7.258  13.357  -3.089  0.00  0.00     0.199 HD
ENDBRANCH  55  58
ENDBRANCH  52  55
ENDBRANCH  49  52
ENDBRANCH   8  49
BRANCH   1  62
ATOM     62  C   LIG d   1       9.528   3.679  -3.459  0.00  0.00    -0.043 C 
ATOM     63  H   LIG d   1       8.941   4.250  -2.739  0.00  0.00     0.078 H 
ATOM     64  H   LIG d   1       9.113   3.816  -4.457  0.00  0.00     0.078 H 
ATOM     65  H   LIG d   1       9.499   2.622  -3.195  0.00  0.00     0.078 H 
ENDBRANCH   1  62
BRANCH  12  66
ATOM     66  C   LIG d   1      11.412   5.879   0.652  0.00  0.00    -0.013 C 
ATOM     67  H   LIG d   1      10.540   5.304   0.960  0.00  0.00     0.039 H 
ATOM     68  H   LIG d   1      12.277   5.220   0.582  0.00  0.00     0.039 H 
ATOM     69  H   LIG d   1      11.611   6.660   1.387  0.00  0.00     0.039 H 
ENDBRANCH  12  66
TORSDOF 10
ENDMDL
MODEL 8
REMARK VINA RESULT:      -4.5      8.730     11.744
REMARK  10 active torsions:
REMARK  status: ('A' for Active; 'I' for Inactive)
REMARK    1  A    between atoms: C_1  and  N_2 
REMARK    2  A    between atoms: N_6  and  C_21 
REMARK    3  A    between atoms: N_9  and  C_17 
REMARK    4  A    between atoms: N_13  and  C_16 
REMARK    5  A    between atoms: C_17  and  C_18 
REMARK    6  A    between atoms: C_18  and  C_19 
REMARK    7  A    between atoms: C_19  and  N_20 
REMARK    8  A    between atoms: C_21  and  C_22 
REMARK    9  A    between atoms: C_22  and  C_23 
REMARK   10  A    between atoms: C_23  and  N_24 
ROOT
ATOM      1  N   LIG d   1      10.600   5.356  -0.990  0.00  0.00     0.234 N 
ATOM      2  C   LIG d   1      10.198   6.741  -0.755  0.00  0.00    -0.031 C 
ATOM      3  C   LIG d   1      11.332   7.618  -0.236  0.00  0.00     0.000 C 
ATOM      4  C   LIG d   1      10.765   8.994   0.136  0.00  0.00     0.004 C 
ATOM      5  N   LIG d   1      11.353  10.010  -0.799  0.00  0.00    -0.301 N 
ATOM      6  C   LIG d   1      10.187  10.523  -1.594  0.00  0.00     0.012 C 
ATOM      7  C   LIG d   1      10.677  10.862  -3.001  0.00  0.00     0.012 C 
ATOM      8  N   LIG d   1       9.707  10.319  -3.988  0.00  0.00    -0.301 N 
ATOM      9  C   LIG d   1      10.468   9.509  -4.974  0.00  0.00     0.000 C 
ATOM     10  C   LIG d   1       9.629   8.290  -5.360  0.00  0.00    -0.027 C 
ATOM     11  C   LIG d   1      10.509   7.040  -5.358  0.00  0.00    -0.000 C 
ATOM     12  N   LIG d   1       9.875   6.006  -4.497  0.00  0.00    -0.300 N 
ATOM     13  C   LIG d   1      10.846   5.670  -3.421  0.00  0.00     0.039 C 
ATOM     14  C   LIG d   1      10.115   4.920  -2.310  0.00  0.00    -0.019 C 
ATOM     15  H   LIG d   1       9.807   7.169  -1.685  0.00  0.00     0.082 H 
ATOM     16  H   LIG d   1       9.383   6.748  -0.020  0.00  0.00     0.082 H 
ATOM     17  H   LIG d   1      11.775   7.182   0.658  0.00  0.00     0.033 H 
ATOM     18  H   LIG d   1      12.091   7.760  -1.005  0.00  0.00     0.033 H 
ATOM     19  H   LIG d   1       9.690   9.000   0.024  0.00  0.00     0.043 H 
ATOM     20  H   LIG d   1      11.059   9.257   1.146  0.00  0.00     0.043 H 
ATOM     21  H   LIG d   1       9.433   9.746  -1.636  0.00  0.00     0.044 H 
ATOM     22  H   LIG d   1       9.810  11.413  -1.101  0.00  0.00     0.044 H 
ATOM     23  H   LIG d   1      10.730  11.941  -3.127  0.00  0.00     0.044 H 
ATOM     24  H   LIG d   1      11.651  10.414  -3.177  0.00  0.00     0.044 H 
ATOM     25  H   LIG d   1      10.659  10.119  -5.853  0.00  0.00     0.043 H 
ATOM     26  H   LIG d   1      11.402   9.189  -4.523  0.00  0.00     0.043 H 
ATOM     27  H   LIG d   1       8.816   8.164  -4.645  0.00  0.00     0.029 H 
ATOM     28  H   LIG d   1       9.213   8.437  -6.358  0.00  0.00     0.029 H 
ATOM     29  H   LIG d   1      10.597   6.645  -6.366  0.00  0.00     0.043 H 
ATOM     30  H   LIG d   1      11.491   7.273  -4.956  0.00  0.00     0.043 H 
ATOM     31  H   LIG d   1      11.623   5.039  -3.849  0.00  0.00     0.048 H 
ATOM     32  H   LIG d   1      11.270   6.598  -3.048  0.00  0.00     0.048 H 
ATOM     33  H   LIG d   1      10.290   3.848  -2.414  0.00  0.00     0.083 H 
ATOM     34  H   LIG d   1       9.044   5.116  -2.378  0.00  0.00     0.083 H 
ATOM     35  H   LIG d   1      10.150   4.767  -0.289  0.00  0.00     0.203 HD
ENDROOT
BRANCH   5  36
ATOM     36  C   LIG d   1      11.731  11.161   0.093  0.00  0.00     0.004 C 
ATOM     37  H   LIG d   1      12.330  10.794   0.926  0.00  0.00     0.043 H 
ATOM     38  H   LIG d   1      12.308  11.889  -0.477  0.00  0.00     0.043 H 
BRANCH  36  39
ATOM     39  C   LIG d   1      10.462  11.826   0.632  0.00  0.00     0.000 C 
ATOM     40  H   LIG d   1       9.628  11.609  -0.034  0.00  0.00     0.033 H 
ATOM     41  H   LIG d   1      10.243  11.439   1.627  0.00  0.00     0.033 H 
BRANCH  39  42
ATOM     42  C   LIG d   1      10.673  13.340   0.710  0.00  0.00    -0.034 C 
ATOM     43  H   LIG d   1      10.738  13.645   1.754  0.00  0.00     0.081 H 
ATOM     44  H   LIG d   1      11.598  13.604   0.197  0.00  0.00     0.081 H 
BRANCH  42  45
ATOM     45  N   LIG d   1       9.544  14.025   0.067  0.00  0.00     0.219 N 
ATOM     46  H   LIG d   1       8.679  13.613   0.380  0.00  0.00     0.199 HD
ATOM     47  H   LIG d   1       9.560  15.004   0.316  0.00  0.00     0.199 HD
ATOM     48  H   LIG d   1       9.619  13.932  -0.934  0.00  0.00     0.199 HD
ENDBRANCH  42  45
ENDBRANCH  39  42
ENDBRANCH  36  39
ENDBRANCH   5  36
BRANCH   8  49
ATOM     49  C   LIG d   1       9.132  11.480  -4.721  0.00  0.00     0.004 C 
ATOM     50  H   LIG d   1       8.386  11.128  -5.434  0.00  0.00     0.043 H 
ATOM     51  H   LIG d   1       8.662  12.162  -4.012  0.00  0.00     0.043 H 
BRANCH  49  52
ATOM     52  C   LIG d   1      10.247  12.213  -5.471  0.00  0.00     0.000 C 
ATOM     53  H   LIG d   1      10.778  12.868  -4.781  0.00  0.00     0.033 H 
ATOM     54  H   LIG d   1      10.941  11.485  -5.890  0.00  0.00     0.033 H 
BRANCH  52  55
ATOM     55  C   LIG d   1       9.639  13.048  -6.600  0.00  0.00    -0.034 C 
ATOM     56  H   LIG d   1       8.770  13.589  -6.225  0.00  0.00     0.081 H 
ATOM     57  H   LIG d   1      10.380  13.759  -6.966  0.00  0.00     0.081 H 
BRANCH  55  58
ATOM     58  N   LIG d   1       9.227  12.162  -7.697  0.00  0.00     0.219 N 
ATOM     59  H   LIG d   1       9.822  12.317  -8.496  0.00  0.00     0.199 HD
ATOM     60  H   LIG d   1       9.306  11.200  -7.400  0.00  0.00     0.199 HD
ATOM     61  H   LIG d   1       8.269  12.358  -7.946  0.00  0.00     0.199 HD
ENDBRANCH  55  58
ENDBRANCH  52  55
ENDBRANCH  49  52
ENDBRANCH   8  49
BRANCH   1  62
ATOM     62  C   LIG d   1      12.046   5.158  -0.900  0.00  0.00    -0.043 C 
ATOM     63  H   LIG d   1      12.389   5.433   0.097  0.00  0.00     0.078 H 
ATOM     64  H   LIG d   1      12.282   4.111  -1.090  0.00  0.00     0.078 H 
ATOM     65  H   LIG d   1      12.545   5.783  -1.641  0.00  0.00     0.078 H 
ENDBRANCH   1  62
BRANCH  12  66
ATOM     66  C   LIG d   1       9.696   4.788  -5.331  0.00  0.00    -0.013 C 
ATOM     67  H   LIG d   1      10.182   4.932  -6.295  0.00  0.00     0.039 H 
ATOM     68  H   LIG d   1      10.141   3.931  -4.825  0.00  0.00     0.039 H 
ATOM     69  H   LIG d   1       8.632   4.605  -5.484  0.00  0.00     0.039 H 
ENDBRANCH  12  66
TORSDOF 10
ENDMDL
MODEL 9
REMARK VINA RESULT:      -4.4      5.693      8.849
REMARK  10 active torsions:
REMARK  status: ('A' for Active; 'I' for Inactive)
REMARK    1  A    between atoms: C_1  and  N_2 
REMARK    2  A    between atoms: N_6  and  C_21 
REMARK    3  A    between atoms: N_9  and  C_17 
REMARK    4  A    between atoms: N_13  and  C_16 
REMARK    5  A    between atoms: C_17  and  C_18 
REMARK    6  A    between atoms: C_18  and  C_19 
REMARK    7  A    between atoms: C_19  and  N_20 
REMARK    8  A    between atoms: C_21  and  C_22 
REMARK    9  A    between atoms: C_22  and  C_23 
REMARK   10  A    between atoms: C_23  and  N_24 
ROOT
ATOM      1  N   LIG d   1      10.125   1.980  -3.721  0.00  0.00     0.234 N 
ATOM      2  C   LIG d   1       9.671   3.328  -3.387  0.00  0.00    -0.031 C 
ATOM      3  C   LIG d   1      10.699   4.134  -2.603  0.00  0.00     0.000 C 
ATOM      4  C   LIG d   1      10.061   5.457  -2.160  0.00  0.00     0.004 C 
ATOM      5  N   LIG d   1      10.767   6.576  -2.869  0.00  0.00    -0.301 N 
ATOM      6  C   LIG d   1       9.726   7.183  -3.764  0.00  0.00     0.012 C 
ATOM      7  C   LIG d   1      10.416   7.686  -5.030  0.00  0.00     0.012 C 
ATOM      8  N   LIG d   1       9.614   7.268  -6.210  0.00  0.00    -0.301 N 
ATOM      9  C   LIG d   1      10.527   6.579  -7.158  0.00  0.00     0.000 C 
ATOM     10  C   LIG d   1       9.776   5.417  -7.809  0.00  0.00    -0.027 C 
ATOM     11  C   LIG d   1      10.665   4.174  -7.821  0.00  0.00    -0.000 C 
ATOM     12  N   LIG d   1       9.925   3.046  -7.195  0.00  0.00    -0.300 N 
ATOM     13  C   LIG d   1      10.729   2.581  -6.032  0.00  0.00     0.039 C 
ATOM     14  C   LIG d   1       9.852   1.706  -5.141  0.00  0.00    -0.019 C 
ATOM     15  H   LIG d   1       9.417   3.865  -4.307  0.00  0.00     0.082 H 
ATOM     16  H   LIG d   1       8.754   3.249  -2.788  0.00  0.00     0.082 H 
ATOM     17  H   LIG d   1      11.010   3.593  -1.710  0.00  0.00     0.033 H 
ATOM     18  H   LIG d   1      11.563   4.366  -3.226  0.00  0.00     0.033 H 
ATOM     19  H   LIG d   1       9.016   5.478  -2.432  0.00  0.00     0.043 H 
ATOM     20  H   LIG d   1      10.196   5.597  -1.093  0.00  0.00     0.043 H 
ATOM     21  H   LIG d   1       8.999   6.419  -4.011  0.00  0.00     0.044 H 
ATOM     22  H   LIG d   1       9.265   8.008  -3.231  0.00  0.00     0.044 H 
ATOM     23  H   LIG d   1      10.470   8.773  -5.018  0.00  0.00     0.044 H 
ATOM     24  H   LIG d   1      11.412   7.261  -5.109  0.00  0.00     0.044 H 
ATOM     25  H   LIG d   1      10.838   7.290  -7.920  0.00  0.00     0.043 H 
ATOM     26  H   LIG d   1      11.388   6.206  -6.613  0.00  0.00     0.043 H 
ATOM     27  H   LIG d   1       8.866   5.209  -7.244  0.00  0.00     0.029 H 
ATOM     28  H   LIG d   1       9.512   5.683  -8.833  0.00  0.00     0.029 H 
ATOM     29  H   LIG d   1      10.910   3.902  -8.844  0.00  0.00     0.043 H 
ATOM     30  H   LIG d   1      11.571   4.355  -7.251  0.00  0.00     0.043 H 
ATOM     31  H   LIG d   1      11.571   2.005  -6.409  0.00  0.00     0.048 H 
ATOM     32  H   LIG d   1      11.078   3.457  -5.492  0.00  0.00     0.048 H 
ATOM     33  H   LIG d   1      10.057   0.654  -5.343  0.00  0.00     0.083 H 
ATOM     34  H   LIG d   1       8.800   1.911  -5.346  0.00  0.00     0.083 H 
ATOM     35  H   LIG d   1       9.585   1.313  -3.170  0.00  0.00     0.203 HD
ENDROOT
BRANCH   5  36
ATOM     36  C   LIG d   1      10.988   7.612  -1.799  0.00  0.00     0.004 C 
ATOM     37  H   LIG d   1      11.718   7.241  -1.079  0.00  0.00     0.043 H 
ATOM     38  H   LIG d   1      11.360   8.530  -2.254  0.00  0.00     0.043 H 
BRANCH  36  39
ATOM     39  C   LIG d   1       9.665   7.896  -1.084  0.00  0.00     0.000 C 
ATOM     40  H   LIG d   1       8.835   7.677  -1.755  0.00  0.00     0.033 H 
ATOM     41  H   LIG d   1       9.590   7.269  -0.196  0.00  0.00     0.033 H 
BRANCH  39  42
ATOM     42  C   LIG d   1       9.614   9.369  -0.673  0.00  0.00    -0.034 C 
ATOM     43  H   LIG d   1       9.630   9.444   0.414  0.00  0.00     0.081 H 
ATOM     44  H   LIG d   1      10.477   9.891  -1.086  0.00  0.00     0.081 H 
BRANCH  42  45
ATOM     45  N   LIG d   1       8.381   9.979  -1.189  0.00  0.00     0.219 N 
ATOM     46  H   LIG d   1       7.845  10.353  -0.421  0.00  0.00     0.199 HD
ATOM     47  H   LIG d   1       8.617  10.725  -1.828  0.00  0.00     0.199 HD
ATOM     48  H   LIG d   1       7.837   9.282  -1.673  0.00  0.00     0.199 HD
ENDBRANCH  42  45
ENDBRANCH  39  42
ENDBRANCH  36  39
ENDBRANCH   5  36
BRANCH   8  49
ATOM     49  C   LIG d   1       9.137   8.509  -6.879  0.00  0.00     0.004 C 
ATOM     50  H   LIG d   1       8.220   8.297  -7.431  0.00  0.00     0.043 H 
ATOM     51  H   LIG d   1       8.939   9.274  -6.128  0.00  0.00     0.043 H 
BRANCH  49  52
ATOM     52  C   LIG d   1      10.210   9.011  -7.847  0.00  0.00     0.000 C 
ATOM     53  H   LIG d   1      11.087   8.368  -7.783  0.00  0.00     0.033 H 
ATOM     54  H   LIG d   1       9.818   8.993  -8.864  0.00  0.00     0.033 H 
BRANCH  52  55
ATOM     55  C   LIG d   1      10.602  10.444  -7.477  0.00  0.00    -0.034 C 
ATOM     56  H   LIG d   1      10.950  10.470  -6.444  0.00  0.00     0.081 H 
ATOM     57  H   LIG d   1      11.399  10.785  -8.138  0.00  0.00     0.081 H 
BRANCH  55  58
ATOM     58  N   LIG d   1       9.434  11.324  -7.623  0.00  0.00     0.219 N 
ATOM     59  H   LIG d   1       9.744  12.263  -7.819  0.00  0.00     0.199 HD
ATOM     60  H   LIG d   1       8.857  10.993  -8.382  0.00  0.00     0.199 HD
ATOM     61  H   LIG d   1       8.900  11.317  -6.767  0.00  0.00     0.199 HD
ENDBRANCH  55  58
ENDBRANCH  52  55
ENDBRANCH  49  52
ENDBRANCH   8  49
BRANCH   1  62
ATOM     62  C   LIG d   1      11.545   1.770  -3.438  0.00  0.00    -0.043 C 
ATOM     63  H   LIG d   1      11.666   1.458  -2.400  0.00  0.00     0.078 H 
ATOM     64  H   LIG d   1      11.937   0.996  -4.098  0.00  0.00     0.078 H 
ATOM     65  H   LIG d   1      12.090   2.699  -3.604  0.00  0.00     0.078 H 
ENDBRANCH   1  62
BRANCH  12  66
ATOM     66  C   LIG d   1       9.893   1.936  -8.185  0.00  0.00    -0.013 C 
ATOM     67  H   LIG d   1      10.871   1.457  -8.226  0.00  0.00     0.039 H 
ATOM     68  H   LIG d   1       9.142   1.205  -7.888  0.00  0.00     0.039 H 
ATOM     69  H   LIG d   1       9.643   2.335  -9.169  0.00  0.00     0.039 H 
ENDBRANCH  12  66
TORSDOF 10
ENDMDL
MODEL 10
REMARK VINA RESULT:      -4.4      7.070     10.896
REMARK  10 active torsions:
REMARK  status: ('A' for Active; 'I' for Inactive)
REMARK    1  A    between atoms: C_1  and  N_2 
REMARK    2  A    between atoms: N_6  and  C_21 
REMARK    3  A    between atoms: N_9  and  C_17 
REMARK    4  A    between atoms: N_13  and  C_16 
REMARK    5  A    between atoms: C_17  and  C_18 
REMARK    6  A    between atoms: C_18  and  C_19 
REMARK    7  A    between atoms: C_19  and  N_20 
REMARK    8  A    between atoms: C_21  and  C_22 
REMARK    9  A    between atoms: C_22  and  C_23 
REMARK   10  A    between atoms: C_23  and  N_24 
ROOT
ATOM      1  N   LIG d   1       9.531  11.889  -4.017  0.00  0.00     0.234 N 
ATOM      2  C   LIG d   1       9.164  10.669  -4.731  0.00  0.00    -0.031 C 
ATOM      3  C   LIG d   1      10.146  10.299  -5.836  0.00  0.00     0.000 C 
ATOM      4  C   LIG d   1       9.581   9.111  -6.627  0.00  0.00     0.004 C 
ATOM      5  N   LIG d   1      10.480   7.931  -6.402  0.00  0.00    -0.301 N 
ATOM      6  C   LIG d   1       9.634   6.937  -5.660  0.00  0.00     0.012 C 
ATOM      7  C   LIG d   1      10.536   6.156  -4.707  0.00  0.00     0.012 C 
ATOM      8  N   LIG d   1       9.868   6.067  -3.381  0.00  0.00    -0.301 N 
ATOM      9  C   LIG d   1      10.834   6.535  -2.354  0.00  0.00     0.000 C 
ATOM     10  C   LIG d   1      10.073   7.320  -1.284  0.00  0.00    -0.027 C 
ATOM     11  C   LIG d   1      10.834   8.602  -0.949  0.00  0.00    -0.000 C 
ATOM     12  N   LIG d   1       9.912   9.760  -1.090  0.00  0.00    -0.300 N 
ATOM     13  C   LIG d   1      10.501  10.673  -2.107  0.00  0.00     0.039 C 
ATOM     14  C   LIG d   1       9.430  11.660  -2.566  0.00  0.00    -0.019 C 
ATOM     15  H   LIG d   1       9.091   9.839  -4.021  0.00  0.00     0.082 H 
ATOM     16  H   LIG d   1       8.170  10.810  -5.177  0.00  0.00     0.082 H 
ATOM     17  H   LIG d   1      10.279  11.131  -6.526  0.00  0.00     0.033 H 
ATOM     18  H   LIG d   1      11.105  10.000  -5.414  0.00  0.00     0.033 H 
ATOM     19  H   LIG d   1       8.590   8.865  -6.275  0.00  0.00     0.043 H 
ATOM     20  H   LIG d   1       9.581   9.336  -7.687  0.00  0.00     0.043 H 
ATOM     21  H   LIG d   1       8.879   7.479  -5.103  0.00  0.00     0.044 H 
ATOM     22  H   LIG d   1       9.184   6.270  -6.387  0.00  0.00     0.044 H 
ATOM     23  H   LIG d   1      10.690   5.147  -5.083  0.00  0.00     0.044 H 
ATOM     24  H   LIG d   1      11.489   6.664  -4.591  0.00  0.00     0.044 H 
ATOM     25  H   LIG d   1      11.313   5.668  -1.906  0.00  0.00     0.043 H 
ATOM     26  H   LIG d   1      11.573   7.174  -2.828  0.00  0.00     0.043 H 
ATOM     27  H   LIG d   1       9.079   7.572  -1.655  0.00  0.00     0.029 H 
ATOM     28  H   LIG d   1       9.979   6.709  -0.385  0.00  0.00     0.029 H 
ATOM     29  H   LIG d   1      11.190   8.565   0.076  0.00  0.00     0.043 H 
ATOM     30  H   LIG d   1      11.666   8.734  -1.634  0.00  0.00     0.043 H 
ATOM     31  H   LIG d   1      11.329  11.207  -1.646  0.00  0.00     0.048 H 
ATOM     32  H   LIG d   1      10.853  10.068  -2.938  0.00  0.00     0.048 H 
ATOM     33  H   LIG d   1       9.561  12.611  -2.049  0.00  0.00     0.083 H 
ATOM     34  H   LIG d   1       8.441  11.261  -2.337  0.00  0.00     0.083 H 
ATOM     35  H   LIG d   1       8.859  12.618  -4.259  0.00  0.00     0.203 HD
ENDROOT
BRANCH   5  36
ATOM     36  C   LIG d   1      10.649   7.327  -7.771  0.00  0.00     0.004 C 
ATOM     37  H   LIG d   1      11.404   7.885  -8.324  0.00  0.00     0.043 H 
ATOM     38  H   LIG d   1      10.963   6.288  -7.673  0.00  0.00     0.043 H 
BRANCH  36  39
ATOM     39  C   LIG d   1       9.318   7.389  -8.523  0.00  0.00     0.000 C 
ATOM     40  H   LIG d   1       8.505   7.535  -7.811  0.00  0.00     0.033 H 
ATOM     41  H   LIG d   1       9.337   8.220  -9.228  0.00  0.00     0.033 H 
BRANCH  39  42
ATOM     42  C   LIG d   1       9.100   6.080  -9.284  0.00  0.00    -0.034 C 
ATOM     43  H   LIG d   1      10.065   5.619  -9.496  0.00  0.00     0.081 H 
ATOM     44  H   LIG d   1       8.500   5.402  -8.677  0.00  0.00     0.081 H 
BRANCH  42  45
ATOM     45  N   LIG d   1       8.401   6.356 -10.546  0.00  0.00     0.219 N 
ATOM     46  H   LIG d   1       8.950   6.010 -11.317  0.00  0.00     0.199 HD
ATOM     47  H   LIG d   1       7.502   5.897 -10.539  0.00  0.00     0.199 HD
ATOM     48  H   LIG d   1       8.269   7.351 -10.647  0.00  0.00     0.199 HD
ENDBRANCH  42  45
ENDBRANCH  39  42
ENDBRANCH  36  39
ENDBRANCH   5  36
BRANCH   8  49
ATOM     49  C   LIG d   1       9.607   4.625  -3.118  0.00  0.00     0.004 C 
ATOM     50  H   LIG d   1       8.817   4.528  -2.372  0.00  0.00     0.043 H 
ATOM     51  H   LIG d   1       9.296   4.137  -4.041  0.00  0.00     0.043 H 
BRANCH  49  52
ATOM     52  C   LIG d   1      10.884   3.963  -2.596  0.00  0.00     0.000 C 
ATOM     53  H   LIG d   1      11.752   4.521  -2.946  0.00  0.00     0.033 H 
ATOM     54  H   LIG d   1      10.871   3.958  -1.506  0.00  0.00     0.033 H 
BRANCH  52  55
ATOM     55  C   LIG d   1      10.961   2.525  -3.111  0.00  0.00    -0.034 C 
ATOM     56  H   LIG d   1      11.563   2.496  -4.020  0.00  0.00     0.081 H 
ATOM     57  H   LIG d   1      11.417   1.890  -2.352  0.00  0.00     0.081 H 
BRANCH  55  58
ATOM     58  N   LIG d   1       9.606   2.038  -3.407  0.00  0.00     0.219 N 
ATOM     59  H   LIG d   1       9.555   1.050  -3.215  0.00  0.00     0.199 HD
ATOM     60  H   LIG d   1       8.939   2.529  -2.830  0.00  0.00     0.199 HD
ATOM     61  H   LIG d   1       9.395   2.203  -4.380  0.00  0.00     0.199 HD
ENDBRANCH  55  58
ENDBRANCH  52  55
ENDBRANCH  49  52
ENDBRANCH   8  49
BRANCH   1  62
ATOM     62  C   LIG d   1      10.872  12.367  -4.354  0.00  0.00    -0.043 C 
ATOM     63  H   LIG d   1      11.081  12.152  -5.402  0.00  0.00     0.078 H 
ATOM     64  H   LIG d   1      10.927  13.443  -4.186  0.00  0.00     0.078 H 
ATOM     65  H   LIG d   1      11.606  11.862  -3.726  0.00  0.00     0.078 H 
ENDBRANCH   1  62
BRANCH  12  66
ATOM     66  C   LIG d   1       9.912  10.484   0.210  0.00  0.00    -0.013 C 
ATOM     67  H   LIG d   1       9.241   9.982   0.905  0.00  0.00     0.039 H 
ATOM     68  H   LIG d   1      10.921  10.494   0.621  0.00  0.00     0.039 H 
ATOM     69  H   LIG d   1       9.574  11.509   0.054  0.00  0.00     0.039 H 
ENDBRANCH  12  66
TORSDOF 10
ENDMDL
