MODEL 1
REMARK VINA RESULT:      -5.2      0.000      0.000
REMARK  6 active torsions:
REMARK  status: ('A' for Active; 'I' for Inactive)
REMARK    1  A    between atoms: C_1  and  C_2 
REMARK    2  A    between atoms: C_6  and  C_13 
REMARK    3  A    between atoms: C_8  and  C_10 
REMARK    4  A    between atoms: C_10  and  C_12 
REMARK    5  A    between atoms: C_13  and  C_14 
REMARK    6  A    between atoms: C_13  and  C_15 
ROOT
ATOM      1  C   LIG d   1       3.581  -0.349  -4.111  0.00  0.00    -0.034 C 
ATOM      2  H   LIG d   1       3.488  -0.781  -5.107  0.00  0.00     0.030 H 
ATOM      3  C   LIG d   1       2.926  -1.274  -3.056  0.00  0.00    -0.050 C 
ATOM      4  C   LIG d   1       4.019  -2.344  -2.813  0.00  0.00    -0.049 C 
ATOM      5  C   LIG d   1       5.342  -1.552  -2.864  0.00  0.00    -0.029 C 
ATOM      6  H   LIG d   1       5.653  -1.281  -1.855  0.00  0.00     0.031 H 
ATOM      7  C   LIG d   1       5.064  -0.283  -3.689  0.00  0.00     0.023 C 
ATOM      8  H   LIG d   1       5.641  -0.248  -4.503  0.00  0.00     0.038 H 
ATOM      9  H   LIG d   1       2.713  -0.725  -2.139  0.00  0.00     0.027 H 
ATOM     10  H   LIG d   1       2.019  -1.732  -3.453  0.00  0.00     0.027 H 
ATOM     11  H   LIG d   1       3.996  -3.098  -3.600  0.00  0.00     0.027 H 
ATOM     12  H   LIG d   1       3.889  -2.809  -1.836  0.00  0.00     0.027 H 
ENDROOT
BRANCH   5  13
ATOM     13  C   LIG d   1       6.430  -2.388  -3.540  0.00  0.00    -0.043 C 
ATOM     14  H   LIG d   1       6.925  -3.013  -2.795  0.00  0.00     0.030 H 
BRANCH  13  15
ATOM     15  C   LIG d   1       5.797  -3.278  -4.613  0.00  0.00    -0.062 C 
ATOM     16  H   LIG d   1       5.549  -2.673  -5.485  0.00  0.00     0.023 H 
ATOM     17  H   LIG d   1       6.502  -4.057  -4.900  0.00  0.00     0.023 H 
ATOM     18  H   LIG d   1       4.891  -3.734  -4.217  0.00  0.00     0.023 H 
ENDBRANCH  13  15
BRANCH  13  19
ATOM     19  C   LIG d   1       7.457  -1.459  -4.190  0.00  0.00    -0.062 C 
ATOM     20  H   LIG d   1       7.184  -1.287  -5.231  0.00  0.00     0.023 H 
ATOM     21  H   LIG d   1       7.476  -0.509  -3.657  0.00  0.00     0.023 H 
ATOM     22  H   LIG d   1       8.444  -1.921  -4.145  0.00  0.00     0.023 H 
ENDBRANCH  13  19
ENDBRANCH   5  13
BRANCH   7  23
ATOM     23  C   LIG d   1       5.307   0.943  -2.846  0.00  0.00     0.134 C 
ATOM     24  O   LIG d   1       6.011   1.832  -3.262  0.00  0.00    -0.297 OA
BRANCH  23  25
ATOM     25  C   LIG d   1       4.670   1.059  -1.485  0.00  0.00    -0.006 C 
ATOM     26  H   LIG d   1       4.478   2.021  -1.288  0.00  0.00     0.031 H 
ATOM     27  H   LIG d   1       3.739   0.491  -1.471  0.00  0.00     0.031 H 
ATOM     28  H   LIG d   1       5.349   0.662  -0.731  0.00  0.00     0.031 H 
ENDBRANCH  23  25
ENDBRANCH   7  23
BRANCH   1  29
ATOM     29  C   LIG d   1       2.951   1.045  -4.071  0.00  0.00    -0.062 C 
ATOM     30  H   LIG d   1       2.697   1.358  -5.083  0.00  0.00     0.023 H 
ATOM     31  H   LIG d   1       2.049   1.018  -3.460  0.00  0.00     0.023 H 
ATOM     32  H   LIG d   1       3.660   1.752  -3.639  0.00  0.00     0.023 H 
ENDBRANCH   1  29
TORSDOF 6
ENDMDL
MODEL 2
REMARK VINA RESULT:      -5.1      1.416      3.710
REMARK  6 active torsions:
REMARK  status: ('A' for Active; 'I' for Inactive)
REMARK    1  A    between atoms: C_1  and  C_2 
REMARK    2  A    between atoms: C_6  and  C_13 
REMARK    3  A    between atoms: C_8  and  C_10 
REMARK    4  A    between atoms: C_10  and  C_12 
REMARK    5  A    between atoms: C_13  and  C_14 
REMARK    6  A    between atoms: C_13  and  C_15 
ROOT
ATOM      1  C   LIG d   1       5.725  -1.828  -3.324  0.00  0.00    -0.034 C 
ATOM      2  H   LIG d   1       6.200  -1.730  -2.348  0.00  0.00     0.030 H 
ATOM      3  C   LIG d   1       4.457  -2.711  -3.224  0.00  0.00    -0.050 C 
ATOM      4  C   LIG d   1       3.393  -1.723  -2.686  0.00  0.00    -0.049 C 
ATOM      5  C   LIG d   1       3.715  -0.394  -3.401  0.00  0.00    -0.029 C 
ATOM      6  H   LIG d   1       3.089  -0.287  -4.288  0.00  0.00     0.031 H 
ATOM      7  C   LIG d   1       5.198  -0.461  -3.807  0.00  0.00     0.023 C 
ATOM      8  H   LIG d   1       5.724   0.271  -3.376  0.00  0.00     0.038 H 
ATOM      9  H   LIG d   1       4.171  -3.090  -4.206  0.00  0.00     0.027 H 
ATOM     10  H   LIG d   1       4.612  -3.532  -2.523  0.00  0.00     0.027 H 
ATOM     11  H   LIG d   1       3.491  -1.608  -1.606  0.00  0.00     0.027 H 
ATOM     12  H   LIG d   1       2.391  -2.063  -2.944  0.00  0.00     0.027 H 
ENDROOT
BRANCH   5  13
ATOM     13  C   LIG d   1       3.484   0.783  -2.452  0.00  0.00    -0.043 C 
ATOM     14  H   LIG d   1       2.580   0.608  -1.868  0.00  0.00     0.030 H 
BRANCH  13  15
ATOM     15  C   LIG d   1       4.682   0.920  -1.509  0.00  0.00    -0.062 C 
ATOM     16  H   LIG d   1       5.269   0.001  -1.532  0.00  0.00     0.023 H 
ATOM     17  H   LIG d   1       5.303   1.756  -1.830  0.00  0.00     0.023 H 
ATOM     18  H   LIG d   1       4.327   1.098  -0.495  0.00  0.00     0.023 H 
ENDBRANCH  13  15
BRANCH  13  19
ATOM     19  C   LIG d   1       3.326   2.069  -3.264  0.00  0.00    -0.062 C 
ATOM     20  H   LIG d   1       4.126   2.134  -4.002  0.00  0.00     0.023 H 
ATOM     21  H   LIG d   1       2.362   2.063  -3.773  0.00  0.00     0.023 H 
ATOM     22  H   LIG d   1       3.379   2.930  -2.596  0.00  0.00     0.023 H 
ENDBRANCH  13  19
ENDBRANCH   5  13
BRANCH   7  23
ATOM     23  C   LIG d   1       5.327  -0.357  -5.305  0.00  0.00     0.134 C 
ATOM     24  O   LIG d   1       6.275   0.210  -5.792  0.00  0.00    -0.297 OA
BRANCH  23  25
ATOM     25  C   LIG d   1       4.272  -0.964  -6.195  0.00  0.00    -0.006 C 
ATOM     26  H   LIG d   1       4.666  -1.157  -7.095  0.00  0.00     0.031 H 
ATOM     27  H   LIG d   1       3.912  -1.892  -5.749  0.00  0.00     0.031 H 
ATOM     28  H   LIG d   1       3.443  -0.267  -6.303  0.00  0.00     0.031 H 
ENDBRANCH  23  25
ENDBRANCH   7  23
BRANCH   1  29
ATOM     29  C   LIG d   1       6.709  -2.411  -4.340  0.00  0.00    -0.062 C 
ATOM     30  H   LIG d   1       7.445  -1.654  -4.610  0.00  0.00     0.023 H 
ATOM     31  H   LIG d   1       7.217  -3.272  -3.902  0.00  0.00     0.023 H 
ATOM     32  H   LIG d   1       6.167  -2.726  -5.232  0.00  0.00     0.023 H 
ENDBRANCH   1  29
TORSDOF 6
ENDMDL
MODEL 3
REMARK VINA RESULT:      -5.0      1.856      4.181
REMARK  6 active torsions:
REMARK  status: ('A' for Active; 'I' for Inactive)
REMARK    1  A    between atoms: C_1  and  C_2 
REMARK    2  A    between atoms: C_6  and  C_13 
REMARK    3  A    between atoms: C_8  and  C_10 
REMARK    4  A    between atoms: C_10  and  C_12 
REMARK    5  A    between atoms: C_13  and  C_14 
REMARK    6  A    between atoms: C_13  and  C_15 
ROOT
ATOM      1  C   LIG d   1       5.531  -0.174  -3.326  0.00  0.00    -0.034 C 
ATOM      2  H   LIG d   1       5.951   0.631  -3.929  0.00  0.00     0.030 H 
ATOM      3  C   LIG d   1       4.872   0.395  -2.046  0.00  0.00    -0.050 C 
ATOM      4  C   LIG d   1       3.493   0.879  -2.557  0.00  0.00    -0.049 C 
ATOM      5  C   LIG d   1       3.074  -0.190  -3.587  0.00  0.00    -0.029 C 
ATOM      6  H   LIG d   1       2.427  -0.929  -3.115  0.00  0.00     0.031 H 
ATOM      7  C   LIG d   1       4.371  -0.860  -4.076  0.00  0.00     0.023 C 
ATOM      8  H   LIG d   1       4.491  -0.738  -5.060  0.00  0.00     0.038 H 
ATOM      9  H   LIG d   1       4.753  -0.384  -1.292  0.00  0.00     0.027 H 
ATOM     10  H   LIG d   1       5.452   1.230  -1.651  0.00  0.00     0.027 H 
ATOM     11  H   LIG d   1       3.584   1.854  -3.035  0.00  0.00     0.027 H 
ATOM     12  H   LIG d   1       2.775   0.922  -1.738  0.00  0.00     0.027 H 
ENDROOT
BRANCH   5  13
ATOM     13  C   LIG d   1       2.349   0.468  -4.762  0.00  0.00    -0.043 C 
ATOM     14  H   LIG d   1       1.307   0.147  -4.772  0.00  0.00     0.030 H 
BRANCH  13  15
ATOM     15  C   LIG d   1       2.414   1.990  -4.615  0.00  0.00    -0.062 C 
ATOM     16  H   LIG d   1       3.023   2.244  -3.747  0.00  0.00     0.023 H 
ATOM     17  H   LIG d   1       2.859   2.422  -5.511  0.00  0.00     0.023 H 
ATOM     18  H   LIG d   1       1.407   2.384  -4.481  0.00  0.00     0.023 H 
ENDBRANCH  13  15
BRANCH  13  19
ATOM     19  C   LIG d   1       3.022   0.054  -6.073  0.00  0.00    -0.062 C 
ATOM     20  H   LIG d   1       3.817  -0.661  -5.863  0.00  0.00     0.023 H 
ATOM     21  H   LIG d   1       2.285  -0.405  -6.731  0.00  0.00     0.023 H 
ATOM     22  H   LIG d   1       3.444   0.934  -6.558  0.00  0.00     0.023 H 
ENDBRANCH  13  19
ENDBRANCH   5  13
BRANCH   7  23
ATOM     23  C   LIG d   1       4.344  -2.332  -3.752  0.00  0.00     0.134 C 
ATOM     24  O   LIG d   1       3.830  -2.717  -2.730  0.00  0.00    -0.297 OA
BRANCH  23  25
ATOM     25  C   LIG d   1       4.958  -3.324  -4.707  0.00  0.00    -0.006 C 
ATOM     26  H   LIG d   1       5.311  -2.839  -5.509  0.00  0.00     0.031 H 
ATOM     27  H   LIG d   1       5.776  -3.847  -4.210  0.00  0.00     0.031 H 
ATOM     28  H   LIG d   1       4.203  -4.043  -5.021  0.00  0.00     0.031 H 
ENDBRANCH  23  25
ENDBRANCH   7  23
BRANCH   1  29
ATOM     29  C   LIG d   1       6.613  -1.194  -2.967  0.00  0.00    -0.062 C 
ATOM     30  H   LIG d   1       7.173  -1.461  -3.863  0.00  0.00     0.023 H 
ATOM     31  H   LIG d   1       7.290  -0.762  -2.230  0.00  0.00     0.023 H 
ATOM     32  H   LIG d   1       6.146  -2.088  -2.550  0.00  0.00     0.023 H 
ENDBRANCH   1  29
TORSDOF 6
ENDMDL
MODEL 4
REMARK VINA RESULT:      -4.9      1.404      1.910
REMARK  6 active torsions:
REMARK  status: ('A' for Active; 'I' for Inactive)
REMARK    1  A    between atoms: C_1  and  C_2 
REMARK    2  A    between atoms: C_6  and  C_13 
REMARK    3  A    between atoms: C_8  and  C_10 
REMARK    4  A    between atoms: C_10  and  C_12 
REMARK    5  A    between atoms: C_13  and  C_14 
REMARK    6  A    between atoms: C_13  and  C_15 
ROOT
ATOM      1  C   LIG d   1       3.780  -1.115  -3.878  0.00  0.00    -0.034 C 
ATOM      2  H   LIG d   1       3.736  -1.573  -4.867  0.00  0.00     0.030 H 
ATOM      3  C   LIG d   1       4.379  -2.106  -2.850  0.00  0.00    -0.050 C 
ATOM      4  C   LIG d   1       5.903  -1.976  -3.098  0.00  0.00    -0.049 C 
ATOM      5  C   LIG d   1       6.114  -0.474  -3.382  0.00  0.00    -0.029 C 
ATOM      6  H   LIG d   1       6.412   0.040  -2.468  0.00  0.00     0.031 H 
ATOM      7  C   LIG d   1       4.763   0.073  -3.878  0.00  0.00     0.023 C 
ATOM      8  H   LIG d   1       4.841   0.442  -4.803  0.00  0.00     0.038 H 
ATOM      9  H   LIG d   1       4.127  -1.806  -1.833  0.00  0.00     0.027 H 
ATOM     10  H   LIG d   1       4.041  -3.123  -3.050  0.00  0.00     0.027 H 
ATOM     11  H   LIG d   1       6.201  -2.572  -3.960  0.00  0.00     0.027 H 
ATOM     12  H   LIG d   1       6.461  -2.280  -2.213  0.00  0.00     0.027 H 
ENDROOT
BRANCH   5  13
ATOM     13  C   LIG d   1       7.183  -0.288  -4.460  0.00  0.00    -0.043 C 
ATOM     14  H   LIG d   1       7.862  -1.141  -4.450  0.00  0.00     0.030 H 
BRANCH  13  15
ATOM     15  C   LIG d   1       6.511  -0.186  -5.831  0.00  0.00    -0.062 C 
ATOM     16  H   LIG d   1       7.087  -0.757  -6.560  0.00  0.00     0.023 H 
ATOM     17  H   LIG d   1       5.501  -0.590  -5.771  0.00  0.00     0.023 H 
ATOM     18  H   LIG d   1       6.469   0.858  -6.138  0.00  0.00     0.023 H 
ENDBRANCH  13  15
BRANCH  13  19
ATOM     19  C   LIG d   1       7.969   0.994  -4.182  0.00  0.00    -0.062 C 
ATOM     20  H   LIG d   1       7.294   1.759  -3.796  0.00  0.00     0.023 H 
ATOM     21  H   LIG d   1       8.747   0.792  -3.446  0.00  0.00     0.023 H 
ATOM     22  H   LIG d   1       8.427   1.348  -5.106  0.00  0.00     0.023 H 
ENDBRANCH  13  19
ENDBRANCH   5  13
BRANCH   7  23
ATOM     23  C   LIG d   1       4.271   1.152  -2.947  0.00  0.00     0.134 C 
ATOM     24  O   LIG d   1       3.622   2.073  -3.379  0.00  0.00    -0.297 OA
BRANCH  23  25
ATOM     25  C   LIG d   1       4.588   1.076  -1.475  0.00  0.00    -0.006 C 
ATOM     26  H   LIG d   1       4.413   0.148  -1.144  0.00  0.00     0.031 H 
ATOM     27  H   LIG d   1       5.637   1.327  -1.317  0.00  0.00     0.031 H 
ATOM     28  H   LIG d   1       3.960   1.780  -0.931  0.00  0.00     0.031 H 
ENDBRANCH  23  25
ENDBRANCH   7  23
BRANCH   1  29
ATOM     29  C   LIG d   1       2.388  -0.658  -3.438  0.00  0.00    -0.062 C 
ATOM     30  H   LIG d   1       2.092   0.216  -4.017  0.00  0.00     0.023 H 
ATOM     31  H   LIG d   1       1.672  -1.464  -3.604  0.00  0.00     0.023 H 
ATOM     32  H   LIG d   1       2.408  -0.403  -2.378  0.00  0.00     0.023 H 
ENDBRANCH   1  29
TORSDOF 6
ENDMDL
MODEL 5
REMARK VINA RESULT:      -4.9      2.055      3.357
REMARK  6 active torsions:
REMARK  status: ('A' for Active; 'I' for Inactive)
REMARK    1  A    between atoms: C_1  and  C_2 
REMARK    2  A    between atoms: C_6  and  C_13 
REMARK    3  A    between atoms: C_8  and  C_10 
REMARK    4  A    between atoms: C_10  and  C_12 
REMARK    5  A    between atoms: C_13  and  C_14 
REMARK    6  A    between atoms: C_13  and  C_15 
ROOT
ATOM      1  C   LIG d   1       4.739  -1.182  -2.160  0.00  0.00    -0.034 C 
ATOM      2  H   LIG d   1       5.412  -1.433  -1.341  0.00  0.00     0.030 H 
ATOM      3  C   LIG d   1       4.225   0.271  -2.012  0.00  0.00    -0.050 C 
ATOM      4  C   LIG d   1       5.400   1.109  -2.576  0.00  0.00    -0.049 C 
ATOM      5  C   LIG d   1       5.921   0.277  -3.766  0.00  0.00    -0.029 C 
ATOM      6  H   LIG d   1       5.473   0.632  -4.694  0.00  0.00     0.031 H 
ATOM      7  C   LIG d   1       5.500  -1.180  -3.502  0.00  0.00     0.023 C 
ATOM      8  H   LIG d   1       6.297  -1.779  -3.434  0.00  0.00     0.038 H 
ATOM      9  H   LIG d   1       3.323   0.425  -2.605  0.00  0.00     0.027 H 
ATOM     10  H   LIG d   1       4.046   0.514  -0.964  0.00  0.00     0.027 H 
ATOM     11  H   LIG d   1       6.180   1.227  -1.823  0.00  0.00     0.027 H 
ATOM     12  H   LIG d   1       5.047   2.082  -2.916  0.00  0.00     0.027 H 
ENDROOT
BRANCH   5  13
ATOM     13  C   LIG d   1       7.445   0.375  -3.849  0.00  0.00    -0.043 C 
ATOM     14  H   LIG d   1       7.889  -0.123  -2.987  0.00  0.00     0.030 H 
BRANCH  13  15
ATOM     15  C   LIG d   1       7.930  -0.300  -5.134  0.00  0.00    -0.062 C 
ATOM     16  H   LIG d   1       7.726  -1.370  -5.081  0.00  0.00     0.023 H 
ATOM     17  H   LIG d   1       7.406   0.128  -5.989  0.00  0.00     0.023 H 
ATOM     18  H   LIG d   1       9.002  -0.140  -5.246  0.00  0.00     0.023 H 
ENDBRANCH  13  15
BRANCH  13  19
ATOM     19  C   LIG d   1       7.862   1.847  -3.859  0.00  0.00    -0.062 C 
ATOM     20  H   LIG d   1       8.390   2.081  -2.934  0.00  0.00     0.023 H 
ATOM     21  H   LIG d   1       8.517   2.034  -4.709  0.00  0.00     0.023 H 
ATOM     22  H   LIG d   1       6.974   2.475  -3.939  0.00  0.00     0.023 H 
ENDBRANCH  13  19
ENDBRANCH   5  13
BRANCH   7  23
ATOM     23  C   LIG d   1       4.599  -1.665  -4.608  0.00  0.00     0.134 C 
ATOM     24  O   LIG d   1       4.400  -2.847  -4.751  0.00  0.00    -0.297 OA
BRANCH  23  25
ATOM     25  C   LIG d   1       3.945  -0.672  -5.535  0.00  0.00    -0.006 C 
ATOM     26  H   LIG d   1       2.977  -0.901  -5.639  0.00  0.00     0.031 H 
ATOM     27  H   LIG d   1       4.039   0.331  -5.117  0.00  0.00     0.031 H 
ATOM     28  H   LIG d   1       4.433  -0.707  -6.508  0.00  0.00     0.031 H 
ENDBRANCH  23  25
ENDBRANCH   7  23
BRANCH   1  29
ATOM     29  C   LIG d   1       3.568  -2.165  -2.211  0.00  0.00    -0.062 C 
ATOM     30  H   LIG d   1       3.721  -2.952  -1.473  0.00  0.00     0.023 H 
ATOM     31  H   LIG d   1       2.640  -1.636  -1.992  0.00  0.00     0.023 H 
ATOM     32  H   LIG d   1       3.507  -2.607  -3.206  0.00  0.00     0.023 H 
ENDBRANCH   1  29
TORSDOF 6
ENDMDL
MODEL 6
REMARK VINA RESULT:      -4.7      2.261      4.135
REMARK  6 active torsions:
REMARK  status: ('A' for Active; 'I' for Inactive)
REMARK    1  A    between atoms: C_1  and  C_2 
REMARK    2  A    between atoms: C_6  and  C_13 
REMARK    3  A    between atoms: C_8  and  C_10 
REMARK    4  A    between atoms: C_10  and  C_12 
REMARK    5  A    between atoms: C_13  and  C_14 
REMARK    6  A    between atoms: C_13  and  C_15 
ROOT
ATOM      1  C   LIG d   1       5.232  -0.636  -5.501  0.00  0.00    -0.034 C 
ATOM      2  H   LIG d   1       4.505   0.164  -5.640  0.00  0.00     0.030 H 
ATOM      3  C   LIG d   1       6.568  -0.067  -4.966  0.00  0.00    -0.050 C 
ATOM      4  C   LIG d   1       6.291   0.093  -3.451  0.00  0.00    -0.049 C 
ATOM      5  C   LIG d   1       5.436  -1.139  -3.091  0.00  0.00    -0.029 C 
ATOM      6  H   LIG d   1       6.072  -1.932  -2.697  0.00  0.00     0.031 H 
ATOM      7  C   LIG d   1       4.762  -1.603  -4.395  0.00  0.00     0.023 C 
ATOM      8  H   LIG d   1       3.767  -1.566  -4.319  0.00  0.00     0.038 H 
ATOM      9  H   LIG d   1       7.384  -0.770  -5.138  0.00  0.00     0.027 H 
ATOM     10  H   LIG d   1       6.787   0.899  -5.423  0.00  0.00     0.027 H 
ATOM     11  H   LIG d   1       5.736   1.011  -3.260  0.00  0.00     0.027 H 
ATOM     12  H   LIG d   1       7.225   0.088  -2.889  0.00  0.00     0.027 H 
ENDROOT
BRANCH   5  13
ATOM     13  C   LIG d   1       4.373  -0.759  -2.059  0.00  0.00    -0.043 C 
ATOM     14  H   LIG d   1       4.510  -1.357  -1.158  0.00  0.00     0.030 H 
BRANCH  13  15
ATOM     15  C   LIG d   1       4.509   0.726  -1.710  0.00  0.00    -0.062 C 
ATOM     16  H   LIG d   1       4.169   1.328  -2.553  0.00  0.00     0.023 H 
ATOM     17  H   LIG d   1       3.900   0.950  -0.835  0.00  0.00     0.023 H 
ATOM     18  H   LIG d   1       5.553   0.954  -1.497  0.00  0.00     0.023 H 
ENDBRANCH  13  15
BRANCH  13  19
ATOM     19  C   LIG d   1       2.982  -1.021  -2.638  0.00  0.00    -0.062 C 
ATOM     20  H   LIG d   1       2.969  -1.996  -3.126  0.00  0.00     0.023 H 
ATOM     21  H   LIG d   1       2.245  -1.006  -1.836  0.00  0.00     0.023 H 
ATOM     22  H   LIG d   1       2.741  -0.247  -3.368  0.00  0.00     0.023 H 
ENDBRANCH  13  19
ENDBRANCH   5  13
BRANCH   7  23
ATOM     23  C   LIG d   1       5.190  -3.011  -4.723  0.00  0.00     0.134 C 
ATOM     24  O   LIG d   1       4.379  -3.811  -5.123  0.00  0.00    -0.297 OA
BRANCH  23  25
ATOM     25  C   LIG d   1       6.631  -3.418  -4.552  0.00  0.00    -0.006 C 
ATOM     26  H   LIG d   1       6.801  -4.264  -5.060  0.00  0.00     0.031 H 
ATOM     27  H   LIG d   1       7.278  -2.628  -4.935  0.00  0.00     0.031 H 
ATOM     28  H   LIG d   1       6.841  -3.580  -3.496  0.00  0.00     0.031 H 
ENDBRANCH  23  25
ENDBRANCH   7  23
BRANCH   1  29
ATOM     29  C   LIG d   1       5.453  -1.391  -6.813  0.00  0.00    -0.062 C 
ATOM     30  H   LIG d   1       6.358  -1.023  -7.296  0.00  0.00     0.023 H 
ATOM     31  H   LIG d   1       5.558  -2.456  -6.606  0.00  0.00     0.023 H 
ATOM     32  H   LIG d   1       4.599  -1.232  -7.472  0.00  0.00     0.023 H 
ENDBRANCH   1  29
TORSDOF 6
ENDMDL
MODEL 7
REMARK VINA RESULT:      -4.7      1.649      2.738
REMARK  6 active torsions:
REMARK  status: ('A' for Active; 'I' for Inactive)
REMARK    1  A    between atoms: C_1  and  C_2 
REMARK    2  A    between atoms: C_6  and  C_13 
REMARK    3  A    between atoms: C_8  and  C_10 
REMARK    4  A    between atoms: C_10  and  C_12 
REMARK    5  A    between atoms: C_13  and  C_14 
REMARK    6  A    between atoms: C_13  and  C_15 
ROOT
ATOM      1  C   LIG d   1       5.131   0.305  -2.277  0.00  0.00    -0.034 C 
ATOM      2  H   LIG d   1       5.625  -0.005  -1.356  0.00  0.00     0.030 H 
ATOM      3  C   LIG d   1       6.143   0.983  -3.233  0.00  0.00    -0.050 C 
ATOM      4  C   LIG d   1       6.854  -0.225  -3.892  0.00  0.00    -0.049 C 
ATOM      5  C   LIG d   1       5.731  -1.264  -4.090  0.00  0.00    -0.029 C 
ATOM      6  H   LIG d   1       5.329  -1.192  -5.101  0.00  0.00     0.031 H 
ATOM      7  C   LIG d   1       4.634  -0.927  -3.062  0.00  0.00     0.023 C 
ATOM      8  H   LIG d   1       4.485  -1.687  -2.431  0.00  0.00     0.038 H 
ATOM      9  H   LIG d   1       5.625   1.582  -3.983  0.00  0.00     0.027 H 
ATOM     10  H   LIG d   1       6.854   1.592  -2.675  0.00  0.00     0.027 H 
ATOM     11  H   LIG d   1       7.626  -0.620  -3.232  0.00  0.00     0.027 H 
ATOM     12  H   LIG d   1       7.283   0.061  -4.852  0.00  0.00     0.027 H 
ENDROOT
BRANCH   5  13
ATOM     13  C   LIG d   1       6.268  -2.674  -3.838  0.00  0.00    -0.043 C 
ATOM     14  H   LIG d   1       5.901  -3.037  -2.877  0.00  0.00     0.030 H 
BRANCH  13  15
ATOM     15  C   LIG d   1       5.790  -3.608  -4.952  0.00  0.00    -0.062 C 
ATOM     16  H   LIG d   1       5.896  -3.108  -5.915  0.00  0.00     0.023 H 
ATOM     17  H   LIG d   1       6.393  -4.517  -4.947  0.00  0.00     0.023 H 
ATOM     18  H   LIG d   1       4.744  -3.863  -4.788  0.00  0.00     0.023 H 
ENDBRANCH  13  15
BRANCH  13  19
ATOM     19  C   LIG d   1       7.797  -2.641  -3.821  0.00  0.00    -0.062 C 
ATOM     20  H   LIG d   1       8.181  -3.144  -4.709  0.00  0.00     0.023 H 
ATOM     21  H   LIG d   1       8.139  -1.607  -3.813  0.00  0.00     0.023 H 
ATOM     22  H   LIG d   1       8.162  -3.152  -2.929  0.00  0.00     0.023 H 
ENDBRANCH  13  19
ENDBRANCH   5  13
BRANCH   7  23
ATOM     23  C   LIG d   1       3.345  -0.602  -3.773  0.00  0.00     0.134 C 
ATOM     24  O   LIG d   1       2.288  -0.778  -3.217  0.00  0.00    -0.297 OA
BRANCH  23  25
ATOM     25  C   LIG d   1       3.377  -0.057  -5.178  0.00  0.00    -0.006 C 
ATOM     26  H   LIG d   1       3.219  -0.801  -5.828  0.00  0.00     0.031 H 
ATOM     27  H   LIG d   1       2.598   0.697  -5.292  0.00  0.00     0.031 H 
ATOM     28  H   LIG d   1       4.350   0.393  -5.371  0.00  0.00     0.031 H 
ENDBRANCH  23  25
ENDBRANCH   7  23
BRANCH   1  29
ATOM     29  C   LIG d   1       3.966   1.247  -1.969  0.00  0.00    -0.062 C 
ATOM     30  H   LIG d   1       3.770   1.879  -2.835  0.00  0.00     0.023 H 
ATOM     31  H   LIG d   1       3.077   0.662  -1.735  0.00  0.00     0.023 H 
ATOM     32  H   LIG d   1       4.223   1.873  -1.113  0.00  0.00     0.023 H 
ENDBRANCH   1  29
TORSDOF 6
ENDMDL
MODEL 8
REMARK VINA RESULT:      -4.6      1.522      3.703
REMARK  6 active torsions:
REMARK  status: ('A' for Active; 'I' for Inactive)
REMARK    1  A    between atoms: C_1  and  C_2 
REMARK    2  A    between atoms: C_6  and  C_13 
REMARK    3  A    between atoms: C_8  and  C_10 
REMARK    4  A    between atoms: C_10  and  C_12 
REMARK    5  A    between atoms: C_13  and  C_14 
REMARK    6  A    between atoms: C_13  and  C_15 
ROOT
ATOM      1  C   LIG d   1       7.055  -2.155  -3.678  0.00  0.00    -0.034 C 
ATOM      2  H   LIG d   1       7.196  -2.702  -2.746  0.00  0.00     0.030 H 
ATOM      3  C   LIG d   1       6.073  -2.910  -4.606  0.00  0.00    -0.050 C 
ATOM      4  C   LIG d   1       4.689  -2.512  -4.037  0.00  0.00    -0.049 C 
ATOM      5  C   LIG d   1       4.855  -1.031  -3.638  0.00  0.00    -0.029 C 
ATOM      6  H   LIG d   1       4.498  -0.386  -4.441  0.00  0.00     0.031 H 
ATOM      7  C   LIG d   1       6.360  -0.804  -3.409  0.00  0.00     0.023 C 
ATOM      8  H   LIG d   1       6.544  -0.515  -2.471  0.00  0.00     0.038 H 
ATOM      9  H   LIG d   1       6.178  -2.572  -5.637  0.00  0.00     0.027 H 
ATOM     10  H   LIG d   1       6.224  -3.988  -4.535  0.00  0.00     0.027 H 
ATOM     11  H   LIG d   1       4.448  -3.117  -3.163  0.00  0.00     0.027 H 
ATOM     12  H   LIG d   1       3.917  -2.618  -4.799  0.00  0.00     0.027 H 
ENDROOT
BRANCH   5  13
ATOM     13  C   LIG d   1       4.081  -0.743  -2.350  0.00  0.00    -0.043 C 
ATOM     14  H   LIG d   1       4.290  -1.523  -1.618  0.00  0.00     0.030 H 
BRANCH  13  15
ATOM     15  C   LIG d   1       4.513   0.613  -1.788  0.00  0.00    -0.062 C 
ATOM     16  H   LIG d   1       3.873   0.877  -0.946  0.00  0.00     0.023 H 
ATOM     17  H   LIG d   1       5.548   0.555  -1.454  0.00  0.00     0.023 H 
ATOM     18  H   LIG d   1       4.423   1.373  -2.564  0.00  0.00     0.023 H 
ENDBRANCH  13  15
BRANCH  13  19
ATOM     19  C   LIG d   1       2.581  -0.715  -2.652  0.00  0.00    -0.062 C 
ATOM     20  H   LIG d   1       2.387  -0.016  -3.466  0.00  0.00     0.023 H 
ATOM     21  H   LIG d   1       2.250  -1.712  -2.943  0.00  0.00     0.023 H 
ATOM     22  H   LIG d   1       2.037  -0.397  -1.763  0.00  0.00     0.023 H 
ENDBRANCH  13  19
ENDBRANCH   5  13
BRANCH   7  23
ATOM     23  C   LIG d   1       6.875   0.241  -4.367  0.00  0.00     0.134 C 
ATOM     24  O   LIG d   1       6.464   0.276  -5.501  0.00  0.00    -0.297 OA
BRANCH  23  25
ATOM     25  C   LIG d   1       7.902   1.243  -3.905  0.00  0.00    -0.006 C 
ATOM     26  H   LIG d   1       7.438   2.042  -3.519  0.00  0.00     0.031 H 
ATOM     27  H   LIG d   1       8.535   0.788  -3.142  0.00  0.00     0.031 H 
ATOM     28  H   LIG d   1       8.515   1.552  -4.750  0.00  0.00     0.031 H 
ENDBRANCH  23  25
ENDBRANCH   7  23
BRANCH   1  29
ATOM     29  C   LIG d   1       8.398  -1.937  -4.377  0.00  0.00    -0.062 C 
ATOM     30  H   LIG d   1       9.160  -2.554  -3.903  0.00  0.00     0.023 H 
ATOM     31  H   LIG d   1       8.309  -2.211  -5.429  0.00  0.00     0.023 H 
ATOM     32  H   LIG d   1       8.681  -0.886  -4.299  0.00  0.00     0.023 H 
ENDBRANCH   1  29
TORSDOF 6
ENDMDL
MODEL 9
REMARK VINA RESULT:      -4.6      1.792      3.066
REMARK  6 active torsions:
REMARK  status: ('A' for Active; 'I' for Inactive)
REMARK    1  A    between atoms: C_1  and  C_2 
REMARK    2  A    between atoms: C_6  and  C_13 
REMARK    3  A    between atoms: C_8  and  C_10 
REMARK    4  A    between atoms: C_10  and  C_12 
REMARK    5  A    between atoms: C_13  and  C_14 
REMARK    6  A    between atoms: C_13  and  C_15 
ROOT
ATOM      1  C   LIG d   1       3.944  -2.018  -3.606  0.00  0.00    -0.034 C 
ATOM      2  H   LIG d   1       3.037  -2.502  -3.969  0.00  0.00     0.030 H 
ATOM      3  C   LIG d   1       5.199  -2.750  -4.140  0.00  0.00    -0.050 C 
ATOM      4  C   LIG d   1       5.340  -2.185  -5.576  0.00  0.00    -0.049 C 
ATOM      5  C   LIG d   1       4.950  -0.699  -5.438  0.00  0.00    -0.029 C 
ATOM      6  H   LIG d   1       5.844  -0.088  -5.315  0.00  0.00     0.031 H 
ATOM      7  C   LIG d   1       4.061  -0.593  -4.185  0.00  0.00     0.023 C 
ATOM      8  H   LIG d   1       3.152  -0.250  -4.416  0.00  0.00     0.038 H 
ATOM      9  H   LIG d   1       6.075  -2.503  -3.540  0.00  0.00     0.027 H 
ATOM     10  H   LIG d   1       5.037  -3.828  -4.164  0.00  0.00     0.027 H 
ATOM     11  H   LIG d   1       4.659  -2.697  -6.255  0.00  0.00     0.027 H 
ATOM     12  H   LIG d   1       6.369  -2.279  -5.924  0.00  0.00     0.027 H 
ENDROOT
BRANCH   5  13
ATOM     13  C   LIG d   1       4.170  -0.244  -6.673  0.00  0.00    -0.043 C 
ATOM     14  H   LIG d   1       4.720   0.552  -7.177  0.00  0.00     0.030 H 
BRANCH  13  15
ATOM     15  C   LIG d   1       3.993  -1.426  -7.629  0.00  0.00    -0.062 C 
ATOM     16  H   LIG d   1       4.028  -1.069  -8.658  0.00  0.00     0.023 H 
ATOM     17  H   LIG d   1       4.794  -2.147  -7.467  0.00  0.00     0.023 H 
ATOM     18  H   LIG d   1       3.031  -1.902  -7.442  0.00  0.00     0.023 H 
ENDBRANCH  13  15
BRANCH  13  19
ATOM     19  C   LIG d   1       2.797   0.276  -6.246  0.00  0.00    -0.062 C 
ATOM     20  H   LIG d   1       2.494   1.088  -6.908  0.00  0.00     0.023 H 
ATOM     21  H   LIG d   1       2.067  -0.532  -6.304  0.00  0.00     0.023 H 
ATOM     22  H   LIG d   1       2.850   0.645  -5.221  0.00  0.00     0.023 H 
ENDBRANCH  13  19
ENDBRANCH   5  13
BRANCH   7  23
ATOM     23  C   LIG d   1       4.702   0.325  -3.176  0.00  0.00     0.134 C 
ATOM     24  O   LIG d   1       5.904   0.351  -3.060  0.00  0.00    -0.297 OA
BRANCH  23  25
ATOM     25  C   LIG d   1       3.841   1.210  -2.311  0.00  0.00    -0.006 C 
ATOM     26  H   LIG d   1       2.902   0.865  -2.312  0.00  0.00     0.031 H 
ATOM     27  H   LIG d   1       4.229   1.208  -1.292  0.00  0.00     0.031 H 
ATOM     28  H   LIG d   1       3.855   2.226  -2.703  0.00  0.00     0.031 H 
ENDBRANCH  23  25
ENDBRANCH   7  23
BRANCH   1  29
ATOM     29  C   LIG d   1       3.953  -1.976  -2.077  0.00  0.00    -0.062 C 
ATOM     30  H   LIG d   1       3.748  -0.961  -1.740  0.00  0.00     0.023 H 
ATOM     31  H   LIG d   1       3.189  -2.651  -1.691  0.00  0.00     0.023 H 
ATOM     32  H   LIG d   1       4.932  -2.290  -1.712  0.00  0.00     0.023 H 
ENDBRANCH   1  29
TORSDOF 6
ENDMDL
MODEL 10
REMARK VINA RESULT:      -4.6      1.683      3.423
REMARK  6 active torsions:
REMARK  status: ('A' for Active; 'I' for Inactive)
REMARK    1  A    between atoms: C_1  and  C_2 
REMARK    2  A    between atoms: C_6  and  C_13 
REMARK    3  A    between atoms: C_8  and  C_10 
REMARK    4  A    between atoms: C_10  and  C_12 
REMARK    5  A    between atoms: C_13  and  C_14 
REMARK    6  A    between atoms: C_13  and  C_15 
ROOT
ATOM      1  C   LIG d   1       4.155  -1.321  -5.838  0.00  0.00    -0.034 C 
ATOM      2  H   LIG d   1       3.532  -2.178  -5.582  0.00  0.00     0.030 H 
ATOM      3  C   LIG d   1       3.276  -0.112  -6.239  0.00  0.00    -0.050 C 
ATOM      4  C   LIG d   1       2.848   0.470  -4.869  0.00  0.00    -0.049 C 
ATOM      5  C   LIG d   1       4.099   0.309  -3.982  0.00  0.00    -0.029 C 
ATOM      6  H   LIG d   1       4.677   1.234  -3.979  0.00  0.00     0.031 H 
ATOM      7  C   LIG d   1       4.931  -0.831  -4.598  0.00  0.00     0.023 C 
ATOM      8  H   LIG d   1       5.042  -1.586  -3.953  0.00  0.00     0.038 H 
ATOM      9  H   LIG d   1       3.857   0.618  -6.804  0.00  0.00     0.027 H 
ATOM     10  H   LIG d   1       2.405  -0.439  -6.809  0.00  0.00     0.027 H 
ATOM     11  H   LIG d   1       2.013  -0.097  -4.458  0.00  0.00     0.027 H 
ATOM     12  H   LIG d   1       2.582   1.523  -4.967  0.00  0.00     0.027 H 
ENDROOT
BRANCH   5  13
ATOM     13  C   LIG d   1       3.688  -0.055  -2.554  0.00  0.00    -0.043 C 
ATOM     14  H   LIG d   1       2.629   0.163  -2.414  0.00  0.00     0.030 H 
BRANCH  13  15
ATOM     15  C   LIG d   1       3.938  -1.547  -2.316  0.00  0.00    -0.062 C 
ATOM     16  H   LIG d   1       3.025  -2.105  -2.528  0.00  0.00     0.023 H 
ATOM     17  H   LIG d   1       4.735  -1.890  -2.975  0.00  0.00     0.023 H 
ATOM     18  H   LIG d   1       4.228  -1.705  -1.279  0.00  0.00     0.023 H 
ENDBRANCH  13  15
BRANCH  13  19
ATOM     19  C   LIG d   1       4.514   0.764  -1.561  0.00  0.00    -0.062 C 
ATOM     20  H   LIG d   1       3.870   1.493  -1.067  0.00  0.00     0.023 H 
ATOM     21  H   LIG d   1       4.949   0.099  -0.814  0.00  0.00     0.023 H 
ATOM     22  H   LIG d   1       5.310   1.285  -2.093  0.00  0.00     0.023 H 
ENDBRANCH  13  19
ENDBRANCH   5  13
BRANCH   7  23
ATOM     23  C   LIG d   1       6.288  -0.315  -5.007  0.00  0.00     0.134 C 
ATOM     24  O   LIG d   1       6.384   0.740  -5.584  0.00  0.00    -0.297 OA
BRANCH  23  25
ATOM     25  C   LIG d   1       7.523  -1.120  -4.692  0.00  0.00    -0.006 C 
ATOM     26  H   LIG d   1       8.206  -0.975  -5.409  0.00  0.00     0.031 H 
ATOM     27  H   LIG d   1       7.930  -0.799  -3.732  0.00  0.00     0.031 H 
ATOM     28  H   LIG d   1       7.267  -2.177  -4.643  0.00  0.00     0.031 H 
ENDBRANCH  23  25
ENDBRANCH   7  23
BRANCH   1  29
ATOM     29  C   LIG d   1       5.123  -1.682  -6.966  0.00  0.00    -0.062 C 
ATOM     30  H   LIG d   1       6.063  -1.150  -6.823  0.00  0.00     0.023 H 
ATOM     31  H   LIG d   1       5.308  -2.756  -6.957  0.00  0.00     0.023 H 
ATOM     32  H   LIG d   1       4.686  -1.398  -7.924  0.00  0.00     0.023 H 
ENDBRANCH   1  29
TORSDOF 6
ENDMDL
