MODEL 1
REMARK VINA RESULT:      -7.0      0.000      0.000
REMARK  7 active torsions:
REMARK  status: ('A' for Active; 'I' for Inactive)
REMARK    1  A    between atoms: C_1  and  O_2 
REMARK    2  A    between atoms: O_2  and  C_3 
REMARK       I    between atoms: N_15  and  C_17 
REMARK    3  A    between atoms: C_17  and  C_19 
REMARK    4  A    between atoms: C_19  and  C_20 
REMARK    5  A    between atoms: C_20  and  C_21 
REMARK       I    between atoms: C_21  and  N_23 
REMARK    6  A    between atoms: N_23  and  C_24 
REMARK    7  A    between atoms: C_24  and  C_25 
ROOT
ATOM      1  C   LIG d   1      10.560   7.080  -0.500  0.00  0.00     0.121 A 
ATOM      2  C   LIG d   1      10.702   8.243  -1.252  0.00  0.00    -0.018 A 
ATOM      3  C   LIG d   1      10.579   8.210  -2.623  0.00  0.00    -0.034 A 
ATOM      4  C   LIG d   1      10.309   7.008  -3.269  0.00  0.00     0.047 A 
ATOM      5  C   LIG d   1      10.164   5.830  -2.512  0.00  0.00     0.008 A 
ATOM      6  C   LIG d   1      10.291   5.877  -1.121  0.00  0.00    -0.011 A 
ATOM      7  C   LIG d   1       9.891   4.769  -3.474  0.00  0.00    -0.002 A 
ATOM      8  C   LIG d   1       9.876   5.327  -4.700  0.00  0.00     0.023 A 
ATOM      9  N   LIG d   1      10.134   6.665  -4.594  0.00  0.00    -0.358 N 
ATOM     10  H   LIG d   1      10.212   7.435  -5.377  0.00  0.00     0.166 HD
ATOM     11  C   LIG d   1       9.623   4.558  -5.976  0.00  0.00     0.004 C 
ATOM     12  C   LIG d   1       9.837   3.064  -5.709  0.00  0.00     0.020 C 
ATOM     13  N   LIG d   1       9.167   2.697  -4.452  0.00  0.00    -0.297 N 
ATOM     14  C   LIG d   1       9.657   3.305  -3.201  0.00  0.00     0.042 C 
ATOM     15  C   LIG d   1       8.134   1.831  -4.444  0.00  0.00     0.216 C 
ATOM     16  O   LIG d   1       7.595   1.541  -3.397  0.00  0.00    -0.276 OA
ATOM     17  H   LIG d   1      10.912   9.179  -0.756  0.00  0.00     0.066 H 
ATOM     18  H   LIG d   1      10.693   9.118  -3.197  0.00  0.00     0.064 H 
ATOM     19  H   LIG d   1      10.182   4.976  -0.536  0.00  0.00     0.066 H 
ATOM     20  H   LIG d   1       8.590   4.731  -6.310  0.00  0.00     0.034 H 
ATOM     21  H   LIG d   1      10.322   4.899  -6.755  0.00  0.00     0.034 H 
ATOM     22  H   LIG d   1       9.412   2.479  -6.538  0.00  0.00     0.047 H 
ATOM     23  H   LIG d   1      10.914   2.856  -5.628  0.00  0.00     0.047 H 
ATOM     24  H   LIG d   1      10.601   2.835  -2.888  0.00  0.00     0.051 H 
ATOM     25  H   LIG d   1       8.910   3.195  -2.400  0.00  0.00     0.051 H 
ENDROOT
BRANCH  15  26
ATOM     26  C   LIG d   1       7.651   1.224  -5.735  0.00  0.00     0.032 C 
ATOM     27  H   LIG d   1       6.632   1.578  -5.949  0.00  0.00     0.036 H 
ATOM     28  H   LIG d   1       8.322   1.520  -6.554  0.00  0.00     0.036 H 
BRANCH  26  29
ATOM     29  C   LIG d   1       7.644  -0.302  -5.610  0.00  0.00     0.032 C 
ATOM     30  H   LIG d   1       8.077  -0.746  -6.519  0.00  0.00     0.036 H 
ATOM     31  H   LIG d   1       8.241  -0.601  -4.737  0.00  0.00     0.036 H 
BRANCH  29  32
ATOM     32  C   LIG d   1       6.228  -0.786  -5.440  0.00  0.00     0.214 C 
ATOM     33  O   LIG d   1       6.010  -1.963  -5.237  0.00  0.00    -0.276 OA
ATOM     34  N   LIG d   1       5.204   0.086  -5.512  0.00  0.00    -0.313 N 
ATOM     35  H   LIG d   1       5.401   1.152  -5.697  0.00  0.00     0.149 HD
BRANCH  34  36
ATOM     36  C   LIG d   1       3.826  -0.386  -5.347  0.00  0.00     0.038 C 
ATOM     37  H   LIG d   1       3.198   0.027  -6.150  0.00  0.00     0.049 H 
ATOM     38  H   LIG d   1       3.806  -1.484  -5.395  0.00  0.00     0.049 H 
BRANCH  36  39
ATOM     39  C   LIG d   1       3.288   0.076  -3.991  0.00  0.00     0.074 C 
ATOM     40  H   LIG d   1       2.243   0.400  -4.098  0.00  0.00     0.061 H 
ATOM     41  O   LIG d   1       4.043   1.208  -3.526  0.00  0.00    -0.375 OA
ATOM     42  C   LIG d   1       4.114   1.106  -2.088  0.00  0.00     0.048 C 
ATOM     43  C   LIG d   1       4.335  -0.409  -1.844  0.00  0.00    -0.027 C 
ATOM     44  H   LIG d   1       3.181   1.424  -1.600  0.00  0.00     0.056 H 
ATOM     45  H   LIG d   1       4.959   1.672  -1.669  0.00  0.00     0.056 H 
ATOM     46  C   LIG d   1       3.459  -1.047  -2.949  0.00  0.00    -0.023 C 
ATOM     47  H   LIG d   1       3.979  -0.741  -0.857  0.00  0.00     0.029 H 
ATOM     48  H   LIG d   1       5.381  -0.718  -1.980  0.00  0.00     0.029 H 
ATOM     49  H   LIG d   1       2.471  -1.350  -2.571  0.00  0.00     0.029 H 
ATOM     50  H   LIG d   1       3.952  -1.911  -3.419  0.00  0.00     0.029 H 
ENDBRANCH  36  39
ENDBRANCH  34  36
ENDBRANCH  29  32
ENDBRANCH  26  29
ENDBRANCH  15  26
BRANCH   1  51
ATOM     51  O   LIG d   1      10.685   7.129   0.854  0.00  0.00    -0.495 OA
BRANCH  51  52
ATOM     52  C   LIG d   1      11.021   5.909   1.518  0.00  0.00     0.079 C 
ATOM     53  H   LIG d   1      10.174   5.586   2.141  0.00  0.00     0.066 H 
ATOM     54  H   LIG d   1      11.904   6.069   2.154  0.00  0.00     0.066 H 
ATOM     55  H   LIG d   1      11.243   5.134   0.770  0.00  0.00     0.066 H 
ENDBRANCH  51  52
ENDBRANCH   1  51
TORSDOF 7
ENDMDL
MODEL 2
REMARK VINA RESULT:      -7.0      5.785      8.121
REMARK  7 active torsions:
REMARK  status: ('A' for Active; 'I' for Inactive)
REMARK    1  A    between atoms: C_1  and  O_2 
REMARK    2  A    between atoms: O_2  and  C_3 
REMARK       I    between atoms: N_15  and  C_17 
REMARK    3  A    between atoms: C_17  and  C_19 
REMARK    4  A    between atoms: C_19  and  C_20 
REMARK    5  A    between atoms: C_20  and  C_21 
REMARK       I    between atoms: C_21  and  N_23 
REMARK    6  A    between atoms: N_23  and  C_24 
REMARK    7  A    between atoms: C_24  and  C_25 
ROOT
ATOM      1  C   LIG d   1      10.037  -3.200  -5.560  0.00  0.00     0.121 A 
ATOM      2  C   LIG d   1       9.498  -4.317  -6.193  0.00  0.00    -0.018 A 
ATOM      3  C   LIG d   1       8.163  -4.623  -6.054  0.00  0.00    -0.034 A 
ATOM      4  C   LIG d   1       7.339  -3.815  -5.278  0.00  0.00     0.047 A 
ATOM      5  C   LIG d   1       7.880  -2.684  -4.637  0.00  0.00     0.008 A 
ATOM      6  C   LIG d   1       9.237  -2.384  -4.785  0.00  0.00    -0.011 A 
ATOM      7  C   LIG d   1       6.773  -2.065  -3.919  0.00  0.00    -0.002 A 
ATOM      8  C   LIG d   1       5.673  -2.805  -4.153  0.00  0.00     0.023 A 
ATOM      9  N   LIG d   1       5.998  -3.861  -4.959  0.00  0.00    -0.358 N 
ATOM     10  H   LIG d   1       5.367  -4.675  -5.348  0.00  0.00     0.166 HD
ATOM     11  C   LIG d   1       4.307  -2.493  -3.587  0.00  0.00     0.004 C 
ATOM     12  C   LIG d   1       4.465  -1.531  -2.404  0.00  0.00     0.020 C 
ATOM     13  N   LIG d   1       5.400  -0.458  -2.776  0.00  0.00    -0.297 N 
ATOM     14  C   LIG d   1       6.799  -0.825  -3.061  0.00  0.00     0.042 C 
ATOM     15  C   LIG d   1       4.989   0.823  -2.853  0.00  0.00     0.216 C 
ATOM     16  O   LIG d   1       5.775   1.694  -3.160  0.00  0.00    -0.276 OA
ATOM     17  H   LIG d   1      10.132  -4.948  -6.796  0.00  0.00     0.066 H 
ATOM     18  H   LIG d   1       7.755  -5.493  -6.549  0.00  0.00     0.064 H 
ATOM     19  H   LIG d   1       9.658  -1.518  -4.295  0.00  0.00     0.066 H 
ATOM     20  H   LIG d   1       3.685  -2.026  -4.364  0.00  0.00     0.034 H 
ATOM     21  H   LIG d   1       3.829  -3.424  -3.246  0.00  0.00     0.034 H 
ATOM     22  H   LIG d   1       3.487  -1.097  -2.151  0.00  0.00     0.047 H 
ATOM     23  H   LIG d   1       4.859  -2.080  -1.535  0.00  0.00     0.047 H 
ATOM     24  H   LIG d   1       7.341  -1.036  -2.128  0.00  0.00     0.051 H 
ATOM     25  H   LIG d   1       7.307  -0.013  -3.604  0.00  0.00     0.051 H 
ENDROOT
BRANCH  15  26
ATOM     26  C   LIG d   1       3.554   1.173  -2.556  0.00  0.00     0.032 C 
ATOM     27  H   LIG d   1       2.995   0.255  -2.319  0.00  0.00     0.036 H 
ATOM     28  H   LIG d   1       3.513   1.860  -1.699  0.00  0.00     0.036 H 
BRANCH  26  29
ATOM     29  C   LIG d   1       2.930   1.847  -3.780  0.00  0.00     0.032 C 
ATOM     30  H   LIG d   1       1.998   2.352  -3.485  0.00  0.00     0.036 H 
ATOM     31  H   LIG d   1       3.632   2.588  -4.189  0.00  0.00     0.036 H 
BRANCH  29  32
ATOM     32  C   LIG d   1       2.629   0.809  -4.829  0.00  0.00     0.214 C 
ATOM     33  O   LIG d   1       1.915  -0.135  -4.560  0.00  0.00    -0.276 OA
ATOM     34  N   LIG d   1       3.151   0.928  -6.065  0.00  0.00    -0.313 N 
ATOM     35  H   LIG d   1       3.798   1.783  -6.309  0.00  0.00     0.149 HD
BRANCH  34  36
ATOM     36  C   LIG d   1       2.858  -0.083  -7.085  0.00  0.00     0.038 C 
ATOM     37  H   LIG d   1       3.682  -0.810  -7.128  0.00  0.00     0.049 H 
ATOM     38  H   LIG d   1       1.924  -0.603  -6.828  0.00  0.00     0.049 H 
BRANCH  36  39
ATOM     39  C   LIG d   1       2.706   0.596  -8.447  0.00  0.00     0.074 C 
ATOM     40  H   LIG d   1       1.760   0.285  -8.913  0.00  0.00     0.061 H 
ATOM     41  O   LIG d   1       3.770   0.183  -9.320  0.00  0.00    -0.375 OA
ATOM     42  C   LIG d   1       4.089   1.312 -10.162  0.00  0.00     0.048 C 
ATOM     43  C   LIG d   1       4.005   2.519  -9.193  0.00  0.00    -0.027 C 
ATOM     44  H   LIG d   1       3.361   1.445 -10.977  0.00  0.00     0.056 H 
ATOM     45  H   LIG d   1       5.103   1.249 -10.582  0.00  0.00     0.056 H 
ATOM     46  C   LIG d   1       2.815   2.125  -8.285  0.00  0.00    -0.023 C 
ATOM     47  H   LIG d   1       3.779   3.466  -9.705  0.00  0.00     0.029 H 
ATOM     48  H   LIG d   1       4.910   2.641  -8.579  0.00  0.00     0.029 H 
ATOM     49  H   LIG d   1       1.874   2.596  -8.609  0.00  0.00     0.029 H 
ATOM     50  H   LIG d   1       3.002   2.370  -7.229  0.00  0.00     0.029 H 
ENDBRANCH  36  39
ENDBRANCH  34  36
ENDBRANCH  29  32
ENDBRANCH  26  29
ENDBRANCH  15  26
BRANCH   1  51
ATOM     51  O   LIG d   1      11.359  -2.910  -5.706  0.00  0.00    -0.495 OA
BRANCH  51  52
ATOM     52  C   LIG d   1      11.812  -1.664  -5.172  0.00  0.00     0.079 C 
ATOM     53  H   LIG d   1      11.369  -1.511  -4.176  0.00  0.00     0.066 H 
ATOM     54  H   LIG d   1      11.505  -0.847  -5.839  0.00  0.00     0.066 H 
ATOM     55  H   LIG d   1      12.908  -1.679  -5.087  0.00  0.00     0.066 H 
ENDBRANCH  51  52
ENDBRANCH   1  51
TORSDOF 7
ENDMDL
MODEL 3
REMARK VINA RESULT:      -6.8      2.547      5.315
REMARK  7 active torsions:
REMARK  status: ('A' for Active; 'I' for Inactive)
REMARK    1  A    between atoms: C_1  and  O_2 
REMARK    2  A    between atoms: O_2  and  C_3 
REMARK       I    between atoms: N_15  and  C_17 
REMARK    3  A    between atoms: C_17  and  C_19 
REMARK    4  A    between atoms: C_19  and  C_20 
REMARK    5  A    between atoms: C_20  and  C_21 
REMARK       I    between atoms: C_21  and  N_23 
REMARK    6  A    between atoms: N_23  and  C_24 
REMARK    7  A    between atoms: C_24  and  C_25 
ROOT
ATOM      1  C   LIG d   1       9.988   4.104  -4.393  0.00  0.00     0.121 A 
ATOM      2  C   LIG d   1      10.171   4.158  -5.772  0.00  0.00    -0.018 A 
ATOM      3  C   LIG d   1       9.526   3.267  -6.599  0.00  0.00    -0.034 A 
ATOM      4  C   LIG d   1       8.680   2.303  -6.061  0.00  0.00     0.047 A 
ATOM      5  C   LIG d   1       8.492   2.245  -4.667  0.00  0.00     0.008 A 
ATOM      6  C   LIG d   1       9.153   3.155  -3.837  0.00  0.00    -0.011 A 
ATOM      7  C   LIG d   1       7.564   1.144  -4.436  0.00  0.00    -0.002 A 
ATOM      8  C   LIG d   1       7.247   0.622  -5.636  0.00  0.00     0.023 A 
ATOM      9  N   LIG d   1       7.913   1.300  -6.618  0.00  0.00    -0.358 N 
ATOM     10  H   LIG d   1       7.911   1.150  -7.708  0.00  0.00     0.166 HD
ATOM     11  C   LIG d   1       6.303  -0.543  -5.829  0.00  0.00     0.004 C 
ATOM     12  C   LIG d   1       6.144  -1.282  -4.495  0.00  0.00     0.020 C 
ATOM     13  N   LIG d   1       5.934  -0.299  -3.420  0.00  0.00    -0.297 N 
ATOM     14  C   LIG d   1       7.026   0.644  -3.119  0.00  0.00     0.042 C 
ATOM     15  C   LIG d   1       4.776  -0.263  -2.731  0.00  0.00     0.216 C 
ATOM     16  O   LIG d   1       4.622   0.553  -1.848  0.00  0.00    -0.276 OA
ATOM     17  H   LIG d   1      10.826   4.904  -6.196  0.00  0.00     0.066 H 
ATOM     18  H   LIG d   1       9.675   3.318  -7.668  0.00  0.00     0.064 H 
ATOM     19  H   LIG d   1       9.013   3.114  -2.768  0.00  0.00     0.066 H 
ATOM     20  H   LIG d   1       5.325  -0.170  -6.165  0.00  0.00     0.034 H 
ATOM     21  H   LIG d   1       6.715  -1.227  -6.585  0.00  0.00     0.034 H 
ATOM     22  H   LIG d   1       5.278  -1.958  -4.552  0.00  0.00     0.047 H 
ATOM     23  H   LIG d   1       7.053  -1.866  -4.289  0.00  0.00     0.047 H 
ATOM     24  H   LIG d   1       7.830   0.139  -2.563  0.00  0.00     0.051 H 
ATOM     25  H   LIG d   1       6.650   1.493  -2.529  0.00  0.00     0.051 H 
ENDROOT
BRANCH  15  26
ATOM     26  C   LIG d   1       3.675  -1.238  -3.058  0.00  0.00     0.032 C 
ATOM     27  H   LIG d   1       3.982  -1.867  -3.907  0.00  0.00     0.036 H 
ATOM     28  H   LIG d   1       3.475  -1.874  -2.183  0.00  0.00     0.036 H 
BRANCH  26  29
ATOM     29  C   LIG d   1       2.405  -0.467  -3.428  0.00  0.00     0.032 C 
ATOM     30  H   LIG d   1       1.571  -1.174  -3.555  0.00  0.00     0.036 H 
ATOM     31  H   LIG d   1       2.162   0.245  -2.627  0.00  0.00     0.036 H 
BRANCH  29  32
ATOM     32  C   LIG d   1       2.628   0.282  -4.715  0.00  0.00     0.214 C 
ATOM     33  O   LIG d   1       2.699   1.494  -4.707  0.00  0.00    -0.276 OA
ATOM     34  N   LIG d   1       2.750  -0.392  -5.876  0.00  0.00    -0.313 N 
ATOM     35  H   LIG d   1       2.685  -1.490  -5.883  0.00  0.00     0.149 HD
BRANCH  34  36
ATOM     36  C   LIG d   1       2.967   0.337  -7.128  0.00  0.00     0.038 C 
ATOM     37  H   LIG d   1       2.125   1.024  -7.303  0.00  0.00     0.049 H 
ATOM     38  H   LIG d   1       3.901   0.914  -7.060  0.00  0.00     0.049 H 
BRANCH  36  39
ATOM     39  C   LIG d   1       3.064  -0.657  -8.287  0.00  0.00     0.074 C 
ATOM     40  H   LIG d   1       2.938  -1.681  -7.908  0.00  0.00     0.061 H 
ATOM     41  O   LIG d   1       4.366  -0.579  -8.890  0.00  0.00    -0.375 OA
ATOM     42  C   LIG d   1       4.193  -0.825 -10.302  0.00  0.00     0.048 C 
ATOM     43  C   LIG d   1       2.888  -0.062 -10.644  0.00  0.00    -0.027 C 
ATOM     44  H   LIG d   1       4.063  -1.895 -10.527  0.00  0.00     0.056 H 
ATOM     45  H   LIG d   1       5.022  -0.422 -10.902  0.00  0.00     0.056 H 
ATOM     46  C   LIG d   1       2.033  -0.295  -9.375  0.00  0.00    -0.023 C 
ATOM     47  H   LIG d   1       2.365  -0.476 -11.520  0.00  0.00     0.029 H 
ATOM     48  H   LIG d   1       3.046   1.017 -10.788  0.00  0.00     0.029 H 
ATOM     49  H   LIG d   1       1.325  -1.127  -9.500  0.00  0.00     0.029 H 
ATOM     50  H   LIG d   1       1.486   0.611  -9.074  0.00  0.00     0.029 H 
ENDBRANCH  36  39
ENDBRANCH  34  36
ENDBRANCH  29  32
ENDBRANCH  26  29
ENDBRANCH  15  26
BRANCH   1  51
ATOM     51  O   LIG d   1      10.634   4.990  -3.588  0.00  0.00    -0.495 OA
BRANCH  51  52
ATOM     52  C   LIG d   1      10.551   4.765  -2.179  0.00  0.00     0.079 C 
ATOM     53  H   LIG d   1       9.654   5.264  -1.781  0.00  0.00     0.066 H 
ATOM     54  H   LIG d   1      11.446   5.176  -1.689  0.00  0.00     0.066 H 
ATOM     55  H   LIG d   1      10.487   3.685  -1.983  0.00  0.00     0.066 H 
ENDBRANCH  51  52
ENDBRANCH   1  51
TORSDOF 7
ENDMDL
MODEL 4
REMARK VINA RESULT:      -6.6      5.222      7.698
REMARK  7 active torsions:
REMARK  status: ('A' for Active; 'I' for Inactive)
REMARK    1  A    between atoms: C_1  and  O_2 
REMARK    2  A    between atoms: O_2  and  C_3 
REMARK       I    between atoms: N_15  and  C_17 
REMARK    3  A    between atoms: C_17  and  C_19 
REMARK    4  A    between atoms: C_19  and  C_20 
REMARK    5  A    between atoms: C_20  and  C_21 
REMARK       I    between atoms: C_21  and  N_23 
REMARK    6  A    between atoms: N_23  and  C_24 
REMARK    7  A    between atoms: C_24  and  C_25 
ROOT
ATOM      1  C   LIG d   1       8.966  -0.039  -9.219  0.00  0.00     0.121 A 
ATOM      2  C   LIG d   1       8.273  -0.959 -10.001  0.00  0.00    -0.018 A 
ATOM      3  C   LIG d   1       7.276  -1.734  -9.453  0.00  0.00    -0.034 A 
ATOM      4  C   LIG d   1       6.952  -1.602  -8.106  0.00  0.00     0.047 A 
ATOM      5  C   LIG d   1       7.651  -0.673  -7.312  0.00  0.00     0.008 A 
ATOM      6  C   LIG d   1       8.661   0.108  -7.881  0.00  0.00    -0.011 A 
ATOM      7  C   LIG d   1       7.078  -0.781  -5.976  0.00  0.00    -0.002 A 
ATOM      8  C   LIG d   1       6.108  -1.714  -6.024  0.00  0.00     0.023 A 
ATOM      9  N   LIG d   1       6.027  -2.221  -7.291  0.00  0.00    -0.358 N 
ATOM     10  H   LIG d   1       5.365  -2.999  -7.701  0.00  0.00     0.166 HD
ATOM     11  C   LIG d   1       5.266  -2.122  -4.837  0.00  0.00     0.004 C 
ATOM     12  C   LIG d   1       5.966  -1.669  -3.550  0.00  0.00     0.020 C 
ATOM     13  N   LIG d   1       6.431  -0.283  -3.716  0.00  0.00    -0.297 N 
ATOM     14  C   LIG d   1       7.462  -0.014  -4.735  0.00  0.00     0.042 C 
ATOM     15  C   LIG d   1       5.930   0.712  -2.957  0.00  0.00     0.216 C 
ATOM     16  O   LIG d   1       6.327   1.848  -3.108  0.00  0.00    -0.276 OA
ATOM     17  H   LIG d   1       8.520  -1.066 -11.047  0.00  0.00     0.066 H 
ATOM     18  H   LIG d   1       6.745  -2.445 -10.068  0.00  0.00     0.064 H 
ATOM     19  H   LIG d   1       9.200   0.821  -7.276  0.00  0.00     0.066 H 
ATOM     20  H   LIG d   1       4.277  -1.647  -4.908  0.00  0.00     0.034 H 
ATOM     21  H   LIG d   1       5.148  -3.216  -4.829  0.00  0.00     0.034 H 
ATOM     22  H   LIG d   1       5.258  -1.722  -2.710  0.00  0.00     0.047 H 
ATOM     23  H   LIG d   1       6.825  -2.325  -3.349  0.00  0.00     0.047 H 
ATOM     24  H   LIG d   1       8.448  -0.351  -4.386  0.00  0.00     0.051 H 
ATOM     25  H   LIG d   1       7.504   1.062  -4.967  0.00  0.00     0.051 H 
ENDROOT
BRANCH  15  26
ATOM     26  C   LIG d   1       4.877   0.412  -1.922  0.00  0.00     0.032 C 
ATOM     27  H   LIG d   1       4.725  -0.676  -1.859  0.00  0.00     0.036 H 
ATOM     28  H   LIG d   1       5.204   0.794  -0.944  0.00  0.00     0.036 H 
BRANCH  26  29
ATOM     29  C   LIG d   1       3.563   1.088  -2.320  0.00  0.00     0.032 C 
ATOM     30  H   LIG d   1       2.866   1.063  -1.469  0.00  0.00     0.036 H 
ATOM     31  H   LIG d   1       3.759   2.133  -2.601  0.00  0.00     0.036 H 
BRANCH  29  32
ATOM     32  C   LIG d   1       2.955   0.359  -3.489  0.00  0.00     0.214 C 
ATOM     33  O   LIG d   1       2.421  -0.718  -3.321  0.00  0.00    -0.276 OA
ATOM     34  N   LIG d   1       3.004   0.902  -4.721  0.00  0.00    -0.313 N 
ATOM     35  H   LIG d   1       3.489   1.878  -4.874  0.00  0.00     0.149 HD
BRANCH  34  36
ATOM     36  C   LIG d   1       2.413   0.192  -5.859  0.00  0.00     0.038 C 
ATOM     37  H   LIG d   1       2.395  -0.888  -5.649  0.00  0.00     0.049 H 
ATOM     38  H   LIG d   1       1.385   0.550  -6.020  0.00  0.00     0.049 H 
BRANCH  36  39
ATOM     39  C   LIG d   1       3.248   0.453  -7.114  0.00  0.00     0.074 C 
ATOM     40  H   LIG d   1       4.317   0.372  -6.870  0.00  0.00     0.061 H 
ATOM     41  O   LIG d   1       3.015   1.791  -7.585  0.00  0.00    -0.375 OA
ATOM     42  C   LIG d   1       3.096   1.751  -9.026  0.00  0.00     0.048 C 
ATOM     43  C   LIG d   1       2.379   0.426  -9.391  0.00  0.00    -0.027 C 
ATOM     44  H   LIG d   1       4.135   1.717  -9.386  0.00  0.00     0.056 H 
ATOM     45  H   LIG d   1       2.571   2.594  -9.499  0.00  0.00     0.056 H 
ATOM     46  C   LIG d   1       2.819  -0.509  -8.239  0.00  0.00    -0.023 C 
ATOM     47  H   LIG d   1       2.714   0.007 -10.352  0.00  0.00     0.029 H 
ATOM     48  H   LIG d   1       1.283   0.516  -9.392  0.00  0.00     0.029 H 
ATOM     49  H   LIG d   1       3.672  -1.143  -8.523  0.00  0.00     0.029 H 
ATOM     50  H   LIG d   1       1.994  -1.143  -7.883  0.00  0.00     0.029 H 
ENDBRANCH  36  39
ENDBRANCH  34  36
ENDBRANCH  29  32
ENDBRANCH  26  29
ENDBRANCH  15  26
BRANCH   1  51
ATOM     51  O   LIG d   1       9.950   0.719  -9.776  0.00  0.00    -0.495 OA
BRANCH  51  52
ATOM     52  C   LIG d   1       9.544   1.913 -10.449  0.00  0.00     0.079 C 
ATOM     53  H   LIG d   1       8.450   2.008 -10.397  0.00  0.00     0.066 H 
ATOM     54  H   LIG d   1       9.858   1.864 -11.502  0.00  0.00     0.066 H 
ATOM     55  H   LIG d   1      10.012   2.783  -9.966  0.00  0.00     0.066 H 
ENDBRANCH  51  52
ENDBRANCH   1  51
TORSDOF 7
ENDMDL
MODEL 5
REMARK VINA RESULT:      -6.6      1.881      2.632
REMARK  7 active torsions:
REMARK  status: ('A' for Active; 'I' for Inactive)
REMARK    1  A    between atoms: C_1  and  O_2 
REMARK    2  A    between atoms: O_2  and  C_3 
REMARK       I    between atoms: N_15  and  C_17 
REMARK    3  A    between atoms: C_17  and  C_19 
REMARK    4  A    between atoms: C_19  and  C_20 
REMARK    5  A    between atoms: C_20  and  C_21 
REMARK       I    between atoms: C_21  and  N_23 
REMARK    6  A    between atoms: N_23  and  C_24 
REMARK    7  A    between atoms: C_24  and  C_25 
ROOT
ATOM      1  C   LIG d   1      11.663   8.590   0.880  0.00  0.00     0.121 A 
ATOM      2  C   LIG d   1      10.829   9.670   0.602  0.00  0.00    -0.018 A 
ATOM      3  C   LIG d   1      10.029   9.667  -0.517  0.00  0.00    -0.034 A 
ATOM      4  C   LIG d   1      10.047   8.578  -1.384  0.00  0.00     0.047 A 
ATOM      5  C   LIG d   1      10.889   7.485  -1.107  0.00  0.00     0.008 A 
ATOM      6  C   LIG d   1      11.697   7.500   0.034  0.00  0.00    -0.011 A 
ATOM      7  C   LIG d   1      10.671   6.531  -2.188  0.00  0.00    -0.002 A 
ATOM      8  C   LIG d   1       9.753   7.061  -3.018  0.00  0.00     0.023 A 
ATOM      9  N   LIG d   1       9.376   8.290  -2.554  0.00  0.00    -0.358 N 
ATOM     10  H   LIG d   1       8.661   9.015  -2.972  0.00  0.00     0.166 HD
ATOM     11  C   LIG d   1       9.249   6.378  -4.269  0.00  0.00     0.004 C 
ATOM     12  C   LIG d   1      10.231   5.268  -4.662  0.00  0.00     0.020 C 
ATOM     13  N   LIG d   1      10.592   4.496  -3.462  0.00  0.00    -0.297 N 
ATOM     14  C   LIG d   1      11.325   5.186  -2.386  0.00  0.00     0.042 C 
ATOM     15  C   LIG d   1      10.261   3.194  -3.351  0.00  0.00     0.216 C 
ATOM     16  O   LIG d   1      10.567   2.574  -2.356  0.00  0.00    -0.276 OA
ATOM     17  H   LIG d   1      10.811  10.518   1.271  0.00  0.00     0.066 H 
ATOM     18  H   LIG d   1       9.386  10.510  -0.724  0.00  0.00     0.064 H 
ATOM     19  H   LIG d   1      12.344   6.664   0.251  0.00  0.00     0.066 H 
ATOM     20  H   LIG d   1       8.258   5.944  -4.075  0.00  0.00     0.034 H 
ATOM     21  H   LIG d   1       9.175   7.113  -5.084  0.00  0.00     0.034 H 
ATOM     22  H   LIG d   1       9.758   4.604  -5.399  0.00  0.00     0.047 H 
ATOM     23  H   LIG d   1      11.136   5.717  -5.097  0.00  0.00     0.047 H 
ATOM     24  H   LIG d   1      12.379   5.329  -2.667  0.00  0.00     0.051 H 
ATOM     25  H   LIG d   1      11.270   4.609  -1.450  0.00  0.00     0.051 H 
ENDROOT
BRANCH  15  26
ATOM     26  C   LIG d   1       9.511   2.510  -4.465  0.00  0.00     0.032 C 
ATOM     27  H   LIG d   1       9.740   3.006  -5.420  0.00  0.00     0.036 H 
ATOM     28  H   LIG d   1       9.814   1.454  -4.518  0.00  0.00     0.036 H 
BRANCH  26  29
ATOM     29  C   LIG d   1       8.007   2.595  -4.194  0.00  0.00     0.032 C 
ATOM     30  H   LIG d   1       7.839   2.976  -3.176  0.00  0.00     0.036 H 
ATOM     31  H   LIG d   1       7.541   3.276  -4.921  0.00  0.00     0.036 H 
BRANCH  29  32
ATOM     32  C   LIG d   1       7.394   1.225  -4.326  0.00  0.00     0.214 C 
ATOM     33  O   LIG d   1       7.232   0.736  -5.424  0.00  0.00    -0.276 OA
ATOM     34  N   LIG d   1       7.027   0.542  -3.224  0.00  0.00    -0.313 N 
ATOM     35  H   LIG d   1       7.173   0.986  -2.227  0.00  0.00     0.149 HD
BRANCH  34  36
ATOM     36  C   LIG d   1       6.431  -0.790  -3.351  0.00  0.00     0.038 C 
ATOM     37  H   LIG d   1       6.574  -1.159  -4.378  0.00  0.00     0.049 H 
ATOM     38  H   LIG d   1       6.916  -1.478  -2.644  0.00  0.00     0.049 H 
BRANCH  36  39
ATOM     39  C   LIG d   1       4.934  -0.711  -3.043  0.00  0.00     0.074 C 
ATOM     40  H   LIG d   1       4.540  -1.721  -2.859  0.00  0.00     0.061 H 
ATOM     41  O   LIG d   1       4.230  -0.175  -4.176  0.00  0.00    -0.375 OA
ATOM     42  C   LIG d   1       3.132   0.607  -3.659  0.00  0.00     0.048 C 
ATOM     43  C   LIG d   1       3.748   1.329  -2.434  0.00  0.00    -0.027 C 
ATOM     44  H   LIG d   1       2.290  -0.022  -3.329  0.00  0.00     0.056 H 
ATOM     45  H   LIG d   1       2.772   1.352  -4.382  0.00  0.00     0.056 H 
ATOM     46  C   LIG d   1       4.693   0.246  -1.859  0.00  0.00    -0.023 C 
ATOM     47  H   LIG d   1       3.000   1.603  -1.675  0.00  0.00     0.029 H 
ATOM     48  H   LIG d   1       4.334   2.218  -2.710  0.00  0.00     0.029 H 
ATOM     49  H   LIG d   1       4.231  -0.307  -1.029  0.00  0.00     0.029 H 
ATOM     50  H   LIG d   1       5.653   0.670  -1.529  0.00  0.00     0.029 H 
ENDBRANCH  36  39
ENDBRANCH  34  36
ENDBRANCH  29  32
ENDBRANCH  26  29
ENDBRANCH  15  26
BRANCH   1  51
ATOM     51  O   LIG d   1      12.450   8.609   1.991  0.00  0.00    -0.495 OA
BRANCH  51  52
ATOM     52  C   LIG d   1      12.427   9.800   2.780  0.00  0.00     0.079 C 
ATOM     53  H   LIG d   1      13.412   9.949   3.246  0.00  0.00     0.066 H 
ATOM     54  H   LIG d   1      11.662   9.706   3.563  0.00  0.00     0.066 H 
ATOM     55  H   LIG d   1      12.192  10.661   2.137  0.00  0.00     0.066 H 
ENDBRANCH  51  52
ENDBRANCH   1  51
TORSDOF 7
ENDMDL
MODEL 6
REMARK VINA RESULT:      -6.4      2.030      2.974
REMARK  7 active torsions:
REMARK  status: ('A' for Active; 'I' for Inactive)
REMARK    1  A    between atoms: C_1  and  O_2 
REMARK    2  A    between atoms: O_2  and  C_3 
REMARK       I    between atoms: N_15  and  C_17 
REMARK    3  A    between atoms: C_17  and  C_19 
REMARK    4  A    between atoms: C_19  and  C_20 
REMARK    5  A    between atoms: C_20  and  C_21 
REMARK       I    between atoms: C_21  and  N_23 
REMARK    6  A    between atoms: N_23  and  C_24 
REMARK    7  A    between atoms: C_24  and  C_25 
ROOT
ATOM      1  C   LIG d   1      10.354   8.508  -0.436  0.00  0.00     0.121 A 
ATOM      2  C   LIG d   1      11.218   8.007   0.533  0.00  0.00    -0.018 A 
ATOM      3  C   LIG d   1      11.638   6.697   0.488  0.00  0.00    -0.034 A 
ATOM      4  C   LIG d   1      11.199   5.860  -0.533  0.00  0.00     0.047 A 
ATOM      5  C   LIG d   1      10.326   6.362  -1.516  0.00  0.00     0.008 A 
ATOM      6  C   LIG d   1       9.907   7.694  -1.458  0.00  0.00    -0.011 A 
ATOM      7  C   LIG d   1      10.065   5.251  -2.423  0.00  0.00    -0.002 A 
ATOM      8  C   LIG d   1      10.762   4.189  -1.975  0.00  0.00     0.023 A 
ATOM      9  N   LIG d   1      11.439   4.536  -0.840  0.00  0.00    -0.358 N 
ATOM     10  H   LIG d   1      12.097   3.933  -0.196  0.00  0.00     0.166 HD
ATOM     11  C   LIG d   1      10.761   2.834  -2.644  0.00  0.00     0.004 C 
ATOM     12  C   LIG d   1       9.553   2.741  -3.582  0.00  0.00     0.020 C 
ATOM     13  N   LIG d   1       9.456   3.981  -4.369  0.00  0.00    -0.297 N 
ATOM     14  C   LIG d   1       9.189   5.240  -3.650  0.00  0.00     0.042 C 
ATOM     15  C   LIG d   1       9.606   3.965  -5.708  0.00  0.00     0.216 C 
ATOM     16  O   LIG d   1       9.522   4.996  -6.340  0.00  0.00    -0.276 OA
ATOM     17  H   LIG d   1      11.562   8.652   1.329  0.00  0.00     0.066 H 
ATOM     18  H   LIG d   1      12.308   6.318   1.246  0.00  0.00     0.064 H 
ATOM     19  H   LIG d   1       9.236   8.085  -2.209  0.00  0.00     0.066 H 
ATOM     20  H   LIG d   1      11.689   2.709  -3.220  0.00  0.00     0.034 H 
ATOM     21  H   LIG d   1      10.697   2.047  -1.878  0.00  0.00     0.034 H 
ATOM     22  H   LIG d   1       9.679   1.883  -4.259  0.00  0.00     0.047 H 
ATOM     23  H   LIG d   1       8.637   2.608  -2.988  0.00  0.00     0.047 H 
ATOM     24  H   LIG d   1       8.133   5.295  -3.348  0.00  0.00     0.051 H 
ATOM     25  H   LIG d   1       9.434   6.105  -4.285  0.00  0.00     0.051 H 
ENDROOT
BRANCH  15  26
ATOM     26  C   LIG d   1       9.878   2.665  -6.420  0.00  0.00     0.032 C 
ATOM     27  H   LIG d   1      10.590   2.838  -7.241  0.00  0.00     0.036 H 
ATOM     28  H   LIG d   1      10.305   1.940  -5.711  0.00  0.00     0.036 H 
BRANCH  26  29
ATOM     29  C   LIG d   1       8.570   2.111  -6.989  0.00  0.00     0.032 C 
ATOM     30  H   LIG d   1       7.769   2.854  -6.855  0.00  0.00     0.036 H 
ATOM     31  H   LIG d   1       8.696   1.898  -8.060  0.00  0.00     0.036 H 
BRANCH  29  32
ATOM     32  C   LIG d   1       8.203   0.842  -6.264  0.00  0.00     0.214 C 
ATOM     33  O   LIG d   1       8.990  -0.081  -6.221  0.00  0.00    -0.276 OA
ATOM     34  N   LIG d   1       7.002   0.731  -5.664  0.00  0.00    -0.313 N 
ATOM     35  H   LIG d   1       6.288   1.568  -5.703  0.00  0.00     0.149 HD
BRANCH  34  36
ATOM     36  C   LIG d   1       6.646  -0.503  -4.959  0.00  0.00     0.038 C 
ATOM     37  H   LIG d   1       5.716  -0.912  -5.382  0.00  0.00     0.049 H 
ATOM     38  H   LIG d   1       7.455  -1.238  -5.076  0.00  0.00     0.049 H 
BRANCH  36  39
ATOM     39  C   LIG d   1       6.440  -0.201  -3.473  0.00  0.00     0.074 C 
ATOM     40  H   LIG d   1       7.323  -0.525  -2.904  0.00  0.00     0.061 H 
ATOM     41  O   LIG d   1       5.313  -0.942  -2.977  0.00  0.00    -0.375 OA
ATOM     42  C   LIG d   1       4.674  -0.119  -1.977  0.00  0.00     0.048 C 
ATOM     43  C   LIG d   1       4.741   1.305  -2.585  0.00  0.00    -0.027 C 
ATOM     44  H   LIG d   1       5.211  -0.134  -1.017  0.00  0.00     0.056 H 
ATOM     45  H   LIG d   1       3.623  -0.399  -1.814  0.00  0.00     0.056 H 
ATOM     46  C   LIG d   1       6.124   1.295  -3.282  0.00  0.00    -0.023 C 
ATOM     47  H   LIG d   1       4.720   2.099  -1.824  0.00  0.00     0.029 H 
ATOM     48  H   LIG d   1       3.956   1.491  -3.332  0.00  0.00     0.029 H 
ATOM     49  H   LIG d   1       6.904   1.758  -2.659  0.00  0.00     0.029 H 
ATOM     50  H   LIG d   1       6.095   1.792  -4.263  0.00  0.00     0.029 H 
ENDBRANCH  36  39
ENDBRANCH  34  36
ENDBRANCH  29  32
ENDBRANCH  26  29
ENDBRANCH  15  26
BRANCH   1  51
ATOM     51  O   LIG d   1       9.947   9.805  -0.377  0.00  0.00    -0.495 OA
BRANCH  51  52
ATOM     52  C   LIG d   1       9.365  10.356  -1.561  0.00  0.00     0.079 C 
ATOM     53  H   LIG d   1       9.419  11.454  -1.518  0.00  0.00     0.066 H 
ATOM     54  H   LIG d   1       8.314  10.043  -1.631  0.00  0.00     0.066 H 
ATOM     55  H   LIG d   1       9.916   9.996  -2.441  0.00  0.00     0.066 H 
ENDBRANCH  51  52
ENDBRANCH   1  51
TORSDOF 7
ENDMDL
MODEL 7
REMARK VINA RESULT:      -6.3      3.187      4.117
REMARK  7 active torsions:
REMARK  status: ('A' for Active; 'I' for Inactive)
REMARK    1  A    between atoms: C_1  and  O_2 
REMARK    2  A    between atoms: O_2  and  C_3 
REMARK       I    between atoms: N_15  and  C_17 
REMARK    3  A    between atoms: C_17  and  C_19 
REMARK    4  A    between atoms: C_19  and  C_20 
REMARK    5  A    between atoms: C_20  and  C_21 
REMARK       I    between atoms: C_21  and  N_23 
REMARK    6  A    between atoms: N_23  and  C_24 
REMARK    7  A    between atoms: C_24  and  C_25 
ROOT
ATOM      1  C   LIG d   1      10.333   8.073  -0.319  0.00  0.00     0.121 A 
ATOM      2  C   LIG d   1      11.081   7.392   0.638  0.00  0.00    -0.018 A 
ATOM      3  C   LIG d   1      11.434   6.076   0.444  0.00  0.00    -0.034 A 
ATOM      4  C   LIG d   1      11.045   5.413  -0.716  0.00  0.00     0.047 A 
ATOM      5  C   LIG d   1      10.288   6.098  -1.686  0.00  0.00     0.008 A 
ATOM      6  C   LIG d   1       9.936   7.435  -1.477  0.00  0.00    -0.011 A 
ATOM      7  C   LIG d   1      10.052   5.139  -2.758  0.00  0.00    -0.002 A 
ATOM      8  C   LIG d   1      10.650   3.984  -2.408  0.00  0.00     0.023 A 
ATOM      9  N   LIG d   1      11.241   4.131  -1.184  0.00  0.00    -0.358 N 
ATOM     10  H   LIG d   1      11.807   3.405  -0.580  0.00  0.00     0.166 HD
ATOM     11  C   LIG d   1      10.638   2.734  -3.257  0.00  0.00     0.004 C 
ATOM     12  C   LIG d   1       9.514   2.845  -4.294  0.00  0.00     0.020 C 
ATOM     13  N   LIG d   1       9.552   4.183  -4.905  0.00  0.00    -0.297 N 
ATOM     14  C   LIG d   1       9.288   5.348  -4.041  0.00  0.00     0.042 C 
ATOM     15  C   LIG d   1       9.819   4.338  -6.217  0.00  0.00     0.216 C 
ATOM     16  O   LIG d   1       9.845   5.448  -6.702  0.00  0.00    -0.276 OA
ATOM     17  H   LIG d   1      11.385   7.901   1.540  0.00  0.00     0.066 H 
ATOM     18  H   LIG d   1      12.014   5.557   1.192  0.00  0.00     0.064 H 
ATOM     19  H   LIG d   1       9.356   7.965  -2.218  0.00  0.00     0.066 H 
ATOM     20  H   LIG d   1      11.606   2.629  -3.769  0.00  0.00     0.034 H 
ATOM     21  H   LIG d   1      10.466   1.856  -2.616  0.00  0.00     0.034 H 
ATOM     22  H   LIG d   1       9.655   2.080  -5.071  0.00  0.00     0.047 H 
ATOM     23  H   LIG d   1       8.543   2.692  -3.799  0.00  0.00     0.047 H 
ATOM     24  H   LIG d   1       8.214   5.430  -3.820  0.00  0.00     0.051 H 
ATOM     25  H   LIG d   1       9.633   6.274  -4.527  0.00  0.00     0.051 H 
ENDROOT
BRANCH  15  26
ATOM     26  C   LIG d   1      10.085   3.131  -7.078  0.00  0.00     0.032 C 
ATOM     27  H   LIG d   1      11.077   3.225  -7.545  0.00  0.00     0.036 H 
ATOM     28  H   LIG d   1      10.055   2.223  -6.458  0.00  0.00     0.036 H 
BRANCH  26  29
ATOM     29  C   LIG d   1       9.016   3.038  -8.169  0.00  0.00     0.032 C 
ATOM     30  H   LIG d   1       8.371   3.929  -8.128  0.00  0.00     0.036 H 
ATOM     31  H   LIG d   1       9.501   2.983  -9.155  0.00  0.00     0.036 H 
BRANCH  29  32
ATOM     32  C   LIG d   1       8.181   1.803  -7.951  0.00  0.00     0.214 C 
ATOM     33  O   LIG d   1       8.695   0.792  -7.521  0.00  0.00    -0.276 OA
ATOM     34  N   LIG d   1       6.863   1.822  -8.233  0.00  0.00    -0.313 N 
ATOM     35  H   LIG d   1       6.397   2.739  -8.623  0.00  0.00     0.149 HD
BRANCH  34  36
ATOM     36  C   LIG d   1       6.051   0.621  -8.020  0.00  0.00     0.038 C 
ATOM     37  H   LIG d   1       6.661  -0.274  -8.216  0.00  0.00     0.049 H 
ATOM     38  H   LIG d   1       5.693   0.599  -6.981  0.00  0.00     0.049 H 
BRANCH  36  39
ATOM     39  C   LIG d   1       4.854   0.640  -8.973  0.00  0.00     0.074 C 
ATOM     40  H   LIG d   1       4.844  -0.281  -9.574  0.00  0.00     0.061 H 
ATOM     41  O   LIG d   1       4.972   1.746  -9.883  0.00  0.00    -0.375 OA
ATOM     42  C   LIG d   1       3.634   2.218 -10.150  0.00  0.00     0.048 C 
ATOM     43  C   LIG d   1       2.939   2.135  -8.767  0.00  0.00    -0.027 C 
ATOM     44  H   LIG d   1       3.099   1.578 -10.868  0.00  0.00     0.056 H 
ATOM     45  H   LIG d   1       3.620   3.259 -10.505  0.00  0.00     0.056 H 
ATOM     46  C   LIG d   1       3.551   0.843  -8.173  0.00  0.00    -0.023 C 
ATOM     47  H   LIG d   1       1.847   2.023  -8.840  0.00  0.00     0.029 H 
ATOM     48  H   LIG d   1       3.178   2.987  -8.114  0.00  0.00     0.029 H 
ATOM     49  H   LIG d   1       2.895  -0.029  -8.315  0.00  0.00     0.029 H 
ATOM     50  H   LIG d   1       3.790   0.952  -7.105  0.00  0.00     0.029 H 
ENDBRANCH  36  39
ENDBRANCH  34  36
ENDBRANCH  29  32
ENDBRANCH  26  29
ENDBRANCH  15  26
BRANCH   1  51
ATOM     51  O   LIG d   1       9.990   9.374  -0.112  0.00  0.00    -0.495 OA
BRANCH  51  52
ATOM     52  C   LIG d   1       8.774   9.826  -0.712  0.00  0.00     0.079 C 
ATOM     53  H   LIG d   1       8.900   9.874  -1.803  0.00  0.00     0.066 H 
ATOM     54  H   LIG d   1       8.527  10.826  -0.327  0.00  0.00     0.066 H 
ATOM     55  H   LIG d   1       7.962   9.127  -0.466  0.00  0.00     0.066 H 
ENDBRANCH  51  52
ENDBRANCH   1  51
TORSDOF 7
ENDMDL
MODEL 8
REMARK VINA RESULT:      -6.0      6.189     11.117
REMARK  7 active torsions:
REMARK  status: ('A' for Active; 'I' for Inactive)
REMARK    1  A    between atoms: C_1  and  O_2 
REMARK    2  A    between atoms: O_2  and  C_3 
REMARK       I    between atoms: N_15  and  C_17 
REMARK    3  A    between atoms: C_17  and  C_19 
REMARK    4  A    between atoms: C_19  and  C_20 
REMARK    5  A    between atoms: C_20  and  C_21 
REMARK       I    between atoms: C_21  and  N_23 
REMARK    6  A    between atoms: N_23  and  C_24 
REMARK    7  A    between atoms: C_24  and  C_25 
ROOT
ATOM      1  C   LIG d   1       4.756  -9.711  -4.786  0.00  0.00     0.121 A 
ATOM      2  C   LIG d   1       5.833  -9.953  -3.937  0.00  0.00    -0.018 A 
ATOM      3  C   LIG d   1       6.908  -9.094  -3.908  0.00  0.00    -0.034 A 
ATOM      4  C   LIG d   1       6.927  -7.972  -4.731  0.00  0.00     0.047 A 
ATOM      5  C   LIG d   1       5.840  -7.723  -5.590  0.00  0.00     0.008 A 
ATOM      6  C   LIG d   1       4.754  -8.603  -5.610  0.00  0.00    -0.011 A 
ATOM      7  C   LIG d   1       6.166  -6.493  -6.299  0.00  0.00    -0.002 A 
ATOM      8  C   LIG d   1       7.367  -6.074  -5.854  0.00  0.00     0.023 A 
ATOM      9  N   LIG d   1       7.838  -6.954  -4.921  0.00  0.00    -0.358 N 
ATOM     10  H   LIG d   1       8.781  -6.946  -4.353  0.00  0.00     0.166 HD
ATOM     11  C   LIG d   1       8.061  -4.824  -6.344  0.00  0.00     0.004 C 
ATOM     12  C   LIG d   1       7.435  -4.394  -7.675  0.00  0.00     0.020 C 
ATOM     13  N   LIG d   1       5.970  -4.459  -7.564  0.00  0.00    -0.297 N 
ATOM     14  C   LIG d   1       5.348  -5.778  -7.345  0.00  0.00     0.042 C 
ATOM     15  C   LIG d   1       5.218  -3.344  -7.659  0.00  0.00     0.216 C 
ATOM     16  O   LIG d   1       4.011  -3.418  -7.565  0.00  0.00    -0.276 OA
ATOM     17  H   LIG d   1       5.824 -10.822  -3.297  0.00  0.00     0.066 H 
ATOM     18  H   LIG d   1       7.739  -9.292  -3.247  0.00  0.00     0.064 H 
ATOM     19  H   LIG d   1       3.918  -8.417  -6.268  0.00  0.00     0.066 H 
ATOM     20  H   LIG d   1       7.940  -4.022  -5.601  0.00  0.00     0.034 H 
ATOM     21  H   LIG d   1       9.132  -5.031  -6.487  0.00  0.00     0.034 H 
ATOM     22  H   LIG d   1       7.742  -3.364  -7.909  0.00  0.00     0.047 H 
ATOM     23  H   LIG d   1       7.775  -5.069  -8.475  0.00  0.00     0.047 H 
ATOM     24  H   LIG d   1       5.348  -6.364  -8.275  0.00  0.00     0.051 H 
ATOM     25  H   LIG d   1       4.314  -5.661  -6.986  0.00  0.00     0.051 H 
ENDROOT
BRANCH  15  26
ATOM     26  C   LIG d   1       5.877  -2.008  -7.883  0.00  0.00     0.032 C 
ATOM     27  H   LIG d   1       6.938  -2.071  -7.600  0.00  0.00     0.036 H 
ATOM     28  H   LIG d   1       5.795  -1.731  -8.944  0.00  0.00     0.036 H 
BRANCH  26  29
ATOM     29  C   LIG d   1       5.183  -0.947  -7.025  0.00  0.00     0.032 C 
ATOM     30  H   LIG d   1       5.727   0.005  -7.110  0.00  0.00     0.036 H 
ATOM     31  H   LIG d   1       4.150  -0.811  -7.375  0.00  0.00     0.036 H 
BRANCH  29  32
ATOM     32  C   LIG d   1       5.171  -1.393  -5.586  0.00  0.00     0.214 C 
ATOM     33  O   LIG d   1       6.214  -1.498  -4.975  0.00  0.00    -0.276 OA
ATOM     34  N   LIG d   1       4.002  -1.673  -4.977  0.00  0.00    -0.313 N 
ATOM     35  H   LIG d   1       3.056  -1.578  -5.531  0.00  0.00     0.149 HD
BRANCH  34  36
ATOM     36  C   LIG d   1       3.990  -2.106  -3.577  0.00  0.00     0.038 C 
ATOM     37  H   LIG d   1       3.357  -3.000  -3.475  0.00  0.00     0.049 H 
ATOM     38  H   LIG d   1       5.015  -2.345  -3.259  0.00  0.00     0.049 H 
BRANCH  36  39
ATOM     39  C   LIG d   1       3.432  -0.984  -2.700  0.00  0.00     0.074 C 
ATOM     40  H   LIG d   1       2.475  -1.299  -2.260  0.00  0.00     0.061 H 
ATOM     41  O   LIG d   1       3.171   0.179  -3.504  0.00  0.00    -0.375 OA
ATOM     42  C   LIG d   1       3.445   1.333  -2.679  0.00  0.00     0.048 C 
ATOM     43  C   LIG d   1       4.720   0.924  -1.899  0.00  0.00    -0.027 C 
ATOM     44  H   LIG d   1       2.631   1.540  -1.968  0.00  0.00     0.056 H 
ATOM     45  H   LIG d   1       3.651   2.234  -3.274  0.00  0.00     0.056 H 
ATOM     46  C   LIG d   1       4.473  -0.581  -1.637  0.00  0.00    -0.023 C 
ATOM     47  H   LIG d   1       4.824   1.451  -0.938  0.00  0.00     0.029 H 
ATOM     48  H   LIG d   1       5.641   1.048  -2.486  0.00  0.00     0.029 H 
ATOM     49  H   LIG d   1       4.061  -0.765  -0.634  0.00  0.00     0.029 H 
ATOM     50  H   LIG d   1       5.386  -1.180  -1.774  0.00  0.00     0.029 H 
ENDBRANCH  36  39
ENDBRANCH  34  36
ENDBRANCH  29  32
ENDBRANCH  26  29
ENDBRANCH  15  26
BRANCH   1  51
ATOM     51  O   LIG d   1       3.700 -10.569  -4.804  0.00  0.00    -0.495 OA
BRANCH  51  52
ATOM     52  C   LIG d   1       3.200 -11.006  -3.538  0.00  0.00     0.079 C 
ATOM     53  H   LIG d   1       3.958 -10.824  -2.762  0.00  0.00     0.066 H 
ATOM     54  H   LIG d   1       2.975 -12.081  -3.585  0.00  0.00     0.066 H 
ATOM     55  H   LIG d   1       2.284 -10.449  -3.294  0.00  0.00     0.066 H 
ENDBRANCH  51  52
ENDBRANCH   1  51
TORSDOF 7
ENDMDL
MODEL 9
REMARK VINA RESULT:      -6.0     10.309     13.082
REMARK  7 active torsions:
REMARK  status: ('A' for Active; 'I' for Inactive)
REMARK    1  A    between atoms: C_1  and  O_2 
REMARK    2  A    between atoms: O_2  and  C_3 
REMARK       I    between atoms: N_15  and  C_17 
REMARK    3  A    between atoms: C_17  and  C_19 
REMARK    4  A    between atoms: C_19  and  C_20 
REMARK    5  A    between atoms: C_20  and  C_21 
REMARK       I    between atoms: C_21  and  N_23 
REMARK    6  A    between atoms: N_23  and  C_24 
REMARK    7  A    between atoms: C_24  and  C_25 
ROOT
ATOM      1  C   LIG d   1      12.108 -10.011   3.797  0.00  0.00     0.121 A 
ATOM      2  C   LIG d   1      12.891  -8.860   3.780  0.00  0.00    -0.018 A 
ATOM      3  C   LIG d   1      12.874  -8.017   2.691  0.00  0.00    -0.034 A 
ATOM      4  C   LIG d   1      12.068  -8.311   1.595  0.00  0.00     0.047 A 
ATOM      5  C   LIG d   1      11.275  -9.473   1.609  0.00  0.00     0.008 A 
ATOM      6  C   LIG d   1      11.301 -10.321   2.720  0.00  0.00    -0.011 A 
ATOM      7  C   LIG d   1      10.564  -9.485   0.336  0.00  0.00    -0.002 A 
ATOM      8  C   LIG d   1      10.935  -8.386  -0.347  0.00  0.00     0.023 A 
ATOM      9  N   LIG d   1      11.842  -7.677   0.391  0.00  0.00    -0.358 N 
ATOM     10  H   LIG d   1      12.368  -6.739   0.155  0.00  0.00     0.166 HD
ATOM     11  C   LIG d   1      10.418  -8.028  -1.721  0.00  0.00     0.004 C 
ATOM     12  C   LIG d   1       9.802  -9.276  -2.363  0.00  0.00     0.020 C 
ATOM     13  N   LIG d   1       8.945  -9.954  -1.377  0.00  0.00    -0.297 N 
ATOM     14  C   LIG d   1       9.583 -10.513  -0.171  0.00  0.00     0.042 C 
ATOM     15  C   LIG d   1       7.616 -10.060  -1.571  0.00  0.00     0.216 C 
ATOM     16  O   LIG d   1       6.926 -10.623  -0.748  0.00  0.00    -0.276 OA
ATOM     17  H   LIG d   1      13.519  -8.627   4.627  0.00  0.00     0.066 H 
ATOM     18  H   LIG d   1      13.486  -7.127   2.688  0.00  0.00     0.064 H 
ATOM     19  H   LIG d   1      10.695 -11.214   2.735  0.00  0.00     0.066 H 
ATOM     20  H   LIG d   1       9.654  -7.242  -1.632  0.00  0.00     0.034 H 
ATOM     21  H   LIG d   1      11.249  -7.663  -2.343  0.00  0.00     0.034 H 
ATOM     22  H   LIG d   1       9.199  -8.981  -3.234  0.00  0.00     0.047 H 
ATOM     23  H   LIG d   1      10.604  -9.957  -2.684  0.00  0.00     0.047 H 
ATOM     24  H   LIG d   1      10.118 -11.443  -0.413  0.00  0.00     0.051 H 
ATOM     25  H   LIG d   1       8.829 -10.715   0.606  0.00  0.00     0.051 H 
ENDROOT
BRANCH  15  26
ATOM     26  C   LIG d   1       6.987  -9.481  -2.812  0.00  0.00     0.032 C 
ATOM     27  H   LIG d   1       6.828  -8.401  -2.672  0.00  0.00     0.036 H 
ATOM     28  H   LIG d   1       7.653  -9.645  -3.672  0.00  0.00     0.036 H 
BRANCH  26  29
ATOM     29  C   LIG d   1       5.644 -10.165  -3.070  0.00  0.00     0.032 C 
ATOM     30  H   LIG d   1       5.818 -11.192  -3.425  0.00  0.00     0.036 H 
ATOM     31  H   LIG d   1       5.061 -10.194  -2.138  0.00  0.00     0.036 H 
BRANCH  29  32
ATOM     32  C   LIG d   1       4.880  -9.396  -4.116  0.00  0.00     0.214 C 
ATOM     33  O   LIG d   1       3.685  -9.568  -4.244  0.00  0.00    -0.276 OA
ATOM     34  N   LIG d   1       5.522  -8.516  -4.910  0.00  0.00    -0.313 N 
ATOM     35  H   LIG d   1       6.605  -8.361  -4.794  0.00  0.00     0.149 HD
BRANCH  34  36
ATOM     36  C   LIG d   1       4.779  -7.768  -5.927  0.00  0.00     0.038 C 
ATOM     37  H   LIG d   1       5.268  -7.893  -6.905  0.00  0.00     0.049 H 
ATOM     38  H   LIG d   1       3.749  -8.149  -5.983  0.00  0.00     0.049 H 
BRANCH  36  39
ATOM     39  C   LIG d   1       4.756  -6.285  -5.554  0.00  0.00     0.074 C 
ATOM     40  H   LIG d   1       4.563  -6.176  -4.477  0.00  0.00     0.061 H 
ATOM     41  O   LIG d   1       3.687  -5.623  -6.250  0.00  0.00    -0.375 OA
ATOM     42  C   LIG d   1       4.140  -4.284  -6.546  0.00  0.00     0.048 C 
ATOM     43  C   LIG d   1       5.621  -4.487  -6.955  0.00  0.00    -0.027 C 
ATOM     44  H   LIG d   1       4.089  -3.622  -5.669  0.00  0.00     0.056 H 
ATOM     45  H   LIG d   1       3.588  -3.830  -7.381  0.00  0.00     0.056 H 
ATOM     46  C   LIG d   1       6.072  -5.614  -5.993  0.00  0.00    -0.023 C 
ATOM     47  H   LIG d   1       6.240  -3.593  -6.787  0.00  0.00     0.029 H 
ATOM     48  H   LIG d   1       5.738  -4.824  -7.995  0.00  0.00     0.029 H 
ATOM     49  H   LIG d   1       6.595  -5.218  -5.109  0.00  0.00     0.029 H 
ATOM     50  H   LIG d   1       6.711  -6.354  -6.496  0.00  0.00     0.029 H 
ENDBRANCH  36  39
ENDBRANCH  34  36
ENDBRANCH  29  32
ENDBRANCH  26  29
ENDBRANCH  15  26
BRANCH   1  51
ATOM     51  O   LIG d   1      12.137 -10.834   4.880  0.00  0.00    -0.495 OA
BRANCH  51  52
ATOM     52  C   LIG d   1      13.406 -11.381   5.244  0.00  0.00     0.079 C 
ATOM     53  H   LIG d   1      14.041 -10.585   5.660  0.00  0.00     0.066 H 
ATOM     54  H   LIG d   1      13.890 -11.807   4.353  0.00  0.00     0.066 H 
ATOM     55  H   LIG d   1      13.263 -12.168   5.998  0.00  0.00     0.066 H 
ENDBRANCH  51  52
ENDBRANCH   1  51
TORSDOF 7
ENDMDL
MODEL 10
REMARK VINA RESULT:      -6.0      3.954      5.308
REMARK  7 active torsions:
REMARK  status: ('A' for Active; 'I' for Inactive)
REMARK    1  A    between atoms: C_1  and  O_2 
REMARK    2  A    between atoms: O_2  and  C_3 
REMARK       I    between atoms: N_15  and  C_17 
REMARK    3  A    between atoms: C_17  and  C_19 
REMARK    4  A    between atoms: C_19  and  C_20 
REMARK    5  A    between atoms: C_20  and  C_21 
REMARK       I    between atoms: C_21  and  N_23 
REMARK    6  A    between atoms: N_23  and  C_24 
REMARK    7  A    between atoms: C_24  and  C_25 
ROOT
ATOM      1  C   LIG d   1       9.358   4.398  -9.301  0.00  0.00     0.121 A 
ATOM      2  C   LIG d   1       9.966   5.374  -8.515  0.00  0.00    -0.018 A 
ATOM      3  C   LIG d   1      10.045   5.224  -7.149  0.00  0.00    -0.034 A 
ATOM      4  C   LIG d   1       9.516   4.089  -6.541  0.00  0.00     0.047 A 
ATOM      5  C   LIG d   1       8.901   3.101  -7.331  0.00  0.00     0.008 A 
ATOM      6  C   LIG d   1       8.827   3.265  -8.717  0.00  0.00    -0.011 A 
ATOM      7  C   LIG d   1       8.464   2.065  -6.404  0.00  0.00    -0.002 A 
ATOM      8  C   LIG d   1       8.822   2.451  -5.165  0.00  0.00     0.023 A 
ATOM      9  N   LIG d   1       9.446   3.666  -5.230  0.00  0.00    -0.358 N 
ATOM     10  H   LIG d   1       9.862   4.291  -4.425  0.00  0.00     0.166 HD
ATOM     11  C   LIG d   1       8.549   1.646  -3.915  0.00  0.00     0.004 C 
ATOM     12  C   LIG d   1       7.457   0.612  -4.216  0.00  0.00     0.020 C 
ATOM     13  N   LIG d   1       7.755  -0.045  -5.498  0.00  0.00    -0.297 N 
ATOM     14  C   LIG d   1       7.742   0.779  -6.721  0.00  0.00     0.042 C 
ATOM     15  C   LIG d   1       8.032  -1.363  -5.553  0.00  0.00     0.216 C 
ATOM     16  O   LIG d   1       8.274  -1.887  -6.619  0.00  0.00    -0.276 OA
ATOM     17  H   LIG d   1      10.378   6.256  -8.981  0.00  0.00     0.066 H 
ATOM     18  H   LIG d   1      10.518   5.987  -6.549  0.00  0.00     0.064 H 
ATOM     19  H   LIG d   1       8.356   2.510  -9.328  0.00  0.00     0.066 H 
ATOM     20  H   LIG d   1       9.469   1.133  -3.601  0.00  0.00     0.034 H 
ATOM     21  H   LIG d   1       8.212   2.318  -3.112  0.00  0.00     0.034 H 
ATOM     22  H   LIG d   1       7.432  -0.139  -3.413  0.00  0.00     0.047 H 
ATOM     23  H   LIG d   1       6.482   1.117  -4.278  0.00  0.00     0.047 H 
ATOM     24  H   LIG d   1       6.709   1.003  -7.024  0.00  0.00     0.051 H 
ATOM     25  H   LIG d   1       8.260   0.259  -7.542  0.00  0.00     0.051 H 
ENDROOT
BRANCH  15  26
ATOM     26  C   LIG d   1       8.040  -2.184  -4.290  0.00  0.00     0.032 C 
ATOM     27  H   LIG d   1       9.072  -2.479  -4.050  0.00  0.00     0.036 H 
ATOM     28  H   LIG d   1       7.627  -1.589  -3.462  0.00  0.00     0.036 H 
BRANCH  26  29
ATOM     29  C   LIG d   1       7.185  -3.438  -4.491  0.00  0.00     0.032 C 
ATOM     30  H   LIG d   1       7.543  -3.987  -5.375  0.00  0.00     0.036 H 
ATOM     31  H   LIG d   1       7.264  -4.082  -3.604  0.00  0.00     0.036 H 
BRANCH  29  32
ATOM     32  C   LIG d   1       5.747  -3.039  -4.696  0.00  0.00     0.214 C 
ATOM     33  O   LIG d   1       5.132  -3.458  -5.654  0.00  0.00    -0.276 OA
ATOM     34  N   LIG d   1       5.143  -2.218  -3.815  0.00  0.00    -0.313 N 
ATOM     35  H   LIG d   1       5.701  -1.837  -2.946  0.00  0.00     0.149 HD
BRANCH  34  36
ATOM     36  C   LIG d   1       3.744  -1.830  -4.014  0.00  0.00     0.038 C 
ATOM     37  H   LIG d   1       3.640  -1.316  -4.981  0.00  0.00     0.049 H 
ATOM     38  H   LIG d   1       3.110  -2.728  -4.008  0.00  0.00     0.049 H 
BRANCH  36  39
ATOM     39  C   LIG d   1       3.310  -0.890  -2.888  0.00  0.00     0.074 C 
ATOM     40  H   LIG d   1       2.340  -1.217  -2.486  0.00  0.00     0.061 H 
ATOM     41  O   LIG d   1       3.134   0.440  -3.403  0.00  0.00    -0.375 OA
ATOM     42  C   LIG d   1       3.530   1.354  -2.357  0.00  0.00     0.048 C 
ATOM     43  C   LIG d   1       4.783   0.679  -1.743  0.00  0.00    -0.027 C 
ATOM     44  H   LIG d   1       2.755   1.463  -1.583  0.00  0.00     0.056 H 
ATOM     45  H   LIG d   1       3.801   2.345  -2.747  0.00  0.00     0.056 H 
ATOM     46  C   LIG d   1       4.409  -0.822  -1.809  0.00  0.00    -0.023 C 
ATOM     47  H   LIG d   1       4.957   0.968  -0.696  0.00  0.00     0.029 H 
ATOM     48  H   LIG d   1       5.696   0.855  -2.329  0.00  0.00     0.029 H 
ATOM     49  H   LIG d   1       4.008  -1.190  -0.854  0.00  0.00     0.029 H 
ATOM     50  H   LIG d   1       5.261  -1.447  -2.115  0.00  0.00     0.029 H 
ENDBRANCH  36  39
ENDBRANCH  34  36
ENDBRANCH  29  32
ENDBRANCH  26  29
ENDBRANCH  15  26
BRANCH   1  51
ATOM     51  O   LIG d   1       9.286   4.562 -10.649  0.00  0.00    -0.495 OA
BRANCH  51  52
ATOM     52  C   LIG d   1      10.474   5.002 -11.312  0.00  0.00     0.079 C 
ATOM     53  H   LIG d   1      10.393   4.788 -12.388  0.00  0.00     0.066 H 
ATOM     54  H   LIG d   1      11.342   4.471 -10.898  0.00  0.00     0.066 H 
ATOM     55  H   LIG d   1      10.598   6.084 -11.162  0.00  0.00     0.066 H 
ENDBRANCH  51  52
ENDBRANCH   1  51
TORSDOF 7
ENDMDL
