MODEL 1
REMARK VINA RESULT:      -6.5      0.000      0.000
REMARK  2 active torsions:
REMARK  status: ('A' for Active; 'I' for Inactive)
REMARK    1  A    between atoms: C_3  and  C_8 
REMARK    2  A    between atoms: C_15  and  O_19 
ROOT
ATOM      1  C   LIG d   1       2.497   0.466  -6.992  0.00  0.00    -0.008 C 
ATOM      2  C   LIG d   1       3.424   0.007  -6.116  0.00  0.00     0.176 A 
ATOM      3  C   LIG d   1       3.207  -0.272  -4.686  0.00  0.00     0.232 A 
ATOM      4  O   LIG d   1       2.177  -0.140  -4.049  0.00  0.00    -0.283 OA
ATOM      5  C   LIG d   1       4.516  -0.744  -4.199  0.00  0.00     0.068 A 
ATOM      6  C   LIG d   1       4.975  -1.163  -2.950  0.00  0.00    -0.044 A 
ATOM      7  C   LIG d   1       6.275  -1.553  -2.798  0.00  0.00    -0.019 A 
ATOM      8  C   LIG d   1       7.144  -1.533  -3.886  0.00  0.00     0.120 A 
ATOM      9  C   LIG d   1       6.702  -1.119  -5.133  0.00  0.00     0.023 A 
ATOM     10  C   LIG d   1       5.382  -0.719  -5.304  0.00  0.00     0.143 A 
ATOM     11  O   LIG d   1       4.715  -0.286  -6.397  0.00  0.00    -0.451 OA
ATOM     12  H   LIG d   1       1.470   0.581  -6.681  0.00  0.00     0.066 H 
ATOM     13  H   LIG d   1       4.303  -1.179  -2.105  0.00  0.00     0.063 H 
ATOM     14  H   LIG d   1       6.631  -1.877  -1.830  0.00  0.00     0.065 H 
ATOM     15  H   LIG d   1       7.383  -1.107  -5.970  0.00  0.00     0.069 H 
ENDROOT
BRANCH   1  16
ATOM     16  C   LIG d   1       2.891   0.807  -8.367  0.00  0.00    -0.020 A 
ATOM     17  C   LIG d   1       3.383   2.083  -8.661  0.00  0.00    -0.054 A 
ATOM     18  C   LIG d   1       3.751   2.397  -9.952  0.00  0.00    -0.060 A 
ATOM     19  H   LIG d   1       3.476   2.822  -7.877  0.00  0.00     0.062 H 
ATOM     20  C   LIG d   1       3.634   1.452 -10.957  0.00  0.00    -0.043 A 
ATOM     21  H   LIG d   1       4.131   3.382 -10.180  0.00  0.00     0.062 H 
ATOM     22  C   LIG d   1       3.148   0.186 -10.676  0.00  0.00     0.042 A 
ATOM     23  H   LIG d   1       3.925   1.704 -11.966  0.00  0.00     0.063 H 
ATOM     24  C   LIG d   1       2.782  -0.144  -9.387  0.00  0.00    -0.036 A 
ATOM     25 CL   LIG d   1       3.007  -0.990 -11.944  0.00  0.00    -0.084 Cl
ATOM     26  H   LIG d   1       2.407  -1.133  -9.167  0.00  0.00     0.064 H 
ENDBRANCH   1  16
BRANCH   8  27
ATOM     27  O   LIG d   1       8.433  -1.923  -3.725  0.00  0.00    -0.507 OA
ATOM     28  H   LIG d   1       8.594  -2.426  -2.914  0.00  0.00     0.292 HD
ENDBRANCH   8  27
TORSDOF 2
ENDMDL
MODEL 2
REMARK VINA RESULT:      -6.4      3.360      7.002
REMARK  2 active torsions:
REMARK  status: ('A' for Active; 'I' for Inactive)
REMARK    1  A    between atoms: C_3  and  C_8 
REMARK    2  A    between atoms: C_15  and  O_19 
ROOT
ATOM      1  C   LIG d   1       5.931  -0.915  -6.017  0.00  0.00    -0.008 C 
ATOM      2  C   LIG d   1       5.159  -0.808  -7.126  0.00  0.00     0.176 A 
ATOM      3  C   LIG d   1       5.628  -0.506  -8.488  0.00  0.00     0.232 A 
ATOM      4  O   LIG d   1       6.772  -0.301  -8.855  0.00  0.00    -0.283 OA
ATOM      5  C   LIG d   1       4.404  -0.507  -9.309  0.00  0.00     0.068 A 
ATOM      6  C   LIG d   1       4.166  -0.290 -10.667  0.00  0.00    -0.044 A 
ATOM      7  C   LIG d   1       2.891  -0.356 -11.154  0.00  0.00    -0.019 A 
ATOM      8  C   LIG d   1       1.829  -0.638 -10.298  0.00  0.00     0.120 A 
ATOM      9  C   LIG d   1       2.051  -0.855  -8.948  0.00  0.00     0.023 A 
ATOM     10  C   LIG d   1       3.342  -0.792  -8.437  0.00  0.00     0.143 A 
ATOM     11  O   LIG d   1       3.816  -0.967  -7.184  0.00  0.00    -0.451 OA
ATOM     12  H   LIG d   1       7.007  -0.859  -6.100  0.00  0.00     0.066 H 
ATOM     13  H   LIG d   1       4.988  -0.071 -11.332  0.00  0.00     0.063 H 
ATOM     14  H   LIG d   1       2.707  -0.188 -12.205  0.00  0.00     0.065 H 
ATOM     15  H   LIG d   1       1.221  -1.074  -8.292  0.00  0.00     0.069 H 
ENDROOT
BRANCH   1  16
ATOM     16  C   LIG d   1       5.306  -1.108  -4.701  0.00  0.00    -0.020 A 
ATOM     17  C   LIG d   1       4.791  -2.359  -4.344  0.00  0.00    -0.054 A 
ATOM     18  C   LIG d   1       4.205  -2.533  -3.108  0.00  0.00    -0.060 A 
ATOM     19  H   LIG d   1       4.852  -3.188  -5.035  0.00  0.00     0.062 H 
ATOM     20  C   LIG d   1       4.126  -1.473  -2.220  0.00  0.00    -0.043 A 
ATOM     21  H   LIG d   1       3.807  -3.498  -2.831  0.00  0.00     0.062 H 
ATOM     22  C   LIG d   1       4.634  -0.232  -2.565  0.00  0.00     0.042 A 
ATOM     23  H   LIG d   1       3.668  -1.617  -1.253  0.00  0.00     0.063 H 
ATOM     24  C   LIG d   1       5.227  -0.044  -3.796  0.00  0.00    -0.036 A 
ATOM     25 CL   LIG d   1       4.529   1.089  -1.443  0.00  0.00    -0.084 Cl
ATOM     26  H   LIG d   1       5.627   0.924  -4.063  0.00  0.00     0.064 H 
ENDBRANCH   1  16
BRANCH   8  27
ATOM     27  O   LIG d   1       0.567  -0.702 -10.791  0.00  0.00    -0.507 OA
ATOM     28  H   LIG d   1       0.307   0.073 -11.308  0.00  0.00     0.292 HD
ENDBRANCH   8  27
TORSDOF 2
ENDMDL
MODEL 3
REMARK VINA RESULT:      -6.2      2.157      2.911
REMARK  2 active torsions:
REMARK  status: ('A' for Active; 'I' for Inactive)
REMARK    1  A    between atoms: C_3  and  C_8 
REMARK    2  A    between atoms: C_15  and  O_19 
ROOT
ATOM      1  C   LIG d   1       4.519  -2.374  -7.781  0.00  0.00    -0.008 C 
ATOM      2  C   LIG d   1       4.406  -1.945  -6.500  0.00  0.00     0.176 A 
ATOM      3  C   LIG d   1       4.647  -2.746  -5.289  0.00  0.00     0.232 A 
ATOM      4  O   LIG d   1       4.984  -3.915  -5.223  0.00  0.00    -0.283 OA
ATOM      5  C   LIG d   1       4.390  -1.817  -4.174  0.00  0.00     0.068 A 
ATOM      6  C   LIG d   1       4.440  -1.955  -2.787  0.00  0.00    -0.044 A 
ATOM      7  C   LIG d   1       4.139  -0.890  -1.985  0.00  0.00    -0.019 A 
ATOM      8  C   LIG d   1       3.782   0.332  -2.550  0.00  0.00     0.120 A 
ATOM      9  C   LIG d   1       3.727   0.483  -3.926  0.00  0.00     0.023 A 
ATOM     10  C   LIG d   1       4.031  -0.591  -4.755  0.00  0.00     0.143 A 
ATOM     11  O   LIG d   1       4.057  -0.699  -6.102  0.00  0.00    -0.451 OA
ATOM     12  H   LIG d   1       4.893  -3.365  -7.988  0.00  0.00     0.066 H 
ATOM     13  H   LIG d   1       4.716  -2.902  -2.347  0.00  0.00     0.063 H 
ATOM     14  H   LIG d   1       4.178  -0.997  -0.911  0.00  0.00     0.065 H 
ATOM     15  H   LIG d   1       3.450   1.435  -4.354  0.00  0.00     0.069 H 
ENDROOT
BRANCH   1  16
ATOM     16  C   LIG d   1       4.133  -1.489  -8.890  0.00  0.00    -0.020 A 
ATOM     17  C   LIG d   1       5.010  -0.493  -9.333  0.00  0.00    -0.054 A 
ATOM     18  C   LIG d   1       4.641   0.334 -10.373  0.00  0.00    -0.060 A 
ATOM     19  H   LIG d   1       5.975  -0.371  -8.861  0.00  0.00     0.062 H 
ATOM     20  C   LIG d   1       3.406   0.179 -10.980  0.00  0.00    -0.043 A 
ATOM     21  H   LIG d   1       5.318   1.103 -10.716  0.00  0.00     0.062 H 
ATOM     22  C   LIG d   1       2.532  -0.804 -10.548  0.00  0.00     0.042 A 
ATOM     23  H   LIG d   1       3.124   0.829 -11.795  0.00  0.00     0.063 H 
ATOM     24  C   LIG d   1       2.889  -1.642  -9.512  0.00  0.00    -0.036 A 
ATOM     25 CL   LIG d   1       0.987  -0.987 -11.317  0.00  0.00    -0.084 Cl
ATOM     26  H   LIG d   1       2.208  -2.412  -9.178  0.00  0.00     0.064 H 
ENDBRANCH   1  16
BRANCH   8  27
ATOM     27  O   LIG d   1       3.486   1.383  -1.745  0.00  0.00    -0.507 OA
ATOM     28  H   LIG d   1       2.751   1.219  -1.137  0.00  0.00     0.292 HD
ENDBRANCH   8  27
TORSDOF 2
ENDMDL
MODEL 4
REMARK VINA RESULT:      -6.2      3.103      6.574
REMARK  2 active torsions:
REMARK  status: ('A' for Active; 'I' for Inactive)
REMARK    1  A    between atoms: C_3  and  C_8 
REMARK    2  A    between atoms: C_15  and  O_19 
ROOT
ATOM      1  C   LIG d   1       3.342   0.664  -5.930  0.00  0.00    -0.008 C 
ATOM      2  C   LIG d   1       3.164   0.083  -7.142  0.00  0.00     0.176 A 
ATOM      3  C   LIG d   1       2.745   0.762  -8.380  0.00  0.00     0.232 A 
ATOM      4  O   LIG d   1       2.487   1.943  -8.531  0.00  0.00    -0.283 OA
ATOM      5  C   LIG d   1       2.706  -0.308  -9.393  0.00  0.00     0.068 A 
ATOM      6  C   LIG d   1       2.388  -0.325 -10.751  0.00  0.00    -0.044 A 
ATOM      7  C   LIG d   1       2.442  -1.498 -11.449  0.00  0.00    -0.019 A 
ATOM      8  C   LIG d   1       2.814  -2.676 -10.808  0.00  0.00     0.120 A 
ATOM      9  C   LIG d   1       3.133  -2.675  -9.460  0.00  0.00     0.023 A 
ATOM     10  C   LIG d   1       3.083  -1.490  -8.735  0.00  0.00     0.143 A 
ATOM     11  O   LIG d   1       3.346  -1.225  -7.437  0.00  0.00    -0.451 OA
ATOM     12  H   LIG d   1       3.256   1.735  -5.826  0.00  0.00     0.066 H 
ATOM     13  H   LIG d   1       2.099   0.589 -11.250  0.00  0.00     0.063 H 
ATOM     14  H   LIG d   1       2.195  -1.510 -12.501  0.00  0.00     0.065 H 
ATOM     15  H   LIG d   1       3.421  -3.595  -8.972  0.00  0.00     0.069 H 
ENDROOT
BRANCH   1  16
ATOM     16  C   LIG d   1       3.652  -0.165  -4.756  0.00  0.00    -0.020 A 
ATOM     17  C   LIG d   1       2.651  -0.475  -3.830  0.00  0.00    -0.054 A 
ATOM     18  C   LIG d   1       2.948  -1.252  -2.731  0.00  0.00    -0.060 A 
ATOM     19  H   LIG d   1       1.645  -0.106  -3.975  0.00  0.00     0.062 H 
ATOM     20  C   LIG d   1       4.235  -1.727  -2.543  0.00  0.00    -0.043 A 
ATOM     21  H   LIG d   1       2.176  -1.492  -2.015  0.00  0.00     0.062 H 
ATOM     22  C   LIG d   1       5.233  -1.426  -3.455  0.00  0.00     0.042 A 
ATOM     23  H   LIG d   1       4.462  -2.337  -1.681  0.00  0.00     0.063 H 
ATOM     24  C   LIG d   1       4.949  -0.654  -4.562  0.00  0.00    -0.036 A 
ATOM     25 CL   LIG d   1       6.842  -2.028  -3.209  0.00  0.00    -0.084 Cl
ATOM     26  H   LIG d   1       5.727  -0.423  -5.276  0.00  0.00     0.064 H 
ENDBRANCH   1  16
BRANCH   8  27
ATOM     27  O   LIG d   1       2.866  -3.836 -11.510  0.00  0.00    -0.507 OA
ATOM     28  H   LIG d   1       3.473  -3.814 -12.263  0.00  0.00     0.292 HD
ENDBRANCH   8  27
TORSDOF 2
ENDMDL
MODEL 5
REMARK VINA RESULT:      -6.1      5.745      7.568
REMARK  2 active torsions:
REMARK  status: ('A' for Active; 'I' for Inactive)
REMARK    1  A    between atoms: C_3  and  C_8 
REMARK    2  A    between atoms: C_15  and  O_19 
ROOT
ATOM      1  C   LIG d   1       9.707   2.485  -4.381  0.00  0.00    -0.008 C 
ATOM      2  C   LIG d   1       8.654   1.671  -4.128  0.00  0.00     0.176 A 
ATOM      3  C   LIG d   1       8.513   0.270  -4.561  0.00  0.00     0.232 A 
ATOM      4  O   LIG d   1       9.302  -0.392  -5.212  0.00  0.00    -0.283 OA
ATOM      5  C   LIG d   1       7.203  -0.150  -4.032  0.00  0.00     0.068 A 
ATOM      6  C   LIG d   1       6.488  -1.346  -4.094  0.00  0.00    -0.044 A 
ATOM      7  C   LIG d   1       5.264  -1.441  -3.493  0.00  0.00    -0.019 A 
ATOM      8  C   LIG d   1       4.729  -0.346  -2.819  0.00  0.00     0.120 A 
ATOM      9  C   LIG d   1       5.428   0.849  -2.750  0.00  0.00     0.023 A 
ATOM     10  C   LIG d   1       6.674   0.961  -3.356  0.00  0.00     0.143 A 
ATOM     11  O   LIG d   1       7.543   1.994  -3.426  0.00  0.00    -0.451 OA
ATOM     12  H   LIG d   1      10.585   2.096  -4.875  0.00  0.00     0.066 H 
ATOM     13  H   LIG d   1       6.901  -2.197  -4.616  0.00  0.00     0.063 H 
ATOM     14  H   LIG d   1       4.711  -2.367  -3.542  0.00  0.00     0.065 H 
ATOM     15  H   LIG d   1       5.005   1.692  -2.225  0.00  0.00     0.069 H 
ENDROOT
BRANCH   1  16
ATOM     16  C   LIG d   1       9.656   3.899  -3.981  0.00  0.00    -0.020 A 
ATOM     17  C   LIG d   1       9.225   4.871  -4.890  0.00  0.00    -0.054 A 
ATOM     18  C   LIG d   1       9.179   6.195  -4.510  0.00  0.00    -0.060 A 
ATOM     19  H   LIG d   1       8.928   4.585  -5.890  0.00  0.00     0.062 H 
ATOM     20  C   LIG d   1       9.558   6.564  -3.230  0.00  0.00    -0.043 A 
ATOM     21  H   LIG d   1       8.847   6.947  -5.210  0.00  0.00     0.062 H 
ATOM     22  C   LIG d   1       9.985   5.609  -2.323  0.00  0.00     0.042 A 
ATOM     23  H   LIG d   1       9.518   7.603  -2.937  0.00  0.00     0.063 H 
ATOM     24  C   LIG d   1      10.031   4.279  -2.688  0.00  0.00    -0.036 A 
ATOM     25 CL   LIG d   1      10.457   6.084  -0.722  0.00  0.00    -0.084 Cl
ATOM     26  H   LIG d   1      10.361   3.534  -1.979  0.00  0.00     0.064 H 
ENDBRANCH   1  16
BRANCH   8  27
ATOM     27  O   LIG d   1       3.514  -0.450  -2.225  0.00  0.00    -0.507 OA
ATOM     28  H   LIG d   1       3.370   0.185  -1.510  0.00  0.00     0.292 HD
ENDBRANCH   8  27
TORSDOF 2
ENDMDL
MODEL 6
REMARK VINA RESULT:      -6.0      3.507      7.052
REMARK  2 active torsions:
REMARK  status: ('A' for Active; 'I' for Inactive)
REMARK    1  A    between atoms: C_3  and  C_8 
REMARK    2  A    between atoms: C_15  and  O_19 
ROOT
ATOM      1  C   LIG d   1       4.743  -0.538  -7.030  0.00  0.00    -0.008 C 
ATOM      2  C   LIG d   1       4.112  -0.714  -8.217  0.00  0.00     0.176 A 
ATOM      3  C   LIG d   1       4.732  -0.653  -9.551  0.00  0.00     0.232 A 
ATOM      4  O   LIG d   1       5.900  -0.435  -9.821  0.00  0.00    -0.283 OA
ATOM      5  C   LIG d   1       3.623  -0.912 -10.486  0.00  0.00     0.068 A 
ATOM      6  C   LIG d   1       3.546  -0.989 -11.877  0.00  0.00    -0.044 A 
ATOM      7  C   LIG d   1       2.348  -1.250 -12.480  0.00  0.00    -0.019 A 
ATOM      8  C   LIG d   1       1.204  -1.440 -11.709  0.00  0.00     0.120 A 
ATOM      9  C   LIG d   1       1.266  -1.366 -10.327  0.00  0.00     0.023 A 
ATOM     10  C   LIG d   1       2.477  -1.102  -9.698  0.00  0.00     0.143 A 
ATOM     11  O   LIG d   1       2.798  -0.987  -8.391  0.00  0.00    -0.451 OA
ATOM     12  H   LIG d   1       5.816  -0.414  -7.002  0.00  0.00     0.066 H 
ATOM     13  H   LIG d   1       4.433  -0.842 -12.477  0.00  0.00     0.063 H 
ATOM     14  H   LIG d   1       2.289  -1.309 -13.557  0.00  0.00     0.065 H 
ATOM     15  H   LIG d   1       0.373  -1.516  -9.738  0.00  0.00     0.069 H 
ENDROOT
BRANCH   1  16
ATOM     16  C   LIG d   1       3.968  -0.515  -5.781  0.00  0.00    -0.020 A 
ATOM     17  C   LIG d   1       2.916   0.394  -5.624  0.00  0.00    -0.054 A 
ATOM     18  C   LIG d   1       2.194   0.411  -4.450  0.00  0.00    -0.060 A 
ATOM     19  H   LIG d   1       2.670   1.081  -6.420  0.00  0.00     0.062 H 
ATOM     20  C   LIG d   1       2.506  -0.470  -3.428  0.00  0.00    -0.043 A 
ATOM     21  H   LIG d   1       1.381   1.112  -4.327  0.00  0.00     0.062 H 
ATOM     22  C   LIG d   1       3.546  -1.373  -3.575  0.00  0.00     0.042 A 
ATOM     23  H   LIG d   1       1.936  -0.452  -2.511  0.00  0.00     0.063 H 
ATOM     24  C   LIG d   1       4.275  -1.405  -4.746  0.00  0.00    -0.036 A 
ATOM     25 CL   LIG d   1       3.929  -2.471  -2.287  0.00  0.00    -0.084 Cl
ATOM     26  H   LIG d   1       5.083  -2.112  -4.862  0.00  0.00     0.064 H 
ENDBRANCH   1  16
BRANCH   8  27
ATOM     27  O   LIG d   1       0.020  -1.700 -12.317  0.00  0.00    -0.507 OA
ATOM     28  H   LIG d   1      -0.327  -0.960 -12.836  0.00  0.00     0.292 HD
ENDBRANCH   8  27
TORSDOF 2
ENDMDL
MODEL 7
REMARK VINA RESULT:      -6.0      5.439      7.199
REMARK  2 active torsions:
REMARK  status: ('A' for Active; 'I' for Inactive)
REMARK    1  A    between atoms: C_3  and  C_8 
REMARK    2  A    between atoms: C_15  and  O_19 
ROOT
ATOM      1  C   LIG d   1       7.348  -1.795  -4.722  0.00  0.00    -0.008 C 
ATOM      2  C   LIG d   1       8.294  -2.705  -4.384  0.00  0.00     0.176 A 
ATOM      3  C   LIG d   1       9.489  -3.052  -5.171  0.00  0.00     0.232 A 
ATOM      4  O   LIG d   1       9.834  -2.592  -6.245  0.00  0.00    -0.283 OA
ATOM      5  C   LIG d   1      10.174  -4.081  -4.368  0.00  0.00     0.068 A 
ATOM      6  C   LIG d   1      11.348  -4.811  -4.554  0.00  0.00    -0.044 A 
ATOM      7  C   LIG d   1      11.742  -5.721  -3.613  0.00  0.00    -0.019 A 
ATOM      8  C   LIG d   1      10.973  -5.920  -2.469  0.00  0.00     0.120 A 
ATOM      9  C   LIG d   1       9.804  -5.202  -2.271  0.00  0.00     0.023 A 
ATOM     10  C   LIG d   1       9.391  -4.273  -3.219  0.00  0.00     0.143 A 
ATOM     11  O   LIG d   1       8.315  -3.457  -3.259  0.00  0.00    -0.451 OA
ATOM     12  H   LIG d   1       7.477  -1.184  -5.603  0.00  0.00     0.066 H 
ATOM     13  H   LIG d   1      11.946  -4.658  -5.441  0.00  0.00     0.063 H 
ATOM     14  H   LIG d   1      12.650  -6.287  -3.758  0.00  0.00     0.065 H 
ATOM     15  H   LIG d   1       9.216  -5.364  -1.381  0.00  0.00     0.069 H 
ENDROOT
BRANCH   1  16
ATOM     16  C   LIG d   1       6.147  -1.638  -3.889  0.00  0.00    -0.020 A 
ATOM     17  C   LIG d   1       5.189  -2.656  -3.839  0.00  0.00    -0.054 A 
ATOM     18  C   LIG d   1       4.065  -2.503  -3.056  0.00  0.00    -0.060 A 
ATOM     19  H   LIG d   1       5.330  -3.562  -4.412  0.00  0.00     0.062 H 
ATOM     20  C   LIG d   1       3.883  -1.345  -2.319  0.00  0.00    -0.043 A 
ATOM     21  H   LIG d   1       3.324  -3.289  -3.016  0.00  0.00     0.062 H 
ATOM     22  C   LIG d   1       4.826  -0.332  -2.362  0.00  0.00     0.042 A 
ATOM     23  H   LIG d   1       3.001  -1.232  -1.706  0.00  0.00     0.063 H 
ATOM     24  C   LIG d   1       5.959  -0.473  -3.137  0.00  0.00    -0.036 A 
ATOM     25 CL   LIG d   1       4.587   1.115  -1.434  0.00  0.00    -0.084 Cl
ATOM     26  H   LIG d   1       6.697   0.316  -3.167  0.00  0.00     0.064 H 
ENDBRANCH   1  16
BRANCH   8  27
ATOM     27  O   LIG d   1      11.372  -6.825  -1.541  0.00  0.00    -0.507 OA
ATOM     28  H   LIG d   1      11.686  -7.661  -1.915  0.00  0.00     0.292 HD
ENDBRANCH   8  27
TORSDOF 2
ENDMDL
MODEL 8
REMARK VINA RESULT:      -5.9      4.094      6.514
REMARK  2 active torsions:
REMARK  status: ('A' for Active; 'I' for Inactive)
REMARK    1  A    between atoms: C_3  and  C_8 
REMARK    2  A    between atoms: C_15  and  O_19 
ROOT
ATOM      1  C   LIG d   1       6.965   0.793  -3.024  0.00  0.00    -0.008 C 
ATOM      2  C   LIG d   1       7.489   1.275  -4.177  0.00  0.00     0.176 A 
ATOM      3  C   LIG d   1       8.630   2.200  -4.296  0.00  0.00     0.232 A 
ATOM      4  O   LIG d   1       9.291   2.687  -3.396  0.00  0.00    -0.283 OA
ATOM      5  C   LIG d   1       8.790   2.403  -5.746  0.00  0.00     0.068 A 
ATOM      6  C   LIG d   1       9.679   3.160  -6.511  0.00  0.00    -0.044 A 
ATOM      7  C   LIG d   1       9.582   3.153  -7.874  0.00  0.00    -0.019 A 
ATOM      8  C   LIG d   1       8.598   2.393  -8.501  0.00  0.00     0.120 A 
ATOM      9  C   LIG d   1       7.708   1.638  -7.755  0.00  0.00     0.023 A 
ATOM     10  C   LIG d   1       7.794   1.633  -6.367  0.00  0.00     0.143 A 
ATOM     11  O   LIG d   1       7.065   0.990  -5.430  0.00  0.00    -0.451 OA
ATOM     12  H   LIG d   1       7.440   1.016  -2.080  0.00  0.00     0.066 H 
ATOM     13  H   LIG d   1      10.443   3.750  -6.026  0.00  0.00     0.063 H 
ATOM     14  H   LIG d   1      10.270   3.739  -8.465  0.00  0.00     0.065 H 
ATOM     15  H   LIG d   1       6.949   1.051  -8.251  0.00  0.00     0.069 H 
ENDROOT
BRANCH   1  16
ATOM     16  C   LIG d   1       5.750  -0.033  -3.057  0.00  0.00    -0.020 A 
ATOM     17  C   LIG d   1       4.550   0.458  -2.532  0.00  0.00    -0.054 A 
ATOM     18  C   LIG d   1       3.414  -0.322  -2.566  0.00  0.00    -0.060 A 
ATOM     19  H   LIG d   1       4.514   1.448  -2.099  0.00  0.00     0.062 H 
ATOM     20  C   LIG d   1       3.458  -1.590  -3.121  0.00  0.00    -0.043 A 
ATOM     21  H   LIG d   1       2.487   0.057  -2.161  0.00  0.00     0.062 H 
ATOM     22  C   LIG d   1       4.641  -2.085  -3.644  0.00  0.00     0.042 A 
ATOM     23  H   LIG d   1       2.564  -2.195  -3.146  0.00  0.00     0.063 H 
ATOM     24  C   LIG d   1       5.785  -1.313  -3.621  0.00  0.00    -0.036 A 
ATOM     25 CL   LIG d   1       4.683  -3.676  -4.336  0.00  0.00    -0.084 Cl
ATOM     26  H   LIG d   1       6.706  -1.699  -4.033  0.00  0.00     0.064 H 
ENDBRANCH   1  16
BRANCH   8  27
ATOM     27  O   LIG d   1       8.511   2.393  -9.855  0.00  0.00    -0.507 OA
ATOM     28  H   LIG d   1       7.903   1.728 -10.210  0.00  0.00     0.292 HD
ENDBRANCH   8  27
TORSDOF 2
ENDMDL
MODEL 9
REMARK VINA RESULT:      -5.6      3.673      6.639
REMARK  2 active torsions:
REMARK  status: ('A' for Active; 'I' for Inactive)
REMARK    1  A    between atoms: C_3  and  C_8 
REMARK    2  A    between atoms: C_15  and  O_19 
ROOT
ATOM      1  C   LIG d   1       5.087  -3.064  -4.237  0.00  0.00    -0.008 C 
ATOM      2  C   LIG d   1       4.796  -3.098  -5.561  0.00  0.00     0.176 A 
ATOM      3  C   LIG d   1       4.824  -4.288  -6.428  0.00  0.00     0.232 A 
ATOM      4  O   LIG d   1       5.108  -5.431  -6.117  0.00  0.00    -0.283 OA
ATOM      5  C   LIG d   1       4.431  -3.785  -7.757  0.00  0.00     0.068 A 
ATOM      6  C   LIG d   1       4.268  -4.399  -8.999  0.00  0.00    -0.044 A 
ATOM      7  C   LIG d   1       3.887  -3.657 -10.081  0.00  0.00    -0.019 A 
ATOM      8  C   LIG d   1       3.661  -2.289  -9.946  0.00  0.00     0.120 A 
ATOM      9  C   LIG d   1       3.820  -1.666  -8.719  0.00  0.00     0.023 A 
ATOM     10  C   LIG d   1       4.207  -2.407  -7.608  0.00  0.00     0.143 A 
ATOM     11  O   LIG d   1       4.421  -2.046  -6.325  0.00  0.00    -0.451 OA
ATOM     12  H   LIG d   1       5.288  -3.982  -3.705  0.00  0.00     0.066 H 
ATOM     13  H   LIG d   1       4.443  -5.459  -9.106  0.00  0.00     0.063 H 
ATOM     14  H   LIG d   1       3.761  -4.132 -11.043  0.00  0.00     0.065 H 
ATOM     15  H   LIG d   1       3.642  -0.605  -8.625  0.00  0.00     0.069 H 
ENDROOT
BRANCH   1  16
ATOM     16  C   LIG d   1       5.128  -1.778  -3.526  0.00  0.00    -0.020 A 
ATOM     17  C   LIG d   1       4.235  -1.525  -2.479  0.00  0.00    -0.054 A 
ATOM     18  C   LIG d   1       4.279  -0.317  -1.817  0.00  0.00    -0.060 A 
ATOM     19  H   LIG d   1       3.513  -2.275  -2.189  0.00  0.00     0.062 H 
ATOM     20  C   LIG d   1       5.204   0.645  -2.184  0.00  0.00    -0.043 A 
ATOM     21  H   LIG d   1       3.590  -0.120  -1.008  0.00  0.00     0.062 H 
ATOM     22  C   LIG d   1       6.092   0.403  -3.219  0.00  0.00     0.042 A 
ATOM     23  H   LIG d   1       5.234   1.589  -1.660  0.00  0.00     0.063 H 
ATOM     24  C   LIG d   1       6.064  -0.803  -3.888  0.00  0.00    -0.036 A 
ATOM     25 CL   LIG d   1       7.247   1.617  -3.671  0.00  0.00    -0.084 Cl
ATOM     26  H   LIG d   1       6.759  -0.993  -4.693  0.00  0.00     0.064 H 
ENDBRANCH   1  16
BRANCH   8  27
ATOM     27  O   LIG d   1       3.282  -1.561 -11.027  0.00  0.00    -0.507 OA
ATOM     28  H   LIG d   1       2.644  -0.861 -10.826  0.00  0.00     0.292 HD
ENDBRANCH   8  27
TORSDOF 2
ENDMDL
MODEL 10
REMARK VINA RESULT:      -5.6      1.771      2.292
REMARK  2 active torsions:
REMARK  status: ('A' for Active; 'I' for Inactive)
REMARK    1  A    between atoms: C_3  and  C_8 
REMARK    2  A    between atoms: C_15  and  O_19 
ROOT
ATOM      1  C   LIG d   1       2.534   0.166  -8.125  0.00  0.00    -0.008 C 
ATOM      2  C   LIG d   1       3.339  -0.506  -7.265  0.00  0.00     0.176 A 
ATOM      3  C   LIG d   1       3.627  -0.132  -5.870  0.00  0.00     0.232 A 
ATOM      4  O   LIG d   1       3.204   0.830  -5.253  0.00  0.00    -0.283 OA
ATOM      5  C   LIG d   1       4.544  -1.181  -5.389  0.00  0.00     0.068 A 
ATOM      6  C   LIG d   1       5.180  -1.406  -4.168  0.00  0.00    -0.044 A 
ATOM      7  C   LIG d   1       5.995  -2.492  -4.013  0.00  0.00    -0.019 A 
ATOM      8  C   LIG d   1       6.191  -3.375  -5.071  0.00  0.00     0.120 A 
ATOM      9  C   LIG d   1       5.566  -3.164  -6.290  0.00  0.00     0.023 A 
ATOM     10  C   LIG d   1       4.734  -2.065  -6.463  0.00  0.00     0.143 A 
ATOM     11  O   LIG d   1       4.017  -1.647  -7.529  0.00  0.00    -0.451 OA
ATOM     12  H   LIG d   1       1.968   1.019  -7.780  0.00  0.00     0.066 H 
ATOM     13  H   LIG d   1       5.029  -0.721  -3.345  0.00  0.00     0.063 H 
ATOM     14  H   LIG d   1       6.488  -2.665  -3.068  0.00  0.00     0.065 H 
ATOM     15  H   LIG d   1       5.724  -3.856  -7.104  0.00  0.00     0.069 H 
ENDROOT
BRANCH   1  16
ATOM     16  C   LIG d   1       2.433  -0.266  -9.526  0.00  0.00    -0.020 A 
ATOM     17  C   LIG d   1       1.247  -0.834 -10.002  0.00  0.00    -0.054 A 
ATOM     18  C   LIG d   1       1.158  -1.237 -11.318  0.00  0.00    -0.060 A 
ATOM     19  H   LIG d   1       0.400  -0.957  -9.341  0.00  0.00     0.062 H 
ATOM     20  C   LIG d   1       2.239  -1.080 -12.168  0.00  0.00    -0.043 A 
ATOM     21  H   LIG d   1       0.242  -1.676 -11.687  0.00  0.00     0.062 H 
ATOM     22  C   LIG d   1       3.418  -0.518 -11.705  0.00  0.00     0.042 A 
ATOM     23  H   LIG d   1       2.163  -1.396 -13.197  0.00  0.00     0.063 H 
ATOM     24  C   LIG d   1       3.519  -0.105 -10.392  0.00  0.00    -0.036 A 
ATOM     25 CL   LIG d   1       4.767  -0.326 -12.780  0.00  0.00    -0.084 Cl
ATOM     26  H   LIG d   1       4.438   0.337 -10.033  0.00  0.00     0.064 H 
ENDBRANCH   1  16
BRANCH   8  27
ATOM     27  O   LIG d   1       7.001  -4.451  -4.908  0.00  0.00    -0.507 OA
ATOM     28  H   LIG d   1       7.662  -4.343  -4.208  0.00  0.00     0.292 HD
ENDBRANCH   8  27
TORSDOF 2
ENDMDL
