MODEL 1
REMARK VINA RESULT:      -6.8      0.000      0.000
REMARK  9 active torsions:
REMARK  status: ('A' for Active; 'I' for Inactive)
REMARK    1  A    between atoms: C_1  and  C_2 
REMARK    2  A    between atoms: C_2  and  C_3 
REMARK    3  A    between atoms: C_2  and  O_4 
REMARK    4  A    between atoms: O_4  and  C_5 
REMARK    5  A    between atoms: C_8  and  C_13 
REMARK    6  A    between atoms: C_10  and  O_11 
REMARK    7  A    between atoms: O_11  and  C_12 
REMARK    8  A    between atoms: N_20  and  C_35 
REMARK    9  A    between atoms: C_23  and  C_34 
ROOT
ATOM      1  C   LIG d   1       8.324   0.130  -5.201  0.00  0.00     0.028 C 
ATOM      2  H   LIG d   1       8.640   1.008  -4.639  0.00  0.00     0.041 H 
ATOM      3  C   LIG d   1       9.550  -0.711  -5.577  0.00  0.00     0.027 C 
ATOM      4  N   LIG d   1       9.096  -2.043  -6.016  0.00  0.00    -0.280 N 
ATOM      5  C   LIG d   1       9.298  -2.416  -7.283  0.00  0.00     0.234 C 
ATOM      6  O   LIG d   1       9.991  -1.704  -7.980  0.00  0.00    -0.274 OA
ATOM      7  C   LIG d   1       8.726  -3.651  -7.898  0.00  0.00     0.092 C 
ATOM      8  N   LIG d   1       7.882  -4.384  -6.969  0.00  0.00    -0.287 N 
ATOM      9  C   LIG d   1       7.736  -4.057  -5.685  0.00  0.00     0.246 C 
ATOM     10  O   LIG d   1       7.004  -4.740  -5.001  0.00  0.00    -0.273 OA
ATOM     11  C   LIG d   1       8.423  -2.899  -5.040  0.00  0.00     0.151 C 
ATOM     12  C   LIG d   1       7.430  -2.053  -4.278  0.00  0.00     0.054 A 
ATOM     13  C   LIG d   1       7.396  -0.704  -4.354  0.00  0.00    -0.008 A 
ATOM     14  C   LIG d   1       6.325  -0.259  -3.487  0.00  0.00     0.004 A 
ATOM     15  C   LIG d   1       5.829   1.010  -3.169  0.00  0.00    -0.052 A 
ATOM     16  C   LIG d   1       4.778   1.061  -2.286  0.00  0.00    -0.061 A 
ATOM     17  C   LIG d   1       4.227  -0.083  -1.731  0.00  0.00    -0.060 A 
ATOM     18  C   LIG d   1       4.698  -1.350  -2.029  0.00  0.00    -0.038 A 
ATOM     19  C   LIG d   1       5.764  -1.432  -2.923  0.00  0.00     0.047 A 
ATOM     20  N   LIG d   1       6.456  -2.496  -3.426  0.00  0.00    -0.356 N 
ATOM     21  H   LIG d   1       6.283  -3.427  -3.211  0.00  0.00     0.166 HD
ATOM     22  H   LIG d   1      10.092  -0.224  -6.387  0.00  0.00     0.047 H 
ATOM     23  H   LIG d   1      10.201  -0.814  -4.708  0.00  0.00     0.047 H 
ATOM     24  H   LIG d   1       8.134  -3.372  -8.769  0.00  0.00     0.056 H 
ATOM     25  H   LIG d   1       9.543  -4.299  -8.218  0.00  0.00     0.056 H 
ATOM     26  H   LIG d   1       6.252   1.906  -3.597  0.00  0.00     0.062 H 
ATOM     27  H   LIG d   1       4.367   2.023  -2.017  0.00  0.00     0.062 H 
ATOM     28  H   LIG d   1       3.401   0.018  -1.043  0.00  0.00     0.062 H 
ATOM     29  H   LIG d   1       4.258  -2.232  -1.589  0.00  0.00     0.064 H 
ENDROOT
BRANCH   1  30
ATOM     30  C   LIG d   1       7.608   0.564  -6.454  0.00  0.00    -0.035 A 
ATOM     31  C   LIG d   1       6.423  -0.048  -6.819  0.00  0.00    -0.054 A 
ATOM     32  C   LIG d   1       5.763   0.346  -7.968  0.00  0.00    -0.016 A 
ATOM     33  H   LIG d   1       6.013  -0.836  -6.205  0.00  0.00     0.062 H 
ATOM     34  C   LIG d   1       6.288   1.358  -8.756  0.00  0.00     0.162 A 
ATOM     35  H   LIG d   1       4.837  -0.133  -8.251  0.00  0.00     0.066 H 
ATOM     36  C   LIG d   1       7.480   1.975  -8.389  0.00  0.00     0.162 A 
ATOM     37  C   LIG d   1       8.138   1.574  -7.236  0.00  0.00    -0.013 A 
ATOM     38  H   LIG d   1       9.065   2.048  -6.951  0.00  0.00     0.066 H 
BRANCH  34  39
ATOM     39  O   LIG d   1       5.640   1.747  -9.886  0.00  0.00    -0.486 OA
BRANCH  39  40
ATOM     40  C   LIG d   1       4.287   1.313 -10.041  0.00  0.00     0.095 C 
ATOM     41  H   LIG d   1       4.057   0.566  -9.282  0.00  0.00     0.073 H 
BRANCH  40  42
ATOM     42  C   LIG d   1       3.346   2.508  -9.882  0.00  0.00    -0.028 C 
ATOM     43  H   LIG d   1       3.931   3.409  -9.699  0.00  0.00     0.026 H 
ATOM     44  H   LIG d   1       2.761   2.635 -10.794  0.00  0.00     0.026 H 
ATOM     45  H   LIG d   1       2.676   2.334  -9.042  0.00  0.00     0.026 H 
ENDBRANCH  40  42
BRANCH  40  46
ATOM     46  C   LIG d   1       4.105   0.700 -11.432  0.00  0.00    -0.028 C 
ATOM     47  H   LIG d   1       4.850   1.113 -12.111  0.00  0.00     0.026 H 
ATOM     48  H   LIG d   1       4.226  -0.381 -11.371  0.00  0.00     0.026 H 
ATOM     49  H   LIG d   1       3.107   0.933 -11.802  0.00  0.00     0.026 H 
ENDBRANCH  40  46
ENDBRANCH  39  40
ENDBRANCH  34  39
BRANCH  36  50
ATOM     50  O   LIG d   1       8.000   2.967  -9.159  0.00  0.00    -0.491 OA
BRANCH  50  51
ATOM     51  C   LIG d   1       9.131   3.668  -8.638  0.00  0.00     0.079 C 
ATOM     52  H   LIG d   1       9.233   4.625  -9.150  0.00  0.00     0.066 H 
ATOM     53  H   LIG d   1       8.992   3.840  -7.571  0.00  0.00     0.066 H 
ATOM     54  H   LIG d   1      10.031   3.074  -8.797  0.00  0.00     0.066 H 
ENDBRANCH  50  51
ENDBRANCH  36  50
ENDBRANCH   1  30
BRANCH  11  55
ATOM     55  C   LIG d   1       9.463  -3.443  -4.059  0.00  0.00    -0.029 C 
ATOM     56  H   LIG d   1       9.012  -3.550  -3.072  0.00  0.00     0.026 H 
ATOM     57  H   LIG d   1       9.815  -4.415  -4.404  0.00  0.00     0.026 H 
ATOM     58  H   LIG d   1      10.305  -2.752  -4.001  0.00  0.00     0.026 H 
ENDBRANCH  11  55
BRANCH   8  59
ATOM     59  C   LIG d   1       7.149  -5.549  -7.472  0.00  0.00     0.027 C 
ATOM     60  C   LIG d   1       5.973  -5.093  -8.353  0.00  0.00    -0.034 C 
ATOM     61  C   LIG d   1       6.218  -5.684  -9.756  0.00  0.00    -0.051 C 
ATOM     62  H   LIG d   1       5.035  -5.470  -7.947  0.00  0.00     0.028 H 
ATOM     63  H   LIG d   1       5.948  -4.004  -8.406  0.00  0.00     0.028 H 
ATOM     64  C   LIG d   1       7.133  -6.907  -9.498  0.00  0.00    -0.051 C 
ATOM     65  H   LIG d   1       5.276  -6.001 -10.207  0.00  0.00     0.027 H 
ATOM     66  H   LIG d   1       6.722  -4.959 -10.394  0.00  0.00     0.027 H 
ATOM     67  C   LIG d   1       8.068  -6.404  -8.369  0.00  0.00    -0.034 C 
ATOM     68  H   LIG d   1       6.549  -7.763  -9.162  0.00  0.00     0.027 H 
ATOM     69  H   LIG d   1       7.703  -7.158 -10.393  0.00  0.00     0.027 H 
ATOM     70  H   LIG d   1       8.871  -5.795  -8.783  0.00  0.00     0.028 H 
ATOM     71  H   LIG d   1       8.476  -7.245  -7.808  0.00  0.00     0.028 H 
ATOM     72  H   LIG d   1       6.780  -6.147  -6.638  0.00  0.00     0.050 H 
ENDBRANCH   8  59
TORSDOF 9
ENDMDL
MODEL 2
REMARK VINA RESULT:      -6.6      2.669      6.710
REMARK  9 active torsions:
REMARK  status: ('A' for Active; 'I' for Inactive)
REMARK    1  A    between atoms: C_1  and  C_2 
REMARK    2  A    between atoms: C_2  and  C_3 
REMARK    3  A    between atoms: C_2  and  O_4 
REMARK    4  A    between atoms: O_4  and  C_5 
REMARK    5  A    between atoms: C_8  and  C_13 
REMARK    6  A    between atoms: C_10  and  O_11 
REMARK    7  A    between atoms: O_11  and  C_12 
REMARK    8  A    between atoms: N_20  and  C_35 
REMARK    9  A    between atoms: C_23  and  C_34 
ROOT
ATOM      1  C   LIG d   1       4.754  -3.505  -5.480  0.00  0.00     0.028 C 
ATOM      2  H   LIG d   1       4.073  -4.064  -4.838  0.00  0.00     0.041 H 
ATOM      3  C   LIG d   1       4.380  -3.730  -6.950  0.00  0.00     0.027 C 
ATOM      4  N   LIG d   1       5.063  -2.717  -7.774  0.00  0.00    -0.280 N 
ATOM      5  C   LIG d   1       5.989  -3.109  -8.655  0.00  0.00     0.234 C 
ATOM      6  O   LIG d   1       6.114  -4.299  -8.853  0.00  0.00    -0.274 OA
ATOM      7  C   LIG d   1       6.879  -2.177  -9.411  0.00  0.00     0.092 C 
ATOM      8  N   LIG d   1       6.655  -0.789  -9.044  0.00  0.00    -0.287 N 
ATOM      9  C   LIG d   1       5.685  -0.387  -8.222  0.00  0.00     0.246 C 
ATOM     10  O   LIG d   1       5.592   0.798  -7.984  0.00  0.00    -0.273 OA
ATOM     11  C   LIG d   1       4.707  -1.312  -7.577  0.00  0.00     0.151 C 
ATOM     12  C   LIG d   1       4.632  -1.050  -6.091  0.00  0.00     0.054 A 
ATOM     13  C   LIG d   1       4.649  -2.034  -5.165  0.00  0.00    -0.008 A 
ATOM     14  C   LIG d   1       4.554  -1.396  -3.868  0.00  0.00     0.004 A 
ATOM     15  C   LIG d   1       4.527  -1.899  -2.564  0.00  0.00    -0.052 A 
ATOM     16  C   LIG d   1       4.426  -0.982  -1.547  0.00  0.00    -0.061 A 
ATOM     17  C   LIG d   1       4.352   0.380  -1.789  0.00  0.00    -0.060 A 
ATOM     18  C   LIG d   1       4.377   0.905  -3.070  0.00  0.00    -0.038 A 
ATOM     19  C   LIG d   1       4.481  -0.002  -4.122  0.00  0.00     0.047 A 
ATOM     20  N   LIG d   1       4.533   0.168  -5.475  0.00  0.00    -0.356 N 
ATOM     21  H   LIG d   1       4.503   1.024  -5.932  0.00  0.00     0.166 HD
ATOM     22  H   LIG d   1       4.696  -4.726  -7.258  0.00  0.00     0.047 H 
ATOM     23  H   LIG d   1       3.300  -3.633  -7.070  0.00  0.00     0.047 H 
ATOM     24  H   LIG d   1       7.918  -2.435  -9.204  0.00  0.00     0.056 H 
ATOM     25  H   LIG d   1       6.690  -2.295 -10.478  0.00  0.00     0.056 H 
ATOM     26  H   LIG d   1       4.584  -2.960  -2.366  0.00  0.00     0.062 H 
ATOM     27  H   LIG d   1       4.403  -1.334  -0.526  0.00  0.00     0.062 H 
ATOM     28  H   LIG d   1       4.273   1.055  -0.950  0.00  0.00     0.062 H 
ATOM     29  H   LIG d   1       4.319   1.969  -3.244  0.00  0.00     0.064 H 
ENDROOT
BRANCH   1  30
ATOM     30  C   LIG d   1       6.167  -3.972  -5.242  0.00  0.00    -0.035 A 
ATOM     31  C   LIG d   1       7.123  -3.079  -4.796  0.00  0.00    -0.054 A 
ATOM     32  C   LIG d   1       8.421  -3.502  -4.577  0.00  0.00    -0.016 A 
ATOM     33  H   LIG d   1       6.855  -2.048  -4.618  0.00  0.00     0.062 H 
ATOM     34  C   LIG d   1       8.765  -4.825  -4.805  0.00  0.00     0.162 A 
ATOM     35  H   LIG d   1       9.166  -2.803  -4.228  0.00  0.00     0.066 H 
ATOM     36  C   LIG d   1       7.803  -5.725  -5.254  0.00  0.00     0.162 A 
ATOM     37  C   LIG d   1       6.504  -5.293  -5.472  0.00  0.00    -0.013 A 
ATOM     38  H   LIG d   1       5.756  -5.988  -5.824  0.00  0.00     0.066 H 
BRANCH  34  39
ATOM     39  O   LIG d   1      10.041  -5.244  -4.590  0.00  0.00    -0.486 OA
BRANCH  39  40
ATOM     40  C   LIG d   1      10.650  -4.862  -3.355  0.00  0.00     0.095 C 
ATOM     41  H   LIG d   1      10.409  -3.821  -3.138  0.00  0.00     0.073 H 
BRANCH  40  42
ATOM     42  C   LIG d   1      10.122  -5.753  -2.229  0.00  0.00    -0.028 C 
ATOM     43  H   LIG d   1       9.068  -5.970  -2.402  0.00  0.00     0.026 H 
ATOM     44  H   LIG d   1      10.686  -6.685  -2.208  0.00  0.00     0.026 H 
ATOM     45  H   LIG d   1      10.235  -5.238  -1.275  0.00  0.00     0.026 H 
ENDBRANCH  40  42
BRANCH  40  46
ATOM     46  C   LIG d   1      12.168  -5.022  -3.464  0.00  0.00    -0.028 C 
ATOM     47  H   LIG d   1      12.436  -6.067  -3.305  0.00  0.00     0.026 H 
ATOM     48  H   LIG d   1      12.497  -4.709  -4.455  0.00  0.00     0.026 H 
ATOM     49  H   LIG d   1      12.653  -4.405  -2.709  0.00  0.00     0.026 H 
ENDBRANCH  40  46
ENDBRANCH  39  40
ENDBRANCH  34  39
BRANCH  36  50
ATOM     50  O   LIG d   1       8.136  -7.023  -5.479  0.00  0.00    -0.491 OA
BRANCH  50  51
ATOM     51  C   LIG d   1       7.799  -7.966  -4.460  0.00  0.00     0.079 C 
ATOM     52  H   LIG d   1       8.687  -8.199  -3.872  0.00  0.00     0.066 H 
ATOM     53  H   LIG d   1       7.035  -7.541  -3.810  0.00  0.00     0.066 H 
ATOM     54  H   LIG d   1       7.419  -8.878  -4.920  0.00  0.00     0.066 H 
ENDBRANCH  50  51
ENDBRANCH  36  50
ENDBRANCH   1  30
BRANCH  11  55
ATOM     55  C   LIG d   1       3.330  -1.060  -8.194  0.00  0.00    -0.029 C 
ATOM     56  H   LIG d   1       2.558  -1.460  -7.535  0.00  0.00     0.026 H 
ATOM     57  H   LIG d   1       3.179   0.011  -8.322  0.00  0.00     0.026 H 
ATOM     58  H   LIG d   1       3.271  -1.553  -9.164  0.00  0.00     0.026 H 
ENDBRANCH  11  55
BRANCH   8  59
ATOM     59  C   LIG d   1       7.546   0.228  -9.610  0.00  0.00     0.027 C 
ATOM     60  C   LIG d   1       8.843   0.310  -8.787  0.00  0.00    -0.034 C 
ATOM     61  C   LIG d   1       9.997  -0.041  -9.748  0.00  0.00    -0.051 C 
ATOM     62  H   LIG d   1       8.975   1.319  -8.397  0.00  0.00     0.028 H 
ATOM     63  H   LIG d   1       8.810  -0.407  -7.967  0.00  0.00     0.028 H 
ATOM     64  C   LIG d   1       9.434   0.285 -11.154  0.00  0.00    -0.051 C 
ATOM     65  H   LIG d   1      10.872   0.576  -9.536  0.00  0.00     0.027 H 
ATOM     66  H   LIG d   1      10.249  -1.098  -9.674  0.00  0.00     0.027 H 
ATOM     67  C   LIG d   1       7.955  -0.167 -11.043  0.00  0.00    -0.034 C 
ATOM     68  H   LIG d   1       9.495   1.354 -11.356  0.00  0.00     0.027 H 
ATOM     69  H   LIG d   1       9.958  -0.282 -11.922  0.00  0.00     0.027 H 
ATOM     70  H   LIG d   1       7.877  -1.246 -11.179  0.00  0.00     0.028 H 
ATOM     71  H   LIG d   1       7.340   0.356 -11.775  0.00  0.00     0.028 H 
ATOM     72  H   LIG d   1       7.048   1.198  -9.618  0.00  0.00     0.050 H 
ENDBRANCH   8  59
TORSDOF 9
ENDMDL
MODEL 3
REMARK VINA RESULT:      -6.5      3.029      7.936
REMARK  9 active torsions:
REMARK  status: ('A' for Active; 'I' for Inactive)
REMARK    1  A    between atoms: C_1  and  C_2 
REMARK    2  A    between atoms: C_2  and  C_3 
REMARK    3  A    between atoms: C_2  and  O_4 
REMARK    4  A    between atoms: O_4  and  C_5 
REMARK    5  A    between atoms: C_8  and  C_13 
REMARK    6  A    between atoms: C_10  and  O_11 
REMARK    7  A    between atoms: O_11  and  C_12 
REMARK    8  A    between atoms: N_20  and  C_35 
REMARK    9  A    between atoms: C_23  and  C_34 
ROOT
ATOM      1  C   LIG d   1       5.467  -2.915  -9.757  0.00  0.00     0.028 C 
ATOM      2  H   LIG d   1       5.784  -3.118 -10.780  0.00  0.00     0.041 H 
ATOM      3  C   LIG d   1       6.623  -2.284  -8.973  0.00  0.00     0.027 C 
ATOM      4  N   LIG d   1       6.091  -1.702  -7.727  0.00  0.00    -0.280 N 
ATOM      5  C   LIG d   1       6.471  -2.215  -6.553  0.00  0.00     0.234 C 
ATOM      6  O   LIG d   1       7.364  -3.036  -6.556  0.00  0.00    -0.274 OA
ATOM      7  C   LIG d   1       5.868  -1.842  -5.238  0.00  0.00     0.092 C 
ATOM      8  N   LIG d   1       4.782  -0.888  -5.385  0.00  0.00    -0.287 N 
ATOM      9  C   LIG d   1       4.448  -0.319  -6.543  0.00  0.00     0.246 C 
ATOM     10  O   LIG d   1       3.522   0.464  -6.549  0.00  0.00    -0.273 OA
ATOM     11  C   LIG d   1       5.147  -0.590  -7.834  0.00  0.00     0.151 C 
ATOM     12  C   LIG d   1       4.148  -0.922  -8.917  0.00  0.00     0.054 A 
ATOM     13  C   LIG d   1       4.302  -1.959  -9.772  0.00  0.00    -0.008 A 
ATOM     14  C   LIG d   1       3.155  -1.949 -10.657  0.00  0.00     0.004 A 
ATOM     15  C   LIG d   1       2.776  -2.770 -11.724  0.00  0.00    -0.052 A 
ATOM     16  C   LIG d   1       1.597  -2.460 -12.356  0.00  0.00    -0.061 A 
ATOM     17  C   LIG d   1       0.812  -1.387 -11.964  0.00  0.00    -0.060 A 
ATOM     18  C   LIG d   1       1.164  -0.559 -10.913  0.00  0.00    -0.038 A 
ATOM     19  C   LIG d   1       2.356  -0.851 -10.252  0.00  0.00     0.047 A 
ATOM     20  N   LIG d   1       2.986  -0.257  -9.197  0.00  0.00    -0.356 N 
ATOM     21  H   LIG d   1       2.660   0.522  -8.718  0.00  0.00     0.166 HD
ATOM     22  H   LIG d   1       7.362  -3.049  -8.733  0.00  0.00     0.047 H 
ATOM     23  H   LIG d   1       7.087  -1.501  -9.574  0.00  0.00     0.047 H 
ATOM     24  H   LIG d   1       5.485  -2.743  -4.757  0.00  0.00     0.056 H 
ATOM     25  H   LIG d   1       6.640  -1.404  -4.606  0.00  0.00     0.056 H 
ATOM     26  H   LIG d   1       3.381  -3.609 -12.036  0.00  0.00     0.062 H 
ATOM     27  H   LIG d   1       1.271  -3.072 -13.184  0.00  0.00     0.062 H 
ATOM     28  H   LIG d   1      -0.105  -1.190 -12.499  0.00  0.00     0.062 H 
ATOM     29  H   LIG d   1       0.543   0.274 -10.618  0.00  0.00     0.064 H 
ENDROOT
BRANCH   1  30
ATOM     30  C   LIG d   1       5.052  -4.204  -9.094  0.00  0.00    -0.035 A 
ATOM     31  C   LIG d   1       5.302  -5.412  -9.717  0.00  0.00    -0.054 A 
ATOM     32  C   LIG d   1       4.923  -6.596  -9.113  0.00  0.00    -0.016 A 
ATOM     33  H   LIG d   1       5.793  -5.431 -10.678  0.00  0.00     0.062 H 
ATOM     34  C   LIG d   1       4.292  -6.574  -7.879  0.00  0.00     0.162 A 
ATOM     35  H   LIG d   1       5.119  -7.539  -9.602  0.00  0.00     0.066 H 
ATOM     36  C   LIG d   1       4.041  -5.358  -7.251  0.00  0.00     0.162 A 
ATOM     37  C   LIG d   1       4.423  -4.174  -7.863  0.00  0.00    -0.013 A 
ATOM     38  H   LIG d   1       4.226  -3.229  -7.379  0.00  0.00     0.066 H 
BRANCH  34  39
ATOM     39  O   LIG d   1       3.919  -7.738  -7.283  0.00  0.00    -0.486 OA
BRANCH  39  40
ATOM     40  C   LIG d   1       4.965  -8.588  -6.807  0.00  0.00     0.095 C 
ATOM     41  H   LIG d   1       5.928  -8.193  -7.130  0.00  0.00     0.073 H 
BRANCH  40  42
ATOM     42  C   LIG d   1       4.922  -8.643  -5.279  0.00  0.00    -0.028 C 
ATOM     43  H   LIG d   1       5.088  -7.644  -4.875  0.00  0.00     0.026 H 
ATOM     44  H   LIG d   1       3.947  -9.007  -4.955  0.00  0.00     0.026 H 
ATOM     45  H   LIG d   1       5.700  -9.314  -4.918  0.00  0.00     0.026 H 
ENDBRANCH  40  42
BRANCH  40  46
ATOM     46  C   LIG d   1       4.775  -9.996  -7.375  0.00  0.00    -0.028 C 
ATOM     47  H   LIG d   1       3.712 -10.190  -7.519  0.00  0.00     0.026 H 
ATOM     48  H   LIG d   1       5.293 -10.076  -8.331  0.00  0.00     0.026 H 
ATOM     49  H   LIG d   1       5.186 -10.726  -6.678  0.00  0.00     0.026 H 
ENDBRANCH  40  46
ENDBRANCH  39  40
ENDBRANCH  34  39
BRANCH  36  50
ATOM     50  O   LIG d   1       3.422  -5.330  -6.041  0.00  0.00    -0.491 OA
BRANCH  50  51
ATOM     51  C   LIG d   1       4.242  -5.079  -4.898  0.00  0.00     0.079 C 
ATOM     52  H   LIG d   1       4.196  -4.020  -4.642  0.00  0.00     0.066 H 
ATOM     53  H   LIG d   1       3.885  -5.672  -4.057  0.00  0.00     0.066 H 
ATOM     54  H   LIG d   1       5.273  -5.353  -5.124  0.00  0.00     0.066 H 
ENDBRANCH  50  51
ENDBRANCH  36  50
ENDBRANCH   1  30
BRANCH  11  55
ATOM     55  C   LIG d   1       5.913   0.671  -8.238  0.00  0.00    -0.029 C 
ATOM     56  H   LIG d   1       6.852   0.389  -8.716  0.00  0.00     0.026 H 
ATOM     57  H   LIG d   1       5.312   1.254  -8.936  0.00  0.00     0.026 H 
ATOM     58  H   LIG d   1       6.121   1.270  -7.351  0.00  0.00     0.026 H 
ENDBRANCH  11  55
BRANCH   8  59
ATOM     59  C   LIG d   1       4.010  -0.529  -4.191  0.00  0.00     0.027 C 
ATOM     60  C   LIG d   1       3.717  -1.787  -3.355  0.00  0.00    -0.034 C 
ATOM     61  C   LIG d   1       4.375  -1.565  -1.979  0.00  0.00    -0.051 C 
ATOM     62  H   LIG d   1       2.641  -1.916  -3.239  0.00  0.00     0.028 H 
ATOM     63  H   LIG d   1       4.149  -2.664  -3.838  0.00  0.00     0.028 H 
ATOM     64  C   LIG d   1       4.478  -0.024  -1.851  0.00  0.00    -0.051 C 
ATOM     65  H   LIG d   1       3.747  -1.972  -1.185  0.00  0.00     0.027 H 
ATOM     66  H   LIG d   1       5.366  -2.017  -1.951  0.00  0.00     0.027 H 
ATOM     67  C   LIG d   1       4.835   0.416  -3.294  0.00  0.00    -0.034 C 
ATOM     68  H   LIG d   1       3.524   0.403  -1.544  0.00  0.00     0.027 H 
ATOM     69  H   LIG d   1       5.267   0.254  -1.153  0.00  0.00     0.027 H 
ATOM     70  H   LIG d   1       5.901   0.284  -3.479  0.00  0.00     0.028 H 
ATOM     71  H   LIG d   1       4.544   1.453  -3.460  0.00  0.00     0.028 H 
ATOM     72  H   LIG d   1       3.076  -0.048  -4.481  0.00  0.00     0.050 H 
ENDBRANCH   8  59
TORSDOF 9
ENDMDL
MODEL 4
REMARK VINA RESULT:      -6.5      2.481      4.584
REMARK  9 active torsions:
REMARK  status: ('A' for Active; 'I' for Inactive)
REMARK    1  A    between atoms: C_1  and  C_2 
REMARK    2  A    between atoms: C_2  and  C_3 
REMARK    3  A    between atoms: C_2  and  O_4 
REMARK    4  A    between atoms: O_4  and  C_5 
REMARK    5  A    between atoms: C_8  and  C_13 
REMARK    6  A    between atoms: C_10  and  O_11 
REMARK    7  A    between atoms: O_11  and  C_12 
REMARK    8  A    between atoms: N_20  and  C_35 
REMARK    9  A    between atoms: C_23  and  C_34 
ROOT
ATOM      1  C   LIG d   1       7.223  -1.508  -5.412  0.00  0.00     0.028 C 
ATOM      2  H   LIG d   1       7.687  -1.818  -4.475  0.00  0.00     0.041 H 
ATOM      3  C   LIG d   1       7.249  -2.672  -6.410  0.00  0.00     0.027 C 
ATOM      4  N   LIG d   1       6.327  -2.366  -7.520  0.00  0.00    -0.280 N 
ATOM      5  C   LIG d   1       6.822  -2.192  -8.749  0.00  0.00     0.234 C 
ATOM      6  O   LIG d   1       7.993  -2.452  -8.930  0.00  0.00    -0.274 OA
ATOM      7  C   LIG d   1       6.027  -1.699  -9.913  0.00  0.00     0.092 C 
ATOM      8  N   LIG d   1       4.656  -1.383  -9.546  0.00  0.00    -0.287 N 
ATOM      9  C   LIG d   1       4.139  -1.623  -8.341  0.00  0.00     0.246 C 
ATOM     10  O   LIG d   1       2.982  -1.317  -8.145  0.00  0.00    -0.273 OA
ATOM     11  C   LIG d   1       4.901  -2.248  -7.219  0.00  0.00     0.151 C 
ATOM     12  C   LIG d   1       4.751  -1.429  -5.959  0.00  0.00     0.054 A 
ATOM     13  C   LIG d   1       5.793  -1.108  -5.158  0.00  0.00    -0.008 A 
ATOM     14  C   LIG d   1       5.256  -0.331  -4.059  0.00  0.00     0.004 A 
ATOM     15  C   LIG d   1       5.850   0.265  -2.942  0.00  0.00    -0.052 A 
ATOM     16  C   LIG d   1       5.017   0.941  -2.084  0.00  0.00    -0.061 A 
ATOM     17  C   LIG d   1       3.653   1.034  -2.304  0.00  0.00    -0.060 A 
ATOM     18  C   LIG d   1       3.040   0.454  -3.401  0.00  0.00    -0.038 A 
ATOM     19  C   LIG d   1       3.860  -0.238  -4.290  0.00  0.00     0.047 A 
ATOM     20  N   LIG d   1       3.593  -0.911  -5.447  0.00  0.00    -0.356 N 
ATOM     21  H   LIG d   1       2.714  -1.007  -5.847  0.00  0.00     0.166 HD
ATOM     22  H   LIG d   1       8.259  -2.798  -6.798  0.00  0.00     0.047 H 
ATOM     23  H   LIG d   1       6.929  -3.587  -5.911  0.00  0.00     0.047 H 
ATOM     24  H   LIG d   1       6.502  -0.802 -10.312  0.00  0.00     0.056 H 
ATOM     25  H   LIG d   1       6.016  -2.467 -10.686  0.00  0.00     0.056 H 
ATOM     26  H   LIG d   1       6.913   0.198  -2.763  0.00  0.00     0.062 H 
ATOM     27  H   LIG d   1       5.440   1.415  -1.210  0.00  0.00     0.062 H 
ATOM     28  H   LIG d   1       3.047   1.578  -1.595  0.00  0.00     0.062 H 
ATOM     29  H   LIG d   1       1.974   0.534  -3.560  0.00  0.00     0.064 H 
ENDROOT
BRANCH   1  30
ATOM     30  C   LIG d   1       7.980  -0.337  -5.985  0.00  0.00    -0.035 A 
ATOM     31  C   LIG d   1       7.303   0.652  -6.673  0.00  0.00    -0.054 A 
ATOM     32  C   LIG d   1       7.992   1.728  -7.201  0.00  0.00    -0.016 A 
ATOM     33  H   LIG d   1       6.232   0.584  -6.799  0.00  0.00     0.062 H 
ATOM     34  C   LIG d   1       9.366   1.816  -7.040  0.00  0.00     0.162 A 
ATOM     35  H   LIG d   1       7.461   2.499  -7.738  0.00  0.00     0.066 H 
ATOM     36  C   LIG d   1      10.048   0.821  -6.346  0.00  0.00     0.162 A 
ATOM     37  C   LIG d   1       9.350  -0.255  -5.821  0.00  0.00    -0.013 A 
ATOM     38  H   LIG d   1       9.878  -1.031  -5.286  0.00  0.00     0.066 H 
BRANCH  34  39
ATOM     39  O   LIG d   1      10.046   2.874  -7.558  0.00  0.00    -0.486 OA
BRANCH  39  40
ATOM     40  C   LIG d   1       9.596   4.179  -7.187  0.00  0.00     0.095 C 
ATOM     41  H   LIG d   1       8.507   4.208  -7.212  0.00  0.00     0.073 H 
BRANCH  40  42
ATOM     42  C   LIG d   1      10.083   4.504  -5.774  0.00  0.00    -0.028 C 
ATOM     43  H   LIG d   1      10.815   3.759  -5.462  0.00  0.00     0.026 H 
ATOM     44  H   LIG d   1      10.544   5.491  -5.766  0.00  0.00     0.026 H 
ATOM     45  H   LIG d   1       9.238   4.492  -5.087  0.00  0.00     0.026 H 
ENDBRANCH  40  42
BRANCH  40  46
ATOM     46  C   LIG d   1      10.157   5.210  -8.170  0.00  0.00    -0.028 C 
ATOM     47  H   LIG d   1       9.956   4.886  -9.191  0.00  0.00     0.026 H 
ATOM     48  H   LIG d   1       9.683   6.175  -7.994  0.00  0.00     0.026 H 
ATOM     49  H   LIG d   1      11.233   5.302  -8.024  0.00  0.00     0.026 H 
ENDBRANCH  40  46
ENDBRANCH  39  40
ENDBRANCH  34  39
BRANCH  36  50
ATOM     50  O   LIG d   1      11.395   0.903  -6.186  0.00  0.00    -0.491 OA
BRANCH  50  51
ATOM     51  C   LIG d   1      11.874   1.274  -4.892  0.00  0.00     0.079 C 
ATOM     52  H   LIG d   1      11.083   1.786  -4.344  0.00  0.00     0.066 H 
ATOM     53  H   LIG d   1      12.173   0.379  -4.345  0.00  0.00     0.066 H 
ATOM     54  H   LIG d   1      12.731   1.938  -4.998  0.00  0.00     0.066 H 
ENDBRANCH  50  51
ENDBRANCH  36  50
ENDBRANCH   1  30
BRANCH  11  55
ATOM     55  C   LIG d   1       4.330  -3.645  -6.971  0.00  0.00    -0.029 C 
ATOM     56  H   LIG d   1       5.106  -4.285  -6.550  0.00  0.00     0.026 H 
ATOM     57  H   LIG d   1       3.496  -3.579  -6.273  0.00  0.00     0.026 H 
ATOM     58  H   LIG d   1       3.982  -4.068  -7.914  0.00  0.00     0.026 H 
ENDBRANCH  11  55
BRANCH   8  59
ATOM     59  C   LIG d   1       3.794  -0.766 -10.558  0.00  0.00     0.027 C 
ATOM     60  C   LIG d   1       4.627   0.144 -11.477  0.00  0.00    -0.034 C 
ATOM     61  C   LIG d   1       4.486  -0.423 -12.904  0.00  0.00    -0.051 C 
ATOM     62  H   LIG d   1       4.243   1.163 -11.440  0.00  0.00     0.028 H 
ATOM     63  H   LIG d   1       5.673   0.127 -11.170  0.00  0.00     0.028 H 
ATOM     64  C   LIG d   1       3.154  -1.214 -12.869  0.00  0.00    -0.051 C 
ATOM     65  H   LIG d   1       4.429   0.387 -13.632  0.00  0.00     0.027 H 
ATOM     66  H   LIG d   1       5.318  -1.087 -13.135  0.00  0.00     0.027 H 
ATOM     67  C   LIG d   1       3.174  -1.855 -11.458  0.00  0.00    -0.034 C 
ATOM     68  H   LIG d   1       2.303  -0.542 -12.974  0.00  0.00     0.027 H 
ATOM     69  H   LIG d   1       3.139  -1.980 -13.644  0.00  0.00     0.027 H 
ATOM     70  H   LIG d   1       3.794  -2.751 -11.455  0.00  0.00     0.028 H 
ATOM     71  H   LIG d   1       2.161  -2.090 -11.131  0.00  0.00     0.028 H 
ATOM     72  H   LIG d   1       3.006  -0.188 -10.074  0.00  0.00     0.050 H 
ENDBRANCH   8  59
TORSDOF 9
ENDMDL
MODEL 5
REMARK VINA RESULT:      -6.4      3.029      7.966
REMARK  9 active torsions:
REMARK  status: ('A' for Active; 'I' for Inactive)
REMARK    1  A    between atoms: C_1  and  C_2 
REMARK    2  A    between atoms: C_2  and  C_3 
REMARK    3  A    between atoms: C_2  and  O_4 
REMARK    4  A    between atoms: O_4  and  C_5 
REMARK    5  A    between atoms: C_8  and  C_13 
REMARK    6  A    between atoms: C_10  and  O_11 
REMARK    7  A    between atoms: O_11  and  C_12 
REMARK    8  A    between atoms: N_20  and  C_35 
REMARK    9  A    between atoms: C_23  and  C_34 
ROOT
ATOM      1  C   LIG d   1       6.049  -3.505  -8.795  0.00  0.00     0.028 C 
ATOM      2  H   LIG d   1       6.384  -3.907  -9.751  0.00  0.00     0.041 H 
ATOM      3  C   LIG d   1       7.061  -2.472  -8.286  0.00  0.00     0.027 C 
ATOM      4  N   LIG d   1       6.440  -1.694  -7.199  0.00  0.00    -0.280 N 
ATOM      5  C   LIG d   1       6.938  -1.788  -5.962  0.00  0.00     0.234 C 
ATOM      6  O   LIG d   1       7.983  -2.388  -5.817  0.00  0.00    -0.274 OA
ATOM      7  C   LIG d   1       6.293  -1.204  -4.749  0.00  0.00     0.092 C 
ATOM      8  N   LIG d   1       5.029  -0.556  -5.059  0.00  0.00    -0.287 N 
ATOM      9  C   LIG d   1       4.564  -0.396  -6.298  0.00  0.00     0.246 C 
ATOM     10  O   LIG d   1       3.495   0.159  -6.440  0.00  0.00    -0.273 OA
ATOM     11  C   LIG d   1       5.283  -0.859  -7.522  0.00  0.00     0.151 C 
ATOM     12  C   LIG d   1       4.357  -1.660  -8.407  0.00  0.00     0.054 A 
ATOM     13  C   LIG d   1       4.709  -2.836  -8.973  0.00  0.00    -0.008 A 
ATOM     14  C   LIG d   1       3.572  -3.290  -9.747  0.00  0.00     0.004 A 
ATOM     15  C   LIG d   1       3.354  -4.424 -10.535  0.00  0.00    -0.052 A 
ATOM     16  C   LIG d   1       2.126  -4.533 -11.139  0.00  0.00    -0.061 A 
ATOM     17  C   LIG d   1       1.142  -3.571 -10.983  0.00  0.00    -0.060 A 
ATOM     18  C   LIG d   1       1.330  -2.439 -10.210  0.00  0.00    -0.038 A 
ATOM     19  C   LIG d   1       2.567  -2.303  -9.583  0.00  0.00     0.047 A 
ATOM     20  N   LIG d   1       3.078  -1.335  -8.766  0.00  0.00    -0.356 N 
ATOM     21  H   LIG d   1       2.604  -0.537  -8.482  0.00  0.00     0.166 HD
ATOM     22  H   LIG d   1       7.946  -2.983  -7.910  0.00  0.00     0.047 H 
ATOM     23  H   LIG d   1       7.341  -1.803  -9.101  0.00  0.00     0.047 H 
ATOM     24  H   LIG d   1       6.114  -1.999  -4.025  0.00  0.00     0.056 H 
ATOM     25  H   LIG d   1       6.966  -0.469  -4.308  0.00  0.00     0.056 H 
ATOM     26  H   LIG d   1       4.116  -5.180 -10.662  0.00  0.00     0.062 H 
ATOM     27  H   LIG d   1       1.921  -5.396 -11.755  0.00  0.00     0.062 H 
ATOM     28  H   LIG d   1       0.194  -3.709 -11.483  0.00  0.00     0.062 H 
ATOM     29  H   LIG d   1       0.554  -1.697 -10.097  0.00  0.00     0.064 H 
ENDROOT
BRANCH   1  30
ATOM     30  C   LIG d   1       5.924  -4.624  -7.794  0.00  0.00    -0.035 A 
ATOM     31  C   LIG d   1       4.698  -4.901  -7.218  0.00  0.00    -0.054 A 
ATOM     32  C   LIG d   1       4.578  -5.926  -6.298  0.00  0.00    -0.016 A 
ATOM     33  H   LIG d   1       3.832  -4.315  -7.487  0.00  0.00     0.062 H 
ATOM     34  C   LIG d   1       5.689  -6.678  -5.951  0.00  0.00     0.162 A 
ATOM     35  H   LIG d   1       3.619  -6.140  -5.849  0.00  0.00     0.066 H 
ATOM     36  C   LIG d   1       6.923  -6.400  -6.531  0.00  0.00     0.162 A 
ATOM     37  C   LIG d   1       7.036  -5.371  -7.452  0.00  0.00    -0.013 A 
ATOM     38  H   LIG d   1       7.993  -5.150  -7.900  0.00  0.00     0.066 H 
BRANCH  34  39
ATOM     39  O   LIG d   1       5.573  -7.688  -5.047  0.00  0.00    -0.486 OA
BRANCH  39  40
ATOM     40  C   LIG d   1       4.736  -8.788  -5.406  0.00  0.00     0.095 C 
ATOM     41  H   LIG d   1       3.800  -8.412  -5.819  0.00  0.00     0.073 H 
BRANCH  40  42
ATOM     42  C   LIG d   1       5.446  -9.649  -6.452  0.00  0.00    -0.028 C 
ATOM     43  H   LIG d   1       5.673 -10.626  -6.024  0.00  0.00     0.026 H 
ATOM     44  H   LIG d   1       4.798  -9.776  -7.319  0.00  0.00     0.026 H 
ATOM     45  H   LIG d   1       6.371  -9.162  -6.757  0.00  0.00     0.026 H 
ENDBRANCH  40  42
BRANCH  40  46
ATOM     46  C   LIG d   1       4.442  -9.632  -4.163  0.00  0.00    -0.028 C 
ATOM     47  H   LIG d   1       5.359 -10.116  -3.827  0.00  0.00     0.026 H 
ATOM     48  H   LIG d   1       4.058  -8.990  -3.370  0.00  0.00     0.026 H 
ATOM     49  H   LIG d   1       3.700 -10.391  -4.407  0.00  0.00     0.026 H 
ENDBRANCH  40  46
ENDBRANCH  39  40
ENDBRANCH  34  39
BRANCH  36  50
ATOM     50  O   LIG d   1       8.016  -7.136  -6.194  0.00  0.00    -0.491 OA
BRANCH  50  51
ATOM     51  C   LIG d   1       8.963  -6.525  -5.316  0.00  0.00     0.079 C 
ATOM     52  H   LIG d   1       9.899  -7.084  -5.344  0.00  0.00     0.066 H 
ATOM     53  H   LIG d   1       9.145  -5.498  -5.634  0.00  0.00     0.066 H 
ATOM     54  H   LIG d   1       8.570  -6.526  -4.299  0.00  0.00     0.066 H 
ENDBRANCH  50  51
ENDBRANCH  36  50
ENDBRANCH   1  30
BRANCH  11  55
ATOM     55  C   LIG d   1       5.762   0.372  -8.292  0.00  0.00    -0.029 C 
ATOM     56  H   LIG d   1       5.427   0.306  -9.328  0.00  0.00     0.026 H 
ATOM     57  H   LIG d   1       5.349   1.271  -7.834  0.00  0.00     0.026 H 
ATOM     58  H   LIG d   1       6.851   0.418  -8.264  0.00  0.00     0.026 H 
ENDBRANCH  11  55
BRANCH   8  59
ATOM     59  C   LIG d   1       4.220  -0.050  -3.947  0.00  0.00     0.027 C 
ATOM     60  C   LIG d   1       3.839  -1.204  -3.003  0.00  0.00    -0.034 C 
ATOM     61  C   LIG d   1       4.443  -0.865  -1.626  0.00  0.00    -0.051 C 
ATOM     62  H   LIG d   1       2.755  -1.282  -2.927  0.00  0.00     0.028 H 
ATOM     63  H   LIG d   1       4.256  -2.141  -3.374  0.00  0.00     0.028 H 
ATOM     64  C   LIG d   1       4.601   0.675  -1.649  0.00  0.00    -0.051 C 
ATOM     65  H   LIG d   1       3.764  -1.166  -0.827  0.00  0.00     0.027 H 
ATOM     66  H   LIG d   1       5.413  -1.347  -1.504  0.00  0.00     0.027 H 
ATOM     67  C   LIG d   1       5.040   0.952  -3.110  0.00  0.00    -0.034 C 
ATOM     68  H   LIG d   1       3.652   1.165  -1.434  0.00  0.00     0.027 H 
ATOM     69  H   LIG d   1       5.369   0.996  -0.945  0.00  0.00     0.027 H 
ATOM     70  H   LIG d   1       6.107   0.765  -3.229  0.00  0.00     0.028 H 
ATOM     71  H   LIG d   1       4.798   1.976  -3.394  0.00  0.00     0.028 H 
ATOM     72  H   LIG d   1       3.319   0.432  -4.329  0.00  0.00     0.050 H 
ENDBRANCH   8  59
TORSDOF 9
ENDMDL
MODEL 6
REMARK VINA RESULT:      -6.4      3.121      6.299
REMARK  9 active torsions:
REMARK  status: ('A' for Active; 'I' for Inactive)
REMARK    1  A    between atoms: C_1  and  C_2 
REMARK    2  A    between atoms: C_2  and  C_3 
REMARK    3  A    between atoms: C_2  and  O_4 
REMARK    4  A    between atoms: O_4  and  C_5 
REMARK    5  A    between atoms: C_8  and  C_13 
REMARK    6  A    between atoms: C_10  and  O_11 
REMARK    7  A    between atoms: O_11  and  C_12 
REMARK    8  A    between atoms: N_20  and  C_35 
REMARK    9  A    between atoms: C_23  and  C_34 
ROOT
ATOM      1  C   LIG d   1      10.217   0.511  -7.086  0.00  0.00     0.028 C 
ATOM      2  H   LIG d   1      10.977   0.641  -7.857  0.00  0.00     0.041 H 
ATOM      3  C   LIG d   1       8.934  -0.045  -7.716  0.00  0.00     0.027 C 
ATOM      4  N   LIG d   1       8.054  -0.539  -6.641  0.00  0.00    -0.280 N 
ATOM      5  C   LIG d   1       6.881   0.065  -6.431  0.00  0.00     0.234 C 
ATOM      6  O   LIG d   1       6.517   0.894  -7.238  0.00  0.00    -0.274 OA
ATOM      7  C   LIG d   1       5.988  -0.216  -5.266  0.00  0.00     0.092 C 
ATOM      8  N   LIG d   1       6.564  -1.192  -4.357  0.00  0.00    -0.287 N 
ATOM      9  C   LIG d   1       7.698  -1.850  -4.599  0.00  0.00     0.246 C 
ATOM     10  O   LIG d   1       8.087  -2.642  -3.768  0.00  0.00    -0.273 OA
ATOM     11  C   LIG d   1       8.516  -1.668  -5.835  0.00  0.00     0.151 C 
ATOM     12  C   LIG d   1       9.965  -1.430  -5.479  0.00  0.00     0.054 A 
ATOM     13  C   LIG d   1      10.716  -0.458  -6.045  0.00  0.00    -0.008 A 
ATOM     14  C   LIG d   1      12.036  -0.548  -5.457  0.00  0.00     0.004 A 
ATOM     15  C   LIG d   1      13.211   0.186  -5.650  0.00  0.00    -0.052 A 
ATOM     16  C   LIG d   1      14.303  -0.185  -4.906  0.00  0.00    -0.061 A 
ATOM     17  C   LIG d   1      14.256  -1.235  -4.004  0.00  0.00    -0.060 A 
ATOM     18  C   LIG d   1      13.107  -1.978  -3.793  0.00  0.00    -0.038 A 
ATOM     19  C   LIG d   1      11.982  -1.623  -4.534  0.00  0.00     0.047 A 
ATOM     20  N   LIG d   1      10.715  -2.129  -4.573  0.00  0.00    -0.356 N 
ATOM     21  H   LIG d   1      10.394  -2.873  -4.039  0.00  0.00     0.166 HD
ATOM     22  H   LIG d   1       8.427   0.744  -8.270  0.00  0.00     0.047 H 
ATOM     23  H   LIG d   1       9.185  -0.865  -8.390  0.00  0.00     0.047 H 
ATOM     24  H   LIG d   1       5.813   0.713  -4.723  0.00  0.00     0.056 H 
ATOM     25  H   LIG d   1       5.035  -0.596  -5.634  0.00  0.00     0.056 H 
ATOM     26  H   LIG d   1      13.257   1.006  -6.352  0.00  0.00     0.062 H 
ATOM     27  H   LIG d   1      15.229   0.359  -5.028  0.00  0.00     0.062 H 
ATOM     28  H   LIG d   1      15.147  -1.483  -3.445  0.00  0.00     0.062 H 
ATOM     29  H   LIG d   1      13.085  -2.794  -3.086  0.00  0.00     0.064 H 
ENDROOT
BRANCH   1  30
ATOM     30  C   LIG d   1       9.925   1.841  -6.439  0.00  0.00    -0.035 A 
ATOM     31  C   LIG d   1       9.750   2.966  -7.222  0.00  0.00    -0.054 A 
ATOM     32  C   LIG d   1       9.483   4.188  -6.632  0.00  0.00    -0.016 A 
ATOM     33  H   LIG d   1       9.823   2.891  -8.296  0.00  0.00     0.062 H 
ATOM     34  C   LIG d   1       9.389   4.285  -5.253  0.00  0.00     0.162 A 
ATOM     35  H   LIG d   1       9.347   5.066  -7.246  0.00  0.00     0.066 H 
ATOM     36  C   LIG d   1       9.564   3.152  -4.464  0.00  0.00     0.162 A 
ATOM     37  C   LIG d   1       9.833   1.931  -5.062  0.00  0.00    -0.013 A 
ATOM     38  H   LIG d   1       9.974   1.051  -4.452  0.00  0.00     0.066 H 
BRANCH  34  39
ATOM     39  O   LIG d   1       9.125   5.486  -4.671  0.00  0.00    -0.486 OA
BRANCH  39  40
ATOM     40  C   LIG d   1      10.043   6.549  -4.932  0.00  0.00     0.095 C 
ATOM     41  H   LIG d   1      10.815   6.202  -5.618  0.00  0.00     0.073 H 
BRANCH  40  42
ATOM     42  C   LIG d   1       9.295   7.726  -5.561  0.00  0.00    -0.028 C 
ATOM     43  H   LIG d   1       9.894   8.148  -6.368  0.00  0.00     0.026 H 
ATOM     44  H   LIG d   1       8.342   7.380  -5.960  0.00  0.00     0.026 H 
ATOM     45  H   LIG d   1       9.117   8.490  -4.805  0.00  0.00     0.026 H 
ENDBRANCH  40  42
BRANCH  40  46
ATOM     46  C   LIG d   1      10.690   6.998  -3.620  0.00  0.00    -0.028 C 
ATOM     47  H   LIG d   1      11.541   7.645  -3.836  0.00  0.00     0.026 H 
ATOM     48  H   LIG d   1       9.960   7.545  -3.023  0.00  0.00     0.026 H 
ATOM     49  H   LIG d   1      11.031   6.124  -3.066  0.00  0.00     0.026 H 
ENDBRANCH  40  46
ENDBRANCH  39  40
ENDBRANCH  34  39
BRANCH  36  50
ATOM     50  O   LIG d   1       9.473   3.243  -3.111  0.00  0.00    -0.491 OA
BRANCH  50  51
ATOM     51  C   LIG d   1      10.693   3.431  -2.390  0.00  0.00     0.079 C 
ATOM     52  H   LIG d   1      10.993   2.489  -1.931  0.00  0.00     0.066 H 
ATOM     53  H   LIG d   1      11.472   3.767  -3.074  0.00  0.00     0.066 H 
ATOM     54  H   LIG d   1      10.543   4.182  -1.613  0.00  0.00     0.066 H 
ENDBRANCH  50  51
ENDBRANCH  36  50
ENDBRANCH   1  30
BRANCH  11  55
ATOM     55  C   LIG d   1       8.416  -2.946  -6.669  0.00  0.00    -0.029 C 
ATOM     56  H   LIG d   1       9.116  -2.891  -7.504  0.00  0.00     0.026 H 
ATOM     57  H   LIG d   1       8.661  -3.807  -6.047  0.00  0.00     0.026 H 
ATOM     58  H   LIG d   1       7.401  -3.051  -7.052  0.00  0.00     0.026 H 
ENDBRANCH  11  55
BRANCH   8  59
ATOM     59  C   LIG d   1       5.859  -1.470  -3.102  0.00  0.00     0.027 C 
ATOM     60  C   LIG d   1       5.317  -0.161  -2.501  0.00  0.00    -0.034 C 
ATOM     61  C   LIG d   1       3.784  -0.312  -2.427  0.00  0.00    -0.051 C 
ATOM     62  H   LIG d   1       5.727  -0.012  -1.502  0.00  0.00     0.028 H 
ATOM     63  H   LIG d   1       5.579   0.680  -3.143  0.00  0.00     0.028 H 
ATOM     64  C   LIG d   1       3.554  -1.843  -2.398  0.00  0.00    -0.051 C 
ATOM     65  H   LIG d   1       3.399   0.149  -1.517  0.00  0.00     0.027 H 
ATOM     66  H   LIG d   1       3.314   0.128  -3.306  0.00  0.00     0.027 H 
ATOM     67  C   LIG d   1       4.637  -2.372  -3.372  0.00  0.00    -0.034 C 
ATOM     68  H   LIG d   1       3.712  -2.239  -1.395  0.00  0.00     0.027 H 
ATOM     69  H   LIG d   1       2.554  -2.090  -2.756  0.00  0.00     0.027 H 
ATOM     70  H   LIG d   1       4.305  -2.265  -4.405  0.00  0.00     0.028 H 
ATOM     71  H   LIG d   1       4.874  -3.412  -3.152  0.00  0.00     0.028 H 
ATOM     72  H   LIG d   1       6.532  -1.955  -2.395  0.00  0.00     0.050 H 
ENDBRANCH   8  59
TORSDOF 9
ENDMDL
MODEL 7
REMARK VINA RESULT:      -6.3      2.938      7.456
REMARK  9 active torsions:
REMARK  status: ('A' for Active; 'I' for Inactive)
REMARK    1  A    between atoms: C_1  and  C_2 
REMARK    2  A    between atoms: C_2  and  C_3 
REMARK    3  A    between atoms: C_2  and  O_4 
REMARK    4  A    between atoms: O_4  and  C_5 
REMARK    5  A    between atoms: C_8  and  C_13 
REMARK    6  A    between atoms: C_10  and  O_11 
REMARK    7  A    between atoms: O_11  and  C_12 
REMARK    8  A    between atoms: N_20  and  C_35 
REMARK    9  A    between atoms: C_23  and  C_34 
ROOT
ATOM      1  C   LIG d   1       7.151  -2.303  -5.798  0.00  0.00     0.028 C 
ATOM      2  H   LIG d   1       6.230  -2.735  -6.189  0.00  0.00     0.041 H 
ATOM      3  C   LIG d   1       7.969  -1.707  -6.950  0.00  0.00     0.027 C 
ATOM      4  N   LIG d   1       9.016  -0.833  -6.387  0.00  0.00    -0.280 N 
ATOM      5  C   LIG d   1      10.299  -1.167  -6.548  0.00  0.00     0.234 C 
ATOM      6  O   LIG d   1      10.556  -2.092  -7.290  0.00  0.00    -0.274 OA
ATOM      7  C   LIG d   1      11.439  -0.476  -5.873  0.00  0.00     0.092 C 
ATOM      8  N   LIG d   1      10.988   0.579  -4.980  0.00  0.00    -0.287 N 
ATOM      9  C   LIG d   1       9.716   0.963  -4.872  0.00  0.00     0.246 C 
ATOM     10  O   LIG d   1       9.453   1.854  -4.093  0.00  0.00    -0.273 OA
ATOM     11  C   LIG d   1       8.597   0.361  -5.655  0.00  0.00     0.151 C 
ATOM     12  C   LIG d   1       7.458  -0.023  -4.740  0.00  0.00     0.054 A 
ATOM     13  C   LIG d   1       6.818  -1.211  -4.814  0.00  0.00    -0.008 A 
ATOM     14  C   LIG d   1       5.795  -1.205  -3.789  0.00  0.00     0.004 A 
ATOM     15  C   LIG d   1       4.838  -2.148  -3.399  0.00  0.00    -0.052 A 
ATOM     16  C   LIG d   1       4.009  -1.797  -2.362  0.00  0.00    -0.061 A 
ATOM     17  C   LIG d   1       4.105  -0.570  -1.726  0.00  0.00    -0.060 A 
ATOM     18  C   LIG d   1       5.041   0.381  -2.091  0.00  0.00    -0.038 A 
ATOM     19  C   LIG d   1       5.898   0.052  -3.140  0.00  0.00     0.047 A 
ATOM     20  N   LIG d   1       6.915   0.737  -3.740  0.00  0.00    -0.356 N 
ATOM     21  H   LIG d   1       7.208   1.629  -3.494  0.00  0.00     0.166 HD
ATOM     22  H   LIG d   1       8.432  -2.509  -7.523  0.00  0.00     0.047 H 
ATOM     23  H   LIG d   1       7.315  -1.123  -7.598  0.00  0.00     0.047 H 
ATOM     24  H   LIG d   1      12.007  -1.207  -5.298  0.00  0.00     0.056 H 
ATOM     25  H   LIG d   1      12.089  -0.041  -6.633  0.00  0.00     0.056 H 
ATOM     26  H   LIG d   1       4.757  -3.106  -3.889  0.00  0.00     0.062 H 
ATOM     27  H   LIG d   1       3.258  -2.500  -2.033  0.00  0.00     0.062 H 
ATOM     28  H   LIG d   1       3.424  -0.349  -0.917  0.00  0.00     0.062 H 
ATOM     29  H   LIG d   1       5.105   1.333  -1.586  0.00  0.00     0.064 H 
ENDROOT
BRANCH   1  30
ATOM     30  C   LIG d   1       7.957  -3.374  -5.109  0.00  0.00    -0.035 A 
ATOM     31  C   LIG d   1       8.443  -3.158  -3.833  0.00  0.00    -0.054 A 
ATOM     32  C   LIG d   1       9.183  -4.137  -3.197  0.00  0.00    -0.016 A 
ATOM     33  H   LIG d   1       8.243  -2.223  -3.332  0.00  0.00     0.062 H 
ATOM     34  C   LIG d   1       9.440  -5.338  -3.839  0.00  0.00     0.162 A 
ATOM     35  H   LIG d   1       9.562  -3.966  -2.200  0.00  0.00     0.066 H 
ATOM     36  C   LIG d   1       8.951  -5.556  -5.124  0.00  0.00     0.162 A 
ATOM     37  C   LIG d   1       8.210  -4.570  -5.756  0.00  0.00    -0.013 A 
ATOM     38  H   LIG d   1       7.833  -4.735  -6.754  0.00  0.00     0.066 H 
BRANCH  34  39
ATOM     39  O   LIG d   1      10.168  -6.302  -3.215  0.00  0.00    -0.486 OA
BRANCH  39  40
ATOM     40  C   LIG d   1       9.584  -6.913  -2.063  0.00  0.00     0.095 C 
ATOM     41  H   LIG d   1       8.895  -6.213  -1.591  0.00  0.00     0.073 H 
BRANCH  40  42
ATOM     42  C   LIG d   1       8.822  -8.171  -2.485  0.00  0.00    -0.028 C 
ATOM     43  H   LIG d   1       7.776  -7.919  -2.663  0.00  0.00     0.026 H 
ATOM     44  H   LIG d   1       9.259  -8.573  -3.399  0.00  0.00     0.026 H 
ATOM     45  H   LIG d   1       8.885  -8.917  -1.694  0.00  0.00     0.026 H 
ENDBRANCH  40  42
BRANCH  40  46
ATOM     46  C   LIG d   1      10.686  -7.293  -1.072  0.00  0.00    -0.028 C 
ATOM     47  H   LIG d   1      11.626  -6.836  -1.382  0.00  0.00     0.026 H 
ATOM     48  H   LIG d   1      10.419  -6.937  -0.077  0.00  0.00     0.026 H 
ATOM     49  H   LIG d   1      10.798  -8.376  -1.051  0.00  0.00     0.026 H 
ENDBRANCH  40  46
ENDBRANCH  39  40
ENDBRANCH  34  39
BRANCH  36  50
ATOM     50  O   LIG d   1       9.201  -6.732  -5.758  0.00  0.00    -0.491 OA
BRANCH  50  51
ATOM     51  C   LIG d   1       8.069  -7.497  -6.175  0.00  0.00     0.079 C 
ATOM     52  H   LIG d   1       7.277  -6.825  -6.506  0.00  0.00     0.066 H 
ATOM     53  H   LIG d   1       8.356  -8.152  -6.998  0.00  0.00     0.066 H 
ATOM     54  H   LIG d   1       7.710  -8.099  -5.340  0.00  0.00     0.066 H 
ENDBRANCH  50  51
ENDBRANCH  36  50
ENDBRANCH   1  30
BRANCH  11  55
ATOM     55  C   LIG d   1       8.096   1.404  -6.656  0.00  0.00    -0.029 C 
ATOM     56  H   LIG d   1       8.944   1.960  -7.057  0.00  0.00     0.026 H 
ATOM     57  H   LIG d   1       7.572   0.904  -7.471  0.00  0.00     0.026 H 
ATOM     58  H   LIG d   1       7.415   2.092  -6.154  0.00  0.00     0.026 H 
ENDBRANCH  11  55
BRANCH   8  59
ATOM     59  C   LIG d   1      11.988   1.259  -4.152  0.00  0.00     0.027 C 
ATOM     60  C   LIG d   1      13.052   0.253  -3.679  0.00  0.00    -0.034 C 
ATOM     61  C   LIG d   1      14.402   0.742  -4.242  0.00  0.00    -0.051 C 
ATOM     62  H   LIG d   1      13.087   0.232  -2.590  0.00  0.00     0.028 H 
ATOM     63  H   LIG d   1      12.824  -0.740  -4.065  0.00  0.00     0.028 H 
ATOM     64  C   LIG d   1      14.189   2.259  -4.475  0.00  0.00    -0.051 C 
ATOM     65  H   LIG d   1      15.201   0.576  -3.518  0.00  0.00     0.027 H 
ATOM     66  H   LIG d   1      14.629   0.240  -5.182  0.00  0.00     0.027 H 
ATOM     67  C   LIG d   1      12.727   2.325  -4.986  0.00  0.00    -0.034 C 
ATOM     68  H   LIG d   1      14.297   2.812  -3.543  0.00  0.00     0.027 H 
ATOM     69  H   LIG d   1      14.882   2.635  -5.228  0.00  0.00     0.027 H 
ATOM     70  H   LIG d   1      12.683   2.079  -6.046  0.00  0.00     0.028 H 
ATOM     71  H   LIG d   1      12.304   3.313  -4.805  0.00  0.00     0.028 H 
ATOM     72  H   LIG d   1      11.507   1.725  -3.292  0.00  0.00     0.050 H 
ENDBRANCH   8  59
TORSDOF 9
ENDMDL
MODEL 8
REMARK VINA RESULT:      -6.0      2.951      5.389
REMARK  9 active torsions:
REMARK  status: ('A' for Active; 'I' for Inactive)
REMARK    1  A    between atoms: C_1  and  C_2 
REMARK    2  A    between atoms: C_2  and  C_3 
REMARK    3  A    between atoms: C_2  and  O_4 
REMARK    4  A    between atoms: O_4  and  C_5 
REMARK    5  A    between atoms: C_8  and  C_13 
REMARK    6  A    between atoms: C_10  and  O_11 
REMARK    7  A    between atoms: O_11  and  C_12 
REMARK    8  A    between atoms: N_20  and  C_35 
REMARK    9  A    between atoms: C_23  and  C_34 
ROOT
ATOM      1  C   LIG d   1       9.009   0.527  -6.740  0.00  0.00     0.028 C 
ATOM      2  H   LIG d   1       8.822   1.372  -7.403  0.00  0.00     0.041 H 
ATOM      3  C   LIG d   1       9.629  -0.627  -7.535  0.00  0.00     0.027 C 
ATOM      4  N   LIG d   1      10.192  -1.608  -6.589  0.00  0.00    -0.280 N 
ATOM      5  C   LIG d   1       9.662  -2.833  -6.528  0.00  0.00     0.234 C 
ATOM      6  O   LIG d   1       8.842  -3.139  -7.368  0.00  0.00    -0.274 OA
ATOM      7  C   LIG d   1      10.013  -3.850  -5.492  0.00  0.00     0.092 C 
ATOM      8  N   LIG d   1      10.969  -3.339  -4.524  0.00  0.00    -0.287 N 
ATOM      9  C   LIG d   1      11.555  -2.145  -4.623  0.00  0.00     0.246 C 
ATOM     10  O   LIG d   1      12.337  -1.820  -3.755  0.00  0.00    -0.273 OA
ATOM     11  C   LIG d   1      11.305  -1.186  -5.739  0.00  0.00     0.151 C 
ATOM     12  C   LIG d   1      10.988   0.187  -5.195  0.00  0.00     0.054 A 
ATOM     13  C   LIG d   1       9.964   0.944  -5.651  0.00  0.00    -0.008 A 
ATOM     14  C   LIG d   1       9.987   2.181  -4.897  0.00  0.00     0.004 A 
ATOM     15  C   LIG d   1       9.182   3.324  -4.929  0.00  0.00    -0.052 A 
ATOM     16  C   LIG d   1       9.500   4.331  -4.052  0.00  0.00    -0.061 A 
ATOM     17  C   LIG d   1      10.566   4.231  -3.172  0.00  0.00    -0.060 A 
ATOM     18  C   LIG d   1      11.378   3.112  -3.120  0.00  0.00    -0.038 A 
ATOM     19  C   LIG d   1      11.078   2.073  -3.998  0.00  0.00     0.047 A 
ATOM     20  N   LIG d   1      11.656   0.854  -4.206  0.00  0.00    -0.356 N 
ATOM     21  H   LIG d   1      12.427   0.513  -3.725  0.00  0.00     0.166 HD
ATOM     22  H   LIG d   1       8.862  -1.105  -8.144  0.00  0.00     0.047 H 
ATOM     23  H   LIG d   1      10.422  -0.242  -8.178  0.00  0.00     0.047 H 
ATOM     24  H   LIG d   1       9.105  -4.150  -4.968  0.00  0.00     0.056 H 
ATOM     25  H   LIG d   1      10.443  -4.723  -5.984  0.00  0.00     0.056 H 
ATOM     26  H   LIG d   1       8.348   3.411  -5.611  0.00  0.00     0.062 H 
ATOM     27  H   LIG d   1       8.901   5.230  -4.047  0.00  0.00     0.062 H 
ATOM     28  H   LIG d   1      10.770   5.056  -2.505  0.00  0.00     0.062 H 
ATOM     29  H   LIG d   1      12.206   3.048  -2.429  0.00  0.00     0.064 H 
ENDROOT
BRANCH   1  30
ATOM     30  C   LIG d   1       7.710   0.074  -6.124  0.00  0.00    -0.035 A 
ATOM     31  C   LIG d   1       7.612  -0.078  -4.753  0.00  0.00    -0.054 A 
ATOM     32  C   LIG d   1       6.424  -0.495  -4.184  0.00  0.00    -0.016 A 
ATOM     33  H   LIG d   1       8.467   0.128  -4.126  0.00  0.00     0.062 H 
ATOM     34  C   LIG d   1       5.326  -0.760  -4.988  0.00  0.00     0.162 A 
ATOM     35  H   LIG d   1       6.350  -0.613  -3.113  0.00  0.00     0.066 H 
ATOM     36  C   LIG d   1       5.424  -0.606  -6.367  0.00  0.00     0.162 A 
ATOM     37  C   LIG d   1       6.619  -0.189  -6.932  0.00  0.00    -0.013 A 
ATOM     38  H   LIG d   1       6.699  -0.073  -8.002  0.00  0.00     0.066 H 
BRANCH  34  39
ATOM     39  O   LIG d   1       4.155  -1.169  -4.429  0.00  0.00    -0.486 OA
BRANCH  39  40
ATOM     40  C   LIG d   1       3.996  -0.954  -3.025  0.00  0.00     0.095 C 
ATOM     41  H   LIG d   1       4.915  -0.536  -2.615  0.00  0.00     0.073 H 
BRANCH  40  42
ATOM     42  C   LIG d   1       2.842   0.022  -2.787  0.00  0.00    -0.028 C 
ATOM     43  H   LIG d   1       3.103   0.999  -3.193  0.00  0.00     0.026 H 
ATOM     44  H   LIG d   1       1.944  -0.348  -3.281  0.00  0.00     0.026 H 
ATOM     45  H   LIG d   1       2.657   0.111  -1.717  0.00  0.00     0.026 H 
ENDBRANCH  40  42
BRANCH  40  46
ATOM     46  C   LIG d   1       3.689  -2.286  -2.337  0.00  0.00    -0.028 C 
ATOM     47  H   LIG d   1       3.934  -2.212  -1.277  0.00  0.00     0.026 H 
ATOM     48  H   LIG d   1       2.630  -2.518  -2.450  0.00  0.00     0.026 H 
ATOM     49  H   LIG d   1       4.284  -3.076  -2.793  0.00  0.00     0.026 H 
ENDBRANCH  40  46
ENDBRANCH  39  40
ENDBRANCH  34  39
BRANCH  36  50
ATOM     50  O   LIG d   1       4.350  -0.866  -7.159  0.00  0.00    -0.491 OA
BRANCH  50  51
ATOM     51  C   LIG d   1       3.566   0.254  -7.576  0.00  0.00     0.079 C 
ATOM     52  H   LIG d   1       3.214   0.093  -8.595  0.00  0.00     0.066 H 
ATOM     53  H   LIG d   1       2.710   0.366  -6.910  0.00  0.00     0.066 H 
ATOM     54  H   LIG d   1       4.174   1.157  -7.540  0.00  0.00     0.066 H 
ENDBRANCH  50  51
ENDBRANCH  36  50
ENDBRANCH   1  30
BRANCH  11  55
ATOM     55  C   LIG d   1      12.573  -1.100  -6.591  0.00  0.00    -0.029 C 
ATOM     56  H   LIG d   1      12.327  -1.314  -7.631  0.00  0.00     0.026 H 
ATOM     57  H   LIG d   1      12.993  -0.098  -6.516  0.00  0.00     0.026 H 
ATOM     58  H   LIG d   1      13.301  -1.827  -6.232  0.00  0.00     0.026 H 
ENDBRANCH  11  55
BRANCH   8  59
ATOM     59  C   LIG d   1      11.309  -4.182  -3.375  0.00  0.00     0.027 C 
ATOM     60  C   LIG d   1      10.114  -4.264  -2.409  0.00  0.00    -0.034 C 
ATOM     61  C   LIG d   1       9.715  -5.751  -2.325  0.00  0.00    -0.051 C 
ATOM     62  H   LIG d   1      10.404  -3.898  -1.424  0.00  0.00     0.028 H 
ATOM     63  H   LIG d   1       9.281  -3.675  -2.795  0.00  0.00     0.028 H 
ATOM     64  C   LIG d   1      11.004  -6.513  -2.722  0.00  0.00    -0.051 C 
ATOM     65  H   LIG d   1       9.417  -6.009  -1.308  0.00  0.00     0.027 H 
ATOM     66  H   LIG d   1       8.911  -5.971  -3.027  0.00  0.00     0.027 H 
ATOM     67  C   LIG d   1      11.596  -5.623  -3.844  0.00  0.00    -0.034 C 
ATOM     68  H   LIG d   1      11.691  -6.575  -1.878  0.00  0.00     0.027 H 
ATOM     69  H   LIG d   1      10.765  -7.507  -3.098  0.00  0.00     0.027 H 
ATOM     70  H   LIG d   1      11.097  -5.823  -4.792  0.00  0.00     0.028 H 
ATOM     71  H   LIG d   1      12.670  -5.788  -3.936  0.00  0.00     0.028 H 
ATOM     72  H   LIG d   1      12.179  -3.777  -2.858  0.00  0.00     0.050 H 
ENDBRANCH   8  59
TORSDOF 9
ENDMDL
MODEL 9
REMARK VINA RESULT:      -6.0      1.918      3.526
REMARK  9 active torsions:
REMARK  status: ('A' for Active; 'I' for Inactive)
REMARK    1  A    between atoms: C_1  and  C_2 
REMARK    2  A    between atoms: C_2  and  C_3 
REMARK    3  A    between atoms: C_2  and  O_4 
REMARK    4  A    between atoms: O_4  and  C_5 
REMARK    5  A    between atoms: C_8  and  C_13 
REMARK    6  A    between atoms: C_10  and  O_11 
REMARK    7  A    between atoms: O_11  and  C_12 
REMARK    8  A    between atoms: N_20  and  C_35 
REMARK    9  A    between atoms: C_23  and  C_34 
ROOT
ATOM      1  C   LIG d   1       7.677  -1.727  -4.481  0.00  0.00     0.028 C 
ATOM      2  H   LIG d   1       8.114  -1.577  -3.493  0.00  0.00     0.041 H 
ATOM      3  C   LIG d   1       8.183  -3.048  -5.072  0.00  0.00     0.027 C 
ATOM      4  N   LIG d   1       7.336  -3.409  -6.224  0.00  0.00    -0.280 N 
ATOM      5  C   LIG d   1       7.876  -3.439  -7.446  0.00  0.00     0.234 C 
ATOM      6  O   LIG d   1       9.080  -3.326  -7.537  0.00  0.00    -0.274 OA
ATOM      7  C   LIG d   1       7.092  -3.605  -8.707  0.00  0.00     0.092 C 
ATOM      8  N   LIG d   1       5.663  -3.682  -8.458  0.00  0.00    -0.287 N 
ATOM      9  C   LIG d   1       5.126  -3.725  -7.238  0.00  0.00     0.246 C 
ATOM     10  O   LIG d   1       3.918  -3.788  -7.148  0.00  0.00    -0.273 OA
ATOM     11  C   LIG d   1       5.925  -3.701  -5.977  0.00  0.00     0.151 C 
ATOM     12  C   LIG d   1       5.386  -2.655  -5.030  0.00  0.00     0.054 A 
ATOM     13  C   LIG d   1       6.176  -1.782  -4.365  0.00  0.00    -0.008 A 
ATOM     14  C   LIG d   1       5.303  -0.952  -3.560  0.00  0.00     0.004 A 
ATOM     15  C   LIG d   1       5.550   0.106  -2.679  0.00  0.00    -0.052 A 
ATOM     16  C   LIG d   1       4.458   0.675  -2.072  0.00  0.00    -0.061 A 
ATOM     17  C   LIG d   1       3.168   0.230  -2.312  0.00  0.00    -0.060 A 
ATOM     18  C   LIG d   1       2.895  -0.814  -3.179  0.00  0.00    -0.038 A 
ATOM     19  C   LIG d   1       3.985  -1.410  -3.810  0.00  0.00     0.047 A 
ATOM     20  N   LIG d   1       4.075  -2.437  -4.705  0.00  0.00    -0.356 N 
ATOM     21  H   LIG d   1       3.321  -2.938  -5.057  0.00  0.00     0.166 HD
ATOM     22  H   LIG d   1       9.215  -2.930  -5.401  0.00  0.00     0.047 H 
ATOM     23  H   LIG d   1       8.125  -3.832  -4.316  0.00  0.00     0.047 H 
ATOM     24  H   LIG d   1       7.292  -2.756  -9.361  0.00  0.00     0.056 H 
ATOM     25  H   LIG d   1       7.413  -4.519  -9.206  0.00  0.00     0.056 H 
ATOM     26  H   LIG d   1       6.553   0.459  -2.486  0.00  0.00     0.062 H 
ATOM     27  H   LIG d   1       4.610   1.495  -1.385  0.00  0.00     0.062 H 
ATOM     28  H   LIG d   1       2.347   0.716  -1.806  0.00  0.00     0.062 H 
ATOM     29  H   LIG d   1       1.884  -1.150  -3.357  0.00  0.00     0.064 H 
ENDROOT
BRANCH   1  30
ATOM     30  C   LIG d   1       8.071  -0.587  -5.384  0.00  0.00    -0.035 A 
ATOM     31  C   LIG d   1       9.374  -0.124  -5.383  0.00  0.00    -0.054 A 
ATOM     32  C   LIG d   1       9.740   0.922  -6.210  0.00  0.00    -0.016 A 
ATOM     33  H   LIG d   1      10.107  -0.580  -4.735  0.00  0.00     0.062 H 
ATOM     34  C   LIG d   1       8.800   1.508  -7.043  0.00  0.00     0.162 A 
ATOM     35  H   LIG d   1      10.758   1.281  -6.208  0.00  0.00     0.066 H 
ATOM     36  C   LIG d   1       7.489   1.042  -7.044  0.00  0.00     0.162 A 
ATOM     37  C   LIG d   1       7.128  -0.007  -6.212  0.00  0.00    -0.013 A 
ATOM     38  H   LIG d   1       6.111  -0.367  -6.209  0.00  0.00     0.066 H 
BRANCH  34  39
ATOM     39  O   LIG d   1       9.158   2.537  -7.857  0.00  0.00    -0.486 OA
BRANCH  39  40
ATOM     40  C   LIG d   1      10.327   3.274  -7.495  0.00  0.00     0.095 C 
ATOM     41  H   LIG d   1      10.900   2.709  -6.760  0.00  0.00     0.073 H 
BRANCH  40  42
ATOM     42  C   LIG d   1      11.187   3.511  -8.738  0.00  0.00    -0.028 C 
ATOM     43  H   LIG d   1      10.656   3.153  -9.620  0.00  0.00     0.026 H 
ATOM     44  H   LIG d   1      11.388   4.577  -8.844  0.00  0.00     0.026 H 
ATOM     45  H   LIG d   1      12.128   2.972  -8.638  0.00  0.00     0.026 H 
ENDBRANCH  40  42
BRANCH  40  46
ATOM     46  C   LIG d   1       9.916   4.620  -6.895  0.00  0.00    -0.028 C 
ATOM     47  H   LIG d   1       8.828   4.683  -6.854  0.00  0.00     0.026 H 
ATOM     48  H   LIG d   1      10.323   4.709  -5.888  0.00  0.00     0.026 H 
ATOM     49  H   LIG d   1      10.303   5.428  -7.516  0.00  0.00     0.026 H 
ENDBRANCH  40  46
ENDBRANCH  39  40
ENDBRANCH  34  39
BRANCH  36  50
ATOM     50  O   LIG d   1       6.563   1.614  -7.859  0.00  0.00    -0.491 OA
BRANCH  50  51
ATOM     51  C   LIG d   1       6.220   0.904  -9.051  0.00  0.00     0.079 C 
ATOM     52  H   LIG d   1       5.411   1.423  -9.564  0.00  0.00     0.066 H 
ATOM     53  H   LIG d   1       7.090   0.851  -9.705  0.00  0.00     0.066 H 
ATOM     54  H   LIG d   1       5.898  -0.105  -8.792  0.00  0.00     0.066 H 
ENDBRANCH  50  51
ENDBRANCH  36  50
ENDBRANCH   1  30
BRANCH  11  55
ATOM     55  C   LIG d   1       5.813  -5.074  -5.312  0.00  0.00    -0.029 C 
ATOM     56  H   LIG d   1       5.376  -4.963  -4.319  0.00  0.00     0.026 H 
ATOM     57  H   LIG d   1       5.179  -5.721  -5.918  0.00  0.00     0.026 H 
ATOM     58  H   LIG d   1       6.806  -5.517  -5.225  0.00  0.00     0.026 H 
ENDBRANCH  11  55
BRANCH   8  59
ATOM     59  C   LIG d   1       4.760  -3.716  -9.612  0.00  0.00     0.027 C 
ATOM     60  C   LIG d   1       4.616  -2.305 -10.210  0.00  0.00    -0.034 C 
ATOM     61  C   LIG d   1       5.129  -2.388 -11.662  0.00  0.00    -0.051 C 
ATOM     62  H   LIG d   1       3.570  -2.000 -10.199  0.00  0.00     0.028 H 
ATOM     63  H   LIG d   1       5.218  -1.596  -9.641  0.00  0.00     0.028 H 
ATOM     64  C   LIG d   1       4.970  -3.883 -12.036  0.00  0.00    -0.051 C 
ATOM     65  H   LIG d   1       4.520  -1.764 -12.317  0.00  0.00     0.027 H 
ATOM     66  H   LIG d   1       6.176  -2.090 -11.715  0.00  0.00     0.027 H 
ATOM     67  C   LIG d   1       5.353  -4.608 -10.721  0.00  0.00    -0.034 C 
ATOM     68  H   LIG d   1       3.939  -4.105 -12.312  0.00  0.00     0.027 H 
ATOM     69  H   LIG d   1       5.651  -4.153 -12.842  0.00  0.00     0.027 H 
ATOM     70  H   LIG d   1       6.437  -4.669 -10.622  0.00  0.00     0.028 H 
ATOM     71  H   LIG d   1       4.910  -5.603 -10.690  0.00  0.00     0.028 H 
ATOM     72  H   LIG d   1       3.783  -4.095  -9.311  0.00  0.00     0.050 H 
ENDBRANCH   8  59
TORSDOF 9
ENDMDL
MODEL 10
REMARK VINA RESULT:      -5.8      2.993      7.632
REMARK  9 active torsions:
REMARK  status: ('A' for Active; 'I' for Inactive)
REMARK    1  A    between atoms: C_1  and  C_2 
REMARK    2  A    between atoms: C_2  and  C_3 
REMARK    3  A    between atoms: C_2  and  O_4 
REMARK    4  A    between atoms: O_4  and  C_5 
REMARK    5  A    between atoms: C_8  and  C_13 
REMARK    6  A    between atoms: C_10  and  O_11 
REMARK    7  A    between atoms: O_11  and  C_12 
REMARK    8  A    between atoms: N_20  and  C_35 
REMARK    9  A    between atoms: C_23  and  C_34 
ROOT
ATOM      1  C   LIG d   1       5.941  -2.162  -9.692  0.00  0.00     0.028 C 
ATOM      2  H   LIG d   1       6.240  -2.290 -10.732  0.00  0.00     0.041 H 
ATOM      3  C   LIG d   1       6.558  -0.873  -9.133  0.00  0.00     0.027 C 
ATOM      4  N   LIG d   1       5.879  -0.531  -7.870  0.00  0.00    -0.280 N 
ATOM      5  C   LIG d   1       6.574  -0.553  -6.729  0.00  0.00     0.234 C 
ATOM      6  O   LIG d   1       7.776  -0.699  -6.801  0.00  0.00    -0.274 OA
ATOM      7  C   LIG d   1       5.967  -0.410  -5.372  0.00  0.00     0.092 C 
ATOM      8  N   LIG d   1       4.520  -0.290  -5.428  0.00  0.00    -0.287 N 
ATOM      9  C   LIG d   1       3.830  -0.194  -6.565  0.00  0.00     0.246 C 
ATOM     10  O   LIG d   1       2.623  -0.098  -6.494  0.00  0.00    -0.273 OA
ATOM     11  C   LIG d   1       4.456  -0.196  -7.920  0.00  0.00     0.151 C 
ATOM     12  C   LIG d   1       3.768  -1.196  -8.819  0.00  0.00     0.054 A 
ATOM     13  C   LIG d   1       4.439  -2.066  -9.607  0.00  0.00    -0.008 A 
ATOM     14  C   LIG d   1       3.446  -2.847 -10.315  0.00  0.00     0.004 A 
ATOM     15  C   LIG d   1       3.545  -3.882 -11.251  0.00  0.00    -0.052 A 
ATOM     16  C   LIG d   1       2.367  -4.403 -11.726  0.00  0.00    -0.061 A 
ATOM     17  C   LIG d   1       1.133  -3.936 -11.305  0.00  0.00    -0.060 A 
ATOM     18  C   LIG d   1       1.006  -2.914 -10.380  0.00  0.00    -0.038 A 
ATOM     19  C   LIG d   1       2.185  -2.366  -9.880  0.00  0.00     0.047 A 
ATOM     20  N   LIG d   1       2.420  -1.371  -8.975  0.00  0.00    -0.356 N 
ATOM     21  H   LIG d   1       1.734  -0.864  -8.512  0.00  0.00     0.166 HD
ATOM     22  H   LIG d   1       7.620  -1.028  -8.947  0.00  0.00     0.047 H 
ATOM     23  H   LIG d   1       6.424  -0.064  -9.852  0.00  0.00     0.047 H 
ATOM     24  H   LIG d   1       6.226  -1.285  -4.775  0.00  0.00     0.056 H 
ATOM     25  H   LIG d   1       6.376   0.479  -4.892  0.00  0.00     0.056 H 
ATOM     26  H   LIG d   1       4.503  -4.252 -11.585  0.00  0.00     0.062 H 
ATOM     27  H   LIG d   1       2.404  -5.204 -12.450  0.00  0.00     0.062 H 
ATOM     28  H   LIG d   1       0.239  -4.384 -11.713  0.00  0.00     0.062 H 
ATOM     29  H   LIG d   1       0.037  -2.560 -10.061  0.00  0.00     0.064 H 
ENDROOT
BRANCH   1  30
ATOM     30  C   LIG d   1       6.417  -3.340  -8.881  0.00  0.00    -0.035 A 
ATOM     31  C   LIG d   1       5.533  -4.017  -8.062  0.00  0.00    -0.054 A 
ATOM     32  C   LIG d   1       5.965  -5.098  -7.317  0.00  0.00    -0.016 A 
ATOM     33  H   LIG d   1       4.502  -3.700  -8.005  0.00  0.00     0.062 H 
ATOM     34  C   LIG d   1       7.287  -5.505  -7.390  0.00  0.00     0.162 A 
ATOM     35  H   LIG d   1       5.271  -5.625  -6.678  0.00  0.00     0.066 H 
ATOM     36  C   LIG d   1       8.178  -4.825  -8.214  0.00  0.00     0.162 A 
ATOM     37  C   LIG d   1       7.738  -3.741  -8.959  0.00  0.00    -0.013 A 
ATOM     38  H   LIG d   1       8.428  -3.209  -9.596  0.00  0.00     0.066 H 
BRANCH  34  39
ATOM     39  O   LIG d   1       7.714  -6.569  -6.657  0.00  0.00    -0.486 OA
BRANCH  39  40
ATOM     40  C   LIG d   1       7.508  -6.509  -5.245  0.00  0.00     0.095 C 
ATOM     41  H   LIG d   1       6.515  -6.109  -5.039  0.00  0.00     0.073 H 
BRANCH  40  42
ATOM     42  C   LIG d   1       7.625  -7.914  -4.651  0.00  0.00    -0.028 C 
ATOM     43  H   LIG d   1       7.503  -8.653  -5.443  0.00  0.00     0.026 H 
ATOM     44  H   LIG d   1       8.606  -8.034  -4.191  0.00  0.00     0.026 H 
ATOM     45  H   LIG d   1       6.851  -8.056  -3.898  0.00  0.00     0.026 H 
ENDBRANCH  40  42
BRANCH  40  46
ATOM     46  C   LIG d   1       8.565  -5.599  -4.614  0.00  0.00    -0.028 C 
ATOM     47  H   LIG d   1       8.551  -4.628  -5.109  0.00  0.00     0.026 H 
ATOM     48  H   LIG d   1       8.348  -5.470  -3.553  0.00  0.00     0.026 H 
ATOM     49  H   LIG d   1       9.549  -6.051  -4.730  0.00  0.00     0.026 H 
ENDBRANCH  40  46
ENDBRANCH  39  40
ENDBRANCH  34  39
BRANCH  36  50
ATOM     50  O   LIG d   1       9.476  -5.220  -8.289  0.00  0.00    -0.491 OA
BRANCH  50  51
ATOM     51  C   LIG d   1       9.876  -5.917  -9.471  0.00  0.00     0.079 C 
ATOM     52  H   LIG d   1      10.956  -5.840  -9.591  0.00  0.00     0.066 H 
ATOM     53  H   LIG d   1       9.592  -6.966  -9.388  0.00  0.00     0.066 H 
ATOM     54  H   LIG d   1       9.382  -5.474 -10.337  0.00  0.00     0.066 H 
ENDBRANCH  50  51
ENDBRANCH  36  50
ENDBRANCH   1  30
BRANCH  11  55
ATOM     55  C   LIG d   1       4.298   1.201  -8.524  0.00  0.00    -0.029 C 
ATOM     56  H   LIG d   1       5.223   1.762  -8.388  0.00  0.00     0.026 H 
ATOM     57  H   LIG d   1       4.079   1.115  -9.588  0.00  0.00     0.026 H 
ATOM     58  H   LIG d   1       3.480   1.721  -8.026  0.00  0.00     0.026 H 
ENDBRANCH  11  55
BRANCH   8  59
ATOM     59  C   LIG d   1       3.777  -0.272  -4.165  0.00  0.00     0.027 C 
ATOM     60  C   LIG d   1       3.789  -1.672  -3.527  0.00  0.00    -0.034 C 
ATOM     61  C   LIG d   1       4.484  -1.527  -2.158  0.00  0.00    -0.051 C 
ATOM     62  H   LIG d   1       2.768  -2.030  -3.392  0.00  0.00     0.028 H 
ATOM     63  H   LIG d   1       4.347  -2.365  -4.158  0.00  0.00     0.028 H 
ATOM     64  C   LIG d   1       4.296  -0.033  -1.794  0.00  0.00    -0.051 C 
ATOM     65  H   LIG d   1       4.001  -2.164  -1.416  0.00  0.00     0.027 H 
ATOM     66  H   LIG d   1       5.543  -1.770  -2.239  0.00  0.00     0.027 H 
ATOM     67  C   LIG d   1       4.463   0.677  -3.162  0.00  0.00    -0.034 C 
ATOM     68  H   LIG d   1       3.301   0.144  -1.388  0.00  0.00     0.027 H 
ATOM     69  H   LIG d   1       5.063   0.292  -1.091  0.00  0.00     0.027 H 
ATOM     70  H   LIG d   1       5.520   0.790  -3.405  0.00  0.00     0.028 H 
ATOM     71  H   LIG d   1       3.967   1.647  -3.152  0.00  0.00     0.028 H 
ATOM     72  H   LIG d   1       2.750   0.049  -4.341  0.00  0.00     0.050 H 
ENDBRANCH   8  59
TORSDOF 9
ENDMDL
