MODEL 1
REMARK VINA RESULT:      -6.1      0.000      0.000
REMARK  9 active torsions:
REMARK  status: ('A' for Active; 'I' for Inactive)
REMARK    1  A    between atoms: C_1  and  O_2 
REMARK    2  A    between atoms: O_2  and  C_3 
REMARK    3  A    between atoms: C_3  and  C_4 
REMARK    4  A    between atoms: C_4  and  O_5 
REMARK    5  A    between atoms: O_5  and  C_6 
REMARK    6  A    between atoms: C_7  and  C_12 
REMARK    7  A    between atoms: C_14  and  C_17 
REMARK    8  A    between atoms: N_22  and  C_23 
REMARK    9  A    between atoms: C_23  and  C_24 
ROOT
ATOM      1  C   LIG d   1       3.021   0.978  -7.202  0.00  0.00     0.207 A 
ATOM      2  N   LIG d   1       3.403   0.223  -6.155  0.00  0.00    -0.186 NA
ATOM      3  C   LIG d   1       3.041   0.791  -5.040  0.00  0.00     0.276 A 
ATOM      4  O   LIG d   1       2.410   1.936  -5.332  0.00  0.00    -0.332 OA
ATOM      5  N   LIG d   1       2.411   2.046  -6.747  0.00  0.00    -0.056 NA
ENDROOT
BRANCH   3   6
ATOM      6  C   LIG d   1       3.289   0.250  -3.656  0.00  0.00     0.060 C 
ATOM      7  H   LIG d   1       2.402  -0.260  -3.279  0.00  0.00     0.095 H 
ATOM      8  N   LIG d   1       4.459  -0.664  -3.652  0.00  0.00     0.248 N 
ATOM      9  C   LIG d   1       4.945  -0.689  -2.254  0.00  0.00    -0.031 C 
ATOM     10  H   LIG d   1       5.179  -0.309  -4.263  0.00  0.00     0.204 HD
ATOM     11  C   LIG d   1       4.502   0.631  -1.596  0.00  0.00    -0.007 C 
ATOM     12  H   LIG d   1       6.033  -0.765  -2.239  0.00  0.00     0.082 H 
ATOM     13  H   LIG d   1       4.504  -1.533  -1.726  0.00  0.00     0.082 H 
ATOM     14  C   LIG d   1       3.717   1.386  -2.693  0.00  0.00     0.004 C 
ATOM     15  H   LIG d   1       5.372   1.210  -1.287  0.00  0.00     0.032 H 
ATOM     16  H   LIG d   1       3.858   0.430  -0.740  0.00  0.00     0.032 H 
ATOM     17  H   LIG d   1       4.361   2.102  -3.204  0.00  0.00     0.033 H 
ATOM     18  H   LIG d   1       2.845   1.883  -2.270  0.00  0.00     0.033 H 
BRANCH   8  19
ATOM     19  C   LIG d   1       4.052  -2.011  -4.076  0.00  0.00     0.001 C 
ATOM     20  H   LIG d   1       3.665  -2.559  -3.217  0.00  0.00     0.087 H 
ATOM     21  H   LIG d   1       3.276  -1.933  -4.837  0.00  0.00     0.087 H 
BRANCH  19  22
ATOM     22  C   LIG d   1       5.243  -2.740  -4.644  0.00  0.00     0.034 A 
ATOM     23  S   LIG d   1       6.896  -2.136  -4.940  0.00  0.00    -0.096 SA
ATOM     24  C   LIG d   1       7.599  -3.637  -5.600  0.00  0.00    -0.024 A 
ATOM     25  C   LIG d   1       6.541  -4.484  -5.558  0.00  0.00    -0.054 A 
ATOM     26  H   LIG d   1       8.605  -3.823  -5.947  0.00  0.00     0.069 H 
ATOM     27  C   LIG d   1       5.333  -4.025  -5.068  0.00  0.00    -0.046 A 
ATOM     28  H   LIG d   1       6.641  -5.503  -5.902  0.00  0.00     0.062 H 
ATOM     29  H   LIG d   1       4.475  -4.679  -5.024  0.00  0.00     0.063 H 
ENDBRANCH  19  22
ENDBRANCH   8  19
ENDBRANCH   3   6
BRANCH   1  30
ATOM     30  C   LIG d   1       3.256   0.659  -8.631  0.00  0.00     0.084 A 
ATOM     31  C   LIG d   1       4.363   1.189  -9.306  0.00  0.00     0.226 A 
ATOM     32  N   LIG d   1       4.568   0.907 -10.580  0.00  0.00    -0.221 NA
ATOM     33  C   LIG d   1       3.756   0.117 -11.257  0.00  0.00     0.031 A 
ATOM     34  C   LIG d   1       2.643  -0.443 -10.659  0.00  0.00    -0.043 A 
ATOM     35  H   LIG d   1       3.962  -0.092 -12.296  0.00  0.00     0.083 H 
ATOM     36  C   LIG d   1       2.379  -0.175  -9.325  0.00  0.00    -0.044 A 
ATOM     37  H   LIG d   1       1.985  -1.084 -11.227  0.00  0.00     0.063 H 
ATOM     38  H   LIG d   1       1.516  -0.601  -8.836  0.00  0.00     0.063 H 
BRANCH  31  39
ATOM     39  O   LIG d   1       5.227   2.001  -8.648  0.00  0.00    -0.474 OA
BRANCH  39  40
ATOM     40  C   LIG d   1       6.619   1.704  -8.774  0.00  0.00     0.115 C 
ATOM     41  H   LIG d   1       7.201   2.606  -8.587  0.00  0.00     0.072 H 
ATOM     42  H   LIG d   1       6.823   1.341  -9.781  0.00  0.00     0.072 H 
BRANCH  40  43
ATOM     43  C   LIG d   1       7.005   0.628  -7.756  0.00  0.00     0.081 C 
ATOM     44  H   LIG d   1       8.033   0.313  -7.934  0.00  0.00     0.059 H 
ATOM     45  H   LIG d   1       6.339  -0.228  -7.864  0.00  0.00     0.059 H 
BRANCH  43  46
ATOM     46  O   LIG d   1       6.889   1.158  -6.435  0.00  0.00    -0.380 OA
BRANCH  46  47
ATOM     47  C   LIG d   1       8.129   1.597  -5.875  0.00  0.00     0.037 C 
ATOM     48  H   LIG d   1       8.771   0.736  -5.693  0.00  0.00     0.052 H 
ATOM     49  H   LIG d   1       8.621   2.276  -6.571  0.00  0.00     0.052 H 
ATOM     50  H   LIG d   1       7.939   2.115  -4.935  0.00  0.00     0.052 H 
ENDBRANCH  46  47
ENDBRANCH  43  46
ENDBRANCH  40  43
ENDBRANCH  39  40
ENDBRANCH  31  39
ENDBRANCH   1  30
TORSDOF 9
ENDMDL
MODEL 2
REMARK VINA RESULT:      -6.0      2.849      6.252
REMARK  9 active torsions:
REMARK  status: ('A' for Active; 'I' for Inactive)
REMARK    1  A    between atoms: C_1  and  O_2 
REMARK    2  A    between atoms: O_2  and  C_3 
REMARK    3  A    between atoms: C_3  and  C_4 
REMARK    4  A    between atoms: C_4  and  O_5 
REMARK    5  A    between atoms: O_5  and  C_6 
REMARK    6  A    between atoms: C_7  and  C_12 
REMARK    7  A    between atoms: C_14  and  C_17 
REMARK    8  A    between atoms: N_22  and  C_23 
REMARK    9  A    between atoms: C_23  and  C_24 
ROOT
ATOM      1  C   LIG d   1       5.164  -2.478  -4.257  0.00  0.00     0.207 A 
ATOM      2  N   LIG d   1       4.306  -3.383  -4.765  0.00  0.00    -0.186 NA
ATOM      3  C   LIG d   1       4.964  -4.384  -5.276  0.00  0.00     0.276 A 
ATOM      4  O   LIG d   1       6.274  -4.158  -5.114  0.00  0.00    -0.332 OA
ATOM      5  N   LIG d   1       6.388  -2.907  -4.452  0.00  0.00    -0.056 NA
ENDROOT
BRANCH   3   6
ATOM      6  C   LIG d   1       4.354  -5.593  -5.937  0.00  0.00     0.060 C 
ATOM      7  H   LIG d   1       3.287  -5.649  -5.722  0.00  0.00     0.095 H 
ATOM      8  N   LIG d   1       4.592  -5.565  -7.403  0.00  0.00     0.248 N 
ATOM      9  C   LIG d   1       4.473  -6.969  -7.855  0.00  0.00    -0.031 C 
ATOM     10  H   LIG d   1       5.518  -5.216  -7.598  0.00  0.00     0.204 HD
ATOM     11  C   LIG d   1       4.794  -7.865  -6.645  0.00  0.00    -0.007 C 
ATOM     12  H   LIG d   1       5.183  -7.163  -8.660  0.00  0.00     0.082 H 
ATOM     13  H   LIG d   1       3.457  -7.161  -8.200  0.00  0.00     0.082 H 
ATOM     14  C   LIG d   1       5.073  -6.887  -5.481  0.00  0.00     0.004 C 
ATOM     15  H   LIG d   1       5.676  -8.473  -6.847  0.00  0.00     0.032 H 
ATOM     16  H   LIG d   1       3.941  -8.502  -6.408  0.00  0.00     0.032 H 
ATOM     17  H   LIG d   1       6.143  -6.715  -5.370  0.00  0.00     0.033 H 
ATOM     18  H   LIG d   1       4.642  -7.260  -4.552  0.00  0.00     0.033 H 
BRANCH   8  19
ATOM     19  C   LIG d   1       3.583  -4.728  -8.065  0.00  0.00     0.001 C 
ATOM     20  H   LIG d   1       2.984  -5.344  -8.736  0.00  0.00     0.087 H 
ATOM     21  H   LIG d   1       2.937  -4.275  -7.313  0.00  0.00     0.087 H 
BRANCH  19  22
ATOM     22  C   LIG d   1       4.270  -3.644  -8.856  0.00  0.00     0.034 A 
ATOM     23  S   LIG d   1       5.804  -2.800  -8.511  0.00  0.00    -0.096 SA
ATOM     24  C   LIG d   1       5.825  -1.724  -9.934  0.00  0.00    -0.024 A 
ATOM     25  C   LIG d   1       4.676  -2.069 -10.564  0.00  0.00    -0.054 A 
ATOM     26  H   LIG d   1       6.561  -0.986 -10.218  0.00  0.00     0.069 H 
ATOM     27  C   LIG d   1       3.878  -3.053 -10.012  0.00  0.00    -0.046 A 
ATOM     28  H   LIG d   1       4.388  -1.582 -11.484  0.00  0.00     0.062 H 
ATOM     29  H   LIG d   1       2.957  -3.347 -10.494  0.00  0.00     0.063 H 
ENDBRANCH  19  22
ENDBRANCH   8  19
ENDBRANCH   3   6
BRANCH   1  30
ATOM     30  C   LIG d   1       4.789  -1.207  -3.593  0.00  0.00     0.084 A 
ATOM     31  C   LIG d   1       4.491  -0.068  -4.353  0.00  0.00     0.226 A 
ATOM     32  N   LIG d   1       4.161   1.065  -3.759  0.00  0.00    -0.221 NA
ATOM     33  C   LIG d   1       4.090   1.167  -2.445  0.00  0.00     0.031 A 
ATOM     34  C   LIG d   1       4.370   0.087  -1.630  0.00  0.00    -0.043 A 
ATOM     35  H   LIG d   1       3.812   2.110  -2.000  0.00  0.00     0.083 H 
ATOM     36  C   LIG d   1       4.726  -1.124  -2.202  0.00  0.00    -0.044 A 
ATOM     37  H   LIG d   1       4.312   0.186  -0.556  0.00  0.00     0.063 H 
ATOM     38  H   LIG d   1       4.949  -1.982  -1.586  0.00  0.00     0.063 H 
BRANCH  31  39
ATOM     39  O   LIG d   1       4.546  -0.128  -5.706  0.00  0.00    -0.474 OA
BRANCH  39  40
ATOM     40  C   LIG d   1       3.305  -0.051  -6.409  0.00  0.00     0.115 C 
ATOM     41  H   LIG d   1       2.647   0.659  -5.909  0.00  0.00     0.072 H 
ATOM     42  H   LIG d   1       2.834  -1.034  -6.425  0.00  0.00     0.072 H 
BRANCH  40  43
ATOM     43  C   LIG d   1       3.560   0.414  -7.845  0.00  0.00     0.081 C 
ATOM     44  H   LIG d   1       2.861  -0.084  -8.517  0.00  0.00     0.059 H 
ATOM     45  H   LIG d   1       4.581   0.162  -8.132  0.00  0.00     0.059 H 
BRANCH  43  46
ATOM     46  O   LIG d   1       3.377   1.828  -7.929  0.00  0.00    -0.380 OA
BRANCH  46  47
ATOM     47  C   LIG d   1       3.762   2.391  -9.184  0.00  0.00     0.037 C 
ATOM     48  H   LIG d   1       4.745   2.014  -9.465  0.00  0.00     0.052 H 
ATOM     49  H   LIG d   1       3.035   2.110  -9.946  0.00  0.00     0.052 H 
ATOM     50  H   LIG d   1       3.799   3.477  -9.099  0.00  0.00     0.052 H 
ENDBRANCH  46  47
ENDBRANCH  43  46
ENDBRANCH  40  43
ENDBRANCH  39  40
ENDBRANCH  31  39
ENDBRANCH   1  30
TORSDOF 9
ENDMDL
MODEL 3
REMARK VINA RESULT:      -5.9      2.558      6.201
REMARK  9 active torsions:
REMARK  status: ('A' for Active; 'I' for Inactive)
REMARK    1  A    between atoms: C_1  and  O_2 
REMARK    2  A    between atoms: O_2  and  C_3 
REMARK    3  A    between atoms: C_3  and  C_4 
REMARK    4  A    between atoms: C_4  and  O_5 
REMARK    5  A    between atoms: O_5  and  C_6 
REMARK    6  A    between atoms: C_7  and  C_12 
REMARK    7  A    between atoms: C_14  and  C_17 
REMARK    8  A    between atoms: N_22  and  C_23 
REMARK    9  A    between atoms: C_23  and  C_24 
ROOT
ATOM      1  C   LIG d   1       4.499  -2.152  -4.316  0.00  0.00     0.207 A 
ATOM      2  N   LIG d   1       4.684  -2.243  -5.646  0.00  0.00    -0.186 NA
ATOM      3  C   LIG d   1       4.612  -3.488  -6.022  0.00  0.00     0.276 A 
ATOM      4  O   LIG d   1       4.376  -4.244  -4.942  0.00  0.00    -0.332 OA
ATOM      5  N   LIG d   1       4.311  -3.357  -3.836  0.00  0.00    -0.056 NA
ENDROOT
BRANCH   3   6
ATOM      6  C   LIG d   1       4.766  -3.991  -7.434  0.00  0.00     0.060 C 
ATOM      7  H   LIG d   1       3.962  -4.683  -7.684  0.00  0.00     0.095 H 
ATOM      8  N   LIG d   1       4.799  -2.858  -8.394  0.00  0.00     0.248 N 
ATOM      9  C   LIG d   1       5.483  -3.374  -9.601  0.00  0.00    -0.031 C 
ATOM     10  H   LIG d   1       5.320  -2.087  -8.003  0.00  0.00     0.204 HD
ATOM     11  C   LIG d   1       6.385  -4.538  -9.149  0.00  0.00    -0.007 C 
ATOM     12  H   LIG d   1       6.090  -2.587 -10.050  0.00  0.00     0.082 H 
ATOM     13  H   LIG d   1       4.746  -3.733 -10.318  0.00  0.00     0.082 H 
ATOM     14  C   LIG d   1       6.148  -4.665  -7.626  0.00  0.00     0.004 C 
ATOM     15  H   LIG d   1       7.431  -4.306  -9.350  0.00  0.00     0.032 H 
ATOM     16  H   LIG d   1       6.096  -5.459  -9.655  0.00  0.00     0.032 H 
ATOM     17  H   LIG d   1       6.919  -4.131  -7.071  0.00  0.00     0.033 H 
ATOM     18  H   LIG d   1       6.111  -5.712  -7.328  0.00  0.00     0.033 H 
BRANCH   8  19
ATOM     19  C   LIG d   1       3.432  -2.433  -8.724  0.00  0.00     0.001 C 
ATOM     20  H   LIG d   1       3.143  -2.858  -9.685  0.00  0.00     0.087 H 
ATOM     21  H   LIG d   1       2.747  -2.782  -7.952  0.00  0.00     0.087 H 
BRANCH  19  22
ATOM     22  C   LIG d   1       3.379  -0.929  -8.802  0.00  0.00     0.034 A 
ATOM     23  S   LIG d   1       4.670   0.261  -8.481  0.00  0.00    -0.096 SA
ATOM     24  C   LIG d   1       3.734   1.744  -8.812  0.00  0.00    -0.024 A 
ATOM     25  C   LIG d   1       2.517   1.242  -9.133  0.00  0.00    -0.054 A 
ATOM     26  H   LIG d   1       4.053   2.775  -8.765  0.00  0.00     0.069 H 
ATOM     27  C   LIG d   1       2.334  -0.128  -9.128  0.00  0.00    -0.046 A 
ATOM     28  H   LIG d   1       1.702   1.902  -9.390  0.00  0.00     0.062 H 
ATOM     29  H   LIG d   1       1.374  -0.555  -9.380  0.00  0.00     0.063 H 
ENDBRANCH  19  22
ENDBRANCH   8  19
ENDBRANCH   3   6
BRANCH   1  30
ATOM     30  C   LIG d   1       4.512  -0.898  -3.524  0.00  0.00     0.084 A 
ATOM     31  C   LIG d   1       5.721  -0.254  -3.231  0.00  0.00     0.226 A 
ATOM     32  N   LIG d   1       5.730   0.860  -2.521  0.00  0.00    -0.221 NA
ATOM     33  C   LIG d   1       4.616   1.410  -2.074  0.00  0.00     0.031 A 
ATOM     34  C   LIG d   1       3.386   0.833  -2.324  0.00  0.00    -0.043 A 
ATOM     35  H   LIG d   1       4.668   2.324  -1.502  0.00  0.00     0.083 H 
ATOM     36  C   LIG d   1       3.321  -0.340  -3.060  0.00  0.00    -0.044 A 
ATOM     37  H   LIG d   1       2.483   1.292  -1.949  0.00  0.00     0.063 H 
ATOM     38  H   LIG d   1       2.371  -0.810  -3.267  0.00  0.00     0.063 H 
BRANCH  31  39
ATOM     39  O   LIG d   1       6.889  -0.780  -3.674  0.00  0.00    -0.474 OA
BRANCH  39  40
ATOM     40  C   LIG d   1       7.792   0.109  -4.333  0.00  0.00     0.115 C 
ATOM     41  H   LIG d   1       8.816  -0.231  -4.177  0.00  0.00     0.072 H 
ATOM     42  H   LIG d   1       7.676   1.113  -3.924  0.00  0.00     0.072 H 
BRANCH  40  43
ATOM     43  C   LIG d   1       7.484   0.130  -5.832  0.00  0.00     0.081 C 
ATOM     44  H   LIG d   1       6.561  -0.419  -6.020  0.00  0.00     0.059 H 
ATOM     45  H   LIG d   1       8.303  -0.338  -6.377  0.00  0.00     0.059 H 
BRANCH  43  46
ATOM     46  O   LIG d   1       7.332   1.482  -6.268  0.00  0.00    -0.380 OA
BRANCH  46  47
ATOM     47  C   LIG d   1       8.302   1.893  -7.234  0.00  0.00     0.037 C 
ATOM     48  H   LIG d   1       9.302   1.766  -6.821  0.00  0.00     0.052 H 
ATOM     49  H   LIG d   1       8.200   1.285  -8.133  0.00  0.00     0.052 H 
ATOM     50  H   LIG d   1       8.143   2.942  -7.484  0.00  0.00     0.052 H 
ENDBRANCH  46  47
ENDBRANCH  43  46
ENDBRANCH  40  43
ENDBRANCH  39  40
ENDBRANCH  31  39
ENDBRANCH   1  30
TORSDOF 9
ENDMDL
MODEL 4
REMARK VINA RESULT:      -5.8      2.852      6.149
REMARK  9 active torsions:
REMARK  status: ('A' for Active; 'I' for Inactive)
REMARK    1  A    between atoms: C_1  and  O_2 
REMARK    2  A    between atoms: O_2  and  C_3 
REMARK    3  A    between atoms: C_3  and  C_4 
REMARK    4  A    between atoms: C_4  and  O_5 
REMARK    5  A    between atoms: O_5  and  C_6 
REMARK    6  A    between atoms: C_7  and  C_12 
REMARK    7  A    between atoms: C_14  and  C_17 
REMARK    8  A    between atoms: N_22  and  C_23 
REMARK    9  A    between atoms: C_23  and  C_24 
ROOT
ATOM      1  C   LIG d   1       4.837  -2.291  -4.241  0.00  0.00     0.207 A 
ATOM      2  N   LIG d   1       5.728  -2.506  -5.226  0.00  0.00    -0.186 NA
ATOM      3  C   LIG d   1       5.699  -3.757  -5.590  0.00  0.00     0.276 A 
ATOM      4  O   LIG d   1       4.783  -4.393  -4.848  0.00  0.00    -0.332 OA
ATOM      5  N   LIG d   1       4.234  -3.423  -3.968  0.00  0.00    -0.056 NA
ENDROOT
BRANCH   3   6
ATOM      6  C   LIG d   1       6.551  -4.381  -6.664  0.00  0.00     0.060 C 
ATOM      7  H   LIG d   1       7.006  -3.612  -7.288  0.00  0.00     0.095 H 
ATOM      8  N   LIG d   1       7.592  -5.255  -6.066  0.00  0.00     0.248 N 
ATOM      9  C   LIG d   1       7.979  -6.206  -7.132  0.00  0.00    -0.031 C 
ATOM     10  H   LIG d   1       7.214  -5.755  -5.276  0.00  0.00     0.204 HD
ATOM     11  C   LIG d   1       6.783  -6.320  -8.095  0.00  0.00    -0.007 C 
ATOM     12  H   LIG d   1       8.201  -7.182  -6.699  0.00  0.00     0.082 H 
ATOM     13  H   LIG d   1       8.850  -5.828  -7.666  0.00  0.00     0.082 H 
ATOM     14  C   LIG d   1       5.713  -5.359  -7.526  0.00  0.00     0.004 C 
ATOM     15  H   LIG d   1       6.403  -7.342  -8.109  0.00  0.00     0.032 H 
ATOM     16  H   LIG d   1       7.074  -6.011  -9.099  0.00  0.00     0.032 H 
ATOM     17  H   LIG d   1       4.997  -5.901  -6.909  0.00  0.00     0.033 H 
ATOM     18  H   LIG d   1       5.207  -4.827  -8.331  0.00  0.00     0.033 H 
BRANCH   8  19
ATOM     19  C   LIG d   1       8.751  -4.453  -5.652  0.00  0.00     0.001 C 
ATOM     20  H   LIG d   1       9.593  -4.667  -6.310  0.00  0.00     0.087 H 
ATOM     21  H   LIG d   1       8.501  -3.394  -5.715  0.00  0.00     0.087 H 
BRANCH  19  22
ATOM     22  C   LIG d   1       9.121  -4.798  -4.233  0.00  0.00     0.034 A 
ATOM     23  S   LIG d   1       9.424  -6.401  -3.508  0.00  0.00    -0.096 SA
ATOM     24  C   LIG d   1       9.782  -5.862  -1.845  0.00  0.00    -0.024 A 
ATOM     25  C   LIG d   1       9.644  -4.518  -1.950  0.00  0.00    -0.054 A 
ATOM     26  H   LIG d   1      10.041  -6.453  -0.979  0.00  0.00     0.069 H 
ATOM     27  C   LIG d   1       9.305  -3.972  -3.173  0.00  0.00    -0.046 A 
ATOM     28  H   LIG d   1       9.796  -3.883  -1.090  0.00  0.00     0.062 H 
ATOM     29  H   LIG d   1       9.187  -2.904  -3.285  0.00  0.00     0.063 H 
ENDBRANCH  19  22
ENDBRANCH   8  19
ENDBRANCH   3   6
BRANCH   1  30
ATOM     30  C   LIG d   1       4.584  -0.993  -3.571  0.00  0.00     0.084 A 
ATOM     31  C   LIG d   1       4.223   0.136  -4.318  0.00  0.00     0.226 A 
ATOM     32  N   LIG d   1       4.003   1.292  -3.720  0.00  0.00    -0.221 NA
ATOM     33  C   LIG d   1       4.102   1.428  -2.410  0.00  0.00     0.031 A 
ATOM     34  C   LIG d   1       4.453   0.360  -1.607  0.00  0.00    -0.043 A 
ATOM     35  H   LIG d   1       3.909   2.390  -1.960  0.00  0.00     0.083 H 
ATOM     36  C   LIG d   1       4.700  -0.875  -2.186  0.00  0.00    -0.044 A 
ATOM     37  H   LIG d   1       4.534   0.487  -0.538  0.00  0.00     0.063 H 
ATOM     38  H   LIG d   1       4.976  -1.724  -1.579  0.00  0.00     0.063 H 
BRANCH  31  39
ATOM     39  O   LIG d   1       4.105   0.041  -5.666  0.00  0.00    -0.474 OA
BRANCH  39  40
ATOM     40  C   LIG d   1       2.809   0.277  -6.221  0.00  0.00     0.115 C 
ATOM     41  H   LIG d   1       2.384   1.178  -5.781  0.00  0.00     0.072 H 
ATOM     42  H   LIG d   1       2.162  -0.574  -6.005  0.00  0.00     0.072 H 
BRANCH  40  43
ATOM     43  C   LIG d   1       2.928   0.454  -7.736  0.00  0.00     0.081 C 
ATOM     44  H   LIG d   1       1.939   0.387  -8.188  0.00  0.00     0.059 H 
ATOM     45  H   LIG d   1       3.568  -0.328  -8.144  0.00  0.00     0.059 H 
BRANCH  43  46
ATOM     46  O   LIG d   1       3.497   1.733  -8.023  0.00  0.00    -0.380 OA
BRANCH  46  47
ATOM     47  C   LIG d   1       4.534   1.700  -9.007  0.00  0.00     0.037 C 
ATOM     48  H   LIG d   1       4.504   0.747  -9.534  0.00  0.00     0.052 H 
ATOM     49  H   LIG d   1       4.385   2.513  -9.718  0.00  0.00     0.052 H 
ATOM     50  H   LIG d   1       5.501   1.816  -8.519  0.00  0.00     0.052 H 
ENDBRANCH  46  47
ENDBRANCH  43  46
ENDBRANCH  40  43
ENDBRANCH  39  40
ENDBRANCH  31  39
ENDBRANCH   1  30
TORSDOF 9
ENDMDL
MODEL 5
REMARK VINA RESULT:      -5.8      2.664      6.867
REMARK  9 active torsions:
REMARK  status: ('A' for Active; 'I' for Inactive)
REMARK    1  A    between atoms: C_1  and  O_2 
REMARK    2  A    between atoms: O_2  and  C_3 
REMARK    3  A    between atoms: C_3  and  C_4 
REMARK    4  A    between atoms: C_4  and  O_5 
REMARK    5  A    between atoms: O_5  and  C_6 
REMARK    6  A    between atoms: C_7  and  C_12 
REMARK    7  A    between atoms: C_14  and  C_17 
REMARK    8  A    between atoms: N_22  and  C_23 
REMARK    9  A    between atoms: C_23  and  C_24 
ROOT
ATOM      1  C   LIG d   1       6.825   0.150  -4.711  0.00  0.00     0.207 A 
ATOM      2  N   LIG d   1       7.046   0.986  -5.742  0.00  0.00    -0.186 NA
ATOM      3  C   LIG d   1       8.197   0.721  -6.293  0.00  0.00     0.276 A 
ATOM      4  O   LIG d   1       8.758  -0.300  -5.632  0.00  0.00    -0.332 OA
ATOM      5  N   LIG d   1       7.852  -0.657  -4.600  0.00  0.00    -0.056 NA
ENDROOT
BRANCH   3   6
ATOM      6  C   LIG d   1       8.794   1.441  -7.474  0.00  0.00     0.060 C 
ATOM      7  H   LIG d   1       9.308   0.740  -8.131  0.00  0.00     0.095 H 
ATOM      8  N   LIG d   1       7.747   2.185  -8.219  0.00  0.00     0.248 N 
ATOM      9  C   LIG d   1       8.461   3.248  -8.962  0.00  0.00    -0.031 C 
ATOM     10  H   LIG d   1       7.088   2.596  -7.575  0.00  0.00     0.204 HD
ATOM     11  C   LIG d   1       9.767   3.536  -8.199  0.00  0.00    -0.007 C 
ATOM     12  H   LIG d   1       7.849   4.149  -9.004  0.00  0.00     0.082 H 
ATOM     13  H   LIG d   1       8.688   2.904  -9.970  0.00  0.00     0.082 H 
ATOM     14  C   LIG d   1       9.761   2.557  -7.002  0.00  0.00     0.004 C 
ATOM     15  H   LIG d   1       9.779   4.566  -7.844  0.00  0.00     0.032 H 
ATOM     16  H   LIG d   1      10.629   3.346  -8.839  0.00  0.00     0.032 H 
ATOM     17  H   LIG d   1       9.378   3.046  -6.107  0.00  0.00     0.033 H 
ATOM     18  H   LIG d   1      10.758   2.155  -6.828  0.00  0.00     0.033 H 
BRANCH   8  19
ATOM     19  C   LIG d   1       7.054   1.287  -9.152  0.00  0.00     0.001 C 
ATOM     20  H   LIG d   1       7.307   1.563 -10.176  0.00  0.00     0.087 H 
ATOM     21  H   LIG d   1       7.364   0.259  -8.966  0.00  0.00     0.087 H 
BRANCH  19  22
ATOM     22  C   LIG d   1       5.565   1.406  -8.953  0.00  0.00     0.034 A 
ATOM     23  S   LIG d   1       4.423   0.219  -8.264  0.00  0.00    -0.096 SA
ATOM     24  C   LIG d   1       2.931   1.185  -8.417  0.00  0.00    -0.024 A 
ATOM     25  C   LIG d   1       3.394   2.329  -8.980  0.00  0.00    -0.054 A 
ATOM     26  H   LIG d   1       1.921   0.926  -8.137  0.00  0.00     0.069 H 
ATOM     27  C   LIG d   1       4.744   2.443  -9.254  0.00  0.00    -0.046 A 
ATOM     28  H   LIG d   1       2.718   3.139  -9.209  0.00  0.00     0.062 H 
ATOM     29  H   LIG d   1       5.139   3.342  -9.703  0.00  0.00     0.063 H 
ENDBRANCH  19  22
ENDBRANCH   8  19
ENDBRANCH   3   6
BRANCH   1  30
ATOM     30  C   LIG d   1       5.623   0.146  -3.843  0.00  0.00     0.084 A 
ATOM     31  C   LIG d   1       4.600  -0.788  -4.047  0.00  0.00     0.226 A 
ATOM     32  N   LIG d   1       3.528  -0.786  -3.276  0.00  0.00    -0.221 NA
ATOM     33  C   LIG d   1       3.384   0.077  -2.287  0.00  0.00     0.031 A 
ATOM     34  C   LIG d   1       4.351   1.029  -2.025  0.00  0.00    -0.043 A 
ATOM     35  H   LIG d   1       2.494   0.042  -1.677  0.00  0.00     0.083 H 
ATOM     36  C   LIG d   1       5.493   1.073  -2.808  0.00  0.00    -0.044 A 
ATOM     37  H   LIG d   1       4.218   1.731  -1.215  0.00  0.00     0.063 H 
ATOM     38  H   LIG d   1       6.263   1.807  -2.622  0.00  0.00     0.063 H 
BRANCH  31  39
ATOM     39  O   LIG d   1       4.708  -1.697  -5.047  0.00  0.00    -0.474 OA
BRANCH  39  40
ATOM     40  C   LIG d   1       4.814  -3.070  -4.667  0.00  0.00     0.115 C 
ATOM     41  H   LIG d   1       3.902  -3.377  -4.155  0.00  0.00     0.072 H 
ATOM     42  H   LIG d   1       5.667  -3.196  -3.999  0.00  0.00     0.072 H 
BRANCH  40  43
ATOM     43  C   LIG d   1       5.014  -3.931  -5.916  0.00  0.00     0.081 C 
ATOM     44  H   LIG d   1       5.892  -4.563  -5.784  0.00  0.00     0.059 H 
ATOM     45  H   LIG d   1       5.158  -3.286  -6.782  0.00  0.00     0.059 H 
BRANCH  43  46
ATOM     46  O   LIG d   1       3.862  -4.752  -6.119  0.00  0.00    -0.380 OA
BRANCH  46  47
ATOM     47  C   LIG d   1       3.737  -5.259  -7.449  0.00  0.00     0.037 C 
ATOM     48  H   LIG d   1       3.412  -6.299  -7.412  0.00  0.00     0.052 H 
ATOM     49  H   LIG d   1       3.002  -4.669  -7.995  0.00  0.00     0.052 H 
ATOM     50  H   LIG d   1       4.701  -5.197  -7.953  0.00  0.00     0.052 H 
ENDBRANCH  46  47
ENDBRANCH  43  46
ENDBRANCH  40  43
ENDBRANCH  39  40
ENDBRANCH  31  39
ENDBRANCH   1  30
TORSDOF 9
ENDMDL
MODEL 6
REMARK VINA RESULT:      -5.8      2.385      6.033
REMARK  9 active torsions:
REMARK  status: ('A' for Active; 'I' for Inactive)
REMARK    1  A    between atoms: C_1  and  O_2 
REMARK    2  A    between atoms: O_2  and  C_3 
REMARK    3  A    between atoms: C_3  and  C_4 
REMARK    4  A    between atoms: C_4  and  O_5 
REMARK    5  A    between atoms: O_5  and  C_6 
REMARK    6  A    between atoms: C_7  and  C_12 
REMARK    7  A    between atoms: C_14  and  C_17 
REMARK    8  A    between atoms: N_22  and  C_23 
REMARK    9  A    between atoms: C_23  and  C_24 
ROOT
ATOM      1  C   LIG d   1       4.040  -0.445  -5.711  0.00  0.00     0.207 A 
ATOM      2  N   LIG d   1       3.418   0.231  -6.695  0.00  0.00    -0.186 NA
ATOM      3  C   LIG d   1       3.394  -0.486  -7.783  0.00  0.00     0.276 A 
ATOM      4  O   LIG d   1       4.003  -1.653  -7.535  0.00  0.00    -0.332 OA
ATOM      5  N   LIG d   1       4.423  -1.607  -6.180  0.00  0.00    -0.056 NA
ENDROOT
BRANCH   3   6
ATOM      6  C   LIG d   1       2.784  -0.072  -9.097  0.00  0.00     0.060 C 
ATOM      7  H   LIG d   1       2.280   0.890  -8.999  0.00  0.00     0.095 H 
ATOM      8  N   LIG d   1       3.818  -0.015 -10.161  0.00  0.00     0.248 N 
ATOM      9  C   LIG d   1       3.087  -0.155 -11.440  0.00  0.00    -0.031 C 
ATOM     10  H   LIG d   1       4.472  -0.776 -10.051  0.00  0.00     0.204 HD
ATOM     11  C   LIG d   1       1.777  -0.905 -11.134  0.00  0.00    -0.007 C 
ATOM     12  H   LIG d   1       3.685  -0.727 -12.151  0.00  0.00     0.082 H 
ATOM     13  H   LIG d   1       2.864   0.830 -11.847  0.00  0.00     0.082 H 
ATOM     14  C   LIG d   1       1.801  -1.155  -9.608  0.00  0.00     0.004 C 
ATOM     15  H   LIG d   1       1.750  -1.854 -11.671  0.00  0.00     0.032 H 
ATOM     16  H   LIG d   1       0.918  -0.292 -11.404  0.00  0.00     0.032 H 
ATOM     17  H   LIG d   1       2.177  -2.153  -9.387  0.00  0.00     0.033 H 
ATOM     18  H   LIG d   1       0.810  -1.010  -9.179  0.00  0.00     0.033 H 
BRANCH   8  19
ATOM     19  C   LIG d   1       4.524   1.272 -10.114  0.00  0.00     0.001 C 
ATOM     20  H   LIG d   1       4.671   1.641 -11.129  0.00  0.00     0.087 H 
ATOM     21  H   LIG d   1       3.932   1.990  -9.548  0.00  0.00     0.087 H 
BRANCH  19  22
ATOM     22  C   LIG d   1       5.863   1.087  -9.448  0.00  0.00     0.034 A 
ATOM     23  S   LIG d   1       6.893  -0.369  -9.375  0.00  0.00    -0.096 SA
ATOM     24  C   LIG d   1       8.233   0.317  -8.418  0.00  0.00    -0.024 A 
ATOM     25  C   LIG d   1       7.811   1.589  -8.215  0.00  0.00    -0.054 A 
ATOM     26  H   LIG d   1       9.144  -0.159  -8.084  0.00  0.00     0.069 H 
ATOM     27  C   LIG d   1       6.596   1.984  -8.742  0.00  0.00    -0.046 A 
ATOM     28  H   LIG d   1       8.415   2.283  -7.649  0.00  0.00     0.062 H 
ATOM     29  H   LIG d   1       6.236   2.992  -8.595  0.00  0.00     0.063 H 
ENDBRANCH  19  22
ENDBRANCH   8  19
ENDBRANCH   3   6
BRANCH   1  30
ATOM     30  C   LIG d   1       4.261   0.047  -4.330  0.00  0.00     0.084 A 
ATOM     31  C   LIG d   1       5.502   0.574  -3.952  0.00  0.00     0.226 A 
ATOM     32  N   LIG d   1       5.698   1.006  -2.719  0.00  0.00    -0.221 NA
ATOM     33  C   LIG d   1       4.742   0.970  -1.809  0.00  0.00     0.031 A 
ATOM     34  C   LIG d   1       3.492   0.464  -2.108  0.00  0.00    -0.043 A 
ATOM     35  H   LIG d   1       4.942   1.338  -0.814  0.00  0.00     0.083 H 
ATOM     36  C   LIG d   1       3.236  -0.008  -3.385  0.00  0.00    -0.044 A 
ATOM     37  H   LIG d   1       2.721   0.436  -1.352  0.00  0.00     0.063 H 
ATOM     38  H   LIG d   1       2.266  -0.408  -3.643  0.00  0.00     0.063 H 
BRANCH  31  39
ATOM     39  O   LIG d   1       6.511   0.636  -4.855  0.00  0.00    -0.474 OA
BRANCH  39  40
ATOM     40  C   LIG d   1       7.752   0.032  -4.484  0.00  0.00     0.115 C 
ATOM     41  H   LIG d   1       7.935  -0.838  -5.114  0.00  0.00     0.072 H 
ATOM     42  H   LIG d   1       7.707  -0.277  -3.440  0.00  0.00     0.072 H 
BRANCH  40  43
ATOM     43  C   LIG d   1       8.886   1.044  -4.668  0.00  0.00     0.081 C 
ATOM     44  H   LIG d   1       9.308   0.937  -5.667  0.00  0.00     0.059 H 
ATOM     45  H   LIG d   1       9.661   0.859  -3.925  0.00  0.00     0.059 H 
BRANCH  43  46
ATOM     46  O   LIG d   1       8.374   2.368  -4.505  0.00  0.00    -0.380 OA
BRANCH  46  47
ATOM     47  C   LIG d   1       9.159   3.377  -5.144  0.00  0.00     0.037 C 
ATOM     48  H   LIG d   1       8.901   4.352  -4.735  0.00  0.00     0.052 H 
ATOM     49  H   LIG d   1      10.217   3.178  -4.971  0.00  0.00     0.052 H 
ATOM     50  H   LIG d   1       8.958   3.367  -6.216  0.00  0.00     0.052 H 
ENDBRANCH  46  47
ENDBRANCH  43  46
ENDBRANCH  40  43
ENDBRANCH  39  40
ENDBRANCH  31  39
ENDBRANCH   1  30
TORSDOF 9
ENDMDL
MODEL 7
REMARK VINA RESULT:      -5.7      2.768      6.333
REMARK  9 active torsions:
REMARK  status: ('A' for Active; 'I' for Inactive)
REMARK    1  A    between atoms: C_1  and  O_2 
REMARK    2  A    between atoms: O_2  and  C_3 
REMARK    3  A    between atoms: C_3  and  C_4 
REMARK    4  A    between atoms: C_4  and  O_5 
REMARK    5  A    between atoms: O_5  and  C_6 
REMARK    6  A    between atoms: C_7  and  C_12 
REMARK    7  A    between atoms: C_14  and  C_17 
REMARK    8  A    between atoms: N_22  and  C_23 
REMARK    9  A    between atoms: C_23  and  C_24 
ROOT
ATOM      1  C   LIG d   1       5.846  -1.914  -3.824  0.00  0.00     0.207 A 
ATOM      2  N   LIG d   1       7.188  -2.008  -3.776  0.00  0.00    -0.186 NA
ATOM      3  C   LIG d   1       7.571  -3.166  -4.235  0.00  0.00     0.276 A 
ATOM      4  O   LIG d   1       6.483  -3.860  -4.595  0.00  0.00    -0.332 OA
ATOM      5  N   LIG d   1       5.366  -3.030  -4.314  0.00  0.00    -0.056 NA
ENDROOT
BRANCH   3   6
ATOM      6  C   LIG d   1       8.996  -3.643  -4.342  0.00  0.00     0.060 C 
ATOM      7  H   LIG d   1       9.146  -4.196  -5.269  0.00  0.00     0.095 H 
ATOM      8  N   LIG d   1       9.939  -2.499  -4.256  0.00  0.00     0.248 N 
ATOM      9  C   LIG d   1      11.231  -3.076  -3.820  0.00  0.00    -0.031 C 
ATOM     10  H   LIG d   1       9.612  -1.829  -3.576  0.00  0.00     0.204 HD
ATOM     11  C   LIG d   1      10.914  -4.377  -3.061  0.00  0.00    -0.007 C 
ATOM     12  H   LIG d   1      11.748  -2.378  -3.160  0.00  0.00     0.082 H 
ATOM     13  H   LIG d   1      11.849  -3.295  -4.690  0.00  0.00     0.082 H 
ATOM     14  C   LIG d   1       9.375  -4.514  -3.118  0.00  0.00     0.004 C 
ATOM     15  H   LIG d   1      11.248  -4.303  -2.026  0.00  0.00     0.032 H 
ATOM     16  H   LIG d   1      11.388  -5.227  -3.552  0.00  0.00     0.032 H 
ATOM     17  H   LIG d   1       8.919  -4.122  -2.209  0.00  0.00     0.033 H 
ATOM     18  H   LIG d   1       9.086  -5.552  -3.279  0.00  0.00     0.033 H 
BRANCH   8  19
ATOM     19  C   LIG d   1      10.083  -1.860  -5.570  0.00  0.00     0.001 C 
ATOM     20  H   LIG d   1      11.051  -2.122  -5.997  0.00  0.00     0.087 H 
ATOM     21  H   LIG d   1       9.289  -2.206  -6.231  0.00  0.00     0.087 H 
BRANCH  19  22
ATOM     22  C   LIG d   1       9.991  -0.363  -5.415  0.00  0.00     0.034 A 
ATOM     23  S   LIG d   1      11.259   0.798  -4.934  0.00  0.00    -0.096 SA
ATOM     24  C   LIG d   1      10.281   2.288  -5.018  0.00  0.00    -0.024 A 
ATOM     25  C   LIG d   1       9.070   1.809  -5.395  0.00  0.00    -0.054 A 
ATOM     26  H   LIG d   1      10.575   3.308  -4.818  0.00  0.00     0.069 H 
ATOM     27  C   LIG d   1       8.921   0.449  -5.598  0.00  0.00    -0.046 A 
ATOM     28  H   LIG d   1       8.235   2.478  -5.535  0.00  0.00     0.062 H 
ATOM     29  H   LIG d   1       7.967   0.041  -5.899  0.00  0.00     0.063 H 
ENDBRANCH  19  22
ENDBRANCH   8  19
ENDBRANCH   3   6
BRANCH   1  30
ATOM     30  C   LIG d   1       5.045  -0.745  -3.388  0.00  0.00     0.084 A 
ATOM     31  C   LIG d   1       4.266  -0.032  -4.308  0.00  0.00     0.226 A 
ATOM     32  N   LIG d   1       3.557   1.012  -3.918  0.00  0.00    -0.221 NA
ATOM     33  C   LIG d   1       3.545   1.414  -2.661  0.00  0.00     0.031 A 
ATOM     34  C   LIG d   1       4.289   0.762  -1.696  0.00  0.00    -0.043 A 
ATOM     35  H   LIG d   1       2.948   2.270  -2.383  0.00  0.00     0.083 H 
ATOM     36  C   LIG d   1       5.054  -0.337  -2.054  0.00  0.00    -0.044 A 
ATOM     37  H   LIG d   1       4.273   1.105  -0.672  0.00  0.00     0.063 H 
ATOM     38  H   LIG d   1       5.644  -0.863  -1.318  0.00  0.00     0.063 H 
BRANCH  31  39
ATOM     39  O   LIG d   1       4.243  -0.414  -5.609  0.00  0.00    -0.474 OA
BRANCH  39  40
ATOM     40  C   LIG d   1       3.159   0.066  -6.406  0.00  0.00     0.115 C 
ATOM     41  H   LIG d   1       2.816   1.024  -6.015  0.00  0.00     0.072 H 
ATOM     42  H   LIG d   1       2.341  -0.653  -6.378  0.00  0.00     0.072 H 
BRANCH  40  43
ATOM     43  C   LIG d   1       3.630   0.244  -7.852  0.00  0.00     0.081 C 
ATOM     44  H   LIG d   1       2.853  -0.106  -8.532  0.00  0.00     0.059 H 
ATOM     45  H   LIG d   1       4.540  -0.334  -8.011  0.00  0.00     0.059 H 
BRANCH  43  46
ATOM     46  O   LIG d   1       3.894   1.626  -8.100  0.00  0.00    -0.380 OA
BRANCH  46  47
ATOM     47  C   LIG d   1       3.176   2.164  -9.213  0.00  0.00     0.037 C 
ATOM     48  H   LIG d   1       3.788   2.091 -10.111  0.00  0.00     0.052 H 
ATOM     49  H   LIG d   1       2.253   1.602  -9.355  0.00  0.00     0.052 H 
ATOM     50  H   LIG d   1       2.938   3.210  -9.019  0.00  0.00     0.052 H 
ENDBRANCH  46  47
ENDBRANCH  43  46
ENDBRANCH  40  43
ENDBRANCH  39  40
ENDBRANCH  31  39
ENDBRANCH   1  30
TORSDOF 9
ENDMDL
MODEL 8
REMARK VINA RESULT:      -5.6      2.046      3.254
REMARK  9 active torsions:
REMARK  status: ('A' for Active; 'I' for Inactive)
REMARK    1  A    between atoms: C_1  and  O_2 
REMARK    2  A    between atoms: O_2  and  C_3 
REMARK    3  A    between atoms: C_3  and  C_4 
REMARK    4  A    between atoms: C_4  and  O_5 
REMARK    5  A    between atoms: O_5  and  C_6 
REMARK    6  A    between atoms: C_7  and  C_12 
REMARK    7  A    between atoms: C_14  and  C_17 
REMARK    8  A    between atoms: N_22  and  C_23 
REMARK    9  A    between atoms: C_23  and  C_24 
ROOT
ATOM      1  C   LIG d   1       3.159  -0.035  -7.730  0.00  0.00     0.207 A 
ATOM      2  N   LIG d   1       3.696  -0.928  -6.879  0.00  0.00    -0.186 NA
ATOM      3  C   LIG d   1       3.739  -0.429  -5.676  0.00  0.00     0.276 A 
ATOM      4  O   LIG d   1       3.229   0.809  -5.713  0.00  0.00    -0.332 OA
ATOM      5  N   LIG d   1       2.861   1.053  -7.062  0.00  0.00    -0.056 NA
ENDROOT
BRANCH   3   6
ATOM      6  C   LIG d   1       4.272  -1.126  -4.452  0.00  0.00     0.060 C 
ATOM      7  H   LIG d   1       4.522  -2.162  -4.679  0.00  0.00     0.095 H 
ATOM      8  N   LIG d   1       5.454  -0.408  -3.912  0.00  0.00     0.248 N 
ATOM      9  C   LIG d   1       5.549  -0.803  -2.488  0.00  0.00    -0.031 C 
ATOM     10  H   LIG d   1       5.319   0.589  -3.986  0.00  0.00     0.204 HD
ATOM     11  C   LIG d   1       4.135  -1.213  -2.036  0.00  0.00    -0.007 C 
ATOM     12  H   LIG d   1       5.900   0.039  -1.890  0.00  0.00     0.082 H 
ATOM     13  H   LIG d   1       6.231  -1.646  -2.384  0.00  0.00     0.082 H 
ATOM     14  C   LIG d   1       3.247  -1.053  -3.292  0.00  0.00     0.004 C 
ATOM     15  H   LIG d   1       3.786  -0.555  -1.240  0.00  0.00     0.032 H 
ATOM     16  H   LIG d   1       4.131  -2.250  -1.699  0.00  0.00     0.032 H 
ATOM     17  H   LIG d   1       2.740  -0.089  -3.285  0.00  0.00     0.033 H 
ATOM     18  H   LIG d   1       2.527  -1.869  -3.361  0.00  0.00     0.033 H 
BRANCH   8  19
ATOM     19  C   LIG d   1       6.667  -0.812  -4.635  0.00  0.00     0.001 C 
ATOM     20  H   LIG d   1       7.297  -1.413  -3.980  0.00  0.00     0.087 H 
ATOM     21  H   LIG d   1       6.389  -1.398  -5.511  0.00  0.00     0.087 H 
BRANCH  19  22
ATOM     22  C   LIG d   1       7.424   0.416  -5.072  0.00  0.00     0.034 A 
ATOM     23  S   LIG d   1       8.071   1.752  -4.080  0.00  0.00    -0.096 SA
ATOM     24  C   LIG d   1       8.786   2.720  -5.397  0.00  0.00    -0.024 A 
ATOM     25  C   LIG d   1       8.483   1.977  -6.489  0.00  0.00    -0.054 A 
ATOM     26  H   LIG d   1       9.319   3.658  -5.340  0.00  0.00     0.069 H 
ATOM     27  C   LIG d   1       7.785   0.795  -6.323  0.00  0.00    -0.046 A 
ATOM     28  H   LIG d   1       8.783   2.302  -7.474  0.00  0.00     0.062 H 
ATOM     29  H   LIG d   1       7.530   0.184  -7.177  0.00  0.00     0.063 H 
ENDBRANCH  19  22
ENDBRANCH   8  19
ENDBRANCH   3   6
BRANCH   1  30
ATOM     30  C   LIG d   1       2.948  -0.244  -9.183  0.00  0.00     0.084 A 
ATOM     31  C   LIG d   1       3.969   0.038 -10.099  0.00  0.00     0.226 A 
ATOM     32  N   LIG d   1       3.776  -0.144 -11.393  0.00  0.00    -0.221 NA
ATOM     33  C   LIG d   1       2.633  -0.602 -11.869  0.00  0.00     0.031 A 
ATOM     34  C   LIG d   1       1.579  -0.901 -11.026  0.00  0.00    -0.043 A 
ATOM     35  H   LIG d   1       2.518  -0.741 -12.933  0.00  0.00     0.083 H 
ATOM     36  C   LIG d   1       1.728  -0.724  -9.660  0.00  0.00    -0.044 A 
ATOM     37  H   LIG d   1       0.648  -1.271 -11.430  0.00  0.00     0.063 H 
ATOM     38  H   LIG d   1       0.919  -0.951  -8.982  0.00  0.00     0.063 H 
BRANCH  31  39
ATOM     39  O   LIG d   1       5.162   0.504  -9.655  0.00  0.00    -0.474 OA
BRANCH  39  40
ATOM     40  C   LIG d   1       6.242  -0.428  -9.597  0.00  0.00     0.115 C 
ATOM     41  H   LIG d   1       5.926  -1.378 -10.028  0.00  0.00     0.072 H 
ATOM     42  H   LIG d   1       6.536  -0.580  -8.558  0.00  0.00     0.072 H 
BRANCH  40  43
ATOM     43  C   LIG d   1       7.433   0.120 -10.387  0.00  0.00     0.081 C 
ATOM     44  H   LIG d   1       8.313   0.146  -9.745  0.00  0.00     0.059 H 
ATOM     45  H   LIG d   1       7.205   1.128 -10.732  0.00  0.00     0.059 H 
BRANCH  43  46
ATOM     46  O   LIG d   1       7.688  -0.723 -11.512  0.00  0.00    -0.380 OA
BRANCH  46  47
ATOM     47  C   LIG d   1       6.948  -1.946 -11.501  0.00  0.00     0.037 C 
ATOM     48  H   LIG d   1       6.321  -1.983 -10.611  0.00  0.00     0.052 H 
ATOM     49  H   LIG d   1       6.319  -1.998 -12.390  0.00  0.00     0.052 H 
ATOM     50  H   LIG d   1       7.639  -2.788 -11.494  0.00  0.00     0.052 H 
ENDBRANCH  46  47
ENDBRANCH  43  46
ENDBRANCH  40  43
ENDBRANCH  39  40
ENDBRANCH  31  39
ENDBRANCH   1  30
TORSDOF 9
ENDMDL
MODEL 9
REMARK VINA RESULT:      -5.5      2.705      6.093
REMARK  9 active torsions:
REMARK  status: ('A' for Active; 'I' for Inactive)
REMARK    1  A    between atoms: C_1  and  O_2 
REMARK    2  A    between atoms: O_2  and  C_3 
REMARK    3  A    between atoms: C_3  and  C_4 
REMARK    4  A    between atoms: C_4  and  O_5 
REMARK    5  A    between atoms: O_5  and  C_6 
REMARK    6  A    between atoms: C_7  and  C_12 
REMARK    7  A    between atoms: C_14  and  C_17 
REMARK    8  A    between atoms: N_22  and  C_23 
REMARK    9  A    between atoms: C_23  and  C_24 
ROOT
ATOM      1  C   LIG d   1       5.000  -2.358  -4.093  0.00  0.00     0.207 A 
ATOM      2  N   LIG d   1       6.220  -2.657  -4.580  0.00  0.00    -0.186 NA
ATOM      3  C   LIG d   1       6.247  -3.894  -4.987  0.00  0.00     0.276 A 
ATOM      4  O   LIG d   1       5.040  -4.436  -4.777  0.00  0.00    -0.332 OA
ATOM      5  N   LIG d   1       4.241  -3.422  -4.187  0.00  0.00    -0.056 NA
ENDROOT
BRANCH   3   6
ATOM      6  C   LIG d   1       7.434  -4.594  -5.595  0.00  0.00     0.060 C 
ATOM      7  H   LIG d   1       7.341  -5.674  -5.482  0.00  0.00     0.095 H 
ATOM      8  N   LIG d   1       7.584  -4.228  -7.026  0.00  0.00     0.248 N 
ATOM      9  C   LIG d   1       9.003  -4.486  -7.361  0.00  0.00    -0.031 C 
ATOM     10  H   LIG d   1       7.370  -3.251  -7.159  0.00  0.00     0.204 HD
ATOM     11  C   LIG d   1       9.803  -4.390  -6.049  0.00  0.00    -0.007 C 
ATOM     12  H   LIG d   1       9.361  -3.739  -8.070  0.00  0.00     0.082 H 
ATOM     13  H   LIG d   1       9.105  -5.484  -7.785  0.00  0.00     0.082 H 
ATOM     14  C   LIG d   1       8.753  -4.090  -4.955  0.00  0.00     0.004 C 
ATOM     15  H   LIG d   1      10.529  -3.579  -6.107  0.00  0.00     0.032 H 
ATOM     16  H   LIG d   1      10.306  -5.334  -5.842  0.00  0.00     0.032 H 
ATOM     17  H   LIG d   1       8.700  -3.020  -4.754  0.00  0.00     0.033 H 
ATOM     18  H   LIG d   1       8.976  -4.644  -4.044  0.00  0.00     0.033 H 
BRANCH   8  19
ATOM     19  C   LIG d   1       6.704  -5.059  -7.857  0.00  0.00     0.001 C 
ATOM     20  H   LIG d   1       7.278  -5.484  -8.681  0.00  0.00     0.087 H 
ATOM     21  H   LIG d   1       6.286  -5.864  -7.252  0.00  0.00     0.087 H 
BRANCH  19  22
ATOM     22  C   LIG d   1       5.585  -4.212  -8.408  0.00  0.00     0.034 A 
ATOM     23  S   LIG d   1       3.822  -4.419  -8.222  0.00  0.00    -0.096 SA
ATOM     24  C   LIG d   1       3.300  -3.003  -9.175  0.00  0.00    -0.024 A 
ATOM     25  C   LIG d   1       4.486  -2.479  -9.571  0.00  0.00    -0.054 A 
ATOM     26  H   LIG d   1       2.299  -2.655  -9.385  0.00  0.00     0.069 H 
ATOM     27  C   LIG d   1       5.658  -3.098  -9.178  0.00  0.00    -0.046 A 
ATOM     28  H   LIG d   1       4.515  -1.590 -10.184  0.00  0.00     0.062 H 
ATOM     29  H   LIG d   1       6.616  -2.702  -9.479  0.00  0.00     0.063 H 
ENDBRANCH  19  22
ENDBRANCH   8  19
ENDBRANCH   3   6
BRANCH   1  30
ATOM     30  C   LIG d   1       4.588  -1.047  -3.538  0.00  0.00     0.084 A 
ATOM     31  C   LIG d   1       4.029  -0.066  -4.367  0.00  0.00     0.226 A 
ATOM     32  N   LIG d   1       3.667   1.103  -3.870  0.00  0.00    -0.221 NA
ATOM     33  C   LIG d   1       3.805   1.388  -2.589  0.00  0.00     0.031 A 
ATOM     34  C   LIG d   1       4.349   0.471  -1.709  0.00  0.00    -0.043 A 
ATOM     35  H   LIG d   1       3.492   2.354  -2.222  0.00  0.00     0.083 H 
ATOM     36  C   LIG d   1       4.750  -0.769  -2.180  0.00  0.00    -0.044 A 
ATOM     37  H   LIG d   1       4.460   0.719  -0.664  0.00  0.00     0.063 H 
ATOM     38  H   LIG d   1       5.177  -1.502  -1.512  0.00  0.00     0.063 H 
BRANCH  31  39
ATOM     39  O   LIG d   1       3.863  -0.317  -5.689  0.00  0.00    -0.474 OA
BRANCH  39  40
ATOM     40  C   LIG d   1       2.749   0.304  -6.332  0.00  0.00     0.115 C 
ATOM     41  H   LIG d   1       2.540   1.261  -5.853  0.00  0.00     0.072 H 
ATOM     42  H   LIG d   1       1.875  -0.342  -6.249  0.00  0.00     0.072 H 
BRANCH  40  43
ATOM     43  C   LIG d   1       3.075   0.533  -7.810  0.00  0.00     0.081 C 
ATOM     44  H   LIG d   1       2.204   0.285  -8.415  0.00  0.00     0.059 H 
ATOM     45  H   LIG d   1       3.912  -0.103  -8.098  0.00  0.00     0.059 H 
BRANCH  43  46
ATOM     46  O   LIG d   1       3.425   1.903  -8.014  0.00  0.00    -0.380 OA
BRANCH  46  47
ATOM     47  C   LIG d   1       3.485   2.287  -9.389  0.00  0.00     0.037 C 
ATOM     48  H   LIG d   1       2.901   1.589  -9.988  0.00  0.00     0.052 H 
ATOM     49  H   LIG d   1       3.079   3.292  -9.504  0.00  0.00     0.052 H 
ATOM     50  H   LIG d   1       4.522   2.274  -9.724  0.00  0.00     0.052 H 
ENDBRANCH  46  47
ENDBRANCH  43  46
ENDBRANCH  40  43
ENDBRANCH  39  40
ENDBRANCH  31  39
ENDBRANCH   1  30
TORSDOF 9
ENDMDL
