MODEL 1
REMARK VINA RESULT:      -5.8      0.000      0.000
REMARK  2 active torsions:
REMARK  status: ('A' for Active; 'I' for Inactive)
REMARK    1  A    between atoms: C_4  and  C_7 
REMARK    2  A    between atoms: C_12  and  N_27 
ROOT
ATOM      1  C   LIG d   1       3.929  -1.251  -2.801  0.00  0.00     0.027 C 
ATOM      2  H   LIG d   1       3.263  -1.895  -2.226  0.00  0.00     0.040 H 
ATOM      3  C   LIG d   1       4.580  -0.202  -1.875  0.00  0.00    -0.041 C 
ATOM      4  C   LIG d   1       3.681   1.050  -2.029  0.00  0.00    -0.047 C 
ATOM      5  C   LIG d   1       3.317   1.028  -3.535  0.00  0.00    -0.009 C 
ATOM      6  C   LIG d   1       3.127  -0.469  -3.855  0.00  0.00    -0.017 C 
ATOM      7  H   LIG d   1       2.071  -0.733  -3.791  0.00  0.00     0.086 H 
ATOM      8  H   LIG d   1       4.577  -0.550  -0.843  0.00  0.00     0.027 H 
ATOM      9  H   LIG d   1       5.597   0.017  -2.203  0.00  0.00     0.027 H 
ATOM     10  H   LIG d   1       4.233   1.956  -1.779  0.00  0.00     0.027 H 
ATOM     11  H   LIG d   1       2.785   0.963  -1.414  0.00  0.00     0.027 H 
ATOM     12  H   LIG d   1       4.130   1.445  -4.129  0.00  0.00     0.032 H 
ATOM     13  H   LIG d   1       2.393   1.577  -3.712  0.00  0.00     0.032 H 
ENDROOT
BRANCH   1  14
ATOM     14  C   LIG d   1       4.995  -2.079  -3.472  0.00  0.00    -0.039 A 
ATOM     15  C   LIG d   1       4.642  -3.193  -4.211  0.00  0.00    -0.058 A 
ATOM     16  C   LIG d   1       5.619  -3.952  -4.825  0.00  0.00    -0.061 A 
ATOM     17  H   LIG d   1       3.602  -3.469  -4.307  0.00  0.00     0.062 H 
ATOM     18  C   LIG d   1       6.949  -3.598  -4.701  0.00  0.00    -0.062 A 
ATOM     19  H   LIG d   1       5.343  -4.825  -5.399  0.00  0.00     0.062 H 
ATOM     20  C   LIG d   1       7.303  -2.485  -3.962  0.00  0.00    -0.061 A 
ATOM     21  H   LIG d   1       7.713  -4.191  -5.182  0.00  0.00     0.062 H 
ATOM     22  C   LIG d   1       6.326  -1.725  -3.347  0.00  0.00    -0.058 A 
ATOM     23  H   LIG d   1       8.342  -2.209  -3.865  0.00  0.00     0.062 H 
ATOM     24  H   LIG d   1       6.602  -0.855  -2.770  0.00  0.00     0.062 H 
ENDBRANCH   1  14
BRANCH   6  25
ATOM     25  N   LIG d   1       3.637  -0.791  -5.199  0.00  0.00     0.221 N 
ATOM     26  H   LIG d   1       4.504  -1.319  -5.127  0.00  0.00     0.200 HD
ATOM     27  H   LIG d   1       2.948  -1.340  -5.712  0.00  0.00     0.200 HD
ATOM     28  H   LIG d   1       3.817   0.082  -5.710  0.00  0.00     0.200 HD
ENDBRANCH   6  25
TORSDOF 2
ENDMDL
MODEL 2
REMARK VINA RESULT:      -5.7      2.335      3.537
REMARK  2 active torsions:
REMARK  status: ('A' for Active; 'I' for Inactive)
REMARK    1  A    between atoms: C_4  and  C_7 
REMARK    2  A    between atoms: C_12  and  N_27 
ROOT
ATOM      1  C   LIG d   1       3.157  -0.681  -3.641  0.00  0.00     0.027 C 
ATOM      2  H   LIG d   1       2.116  -0.993  -3.562  0.00  0.00     0.040 H 
ATOM      3  C   LIG d   1       4.085  -1.808  -3.141  0.00  0.00    -0.041 C 
ATOM      4  C   LIG d   1       4.371  -1.437  -1.665  0.00  0.00    -0.047 C 
ATOM      5  C   LIG d   1       4.490   0.107  -1.716  0.00  0.00    -0.009 C 
ATOM      6  C   LIG d   1       3.415   0.535  -2.735  0.00  0.00    -0.017 C 
ATOM      7  H   LIG d   1       2.498   0.813  -2.215  0.00  0.00     0.086 H 
ATOM      8  H   LIG d   1       3.583  -2.773  -3.203  0.00  0.00     0.027 H 
ATOM      9  H   LIG d   1       5.013  -1.822  -3.716  0.00  0.00     0.027 H 
ATOM     10  H   LIG d   1       5.306  -1.885  -1.327  0.00  0.00     0.027 H 
ATOM     11  H   LIG d   1       3.545  -1.739  -1.021  0.00  0.00     0.027 H 
ATOM     12  H   LIG d   1       5.482   0.401  -2.061  0.00  0.00     0.032 H 
ATOM     13  H   LIG d   1       4.282   0.538  -0.737  0.00  0.00     0.032 H 
ENDROOT
BRANCH   1  14
ATOM     14  C   LIG d   1       3.486  -0.339  -5.072  0.00  0.00    -0.039 A 
ATOM     15  C   LIG d   1       2.549   0.301  -5.862  0.00  0.00    -0.058 A 
ATOM     16  C   LIG d   1       2.850   0.614  -7.174  0.00  0.00    -0.061 A 
ATOM     17  H   LIG d   1       1.582   0.556  -5.453  0.00  0.00     0.062 H 
ATOM     18  C   LIG d   1       4.087   0.287  -7.696  0.00  0.00    -0.062 A 
ATOM     19  H   LIG d   1       2.116   1.111  -7.792  0.00  0.00     0.062 H 
ATOM     20  C   LIG d   1       5.024  -0.354  -6.906  0.00  0.00    -0.061 A 
ATOM     21  H   LIG d   1       4.323   0.533  -8.721  0.00  0.00     0.062 H 
ATOM     22  C   LIG d   1       4.723  -0.667  -5.594  0.00  0.00    -0.058 A 
ATOM     23  H   LIG d   1       5.991  -0.608  -7.314  0.00  0.00     0.062 H 
ATOM     24  H   LIG d   1       5.455  -1.167  -4.977  0.00  0.00     0.062 H 
ENDBRANCH   1  14
BRANCH   6  25
ATOM     25  N   LIG d   1       3.883   1.667  -3.554  0.00  0.00     0.221 N 
ATOM     26  H   LIG d   1       4.435   1.327  -4.339  0.00  0.00     0.200 HD
ATOM     27  H   LIG d   1       3.086   2.196  -3.905  0.00  0.00     0.200 HD
ATOM     28  H   LIG d   1       4.466   2.284  -2.975  0.00  0.00     0.200 HD
ENDBRANCH   6  25
TORSDOF 2
ENDMDL
MODEL 3
REMARK VINA RESULT:      -5.3      2.474      3.670
REMARK  2 active torsions:
REMARK  status: ('A' for Active; 'I' for Inactive)
REMARK    1  A    between atoms: C_4  and  C_7 
REMARK    2  A    between atoms: C_12  and  N_27 
ROOT
ATOM      1  C   LIG d   1       5.046  -0.698  -4.105  0.00  0.00     0.027 C 
ATOM      2  H   LIG d   1       6.127  -0.562  -4.150  0.00  0.00     0.040 H 
ATOM      3  C   LIG d   1       4.434   0.275  -3.076  0.00  0.00    -0.041 C 
ATOM      4  C   LIG d   1       4.319  -0.565  -1.780  0.00  0.00    -0.047 C 
ATOM      5  C   LIG d   1       3.907  -1.960  -2.313  0.00  0.00    -0.009 C 
ATOM      6  C   LIG d   1       4.711  -2.118  -3.619  0.00  0.00    -0.017 C 
ATOM      7  H   LIG d   1       5.630  -2.673  -3.428  0.00  0.00     0.086 H 
ATOM      8  H   LIG d   1       5.092   1.130  -2.920  0.00  0.00     0.027 H 
ATOM      9  H   LIG d   1       3.447   0.607  -3.404  0.00  0.00     0.027 H 
ATOM     10  H   LIG d   1       3.549  -0.160  -1.123  0.00  0.00     0.027 H 
ATOM     11  H   LIG d   1       5.278  -0.616  -1.264  0.00  0.00     0.027 H 
ATOM     12  H   LIG d   1       2.837  -1.990  -2.517  0.00  0.00     0.032 H 
ATOM     13  H   LIG d   1       4.182  -2.736  -1.599  0.00  0.00     0.032 H 
ENDROOT
BRANCH   1  14
ATOM     14  C   LIG d   1       4.439  -0.460  -5.464  0.00  0.00    -0.039 A 
ATOM     15  C   LIG d   1       5.156  -0.770  -6.605  0.00  0.00    -0.058 A 
ATOM     16  C   LIG d   1       4.600  -0.552  -7.851  0.00  0.00    -0.061 A 
ATOM     17  H   LIG d   1       6.150  -1.184  -6.521  0.00  0.00     0.062 H 
ATOM     18  C   LIG d   1       3.328  -0.022  -7.957  0.00  0.00    -0.062 A 
ATOM     19  H   LIG d   1       5.162  -0.791  -8.742  0.00  0.00     0.062 H 
ATOM     20  C   LIG d   1       2.611   0.289  -6.816  0.00  0.00    -0.061 A 
ATOM     21  H   LIG d   1       2.893   0.148  -8.931  0.00  0.00     0.062 H 
ATOM     22  C   LIG d   1       3.167   0.071  -5.570  0.00  0.00    -0.058 A 
ATOM     23  H   LIG d   1       1.617   0.702  -6.900  0.00  0.00     0.062 H 
ATOM     24  H   LIG d   1       2.607   0.314  -4.679  0.00  0.00     0.062 H 
ENDBRANCH   1  14
BRANCH   6  25
ATOM     25  N   LIG d   1       3.918  -2.815  -4.647  0.00  0.00     0.221 N 
ATOM     26  H   LIG d   1       4.148  -3.807  -4.654  0.00  0.00     0.200 HD
ATOM     27  H   LIG d   1       2.923  -2.700  -4.458  0.00  0.00     0.200 HD
ATOM     28  H   LIG d   1       4.132  -2.414  -5.568  0.00  0.00     0.200 HD
ENDBRANCH   6  25
TORSDOF 2
ENDMDL
MODEL 4
REMARK VINA RESULT:      -5.3      1.409      1.813
REMARK  2 active torsions:
REMARK  status: ('A' for Active; 'I' for Inactive)
REMARK    1  A    between atoms: C_4  and  C_7 
REMARK    2  A    between atoms: C_12  and  N_27 
ROOT
ATOM      1  C   LIG d   1       5.241  -0.776  -2.569  0.00  0.00     0.027 C 
ATOM      2  H   LIG d   1       5.652  -1.089  -1.609  0.00  0.00     0.040 H 
ATOM      3  C   LIG d   1       5.132   0.762  -2.620  0.00  0.00    -0.041 C 
ATOM      4  C   LIG d   1       3.668   1.053  -2.208  0.00  0.00    -0.047 C 
ATOM      5  C   LIG d   1       2.886  -0.100  -2.885  0.00  0.00    -0.009 C 
ATOM      6  C   LIG d   1       3.814  -1.323  -2.738  0.00  0.00    -0.017 C 
ATOM      7  H   LIG d   1       3.531  -1.903  -1.858  0.00  0.00     0.086 H 
ATOM      8  H   LIG d   1       5.826   1.218  -1.914  0.00  0.00     0.027 H 
ATOM      9  H   LIG d   1       5.322   1.125  -3.631  0.00  0.00     0.027 H 
ATOM     10  H   LIG d   1       3.342   2.019  -2.593  0.00  0.00     0.027 H 
ATOM     11  H   LIG d   1       3.554   1.013  -1.124  0.00  0.00     0.027 H 
ATOM     12  H   LIG d   1       2.714   0.123  -3.938  0.00  0.00     0.032 H 
ATOM     13  H   LIG d   1       1.941  -0.273  -2.371  0.00  0.00     0.032 H 
ENDROOT
BRANCH   1  14
ATOM     14  C   LIG d   1       6.120  -1.268  -3.691  0.00  0.00    -0.039 A 
ATOM     15  C   LIG d   1       6.930  -2.372  -3.500  0.00  0.00    -0.058 A 
ATOM     16  C   LIG d   1       7.736  -2.823  -4.528  0.00  0.00    -0.061 A 
ATOM     17  H   LIG d   1       6.934  -2.881  -2.548  0.00  0.00     0.062 H 
ATOM     18  C   LIG d   1       7.731  -2.170  -5.747  0.00  0.00    -0.062 A 
ATOM     19  H   LIG d   1       8.372  -3.683  -4.378  0.00  0.00     0.062 H 
ATOM     20  C   LIG d   1       6.921  -1.066  -5.938  0.00  0.00    -0.061 A 
ATOM     21  H   LIG d   1       8.360  -2.523  -6.551  0.00  0.00     0.062 H 
ATOM     22  C   LIG d   1       6.116  -0.615  -4.910  0.00  0.00    -0.058 A 
ATOM     23  H   LIG d   1       6.918  -0.557  -6.890  0.00  0.00     0.062 H 
ATOM     24  H   LIG d   1       5.483   0.247  -5.058  0.00  0.00     0.062 H 
ENDBRANCH   1  14
BRANCH   6  25
ATOM     25  N   LIG d   1       3.754  -2.180  -3.935  0.00  0.00     0.221 N 
ATOM     26  H   LIG d   1       4.536  -2.833  -3.938  0.00  0.00     0.200 HD
ATOM     27  H   LIG d   1       2.879  -2.701  -3.947  0.00  0.00     0.200 HD
ATOM     28  H   LIG d   1       3.806  -1.591  -4.774  0.00  0.00     0.200 HD
ENDBRANCH   6  25
TORSDOF 2
ENDMDL
MODEL 5
REMARK VINA RESULT:      -5.3      1.466      4.446
REMARK  2 active torsions:
REMARK  status: ('A' for Active; 'I' for Inactive)
REMARK    1  A    between atoms: C_4  and  C_7 
REMARK    2  A    between atoms: C_12  and  N_27 
ROOT
ATOM      1  C   LIG d   1       7.165  -1.496  -4.241  0.00  0.00     0.027 C 
ATOM      2  H   LIG d   1       8.021  -0.851  -4.446  0.00  0.00     0.040 H 
ATOM      3  C   LIG d   1       7.630  -2.778  -3.521  0.00  0.00    -0.041 C 
ATOM      4  C   LIG d   1       7.793  -3.815  -4.660  0.00  0.00    -0.047 C 
ATOM      5  C   LIG d   1       6.605  -3.483  -5.597  0.00  0.00    -0.009 C 
ATOM      6  C   LIG d   1       6.514  -1.944  -5.560  0.00  0.00    -0.017 C 
ATOM      7  H   LIG d   1       7.054  -1.518  -6.406  0.00  0.00     0.086 H 
ATOM      8  H   LIG d   1       8.583  -2.610  -3.018  0.00  0.00     0.027 H 
ATOM      9  H   LIG d   1       6.875  -3.111  -2.807  0.00  0.00     0.027 H 
ATOM     10  H   LIG d   1       7.708  -4.831  -4.273  0.00  0.00     0.027 H 
ATOM     11  H   LIG d   1       8.743  -3.679  -5.176  0.00  0.00     0.027 H 
ATOM     12  H   LIG d   1       5.685  -3.930  -5.220  0.00  0.00     0.032 H 
ATOM     13  H   LIG d   1       6.811  -3.830  -6.610  0.00  0.00     0.032 H 
ENDROOT
BRANCH   1  14
ATOM     14  C   LIG d   1       6.159  -0.763  -3.391  0.00  0.00    -0.039 A 
ATOM     15  C   LIG d   1       6.141   0.619  -3.378  0.00  0.00    -0.058 A 
ATOM     16  C   LIG d   1       5.219   1.291  -2.598  0.00  0.00    -0.061 A 
ATOM     17  H   LIG d   1       6.848   1.174  -3.977  0.00  0.00     0.062 H 
ATOM     18  C   LIG d   1       4.315   0.581  -1.831  0.00  0.00    -0.062 A 
ATOM     19  H   LIG d   1       5.208   2.371  -2.585  0.00  0.00     0.062 H 
ATOM     20  C   LIG d   1       4.333  -0.801  -1.843  0.00  0.00    -0.061 A 
ATOM     21  H   LIG d   1       3.593   1.106  -1.222  0.00  0.00     0.062 H 
ATOM     22  C   LIG d   1       5.255  -1.473  -2.623  0.00  0.00    -0.058 A 
ATOM     23  H   LIG d   1       3.626  -1.356  -1.244  0.00  0.00     0.062 H 
ATOM     24  H   LIG d   1       5.269  -2.553  -2.633  0.00  0.00     0.062 H 
ENDBRANCH   1  14
BRANCH   6  25
ATOM     25  N   LIG d   1       5.111  -1.497  -5.593  0.00  0.00     0.221 N 
ATOM     26  H   LIG d   1       4.604  -1.988  -6.327  0.00  0.00     0.200 HD
ATOM     27  H   LIG d   1       4.666  -1.679  -4.695  0.00  0.00     0.200 HD
ATOM     28  H   LIG d   1       5.082  -0.488  -5.782  0.00  0.00     0.200 HD
ENDBRANCH   6  25
TORSDOF 2
ENDMDL
MODEL 6
REMARK VINA RESULT:      -5.3      1.562      4.458
REMARK  2 active torsions:
REMARK  status: ('A' for Active; 'I' for Inactive)
REMARK    1  A    between atoms: C_4  and  C_7 
REMARK    2  A    between atoms: C_12  and  N_27 
ROOT
ATOM      1  C   LIG d   1       5.929  -2.433  -5.246  0.00  0.00     0.027 C 
ATOM      2  H   LIG d   1       6.357  -1.689  -5.919  0.00  0.00     0.040 H 
ATOM      3  C   LIG d   1       7.015  -2.969  -4.291  0.00  0.00    -0.041 C 
ATOM      4  C   LIG d   1       7.511  -4.269  -4.972  0.00  0.00    -0.047 C 
ATOM      5  C   LIG d   1       6.208  -4.868  -5.558  0.00  0.00    -0.009 C 
ATOM      6  C   LIG d   1       5.417  -3.639  -6.051  0.00  0.00    -0.017 C 
ATOM      7  H   LIG d   1       5.597  -3.482  -7.115  0.00  0.00     0.086 H 
ATOM      8  H   LIG d   1       7.830  -2.251  -4.198  0.00  0.00     0.027 H 
ATOM      9  H   LIG d   1       6.587  -3.192  -3.313  0.00  0.00     0.027 H 
ATOM     10  H   LIG d   1       7.952  -4.945  -4.240  0.00  0.00     0.027 H 
ATOM     11  H   LIG d   1       8.224  -4.044  -5.766  0.00  0.00     0.027 H 
ATOM     12  H   LIG d   1       5.651  -5.396  -4.784  0.00  0.00     0.032 H 
ATOM     13  H   LIG d   1       6.436  -5.535  -6.389  0.00  0.00     0.032 H 
ENDROOT
BRANCH   1  14
ATOM     14  C   LIG d   1       4.801  -1.823  -4.454  0.00  0.00    -0.039 A 
ATOM     15  C   LIG d   1       4.079  -0.768  -4.980  0.00  0.00    -0.058 A 
ATOM     16  C   LIG d   1       3.045  -0.208  -4.253  0.00  0.00    -0.061 A 
ATOM     17  H   LIG d   1       4.324  -0.380  -5.957  0.00  0.00     0.062 H 
ATOM     18  C   LIG d   1       2.733  -0.704  -3.001  0.00  0.00    -0.062 A 
ATOM     19  H   LIG d   1       2.484   0.619  -4.662  0.00  0.00     0.062 H 
ATOM     20  C   LIG d   1       3.455  -1.759  -2.475  0.00  0.00    -0.061 A 
ATOM     21  H   LIG d   1       1.924  -0.268  -2.433  0.00  0.00     0.062 H 
ATOM     22  C   LIG d   1       4.489  -2.319  -3.201  0.00  0.00    -0.058 A 
ATOM     23  H   LIG d   1       3.211  -2.147  -1.497  0.00  0.00     0.062 H 
ATOM     24  H   LIG d   1       5.053  -3.143  -2.791  0.00  0.00     0.062 H 
ENDBRANCH   1  14
BRANCH   6  25
ATOM     25  N   LIG d   1       3.973  -3.811  -5.814  0.00  0.00     0.221 N 
ATOM     26  H   LIG d   1       3.440  -3.273  -6.494  0.00  0.00     0.200 HD
ATOM     27  H   LIG d   1       3.721  -4.795  -5.889  0.00  0.00     0.200 HD
ATOM     28  H   LIG d   1       3.744  -3.479  -4.869  0.00  0.00     0.200 HD
ENDBRANCH   6  25
TORSDOF 2
ENDMDL
MODEL 7
REMARK VINA RESULT:      -5.2      2.398      3.227
REMARK  2 active torsions:
REMARK  status: ('A' for Active; 'I' for Inactive)
REMARK    1  A    between atoms: C_4  and  C_7 
REMARK    2  A    between atoms: C_12  and  N_27 
ROOT
ATOM      1  C   LIG d   1       5.128  -1.336  -4.208  0.00  0.00     0.027 C 
ATOM      2  H   LIG d   1       5.287  -2.189  -4.869  0.00  0.00     0.040 H 
ATOM      3  C   LIG d   1       5.228  -1.784  -2.735  0.00  0.00    -0.041 C 
ATOM      4  C   LIG d   1       3.759  -2.037  -2.314  0.00  0.00    -0.047 C 
ATOM      5  C   LIG d   1       2.994  -0.902  -3.040  0.00  0.00    -0.009 C 
ATOM      6  C   LIG d   1       3.708  -0.776  -4.401  0.00  0.00    -0.017 C 
ATOM      7  H   LIG d   1       3.178  -1.358  -5.156  0.00  0.00     0.086 H 
ATOM      8  H   LIG d   1       5.813  -2.700  -2.653  0.00  0.00     0.027 H 
ATOM      9  H   LIG d   1       5.668  -0.993  -2.125  0.00  0.00     0.027 H 
ATOM     10  H   LIG d   1       3.646  -1.950  -1.233  0.00  0.00     0.027 H 
ATOM     11  H   LIG d   1       3.419  -3.014  -2.659  0.00  0.00     0.027 H 
ATOM     12  H   LIG d   1       3.074   0.030  -2.480  0.00  0.00     0.032 H 
ATOM     13  H   LIG d   1       1.949  -1.176  -3.180  0.00  0.00     0.032 H 
ENDROOT
BRANCH   1  14
ATOM     14  C   LIG d   1       6.149  -0.265  -4.492  0.00  0.00    -0.039 A 
ATOM     15  C   LIG d   1       6.698  -0.152  -5.756  0.00  0.00    -0.058 A 
ATOM     16  C   LIG d   1       7.636   0.829  -6.017  0.00  0.00    -0.061 A 
ATOM     17  H   LIG d   1       6.395  -0.831  -6.539  0.00  0.00     0.062 H 
ATOM     18  C   LIG d   1       8.024   1.698  -5.014  0.00  0.00    -0.062 A 
ATOM     19  H   LIG d   1       8.068   0.915  -7.003  0.00  0.00     0.062 H 
ATOM     20  C   LIG d   1       7.475   1.585  -3.750  0.00  0.00    -0.061 A 
ATOM     21  H   LIG d   1       8.755   2.466  -5.218  0.00  0.00     0.062 H 
ATOM     22  C   LIG d   1       6.538   0.603  -3.489  0.00  0.00    -0.058 A 
ATOM     23  H   LIG d   1       7.778   2.264  -2.967  0.00  0.00     0.062 H 
ATOM     24  H   LIG d   1       6.109   0.515  -2.502  0.00  0.00     0.062 H 
ENDBRANCH   1  14
BRANCH   6  25
ATOM     25  N   LIG d   1       3.789   0.632  -4.828  0.00  0.00     0.221 N 
ATOM     26  H   LIG d   1       4.709   0.827  -5.218  0.00  0.00     0.200 HD
ATOM     27  H   LIG d   1       3.076   0.825  -5.529  0.00  0.00     0.200 HD
ATOM     28  H   LIG d   1       3.634   1.240  -4.015  0.00  0.00     0.200 HD
ENDBRANCH   6  25
TORSDOF 2
ENDMDL
MODEL 8
REMARK VINA RESULT:      -5.1      2.374      3.997
REMARK  2 active torsions:
REMARK  status: ('A' for Active; 'I' for Inactive)
REMARK    1  A    between atoms: C_4  and  C_7 
REMARK    2  A    between atoms: C_12  and  N_27 
ROOT
ATOM      1  C   LIG d   1       4.940  -0.458  -5.962  0.00  0.00     0.027 C 
ATOM      2  H   LIG d   1       5.683   0.334  -6.058  0.00  0.00     0.040 H 
ATOM      3  C   LIG d   1       5.431  -1.733  -6.678  0.00  0.00    -0.041 C 
ATOM      4  C   LIG d   1       4.774  -1.660  -8.078  0.00  0.00    -0.047 C 
ATOM      5  C   LIG d   1       3.373  -1.077  -7.769  0.00  0.00    -0.009 C 
ATOM      6  C   LIG d   1       3.632  -0.042  -6.656  0.00  0.00    -0.017 C 
ATOM      7  H   LIG d   1       3.741   0.953  -7.090  0.00  0.00     0.086 H 
ATOM      8  H   LIG d   1       6.518  -1.728  -6.764  0.00  0.00     0.027 H 
ATOM      9  H   LIG d   1       5.095  -2.624  -6.145  0.00  0.00     0.027 H 
ATOM     10  H   LIG d   1       4.691  -2.654  -8.519  0.00  0.00     0.027 H 
ATOM     11  H   LIG d   1       5.334  -0.994  -8.736  0.00  0.00     0.027 H 
ATOM     12  H   LIG d   1       2.704  -1.861  -7.413  0.00  0.00     0.032 H 
ATOM     13  H   LIG d   1       2.958  -0.593  -8.653  0.00  0.00     0.032 H 
ENDROOT
BRANCH   1  14
ATOM     14  C   LIG d   1       4.682  -0.750  -4.506  0.00  0.00    -0.039 A 
ATOM     15  C   LIG d   1       4.814   0.255  -3.566  0.00  0.00    -0.058 A 
ATOM     16  C   LIG d   1       4.579  -0.013  -2.231  0.00  0.00    -0.061 A 
ATOM     17  H   LIG d   1       5.102   1.249  -3.875  0.00  0.00     0.062 H 
ATOM     18  C   LIG d   1       4.212  -1.286  -1.836  0.00  0.00    -0.062 A 
ATOM     19  H   LIG d   1       4.686   0.771  -1.496  0.00  0.00     0.062 H 
ATOM     20  C   LIG d   1       4.080  -2.291  -2.775  0.00  0.00    -0.061 A 
ATOM     21  H   LIG d   1       4.027  -1.495  -0.792  0.00  0.00     0.062 H 
ATOM     22  C   LIG d   1       4.316  -2.024  -4.111  0.00  0.00    -0.058 A 
ATOM     23  H   LIG d   1       3.793  -3.285  -2.466  0.00  0.00     0.062 H 
ATOM     24  H   LIG d   1       4.213  -2.809  -4.845  0.00  0.00     0.062 H 
ENDBRANCH   1  14
BRANCH   6  25
ATOM     25  N   LIG d   1       2.535  -0.036  -5.673  0.00  0.00     0.221 N 
ATOM     26  H   LIG d   1       2.847  -0.448  -4.796  0.00  0.00     0.200 HD
ATOM     27  H   LIG d   1       2.222   0.919  -5.505  0.00  0.00     0.200 HD
ATOM     28  H   LIG d   1       1.749  -0.585  -6.041  0.00  0.00     0.200 HD
ENDBRANCH   6  25
TORSDOF 2
ENDMDL
MODEL 9
REMARK VINA RESULT:      -4.7      1.742      2.293
REMARK  2 active torsions:
REMARK  status: ('A' for Active; 'I' for Inactive)
REMARK    1  A    between atoms: C_4  and  C_7 
REMARK    2  A    between atoms: C_12  and  N_27 
ROOT
ATOM      1  C   LIG d   1       4.568  -0.016  -4.288  0.00  0.00     0.027 C 
ATOM      2  H   LIG d   1       4.461   0.676  -5.124  0.00  0.00     0.040 H 
ATOM      3  C   LIG d   1       3.238  -0.116  -3.513  0.00  0.00    -0.041 C 
ATOM      4  C   LIG d   1       3.402   0.890  -2.347  0.00  0.00    -0.047 C 
ATOM      5  C   LIG d   1       4.889   0.716  -1.951  0.00  0.00    -0.009 C 
ATOM      6  C   LIG d   1       5.616   0.513  -3.295  0.00  0.00    -0.017 C 
ATOM      7  H   LIG d   1       6.019   1.463  -3.649  0.00  0.00     0.086 H 
ATOM      8  H   LIG d   1       2.401   0.169  -4.150  0.00  0.00     0.027 H 
ATOM      9  H   LIG d   1       3.096  -1.127  -3.127  0.00  0.00     0.027 H 
ATOM     10  H   LIG d   1       2.747   0.628  -1.515  0.00  0.00     0.027 H 
ATOM     11  H   LIG d   1       3.207   1.909  -2.683  0.00  0.00     0.027 H 
ATOM     12  H   LIG d   1       5.014  -0.159  -1.313  0.00  0.00     0.032 H 
ATOM     13  H   LIG d   1       5.256   1.610  -1.449  0.00  0.00     0.032 H 
ENDROOT
BRANCH   1  14
ATOM     14  C   LIG d   1       4.974  -1.377  -4.793  0.00  0.00    -0.039 A 
ATOM     15  C   LIG d   1       5.751  -1.488  -5.931  0.00  0.00    -0.058 A 
ATOM     16  C   LIG d   1       6.123  -2.735  -6.395  0.00  0.00    -0.061 A 
ATOM     17  H   LIG d   1       6.066  -0.600  -6.458  0.00  0.00     0.062 H 
ATOM     18  C   LIG d   1       5.719  -3.872  -5.720  0.00  0.00    -0.062 A 
ATOM     19  H   LIG d   1       6.726  -2.822  -7.287  0.00  0.00     0.062 H 
ATOM     20  C   LIG d   1       4.941  -3.762  -4.582  0.00  0.00    -0.061 A 
ATOM     21  H   LIG d   1       6.010  -4.847  -6.082  0.00  0.00     0.062 H 
ATOM     22  C   LIG d   1       4.569  -2.514  -4.119  0.00  0.00    -0.058 A 
ATOM     23  H   LIG d   1       4.626  -4.650  -4.055  0.00  0.00     0.062 H 
ATOM     24  H   LIG d   1       3.962  -2.428  -3.230  0.00  0.00     0.062 H 
ENDBRANCH   1  14
BRANCH   6  25
ATOM     25  N   LIG d   1       6.707  -0.468  -3.163  0.00  0.00     0.221 N 
ATOM     26  H   LIG d   1       6.622  -0.970  -2.281  0.00  0.00     0.200 HD
ATOM     27  H   LIG d   1       6.675  -1.133  -3.935  0.00  0.00     0.200 HD
ATOM     28  H   LIG d   1       7.609   0.024  -3.183  0.00  0.00     0.200 HD
ENDBRANCH   6  25
TORSDOF 2
ENDMDL
MODEL 10
REMARK VINA RESULT:      -4.5      4.421      5.636
REMARK  2 active torsions:
REMARK  status: ('A' for Active; 'I' for Inactive)
REMARK    1  A    between atoms: C_4  and  C_7 
REMARK    2  A    between atoms: C_12  and  N_27 
ROOT
ATOM      1  C   LIG d   1       2.851   1.133  -8.355  0.00  0.00     0.027 C 
ATOM      2  H   LIG d   1       2.072   1.864  -8.138  0.00  0.00     0.040 H 
ATOM      3  C   LIG d   1       4.037   1.820  -9.063  0.00  0.00    -0.041 C 
ATOM      4  C   LIG d   1       3.771   1.578 -10.570  0.00  0.00    -0.047 C 
ATOM      5  C   LIG d   1       3.198   0.139 -10.590  0.00  0.00    -0.009 C 
ATOM      6  C   LIG d   1       2.318   0.065  -9.326  0.00  0.00    -0.017 C 
ATOM      7  H   LIG d   1       1.280   0.278  -9.580  0.00  0.00     0.086 H 
ATOM      8  H   LIG d   1       4.047   2.887  -8.843  0.00  0.00     0.027 H 
ATOM      9  H   LIG d   1       4.980   1.358  -8.764  0.00  0.00     0.027 H 
ATOM     10  H   LIG d   1       4.698   1.633 -11.140  0.00  0.00     0.027 H 
ATOM     11  H   LIG d   1       3.040   2.290 -10.955  0.00  0.00     0.027 H 
ATOM     12  H   LIG d   1       4.004  -0.593 -10.538  0.00  0.00     0.032 H 
ATOM     13  H   LIG d   1       2.596  -0.018 -11.485  0.00  0.00     0.032 H 
ENDROOT
BRANCH   1  14
ATOM     14  C   LIG d   1       3.319   0.483  -7.078  0.00  0.00    -0.039 A 
ATOM     15  C   LIG d   1       4.533  -0.178  -7.043  0.00  0.00    -0.058 A 
ATOM     16  C   LIG d   1       4.961  -0.774  -5.873  0.00  0.00    -0.061 A 
ATOM     17  H   LIG d   1       5.145  -0.229  -7.931  0.00  0.00     0.062 H 
ATOM     18  C   LIG d   1       4.177  -0.710  -4.737  0.00  0.00    -0.062 A 
ATOM     19  H   LIG d   1       5.908  -1.294  -5.847  0.00  0.00     0.062 H 
ATOM     20  C   LIG d   1       2.962  -0.049  -4.771  0.00  0.00    -0.061 A 
ATOM     21  H   LIG d   1       4.512  -1.175  -3.821  0.00  0.00     0.062 H 
ATOM     22  C   LIG d   1       2.534   0.547  -5.942  0.00  0.00    -0.058 A 
ATOM     23  H   LIG d   1       2.350   0.001  -3.883  0.00  0.00     0.062 H 
ATOM     24  H   LIG d   1       1.585   1.063  -5.969  0.00  0.00     0.062 H 
ENDBRANCH   1  14
BRANCH   6  25
ATOM     25  N   LIG d   1       2.410  -1.263  -8.694  0.00  0.00     0.221 N 
ATOM     26  H   LIG d   1       3.366  -1.440  -8.390  0.00  0.00     0.200 HD
ATOM     27  H   LIG d   1       1.785  -1.312  -7.892  0.00  0.00     0.200 HD
ATOM     28  H   LIG d   1       2.137  -1.981  -9.376  0.00  0.00     0.200 HD
ENDBRANCH   6  25
TORSDOF 2
ENDMDL
