MODEL 1
REMARK VINA RESULT:      -5.6      0.000      0.000
REMARK  11 active torsions:
REMARK  status: ('A' for Active; 'I' for Inactive)
REMARK    1  A    between atoms: C_1  and  C_2 
REMARK    2  A    between atoms: C_4  and  C_26 
REMARK    3  A    between atoms: C_6  and  C_23 
REMARK    4  A    between atoms: C_9  and  C_11 
REMARK    5  A    between atoms: C_11  and  C_12 
REMARK       I    between atoms: C_12  and  N_14 
REMARK    6  A    between atoms: N_17  and  C_20 
REMARK    7  A    between atoms: C_20  and  C_21 
REMARK    8  A    between atoms: C_21  and  O_22 
REMARK    9  A    between atoms: C_23  and  C_24 
REMARK   10  A    between atoms: C_23  and  C_25 
REMARK   11  A    between atoms: C_26  and  O_27 
ROOT
ATOM      1  C   LIG d   1       3.597   1.206  -9.934  0.00  0.00    -0.073 C 
ATOM      2  C   LIG d   1       3.785   0.920 -11.181  0.00  0.00    -0.079 C 
ATOM      3  C   LIG d   1       3.123  -0.226 -11.890  0.00  0.00     0.004 C 
ATOM      4  H   LIG d   1       2.303   0.181 -12.500  0.00  0.00     0.037 H 
ATOM      5  C   LIG d   1       2.561  -1.221 -10.872  0.00  0.00    -0.030 C 
ATOM      6  H   LIG d   1       3.383  -1.762 -10.381  0.00  0.00     0.031 H 
ATOM      7  C   LIG d   1       1.741  -0.444  -9.835  0.00  0.00    -0.042 C 
ATOM      8  C   LIG d   1       2.697   0.429  -9.017  0.00  0.00    -0.012 C 
ATOM      9  H   LIG d   1       2.119   1.147  -8.418  0.00  0.00     0.035 H 
ATOM     10  H   LIG d   1       4.467   1.531 -11.789  0.00  0.00     0.058 H 
ATOM     11  H   LIG d   1       1.002   0.189 -10.351  0.00  0.00     0.027 H 
ATOM     12  H   LIG d   1       1.220  -1.152  -9.175  0.00  0.00     0.027 H 
ENDROOT
BRANCH   8  13
ATOM     13  C   LIG d   1       3.545  -0.463  -8.110  0.00  0.00     0.031 C 
ATOM     14  H   LIG d   1       3.187  -1.501  -8.177  0.00  0.00     0.036 H 
ATOM     15  H   LIG d   1       4.597  -0.417  -8.429  0.00  0.00     0.036 H 
BRANCH  13  16
ATOM     16  C   LIG d   1       3.431   0.016  -6.686  0.00  0.00     0.216 C 
ATOM     17  O   LIG d   1       2.876   1.067  -6.442  0.00  0.00    -0.276 OA
ATOM     18  N   LIG d   1       3.946  -0.721  -5.683  0.00  0.00    -0.299 N 
ATOM     19  C   LIG d   1       3.846  -0.272  -4.286  0.00  0.00     0.028 C 
ATOM     20  C   LIG d   1       4.618  -2.001  -5.955  0.00  0.00     0.028 C 
ATOM     21  C   LIG d   1       5.242  -0.325  -3.656  0.00  0.00     0.015 C 
ATOM     22  H   LIG d   1       3.462   0.759  -4.260  0.00  0.00     0.048 H 
ATOM     23  H   LIG d   1       3.161  -0.933  -3.735  0.00  0.00     0.048 H 
ATOM     24  N   LIG d   1       5.806  -1.669  -3.836  0.00  0.00    -0.297 N 
ATOM     25  H   LIG d   1       5.170  -0.098  -2.582  0.00  0.00     0.044 H 
ATOM     26  H   LIG d   1       5.894   0.415  -4.144  0.00  0.00     0.044 H 
ATOM     27  C   LIG d   1       5.988  -1.984  -5.260  0.00  0.00     0.015 C 
ATOM     28  H   LIG d   1       6.464  -2.971  -5.361  0.00  0.00     0.044 H 
ATOM     29  H   LIG d   1       6.627  -1.220  -5.728  0.00  0.00     0.044 H 
ATOM     30  H   LIG d   1       4.006  -2.827  -5.563  0.00  0.00     0.048 H 
ATOM     31  H   LIG d   1       4.746  -2.125  -7.040  0.00  0.00     0.048 H 
BRANCH  24  32
ATOM     32  C   LIG d   1       7.068  -1.814  -3.099  0.00  0.00     0.022 C 
ATOM     33  H   LIG d   1       7.588  -0.844  -3.068  0.00  0.00     0.045 H 
ATOM     34  H   LIG d   1       6.858  -2.149  -2.073  0.00  0.00     0.045 H 
BRANCH  32  35
ATOM     35  C   LIG d   1       7.954  -2.844  -3.803  0.00  0.00     0.057 C 
ATOM     36  H   LIG d   1       7.336  -3.689  -4.141  0.00  0.00     0.057 H 
ATOM     37  H   LIG d   1       8.442  -2.376  -4.671  0.00  0.00     0.057 H 
BRANCH  35  38
ATOM     38  O   LIG d   1       8.949  -3.317  -2.894  0.00  0.00    -0.394 OA
ATOM     39  H   LIG d   1       8.737  -3.353  -1.815  0.00  0.00     0.209 HD
ENDBRANCH  35  38
ENDBRANCH  32  35
ENDBRANCH  24  32
ENDBRANCH  13  16
ENDBRANCH   8  13
BRANCH   1  40
ATOM     40  C   LIG d   1       4.326   2.396  -9.364  0.00  0.00    -0.043 C 
ATOM     41  H   LIG d   1       4.786   2.970 -10.181  0.00  0.00     0.027 H 
ATOM     42  H   LIG d   1       5.107   2.050  -8.672  0.00  0.00     0.027 H 
ATOM     43  H   LIG d   1       3.614   3.037  -8.822  0.00  0.00     0.027 H 
ENDBRANCH   1  40
BRANCH   5  44
ATOM     44  C   LIG d   1       1.662  -2.233 -11.586  0.00  0.00    -0.043 C 
ATOM     45  H   LIG d   1       2.248  -2.777 -12.341  0.00  0.00     0.030 H 
BRANCH  44  46
ATOM     46  C   LIG d   1       1.100  -3.225 -10.566  0.00  0.00    -0.062 C 
ATOM     47  H   LIG d   1       1.919  -3.830 -10.152  0.00  0.00     0.023 H 
ATOM     48  H   LIG d   1       0.371  -3.884 -11.059  0.00  0.00     0.023 H 
ATOM     49  H   LIG d   1       0.605  -2.674  -9.753  0.00  0.00     0.023 H 
ENDBRANCH  44  46
BRANCH  44  50
ATOM     50  C   LIG d   1       0.508  -1.496 -12.270  0.00  0.00    -0.062 C 
ATOM     51  H   LIG d   1       0.898  -0.613 -12.796  0.00  0.00     0.023 H 
ATOM     52  H   LIG d   1      -0.225  -1.180 -11.513  0.00  0.00     0.023 H 
ATOM     53  H   LIG d   1       0.022  -2.169 -12.992  0.00  0.00     0.023 H 
ENDBRANCH  44  50
ENDBRANCH   5  44
BRANCH   3  54
ATOM     54  C   LIG d   1       4.148  -0.933 -12.779  0.00  0.00     0.051 C 
ATOM     55  H   LIG d   1       4.991  -1.279 -12.162  0.00  0.00     0.056 H 
ATOM     56  H   LIG d   1       3.674  -1.796 -13.269  0.00  0.00     0.056 H 
BRANCH  54  57
ATOM     57  O   LIG d   1       4.627  -0.023 -13.771  0.00  0.00    -0.394 OA
ATOM     58  H   LIG d   1       4.481   1.059 -13.642  0.00  0.00     0.209 HD
ENDBRANCH  54  57
ENDBRANCH   3  54
TORSDOF 11
ENDMDL
MODEL 2
REMARK VINA RESULT:      -5.4      2.328      7.576
REMARK  11 active torsions:
REMARK  status: ('A' for Active; 'I' for Inactive)
REMARK    1  A    between atoms: C_1  and  C_2 
REMARK    2  A    between atoms: C_4  and  C_26 
REMARK    3  A    between atoms: C_6  and  C_23 
REMARK    4  A    between atoms: C_9  and  C_11 
REMARK    5  A    between atoms: C_11  and  C_12 
REMARK       I    between atoms: C_12  and  N_14 
REMARK    6  A    between atoms: N_17  and  C_20 
REMARK    7  A    between atoms: C_20  and  C_21 
REMARK    8  A    between atoms: C_21  and  O_22 
REMARK    9  A    between atoms: C_23  and  C_24 
REMARK   10  A    between atoms: C_23  and  C_25 
REMARK   11  A    between atoms: C_26  and  O_27 
ROOT
ATOM      1  C   LIG d   1       6.774  -2.543  -4.133  0.00  0.00    -0.073 C 
ATOM      2  C   LIG d   1       6.828  -1.531  -3.330  0.00  0.00    -0.079 C 
ATOM      3  C   LIG d   1       5.698  -0.566  -3.114  0.00  0.00     0.004 C 
ATOM      4  H   LIG d   1       5.216  -0.816  -2.158  0.00  0.00     0.037 H 
ATOM      5  C   LIG d   1       4.679  -0.687  -4.250  0.00  0.00    -0.030 C 
ATOM      6  H   LIG d   1       5.098  -0.273  -5.178  0.00  0.00     0.031 H 
ATOM      7  C   LIG d   1       4.336  -2.171  -4.438  0.00  0.00    -0.042 C 
ATOM      8  C   LIG d   1       5.577  -2.891  -4.970  0.00  0.00    -0.012 C 
ATOM      9  H   LIG d   1       5.426  -3.979  -4.912  0.00  0.00     0.035 H 
ATOM     10  H   LIG d   1       7.744  -1.334  -2.753  0.00  0.00     0.058 H 
ATOM     11  H   LIG d   1       4.036  -2.603  -3.471  0.00  0.00     0.027 H 
ATOM     12  H   LIG d   1       3.509  -2.268  -5.155  0.00  0.00     0.027 H 
ENDROOT
BRANCH   8  13
ATOM     13  C   LIG d   1       5.829  -2.465  -6.417  0.00  0.00     0.031 C 
ATOM     14  H   LIG d   1       5.571  -1.402  -6.536  0.00  0.00     0.036 H 
ATOM     15  H   LIG d   1       6.891  -2.614  -6.664  0.00  0.00     0.036 H 
BRANCH  13  16
ATOM     16  C   LIG d   1       4.977  -3.296  -7.341  0.00  0.00     0.216 C 
ATOM     17  O   LIG d   1       5.110  -4.501  -7.368  0.00  0.00    -0.276 OA
ATOM     18  N   LIG d   1       4.068  -2.700  -8.138  0.00  0.00    -0.299 N 
ATOM     19  C   LIG d   1       3.227  -3.492  -9.048  0.00  0.00     0.028 C 
ATOM     20  C   LIG d   1       3.887  -1.240  -8.117  0.00  0.00     0.028 C 
ATOM     21  C   LIG d   1       3.325  -2.888 -10.452  0.00  0.00     0.015 C 
ATOM     22  H   LIG d   1       3.582  -4.534  -9.062  0.00  0.00     0.048 H 
ATOM     23  H   LIG d   1       2.184  -3.466  -8.700  0.00  0.00     0.048 H 
ATOM     24  N   LIG d   1       2.997  -1.458 -10.391  0.00  0.00    -0.297 N 
ATOM     25  H   LIG d   1       2.618  -3.399 -11.123  0.00  0.00     0.044 H 
ATOM     26  H   LIG d   1       4.349  -3.013 -10.836  0.00  0.00     0.044 H 
ATOM     27  C   LIG d   1       3.963  -0.725  -9.563  0.00  0.00     0.015 C 
ATOM     28  H   LIG d   1       3.725   0.350  -9.582  0.00  0.00     0.044 H 
ATOM     29  H   LIG d   1       4.979  -0.882  -9.955  0.00  0.00     0.044 H 
ATOM     30  H   LIG d   1       2.907  -0.999  -7.681  0.00  0.00     0.048 H 
ATOM     31  H   LIG d   1       4.680  -0.781  -7.509  0.00  0.00     0.048 H 
BRANCH  24  32
ATOM     32  C   LIG d   1       2.912  -0.879 -11.738  0.00  0.00     0.022 C 
ATOM     33  H   LIG d   1       3.004  -1.679 -12.488  0.00  0.00     0.045 H 
ATOM     34  H   LIG d   1       1.942  -0.373 -11.859  0.00  0.00     0.045 H 
BRANCH  32  35
ATOM     35  C   LIG d   1       4.044   0.133 -11.931  0.00  0.00     0.057 C 
ATOM     36  H   LIG d   1       3.635   1.154 -11.885  0.00  0.00     0.057 H 
ATOM     37  H   LIG d   1       4.791   0.002 -11.133  0.00  0.00     0.057 H 
BRANCH  35  38
ATOM     38  O   LIG d   1       4.660  -0.077 -13.202  0.00  0.00    -0.394 OA
ATOM     39  H   LIG d   1       5.081   0.774 -13.757  0.00  0.00     0.209 HD
ENDBRANCH  35  38
ENDBRANCH  32  35
ENDBRANCH  24  32
ENDBRANCH  13  16
ENDBRANCH   8  13
BRANCH   1  40
ATOM     40  C   LIG d   1       7.989  -3.430  -4.235  0.00  0.00    -0.043 C 
ATOM     41  H   LIG d   1       8.678  -3.204  -3.408  0.00  0.00     0.027 H 
ATOM     42  H   LIG d   1       8.494  -3.251  -5.194  0.00  0.00     0.027 H 
ATOM     43  H   LIG d   1       7.679  -4.484  -4.175  0.00  0.00     0.027 H 
ENDBRANCH   1  40
BRANCH   5  44
ATOM     44  C   LIG d   1       3.413   0.091  -3.890  0.00  0.00    -0.043 C 
ATOM     45  H   LIG d   1       3.690   1.033  -3.394  0.00  0.00     0.030 H 
BRANCH  44  46
ATOM     46  C   LIG d   1       2.623   0.399  -5.163  0.00  0.00    -0.062 C 
ATOM     47  H   LIG d   1       2.185  -0.529  -5.557  0.00  0.00     0.023 H 
ATOM     48  H   LIG d   1       3.296   0.835  -5.915  0.00  0.00     0.023 H 
ATOM     49  H   LIG d   1       1.819   1.114  -4.931  0.00  0.00     0.023 H 
ENDBRANCH  44  46
BRANCH  44  50
ATOM     50  C   LIG d   1       2.549  -0.747  -2.944  0.00  0.00    -0.062 C 
ATOM     51  H   LIG d   1       1.487  -0.531  -3.129  0.00  0.00     0.023 H 
ATOM     52  H   LIG d   1       2.799  -0.497  -1.902  0.00  0.00     0.023 H 
ATOM     53  H   LIG d   1       2.744  -1.815  -3.121  0.00  0.00     0.023 H 
ENDBRANCH  44  50
ENDBRANCH   5  44
BRANCH   3  54
ATOM     54  C   LIG d   1       6.249   0.860  -3.077  0.00  0.00     0.051 C 
ATOM     55  H   LIG d   1       5.439   1.560  -2.823  0.00  0.00     0.056 H 
ATOM     56  H   LIG d   1       7.042   0.927  -2.318  0.00  0.00     0.056 H 
BRANCH  54  57
ATOM     57  O   LIG d   1       6.785   1.198  -4.358  0.00  0.00    -0.394 OA
ATOM     58  H   LIG d   1       7.304   2.157  -4.502  0.00  0.00     0.209 HD
ENDBRANCH  54  57
ENDBRANCH   3  54
TORSDOF 11
ENDMDL
MODEL 3
REMARK VINA RESULT:      -5.4      5.236      7.258
REMARK  11 active torsions:
REMARK  status: ('A' for Active; 'I' for Inactive)
REMARK    1  A    between atoms: C_1  and  C_2 
REMARK    2  A    between atoms: C_4  and  C_26 
REMARK    3  A    between atoms: C_6  and  C_23 
REMARK    4  A    between atoms: C_9  and  C_11 
REMARK    5  A    between atoms: C_11  and  C_12 
REMARK       I    between atoms: C_12  and  N_14 
REMARK    6  A    between atoms: N_17  and  C_20 
REMARK    7  A    between atoms: C_20  and  C_21 
REMARK    8  A    between atoms: C_21  and  O_22 
REMARK    9  A    between atoms: C_23  and  C_24 
REMARK   10  A    between atoms: C_23  and  C_25 
REMARK   11  A    between atoms: C_26  and  O_27 
ROOT
ATOM      1  C   LIG d   1       4.605  -2.375  -3.504  0.00  0.00    -0.073 C 
ATOM      2  C   LIG d   1       4.307  -3.429  -4.193  0.00  0.00    -0.079 C 
ATOM      3  C   LIG d   1       5.264  -4.132  -5.112  0.00  0.00     0.004 C 
ATOM      4  H   LIG d   1       5.627  -5.034  -4.598  0.00  0.00     0.037 H 
ATOM      5  C   LIG d   1       6.447  -3.217  -5.439  0.00  0.00    -0.030 C 
ATOM      6  H   LIG d   1       6.121  -2.403  -6.103  0.00  0.00     0.031 H 
ATOM      7  C   LIG d   1       6.996  -2.644  -4.126  0.00  0.00    -0.042 C 
ATOM      8  C   LIG d   1       5.946  -1.701  -3.534  0.00  0.00    -0.012 C 
ATOM      9  H   LIG d   1       6.221  -1.446  -2.500  0.00  0.00     0.035 H 
ATOM     10  H   LIG d   1       3.299  -3.863  -4.126  0.00  0.00     0.058 H 
ATOM     11  H   LIG d   1       7.201  -3.467  -3.425  0.00  0.00     0.027 H 
ATOM     12  H   LIG d   1       7.926  -2.093  -4.327  0.00  0.00     0.027 H 
ENDROOT
BRANCH   8  13
ATOM     13  C   LIG d   1       5.860  -0.437  -4.390  0.00  0.00     0.031 C 
ATOM     14  H   LIG d   1       6.263  -0.645  -5.393  0.00  0.00     0.036 H 
ATOM     15  H   LIG d   1       4.809  -0.122  -4.475  0.00  0.00     0.036 H 
BRANCH  13  16
ATOM     16  C   LIG d   1       6.663   0.663  -3.745  0.00  0.00     0.216 C 
ATOM     17  O   LIG d   1       6.303   1.136  -2.687  0.00  0.00    -0.276 OA
ATOM     18  N   LIG d   1       7.780   1.122  -4.342  0.00  0.00    -0.299 N 
ATOM     19  C   LIG d   1       8.577   2.196  -3.730  0.00  0.00     0.028 C 
ATOM     20  C   LIG d   1       8.237   0.560  -5.622  0.00  0.00     0.028 C 
ATOM     21  C   LIG d   1       8.812   3.288  -4.778  0.00  0.00     0.015 C 
ATOM     22  H   LIG d   1       8.032   2.612  -2.869  0.00  0.00     0.048 H 
ATOM     23  H   LIG d   1       9.541   1.789  -3.390  0.00  0.00     0.048 H 
ATOM     24  N   LIG d   1       9.400   2.688  -5.983  0.00  0.00    -0.297 N 
ATOM     25  H   LIG d   1       9.498   4.046  -4.373  0.00  0.00     0.044 H 
ATOM     26  H   LIG d   1       7.853   3.762  -5.036  0.00  0.00     0.044 H 
ATOM     27  C   LIG d   1       8.482   1.721  -6.599  0.00  0.00     0.015 C 
ATOM     28  H   LIG d   1       8.925   1.331  -7.528  0.00  0.00     0.044 H 
ATOM     29  H   LIG d   1       7.525   2.214  -6.828  0.00  0.00     0.044 H 
ATOM     30  H   LIG d   1       9.169  -0.002  -5.463  0.00  0.00     0.048 H 
ATOM     31  H   LIG d   1       7.466  -0.115  -6.022  0.00  0.00     0.048 H 
BRANCH  24  32
ATOM     32  C   LIG d   1       9.798   3.723  -6.946  0.00  0.00     0.022 C 
ATOM     33  H   LIG d   1      10.777   3.465  -7.378  0.00  0.00     0.045 H 
ATOM     34  H   LIG d   1       9.049   3.785  -7.749  0.00  0.00     0.045 H 
BRANCH  32  35
ATOM     35  C   LIG d   1       9.897   5.073  -6.232  0.00  0.00     0.057 C 
ATOM     36  H   LIG d   1       9.097   5.149  -5.479  0.00  0.00     0.057 H 
ATOM     37  H   LIG d   1      10.875   5.154  -5.735  0.00  0.00     0.057 H 
BRANCH  35  38
ATOM     38  O   LIG d   1       9.756   6.127  -7.184  0.00  0.00    -0.394 OA
ATOM     39  H   LIG d   1      10.334   7.055  -7.067  0.00  0.00     0.209 HD
ENDBRANCH  35  38
ENDBRANCH  32  35
ENDBRANCH  24  32
ENDBRANCH  13  16
ENDBRANCH   8  13
BRANCH   1  40
ATOM     40  C   LIG d   1       3.539  -1.786  -2.616  0.00  0.00    -0.043 C 
ATOM     41  H   LIG d   1       2.673  -1.492  -3.228  0.00  0.00     0.027 H 
ATOM     42  H   LIG d   1       3.939  -0.903  -2.098  0.00  0.00     0.027 H 
ATOM     43  H   LIG d   1       3.225  -2.535  -1.874  0.00  0.00     0.027 H 
ENDBRANCH   1  40
BRANCH   5  44
ATOM     44  C   LIG d   1       7.539  -4.023  -6.145  0.00  0.00    -0.043 C 
ATOM     45  H   LIG d   1       7.119  -4.508  -7.038  0.00  0.00     0.030 H 
BRANCH  44  46
ATOM     46  C   LIG d   1       8.676  -3.088  -6.561  0.00  0.00    -0.062 C 
ATOM     47  H   LIG d   1       8.257  -2.129  -6.900  0.00  0.00     0.023 H 
ATOM     48  H   LIG d   1       9.248  -3.547  -7.379  0.00  0.00     0.023 H 
ATOM     49  H   LIG d   1       9.340  -2.914  -5.701  0.00  0.00     0.023 H 
ENDBRANCH  44  46
BRANCH  44  50
ATOM     50  C   LIG d   1       8.081  -5.092  -5.193  0.00  0.00    -0.062 C 
ATOM     51  H   LIG d   1       8.992  -4.718  -4.703  0.00  0.00     0.023 H 
ATOM     52  H   LIG d   1       8.317  -6.003  -5.762  0.00  0.00     0.023 H 
ATOM     53  H   LIG d   1       7.321  -5.322  -4.431  0.00  0.00     0.023 H 
ENDBRANCH  44  50
ENDBRANCH   5  44
BRANCH   3  54
ATOM     54  C   LIG d   1       4.540  -4.509  -6.405  0.00  0.00     0.051 C 
ATOM     55  H   LIG d   1       4.407  -3.610  -7.026  0.00  0.00     0.056 H 
ATOM     56  H   LIG d   1       5.139  -5.249  -6.957  0.00  0.00     0.056 H 
BRANCH  54  57
ATOM     57  O   LIG d   1       3.263  -5.066  -6.092  0.00  0.00    -0.394 OA
ATOM     58  H   LIG d   1       3.183  -6.118  -5.779  0.00  0.00     0.209 HD
ENDBRANCH  54  57
ENDBRANCH   3  54
TORSDOF 11
ENDMDL
MODEL 4
REMARK VINA RESULT:      -5.2      2.432      7.657
REMARK  11 active torsions:
REMARK  status: ('A' for Active; 'I' for Inactive)
REMARK    1  A    between atoms: C_1  and  C_2 
REMARK    2  A    between atoms: C_4  and  C_26 
REMARK    3  A    between atoms: C_6  and  C_23 
REMARK    4  A    between atoms: C_9  and  C_11 
REMARK    5  A    between atoms: C_11  and  C_12 
REMARK       I    between atoms: C_12  and  N_14 
REMARK    6  A    between atoms: N_17  and  C_20 
REMARK    7  A    between atoms: C_20  and  C_21 
REMARK    8  A    between atoms: C_21  and  O_22 
REMARK    9  A    between atoms: C_23  and  C_24 
REMARK   10  A    between atoms: C_23  and  C_25 
REMARK   11  A    between atoms: C_26  and  O_27 
ROOT
ATOM      1  C   LIG d   1       5.444  -3.001  -6.006  0.00  0.00    -0.073 C 
ATOM      2  C   LIG d   1       6.241  -3.275  -5.024  0.00  0.00    -0.079 C 
ATOM      3  C   LIG d   1       6.313  -2.481  -3.752  0.00  0.00     0.004 C 
ATOM      4  H   LIG d   1       5.774  -3.039  -2.972  0.00  0.00     0.037 H 
ATOM      5  C   LIG d   1       5.656  -1.112  -3.949  0.00  0.00    -0.030 C 
ATOM      6  H   LIG d   1       6.286  -0.482  -4.593  0.00  0.00     0.031 H 
ATOM      7  C   LIG d   1       4.280  -1.321  -4.592  0.00  0.00    -0.042 C 
ATOM      8  C   LIG d   1       4.486  -1.846  -6.016  0.00  0.00    -0.012 C 
ATOM      9  H   LIG d   1       3.527  -2.203  -6.420  0.00  0.00     0.035 H 
ATOM     10  H   LIG d   1       6.923  -4.135  -5.091  0.00  0.00     0.058 H 
ATOM     11  H   LIG d   1       3.706  -2.051  -4.002  0.00  0.00     0.027 H 
ATOM     12  H   LIG d   1       3.738  -0.365  -4.619  0.00  0.00     0.027 H 
ENDROOT
BRANCH   8  13
ATOM     13  C   LIG d   1       5.049  -0.727  -6.891  0.00  0.00     0.031 C 
ATOM     14  H   LIG d   1       5.622  -0.025  -6.267  0.00  0.00     0.036 H 
ATOM     15  H   LIG d   1       5.710  -1.158  -7.658  0.00  0.00     0.036 H 
BRANCH  13  16
ATOM     16  C   LIG d   1       3.916   0.007  -7.561  0.00  0.00     0.216 C 
ATOM     17  O   LIG d   1       3.349   0.908  -6.979  0.00  0.00    -0.276 OA
ATOM     18  N   LIG d   1       3.532  -0.337  -8.805  0.00  0.00    -0.299 N 
ATOM     19  C   LIG d   1       2.428   0.365  -9.477  0.00  0.00     0.028 C 
ATOM     20  C   LIG d   1       4.208  -1.423  -9.531  0.00  0.00     0.028 C 
ATOM     21  C   LIG d   1       1.432  -0.676  -9.998  0.00  0.00     0.015 C 
ATOM     22  H   LIG d   1       1.930   1.035  -8.759  0.00  0.00     0.048 H 
ATOM     23  H   LIG d   1       2.825   0.957 -10.315  0.00  0.00     0.048 H 
ATOM     24  N   LIG d   1       2.143  -1.655 -10.831  0.00  0.00    -0.297 N 
ATOM     25  H   LIG d   1       0.657  -0.176 -10.598  0.00  0.00     0.044 H 
ATOM     26  H   LIG d   1       0.961  -1.192  -9.148  0.00  0.00     0.044 H 
ATOM     27  C   LIG d   1       3.139  -2.398 -10.048  0.00  0.00     0.015 C 
ATOM     28  H   LIG d   1       3.614  -3.160 -10.684  0.00  0.00     0.044 H 
ATOM     29  H   LIG d   1       2.647  -2.887  -9.194  0.00  0.00     0.044 H 
ATOM     30  H   LIG d   1       4.775  -1.002 -10.375  0.00  0.00     0.048 H 
ATOM     31  H   LIG d   1       4.899  -1.944  -8.852  0.00  0.00     0.048 H 
BRANCH  24  32
ATOM     32  C   LIG d   1       1.201  -2.569 -11.489  0.00  0.00     0.022 C 
ATOM     33  H   LIG d   1       0.217  -2.084 -11.574  0.00  0.00     0.045 H 
ATOM     34  H   LIG d   1       1.573  -2.820 -12.493  0.00  0.00     0.045 H 
BRANCH  32  35
ATOM     35  C   LIG d   1       1.068  -3.848 -10.658  0.00  0.00     0.057 C 
ATOM     36  H   LIG d   1       1.267  -4.722 -11.296  0.00  0.00     0.057 H 
ATOM     37  H   LIG d   1       1.794  -3.825  -9.832  0.00  0.00     0.057 H 
BRANCH  35  38
ATOM     38  O   LIG d   1      -0.255  -3.937 -10.128  0.00  0.00    -0.394 OA
ATOM     39  H   LIG d   1      -1.097  -4.190 -10.789  0.00  0.00     0.209 HD
ENDBRANCH  35  38
ENDBRANCH  32  35
ENDBRANCH  24  32
ENDBRANCH  13  16
ENDBRANCH   8  13
BRANCH   1  40
ATOM     40  C   LIG d   1       5.480  -3.899  -7.216  0.00  0.00    -0.043 C 
ATOM     41  H   LIG d   1       6.479  -3.857  -7.674  0.00  0.00     0.027 H 
ATOM     42  H   LIG d   1       4.727  -3.564  -7.944  0.00  0.00     0.027 H 
ATOM     43  H   LIG d   1       5.260  -4.933  -6.912  0.00  0.00     0.027 H 
ENDBRANCH   1  40
BRANCH   5  44
ATOM     44  C   LIG d   1       5.491  -0.422  -2.594  0.00  0.00    -0.043 C 
ATOM     45  H   LIG d   1       6.403  -0.562  -1.996  0.00  0.00     0.030 H 
BRANCH  44  46
ATOM     46  C   LIG d   1       5.247   1.073  -2.808  0.00  0.00    -0.062 C 
ATOM     47  H   LIG d   1       5.156   1.280  -3.884  0.00  0.00     0.023 H 
ATOM     48  H   LIG d   1       6.090   1.645  -2.395  0.00  0.00     0.023 H 
ATOM     49  H   LIG d   1       4.318   1.369  -2.298  0.00  0.00     0.023 H 
ENDBRANCH  44  46
BRANCH  44  50
ATOM     50  C   LIG d   1       4.298  -1.032  -1.852  0.00  0.00    -0.062 C 
ATOM     51  H   LIG d   1       3.566  -1.407  -2.583  0.00  0.00     0.023 H 
ATOM     52  H   LIG d   1       3.827  -0.264  -1.221  0.00  0.00     0.023 H 
ATOM     53  H   LIG d   1       4.646  -1.863  -1.221  0.00  0.00     0.023 H 
ENDBRANCH  44  50
ENDBRANCH   5  44
BRANCH   3  54
ATOM     54  C   LIG d   1       7.777  -2.289  -3.356  0.00  0.00     0.051 C 
ATOM     55  H   LIG d   1       7.830  -1.849  -2.348  0.00  0.00     0.056 H 
ATOM     56  H   LIG d   1       8.287  -3.264  -3.357  0.00  0.00     0.056 H 
BRANCH  54  57
ATOM     57  O   LIG d   1       8.414  -1.416  -4.290  0.00  0.00    -0.394 OA
ATOM     58  H   LIG d   1       9.449  -1.087  -4.118  0.00  0.00     0.209 HD
ENDBRANCH  54  57
ENDBRANCH   3  54
TORSDOF 11
ENDMDL
MODEL 5
REMARK VINA RESULT:      -5.1     10.401     14.138
REMARK  11 active torsions:
REMARK  status: ('A' for Active; 'I' for Inactive)
REMARK    1  A    between atoms: C_1  and  C_2 
REMARK    2  A    between atoms: C_4  and  C_26 
REMARK    3  A    between atoms: C_6  and  C_23 
REMARK    4  A    between atoms: C_9  and  C_11 
REMARK    5  A    between atoms: C_11  and  C_12 
REMARK       I    between atoms: C_12  and  N_14 
REMARK    6  A    between atoms: N_17  and  C_20 
REMARK    7  A    between atoms: C_20  and  C_21 
REMARK    8  A    between atoms: C_21  and  O_22 
REMARK    9  A    between atoms: C_23  and  C_24 
REMARK   10  A    between atoms: C_23  and  C_25 
REMARK   11  A    between atoms: C_26  and  O_27 
ROOT
ATOM      1  C   LIG d   1      10.245   5.290  -2.116  0.00  0.00    -0.073 C 
ATOM      2  C   LIG d   1      10.657   5.472  -0.903  0.00  0.00    -0.079 C 
ATOM      3  C   LIG d   1      10.581   6.784  -0.177  0.00  0.00     0.004 C 
ATOM      4  H   LIG d   1       9.733   6.736   0.522  0.00  0.00     0.037 H 
ATOM      5  C   LIG d   1      10.362   7.926  -1.173  0.00  0.00    -0.030 C 
ATOM      6  H   LIG d   1      11.277   8.094  -1.759  0.00  0.00     0.031 H 
ATOM      7  C   LIG d   1       9.200   7.545  -2.100  0.00  0.00    -0.042 C 
ATOM      8  C   LIG d   1       9.642   6.367  -2.971  0.00  0.00    -0.012 C 
ATOM      9  H   LIG d   1       8.769   5.942  -3.487  0.00  0.00     0.035 H 
ATOM     10  H   LIG d   1      11.096   4.637  -0.339  0.00  0.00     0.058 H 
ATOM     11  H   LIG d   1       8.327   7.258  -1.495  0.00  0.00     0.027 H 
ATOM     12  H   LIG d   1       8.940   8.405  -2.734  0.00  0.00     0.027 H 
ENDROOT
BRANCH   8  13
ATOM     13  C   LIG d   1      10.679   6.849  -3.986  0.00  0.00     0.031 C 
ATOM     14  H   LIG d   1      11.119   7.796  -3.640  0.00  0.00     0.036 H 
ATOM     15  H   LIG d   1      11.472   6.092  -4.089  0.00  0.00     0.036 H 
BRANCH  13  16
ATOM     16  C   LIG d   1      10.014   7.063  -5.321  0.00  0.00     0.216 C 
ATOM     17  O   LIG d   1       9.665   6.109  -5.986  0.00  0.00    -0.276 OA
ATOM     18  N   LIG d   1       9.806   8.314  -5.778  0.00  0.00    -0.299 N 
ATOM     19  C   LIG d   1       9.159   8.545  -7.079  0.00  0.00     0.028 C 
ATOM     20  C   LIG d   1      10.216   9.484  -4.987  0.00  0.00     0.028 C 
ATOM     21  C   LIG d   1      10.032   9.504  -7.894  0.00  0.00     0.015 C 
ATOM     22  H   LIG d   1       9.054   7.588  -7.611  0.00  0.00     0.048 H 
ATOM     23  H   LIG d   1       8.164   8.987  -6.920  0.00  0.00     0.048 H 
ATOM     24  N   LIG d   1      10.292  10.716  -7.105  0.00  0.00    -0.297 N 
ATOM     25  H   LIG d   1       9.512   9.776  -8.824  0.00  0.00     0.044 H 
ATOM     26  H   LIG d   1      10.987   9.014  -8.138  0.00  0.00     0.044 H 
ATOM     27  C   LIG d   1      11.053  10.406  -5.887  0.00  0.00     0.015 C 
ATOM     28  H   LIG d   1      11.280  11.338  -5.348  0.00  0.00     0.044 H 
ATOM     29  H   LIG d   1      11.992   9.900  -6.157  0.00  0.00     0.044 H 
ATOM     30  H   LIG d   1       9.321  10.016  -4.630  0.00  0.00     0.048 H 
ATOM     31  H   LIG d   1      10.813   9.153  -4.125  0.00  0.00     0.048 H 
BRANCH  24  32
ATOM     32  C   LIG d   1      10.981  11.731  -7.912  0.00  0.00     0.022 C 
ATOM     33  H   LIG d   1      12.006  11.867  -7.535  0.00  0.00     0.045 H 
ATOM     34  H   LIG d   1      11.017  11.404  -8.962  0.00  0.00     0.045 H 
BRANCH  32  35
ATOM     35  C   LIG d   1      10.224  13.058  -7.817  0.00  0.00     0.057 C 
ATOM     36  H   LIG d   1      10.380  13.499  -6.821  0.00  0.00     0.057 H 
ATOM     37  H   LIG d   1      10.598  13.750  -8.586  0.00  0.00     0.057 H 
BRANCH  35  38
ATOM     38  O   LIG d   1       8.829  12.827  -8.021  0.00  0.00    -0.394 OA
ATOM     39  H   LIG d   1       8.329  13.231  -8.913  0.00  0.00     0.209 HD
ENDBRANCH  35  38
ENDBRANCH  32  35
ENDBRANCH  24  32
ENDBRANCH  13  16
ENDBRANCH   8  13
BRANCH   1  40
ATOM     40  C   LIG d   1      10.379   3.911  -2.708  0.00  0.00    -0.043 C 
ATOM     41  H   LIG d   1      11.395   3.530  -2.525  0.00  0.00     0.027 H 
ATOM     42  H   LIG d   1      10.194   3.957  -3.791  0.00  0.00     0.027 H 
ATOM     43  H   LIG d   1       9.646   3.238  -2.240  0.00  0.00     0.027 H 
ENDBRANCH   1  40
BRANCH   5  44
ATOM     44  C   LIG d   1      10.017   9.209  -0.416  0.00  0.00    -0.043 C 
ATOM     45  H   LIG d   1      10.136   9.041   0.665  0.00  0.00     0.030 H 
BRANCH  44  46
ATOM     46  C   LIG d   1      10.952  10.333  -0.864  0.00  0.00    -0.062 C 
ATOM     47  H   LIG d   1      10.975  11.120  -0.096  0.00  0.00     0.023 H 
ATOM     48  H   LIG d   1      10.588  10.757  -1.811  0.00  0.00     0.023 H 
ATOM     49  H   LIG d   1      11.966   9.931  -1.008  0.00  0.00     0.023 H 
ENDBRANCH  44  46
BRANCH  44  50
ATOM     50  C   LIG d   1       8.567   9.602  -0.712  0.00  0.00    -0.062 C 
ATOM     51  H   LIG d   1       7.888   8.954  -0.140  0.00  0.00     0.023 H 
ATOM     52  H   LIG d   1       8.368   9.485  -1.788  0.00  0.00     0.023 H 
ATOM     53  H   LIG d   1       8.407  10.651  -0.422  0.00  0.00     0.023 H 
ENDBRANCH  44  50
ENDBRANCH   5  44
BRANCH   3  54
ATOM     54  C   LIG d   1      11.886   7.018   0.585  0.00  0.00     0.051 C 
ATOM     55  H   LIG d   1      12.551   6.152   0.448  0.00  0.00     0.056 H 
ATOM     56  H   LIG d   1      12.378   7.923   0.198  0.00  0.00     0.056 H 
BRANCH  54  57
ATOM     57  O   LIG d   1      11.603   7.186   1.975  0.00  0.00    -0.394 OA
ATOM     58  H   LIG d   1      11.318   6.318   2.587  0.00  0.00     0.209 HD
ENDBRANCH  54  57
ENDBRANCH   3  54
TORSDOF 11
ENDMDL
MODEL 6
REMARK VINA RESULT:      -5.0      4.998      7.520
REMARK  11 active torsions:
REMARK  status: ('A' for Active; 'I' for Inactive)
REMARK    1  A    between atoms: C_1  and  C_2 
REMARK    2  A    between atoms: C_4  and  C_26 
REMARK    3  A    between atoms: C_6  and  C_23 
REMARK    4  A    between atoms: C_9  and  C_11 
REMARK    5  A    between atoms: C_11  and  C_12 
REMARK       I    between atoms: C_12  and  N_14 
REMARK    6  A    between atoms: N_17  and  C_20 
REMARK    7  A    between atoms: C_20  and  C_21 
REMARK    8  A    between atoms: C_21  and  O_22 
REMARK    9  A    between atoms: C_23  and  C_24 
REMARK   10  A    between atoms: C_23  and  C_25 
REMARK   11  A    between atoms: C_26  and  O_27 
ROOT
ATOM      1  C   LIG d   1       6.671  -3.125  -4.398  0.00  0.00    -0.073 C 
ATOM      2  C   LIG d   1       7.150  -2.013  -3.941  0.00  0.00    -0.079 C 
ATOM      3  C   LIG d   1       6.307  -0.885  -3.421  0.00  0.00     0.004 C 
ATOM      4  H   LIG d   1       6.344  -0.912  -2.322  0.00  0.00     0.037 H 
ATOM      5  C   LIG d   1       4.860  -1.049  -3.891  0.00  0.00    -0.030 C 
ATOM      6  H   LIG d   1       4.789  -0.848  -4.969  0.00  0.00     0.031 H 
ATOM      7  C   LIG d   1       4.411  -2.484  -3.587  0.00  0.00    -0.042 C 
ATOM      8  C   LIG d   1       5.205  -3.439  -4.482  0.00  0.00    -0.012 C 
ATOM      9  H   LIG d   1       5.059  -4.473  -4.139  0.00  0.00     0.035 H 
ATOM     10  H   LIG d   1       8.237  -1.851  -3.917  0.00  0.00     0.058 H 
ATOM     11  H   LIG d   1       4.603  -2.713  -2.528  0.00  0.00     0.027 H 
ATOM     12  H   LIG d   1       3.335  -2.583  -3.794  0.00  0.00     0.027 H 
ENDROOT
BRANCH   8  13
ATOM     13  C   LIG d   1       4.736  -3.286  -5.929  0.00  0.00     0.031 C 
ATOM     14  H   LIG d   1       3.890  -2.583  -5.968  0.00  0.00     0.036 H 
ATOM     15  H   LIG d   1       5.562  -2.899  -6.545  0.00  0.00     0.036 H 
BRANCH  13  16
ATOM     16  C   LIG d   1       4.299  -4.627  -6.460  0.00  0.00     0.216 C 
ATOM     17  O   LIG d   1       3.417  -5.244  -5.900  0.00  0.00    -0.276 OA
ATOM     18  N   LIG d   1       4.889  -5.142  -7.557  0.00  0.00    -0.299 N 
ATOM     19  C   LIG d   1       4.479  -6.449  -8.092  0.00  0.00     0.028 C 
ATOM     20  C   LIG d   1       5.957  -4.409  -8.255  0.00  0.00     0.028 C 
ATOM     21  C   LIG d   1       5.730  -7.312  -8.282  0.00  0.00     0.015 C 
ATOM     22  H   LIG d   1       3.791  -6.935  -7.384  0.00  0.00     0.048 H 
ATOM     23  H   LIG d   1       3.971  -6.308  -9.058  0.00  0.00     0.048 H 
ATOM     24  N   LIG d   1       6.705  -6.583  -9.104  0.00  0.00    -0.297 N 
ATOM     25  H   LIG d   1       5.456  -8.252  -8.783  0.00  0.00     0.044 H 
ATOM     26  H   LIG d   1       6.174  -7.537  -7.300  0.00  0.00     0.044 H 
ATOM     27  C   LIG d   1       7.154  -5.355  -8.435  0.00  0.00     0.015 C 
ATOM     28  H   LIG d   1       7.923  -4.861  -9.047  0.00  0.00     0.044 H 
ATOM     29  H   LIG d   1       7.574  -5.605  -7.449  0.00  0.00     0.044 H 
ATOM     30  H   LIG d   1       5.590  -4.074  -9.236  0.00  0.00     0.048 H 
ATOM     31  H   LIG d   1       6.252  -3.534  -7.657  0.00  0.00     0.048 H 
BRANCH  24  32
ATOM     32  C   LIG d   1       7.845  -7.440  -9.452  0.00  0.00     0.022 C 
ATOM     33  H   LIG d   1       7.676  -7.893 -10.441  0.00  0.00     0.045 H 
ATOM     34  H   LIG d   1       8.764  -6.836  -9.479  0.00  0.00     0.045 H 
BRANCH  32  35
ATOM     35  C   LIG d   1       7.991  -8.546  -8.404  0.00  0.00     0.057 C 
ATOM     36  H   LIG d   1       7.083  -8.585  -7.784  0.00  0.00     0.057 H 
ATOM     37  H   LIG d   1       8.131  -9.514  -8.910  0.00  0.00     0.057 H 
BRANCH  35  38
ATOM     38  O   LIG d   1       9.122  -8.272  -7.576  0.00  0.00    -0.394 OA
ATOM     39  H   LIG d   1       9.440  -9.004  -6.819  0.00  0.00     0.209 HD
ENDBRANCH  35  38
ENDBRANCH  32  35
ENDBRANCH  24  32
ENDBRANCH  13  16
ENDBRANCH   8  13
BRANCH   1  40
ATOM     40  C   LIG d   1       7.645  -4.171  -4.877  0.00  0.00    -0.043 C 
ATOM     41  H   LIG d   1       8.542  -4.154  -4.240  0.00  0.00     0.027 H 
ATOM     42  H   LIG d   1       7.929  -3.958  -5.917  0.00  0.00     0.027 H 
ATOM     43  H   LIG d   1       7.174  -5.163  -4.821  0.00  0.00     0.027 H 
ENDBRANCH   1  40
BRANCH   5  44
ATOM     44  C   LIG d   1       3.962  -0.061  -3.144  0.00  0.00    -0.043 C 
ATOM     45  H   LIG d   1       4.013   0.923  -3.632  0.00  0.00     0.030 H 
BRANCH  44  46
ATOM     46  C   LIG d   1       2.519  -0.566  -3.164  0.00  0.00    -0.062 C 
ATOM     47  H   LIG d   1       2.008  -0.182  -4.059  0.00  0.00     0.023 H 
ATOM     48  H   LIG d   1       1.994  -0.215  -2.264  0.00  0.00     0.023 H 
ATOM     49  H   LIG d   1       2.515  -1.666  -3.184  0.00  0.00     0.023 H 
ENDBRANCH  44  46
BRANCH  44  50
ATOM     50  C   LIG d   1       4.438   0.066  -1.694  0.00  0.00    -0.062 C 
ATOM     51  H   LIG d   1       4.565  -0.938  -1.262  0.00  0.00     0.023 H 
ATOM     52  H   LIG d   1       3.690   0.625  -1.111  0.00  0.00     0.023 H 
ATOM     53  H   LIG d   1       5.398   0.602  -1.670  0.00  0.00     0.023 H 
ENDBRANCH  44  50
ENDBRANCH   5  44
BRANCH   3  54
ATOM     54  C   LIG d   1       6.862   0.443  -3.940  0.00  0.00     0.051 C 
ATOM     55  H   LIG d   1       6.358   1.276  -3.426  0.00  0.00     0.056 H 
ATOM     56  H   LIG d   1       7.943   0.491  -3.741  0.00  0.00     0.056 H 
BRANCH  54  57
ATOM     57  O   LIG d   1       6.630   0.539  -5.346  0.00  0.00    -0.394 OA
ATOM     58  H   LIG d   1       6.181   1.451  -5.768  0.00  0.00     0.209 HD
ENDBRANCH  54  57
ENDBRANCH   3  54
TORSDOF 11
ENDMDL
MODEL 7
REMARK VINA RESULT:      -5.0      4.726      7.506
REMARK  11 active torsions:
REMARK  status: ('A' for Active; 'I' for Inactive)
REMARK    1  A    between atoms: C_1  and  C_2 
REMARK    2  A    between atoms: C_4  and  C_26 
REMARK    3  A    between atoms: C_6  and  C_23 
REMARK    4  A    between atoms: C_9  and  C_11 
REMARK    5  A    between atoms: C_11  and  C_12 
REMARK       I    between atoms: C_12  and  N_14 
REMARK    6  A    between atoms: N_17  and  C_20 
REMARK    7  A    between atoms: C_20  and  C_21 
REMARK    8  A    between atoms: C_21  and  O_22 
REMARK    9  A    between atoms: C_23  and  C_24 
REMARK   10  A    between atoms: C_23  and  C_25 
REMARK   11  A    between atoms: C_26  and  O_27 
ROOT
ATOM      1  C   LIG d   1       6.958  -2.750  -3.985  0.00  0.00    -0.073 C 
ATOM      2  C   LIG d   1       7.031  -1.619  -3.362  0.00  0.00    -0.079 C 
ATOM      3  C   LIG d   1       5.895  -0.643  -3.254  0.00  0.00     0.004 C 
ATOM      4  H   LIG d   1       5.461  -0.737  -2.248  0.00  0.00     0.037 H 
ATOM      5  C   LIG d   1       4.828  -0.959  -4.305  0.00  0.00    -0.030 C 
ATOM      6  H   LIG d   1       5.198  -0.699  -5.307  0.00  0.00     0.031 H 
ATOM      7  C   LIG d   1       4.503  -2.456  -4.231  0.00  0.00    -0.042 C 
ATOM      8  C   LIG d   1       5.731  -3.242  -4.696  0.00  0.00    -0.012 C 
ATOM      9  H   LIG d   1       5.602  -4.307  -4.454  0.00  0.00     0.035 H 
ATOM     10  H   LIG d   1       7.968  -1.321  -2.869  0.00  0.00     0.058 H 
ATOM     11  H   LIG d   1       4.254  -2.727  -3.194  0.00  0.00     0.027 H 
ATOM     12  H   LIG d   1       3.646  -2.678  -4.883  0.00  0.00     0.027 H 
ENDROOT
BRANCH   8  13
ATOM     13  C   LIG d   1       5.910  -3.057  -6.204  0.00  0.00     0.031 C 
ATOM     14  H   LIG d   1       5.629  -2.030  -6.483  0.00  0.00     0.036 H 
ATOM     15  H   LIG d   1       6.962  -3.235  -6.473  0.00  0.00     0.036 H 
BRANCH  13  16
ATOM     16  C   LIG d   1       5.031  -4.035  -6.938  0.00  0.00     0.216 C 
ATOM     17  O   LIG d   1       3.943  -3.686  -7.347  0.00  0.00    -0.276 OA
ATOM     18  N   LIG d   1       5.452  -5.299  -7.141  0.00  0.00    -0.299 N 
ATOM     19  C   LIG d   1       4.610  -6.271  -7.856  0.00  0.00     0.028 C 
ATOM     20  C   LIG d   1       6.769  -5.743  -6.659  0.00  0.00     0.028 C 
ATOM     21  C   LIG d   1       4.505  -7.542  -7.007  0.00  0.00     0.015 C 
ATOM     22  H   LIG d   1       3.609  -5.841  -8.014  0.00  0.00     0.048 H 
ATOM     23  H   LIG d   1       5.065  -6.506  -8.829  0.00  0.00     0.048 H 
ATOM     24  N   LIG d   1       5.854  -8.017  -6.674  0.00  0.00    -0.297 N 
ATOM     25  H   LIG d   1       3.971  -8.319  -7.573  0.00  0.00     0.044 H 
ATOM     26  H   LIG d   1       3.955  -7.321  -6.080  0.00  0.00     0.044 H 
ATOM     27  C   LIG d   1       6.577  -7.036  -5.853  0.00  0.00     0.015 C 
ATOM     28  H   LIG d   1       7.560  -7.443  -5.573  0.00  0.00     0.044 H 
ATOM     29  H   LIG d   1       5.998  -6.818  -4.943  0.00  0.00     0.044 H 
ATOM     30  H   LIG d   1       7.430  -5.928  -7.519  0.00  0.00     0.048 H 
ATOM     31  H   LIG d   1       7.209  -4.962  -6.022  0.00  0.00     0.048 H 
BRANCH  24  32
ATOM     32  C   LIG d   1       5.802  -9.325  -6.008  0.00  0.00     0.022 C 
ATOM     33  H   LIG d   1       5.594 -10.108  -6.752  0.00  0.00     0.045 H 
ATOM     34  H   LIG d   1       6.769  -9.529  -5.523  0.00  0.00     0.045 H 
BRANCH  32  35
ATOM     35  C   LIG d   1       4.693  -9.316  -4.954  0.00  0.00     0.057 C 
ATOM     36  H   LIG d   1       5.140  -9.380  -3.950  0.00  0.00     0.057 H 
ATOM     37  H   LIG d   1       4.115  -8.384  -5.038  0.00  0.00     0.057 H 
BRANCH  35  38
ATOM     38  O   LIG d   1       3.829 -10.434  -5.161  0.00  0.00    -0.394 OA
ATOM     39  H   LIG d   1       3.575 -10.751  -6.183  0.00  0.00     0.209 HD
ENDBRANCH  35  38
ENDBRANCH  32  35
ENDBRANCH  24  32
ENDBRANCH  13  16
ENDBRANCH   8  13
BRANCH   1  40
ATOM     40  C   LIG d   1       8.182  -3.630  -3.998  0.00  0.00    -0.043 C 
ATOM     41  H   LIG d   1       8.315  -4.087  -3.006  0.00  0.00     0.027 H 
ATOM     42  H   LIG d   1       9.066  -3.025  -4.246  0.00  0.00     0.027 H 
ATOM     43  H   LIG d   1       8.056  -4.421  -4.751  0.00  0.00     0.027 H 
ENDBRANCH   1  40
BRANCH   5  44
ATOM     44  C   LIG d   1       3.566  -0.144  -4.017  0.00  0.00    -0.043 C 
ATOM     45  H   LIG d   1       3.844   0.808  -3.541  0.00  0.00     0.030 H 
BRANCH  44  46
ATOM     46  C   LIG d   1       2.831   0.139  -5.328  0.00  0.00    -0.062 C 
ATOM     47  H   LIG d   1       2.503   1.188  -5.347  0.00  0.00     0.023 H 
ATOM     48  H   LIG d   1       1.954  -0.520  -5.406  0.00  0.00     0.023 H 
ATOM     49  H   LIG d   1       3.507  -0.050  -6.176  0.00  0.00     0.023 H 
ENDBRANCH  44  46
BRANCH  44  50
ATOM     50  C   LIG d   1       2.651  -0.934  -3.079  0.00  0.00    -0.062 C 
ATOM     51  H   LIG d   1       1.610  -0.608  -3.223  0.00  0.00     0.023 H 
ATOM     52  H   LIG d   1       2.951  -0.753  -2.036  0.00  0.00     0.023 H 
ATOM     53  H   LIG d   1       2.735  -2.007  -3.304  0.00  0.00     0.023 H 
ENDBRANCH  44  50
ENDBRANCH   5  44
BRANCH   3  54
ATOM     54  C   LIG d   1       6.423   0.776  -3.477  0.00  0.00     0.051 C 
ATOM     55  H   LIG d   1       7.520   0.777  -3.387  0.00  0.00     0.056 H 
ATOM     56  H   LIG d   1       6.137   1.118  -4.483  0.00  0.00     0.056 H 
BRANCH  54  57
ATOM     57  O   LIG d   1       5.863   1.652  -2.497  0.00  0.00    -0.394 OA
ATOM     58  H   LIG d   1       4.781   1.636  -2.299  0.00  0.00     0.209 HD
ENDBRANCH  54  57
ENDBRANCH   3  54
TORSDOF 11
ENDMDL
MODEL 8
REMARK VINA RESULT:      -5.0      4.557      7.527
REMARK  11 active torsions:
REMARK  status: ('A' for Active; 'I' for Inactive)
REMARK    1  A    between atoms: C_1  and  C_2 
REMARK    2  A    between atoms: C_4  and  C_26 
REMARK    3  A    between atoms: C_6  and  C_23 
REMARK    4  A    between atoms: C_9  and  C_11 
REMARK    5  A    between atoms: C_11  and  C_12 
REMARK       I    between atoms: C_12  and  N_14 
REMARK    6  A    between atoms: N_17  and  C_20 
REMARK    7  A    between atoms: C_20  and  C_21 
REMARK    8  A    between atoms: C_21  and  O_22 
REMARK    9  A    between atoms: C_23  and  C_24 
REMARK   10  A    between atoms: C_23  and  C_25 
REMARK   11  A    between atoms: C_26  and  O_27 
ROOT
ATOM      1  C   LIG d   1       6.599  -2.357  -4.456  0.00  0.00    -0.073 C 
ATOM      2  C   LIG d   1       5.544  -2.743  -3.815  0.00  0.00    -0.079 C 
ATOM      3  C   LIG d   1       4.226  -2.024  -3.851  0.00  0.00     0.004 C 
ATOM      4  H   LIG d   1       3.556  -2.578  -4.524  0.00  0.00     0.037 H 
ATOM      5  C   LIG d   1       4.419  -0.599  -4.375  0.00  0.00    -0.030 C 
ATOM      6  H   LIG d   1       4.940   0.011  -3.624  0.00  0.00     0.031 H 
ATOM      7  C   LIG d   1       5.241  -0.665  -5.669  0.00  0.00    -0.042 C 
ATOM      8  C   LIG d   1       6.657  -1.130  -5.319  0.00  0.00    -0.012 C 
ATOM      9  H   LIG d   1       7.199  -1.387  -6.241  0.00  0.00     0.035 H 
ATOM     10  H   LIG d   1       5.578  -3.651  -3.195  0.00  0.00     0.058 H 
ATOM     11  H   LIG d   1       4.773  -1.376  -6.366  0.00  0.00     0.027 H 
ATOM     12  H   LIG d   1       5.276   0.332  -6.132  0.00  0.00     0.027 H 
ENDROOT
BRANCH   8  13
ATOM     13  C   LIG d   1       7.385  -0.015  -4.567  0.00  0.00     0.031 C 
ATOM     14  H   LIG d   1       6.685   0.810  -4.366  0.00  0.00     0.036 H 
ATOM     15  H   LIG d   1       7.773  -0.407  -3.615  0.00  0.00     0.036 H 
BRANCH  13  16
ATOM     16  C   LIG d   1       8.530   0.492  -5.405  0.00  0.00     0.216 C 
ATOM     17  O   LIG d   1       8.908  -0.146  -6.365  0.00  0.00    -0.276 OA
ATOM     18  N   LIG d   1       9.135   1.654  -5.088  0.00  0.00    -0.299 N 
ATOM     19  C   LIG d   1      10.255   2.167  -5.892  0.00  0.00     0.028 C 
ATOM     20  C   LIG d   1       8.690   2.446  -3.932  0.00  0.00     0.028 C 
ATOM     21  C   LIG d   1      11.417   2.501  -4.952  0.00  0.00     0.015 C 
ATOM     22  H   LIG d   1      10.567   1.399  -6.617  0.00  0.00     0.048 H 
ATOM     23  H   LIG d   1       9.936   3.071  -6.432  0.00  0.00     0.048 H 
ATOM     24  N   LIG d   1      10.944   3.408  -3.897  0.00  0.00    -0.297 N 
ATOM     25  H   LIG d   1      12.222   2.988  -5.521  0.00  0.00     0.044 H 
ATOM     26  H   LIG d   1      11.799   1.576  -4.496  0.00  0.00     0.044 H 
ATOM     27  C   LIG d   1       9.917   2.767  -3.065  0.00  0.00     0.015 C 
ATOM     28  H   LIG d   1       9.624   3.448  -2.252  0.00  0.00     0.044 H 
ATOM     29  H   LIG d   1      10.317   1.836  -2.637  0.00  0.00     0.044 H 
ATOM     30  H   LIG d   1       8.222   3.377  -4.284  0.00  0.00     0.048 H 
ATOM     31  H   LIG d   1       7.957   1.867  -3.351  0.00  0.00     0.048 H 
BRANCH  24  32
ATOM     32  C   LIG d   1      12.063   3.889  -3.076  0.00  0.00     0.022 C 
ATOM     33  H   LIG d   1      12.476   3.053  -2.492  0.00  0.00     0.045 H 
ATOM     34  H   LIG d   1      12.846   4.302  -3.729  0.00  0.00     0.045 H 
BRANCH  32  35
ATOM     35  C   LIG d   1      11.564   4.978  -2.123  0.00  0.00     0.057 C 
ATOM     36  H   LIG d   1      12.227   5.854  -2.188  0.00  0.00     0.057 H 
ATOM     37  H   LIG d   1      10.542   5.271  -2.406  0.00  0.00     0.057 H 
BRANCH  35  38
ATOM     38  O   LIG d   1      11.565   4.478  -0.785  0.00  0.00    -0.394 OA
ATOM     39  H   LIG d   1      11.789   5.153   0.054  0.00  0.00     0.209 HD
ENDBRANCH  35  38
ENDBRANCH  32  35
ENDBRANCH  24  32
ENDBRANCH  13  16
ENDBRANCH   8  13
BRANCH   1  40
ATOM     40  C   LIG d   1       7.848  -3.190  -4.330  0.00  0.00    -0.043 C 
ATOM     41  H   LIG d   1       8.169  -3.523  -5.328  0.00  0.00     0.027 H 
ATOM     42  H   LIG d   1       7.642  -4.067  -3.699  0.00  0.00     0.027 H 
ATOM     43  H   LIG d   1       8.646  -2.588  -3.871  0.00  0.00     0.027 H 
ENDBRANCH   1  40
BRANCH   5  44
ATOM     44  C   LIG d   1       3.055   0.030  -4.664  0.00  0.00    -0.043 C 
ATOM     45  H   LIG d   1       2.259  -0.628  -4.286  0.00  0.00     0.030 H 
BRANCH  44  46
ATOM     46  C   LIG d   1       2.964   1.391  -3.972  0.00  0.00    -0.062 C 
ATOM     47  H   LIG d   1       3.962   1.695  -3.627  0.00  0.00     0.023 H 
ATOM     48  H   LIG d   1       2.284   1.319  -3.110  0.00  0.00     0.023 H 
ATOM     49  H   LIG d   1       2.578   2.138  -4.681  0.00  0.00     0.023 H 
ENDBRANCH  44  46
BRANCH  44  50
ATOM     50  C   LIG d   1       2.887   0.214  -6.175  0.00  0.00    -0.062 C 
ATOM     51  H   LIG d   1       2.100  -0.461  -6.541  0.00  0.00     0.023 H 
ATOM     52  H   LIG d   1       3.836  -0.020  -6.680  0.00  0.00     0.023 H 
ATOM     53  H   LIG d   1       2.606   1.256  -6.387  0.00  0.00     0.023 H 
ENDBRANCH  44  50
ENDBRANCH   5  44
BRANCH   3  54
ATOM     54  C   LIG d   1       3.639  -1.971  -2.440  0.00  0.00     0.051 C 
ATOM     55  H   LIG d   1       2.616  -1.567  -2.483  0.00  0.00     0.056 H 
ATOM     56  H   LIG d   1       3.614  -2.986  -2.015  0.00  0.00     0.056 H 
BRANCH  54  57
ATOM     57  O   LIG d   1       4.449  -1.129  -1.618  0.00  0.00    -0.394 OA
ATOM     58  H   LIG d   1       5.106  -0.377  -2.079  0.00  0.00     0.209 HD
ENDBRANCH  54  57
ENDBRANCH   3  54
TORSDOF 11
ENDMDL
MODEL 9
REMARK VINA RESULT:      -4.9      8.404     11.706
REMARK  11 active torsions:
REMARK  status: ('A' for Active; 'I' for Inactive)
REMARK    1  A    between atoms: C_1  and  C_2 
REMARK    2  A    between atoms: C_4  and  C_26 
REMARK    3  A    between atoms: C_6  and  C_23 
REMARK    4  A    between atoms: C_9  and  C_11 
REMARK    5  A    between atoms: C_11  and  C_12 
REMARK       I    between atoms: C_12  and  N_14 
REMARK    6  A    between atoms: N_17  and  C_20 
REMARK    7  A    between atoms: C_20  and  C_21 
REMARK    8  A    between atoms: C_21  and  O_22 
REMARK    9  A    between atoms: C_23  and  C_24 
REMARK   10  A    between atoms: C_23  and  C_25 
REMARK   11  A    between atoms: C_26  and  O_27 
ROOT
ATOM      1  C   LIG d   1      10.089   8.783  -3.983  0.00  0.00    -0.073 C 
ATOM      2  C   LIG d   1       9.916   9.587  -2.984  0.00  0.00    -0.079 C 
ATOM      3  C   LIG d   1      10.164   9.215  -1.551  0.00  0.00     0.004 C 
ATOM      4  H   LIG d   1      11.126   9.654  -1.248  0.00  0.00     0.037 H 
ATOM      5  C   LIG d   1      10.226   7.693  -1.406  0.00  0.00    -0.030 C 
ATOM      6  H   LIG d   1       9.223   7.261  -1.536  0.00  0.00     0.031 H 
ATOM      7  C   LIG d   1      11.183   7.142  -2.470  0.00  0.00    -0.042 C 
ATOM      8  C   LIG d   1      10.553   7.361  -3.848  0.00  0.00    -0.012 C 
ATOM      9  H   LIG d   1      11.302   7.173  -4.631  0.00  0.00     0.035 H 
ATOM     10  H   LIG d   1       9.566  10.615  -3.159  0.00  0.00     0.058 H 
ATOM     11  H   LIG d   1      12.146   7.672  -2.408  0.00  0.00     0.027 H 
ATOM     12  H   LIG d   1      11.345   6.068  -2.298  0.00  0.00     0.027 H 
ENDROOT
BRANCH   8  13
ATOM     13  C   LIG d   1       9.359   6.420  -4.014  0.00  0.00     0.031 C 
ATOM     14  H   LIG d   1       9.241   5.813  -3.104  0.00  0.00     0.036 H 
ATOM     15  H   LIG d   1       8.446   7.012  -4.182  0.00  0.00     0.036 H 
BRANCH  13  16
ATOM     16  C   LIG d   1       9.594   5.515  -5.195  0.00  0.00     0.216 C 
ATOM     17  O   LIG d   1       9.650   5.979  -6.315  0.00  0.00    -0.276 OA
ATOM     18  N   LIG d   1       9.742   4.188  -5.009  0.00  0.00    -0.299 N 
ATOM     19  C   LIG d   1       9.971   3.286  -6.148  0.00  0.00     0.028 C 
ATOM     20  C   LIG d   1       9.683   3.604  -3.660  0.00  0.00     0.028 C 
ATOM     21  C   LIG d   1       8.962   2.137  -6.071  0.00  0.00     0.015 C 
ATOM     22  H   LIG d   1       9.836   3.842  -7.089  0.00  0.00     0.048 H 
ATOM     23  H   LIG d   1      10.996   2.889  -6.101  0.00  0.00     0.048 H 
ATOM     24  N   LIG d   1       9.047   1.502  -4.749  0.00  0.00    -0.297 N 
ATOM     25  H   LIG d   1       9.188   1.395  -6.850  0.00  0.00     0.044 H 
ATOM     26  H   LIG d   1       7.945   2.529  -6.223  0.00  0.00     0.044 H 
ATOM     27  C   LIG d   1       8.679   2.441  -3.682  0.00  0.00     0.015 C 
ATOM     28  H   LIG d   1       8.698   1.923  -2.711  0.00  0.00     0.044 H 
ATOM     29  H   LIG d   1       7.668   2.834  -3.868  0.00  0.00     0.044 H 
ATOM     30  H   LIG d   1      10.680   3.237  -3.377  0.00  0.00     0.048 H 
ATOM     31  H   LIG d   1       9.358   4.371  -2.942  0.00  0.00     0.048 H 
BRANCH  24  32
ATOM     32  C   LIG d   1       8.220   0.290  -4.692  0.00  0.00     0.022 C 
ATOM     33  H   LIG d   1       7.868   0.038  -5.704  0.00  0.00     0.045 H 
ATOM     34  H   LIG d   1       8.817  -0.544  -4.294  0.00  0.00     0.045 H 
BRANCH  32  35
ATOM     35  C   LIG d   1       7.015   0.537  -3.781  0.00  0.00     0.057 C 
ATOM     36  H   LIG d   1       6.979  -0.240  -3.002  0.00  0.00     0.057 H 
ATOM     37  H   LIG d   1       7.111   1.526  -3.308  0.00  0.00     0.057 H 
BRANCH  35  38
ATOM     38  O   LIG d   1       5.815   0.492  -4.554  0.00  0.00    -0.394 OA
ATOM     39  H   LIG d   1       5.645   1.232  -5.350  0.00  0.00     0.209 HD
ENDBRANCH  35  38
ENDBRANCH  32  35
ENDBRANCH  24  32
ENDBRANCH  13  16
ENDBRANCH   8  13
BRANCH   1  40
ATOM     40  C   LIG d   1       9.808   9.305  -5.368  0.00  0.00    -0.043 C 
ATOM     41  H   LIG d   1      10.758   9.534  -5.873  0.00  0.00     0.027 H 
ATOM     42  H   LIG d   1       9.199  10.218  -5.299  0.00  0.00     0.027 H 
ATOM     43  H   LIG d   1       9.262   8.543  -5.943  0.00  0.00     0.027 H 
ENDBRANCH   1  40
BRANCH   5  44
ATOM     44  C   LIG d   1      10.743   7.330  -0.012  0.00  0.00    -0.043 C 
ATOM     45  H   LIG d   1      10.032   7.686   0.747  0.00  0.00     0.030 H 
BRANCH  44  46
ATOM     46  C   LIG d   1      10.891   5.812   0.099  0.00  0.00    -0.062 C 
ATOM     47  H   LIG d   1      10.428   5.465   1.034  0.00  0.00     0.023 H 
ATOM     48  H   LIG d   1      11.958   5.546   0.097  0.00  0.00     0.023 H 
ATOM     49  H   LIG d   1      10.393   5.332  -0.757  0.00  0.00     0.023 H 
ENDBRANCH  44  46
BRANCH  44  50
ATOM     50  C   LIG d   1      12.104   7.993   0.215  0.00  0.00    -0.062 C 
ATOM     51  H   LIG d   1      12.081   8.562   1.156  0.00  0.00     0.023 H 
ATOM     52  H   LIG d   1      12.325   8.673  -0.620  0.00  0.00     0.023 H 
ATOM     53  H   LIG d   1      12.883   7.218   0.273  0.00  0.00     0.023 H 
ENDBRANCH  44  50
ENDBRANCH   5  44
BRANCH   3  54
ATOM     54  C   LIG d   1       9.031   9.763  -0.682  0.00  0.00     0.051 C 
ATOM     55  H   LIG d   1       8.609   8.948  -0.073  0.00  0.00     0.056 H 
ATOM     56  H   LIG d   1       9.424  10.548  -0.019  0.00  0.00     0.056 H 
BRANCH  54  57
ATOM     57  O   LIG d   1       8.010  10.310  -1.518  0.00  0.00    -0.394 OA
ATOM     58  H   LIG d   1       7.345  11.096  -1.131  0.00  0.00     0.209 HD
ENDBRANCH  54  57
ENDBRANCH   3  54
TORSDOF 11
ENDMDL
