MODEL 1
REMARK VINA RESULT:      -6.8      0.000      0.000
REMARK  5 active torsions:
REMARK  status: ('A' for Active; 'I' for Inactive)
REMARK    1  A    between atoms: C_1  and  C_2 
REMARK    2  A    between atoms: C_2  and  C_3 
REMARK    3  A    between atoms: C_8  and  N_9 
REMARK    4  A    between atoms: N_9  and  C_10 
REMARK    5  A    between atoms: C_10  and  N_11 
ROOT
ATOM      1  N   LIG d   1       5.288  -1.092  -8.546  0.00  0.00    -0.328 N 
ATOM      2  H   LIG d   1       4.912  -1.861  -9.002  0.00  0.00     0.148 HD
ENDROOT
BRANCH   1   3
ATOM      3  C   LIG d   1       4.774   0.184  -8.789  0.00  0.00     0.032 A 
ATOM      4  C   LIG d   1       3.401   0.380  -8.852  0.00  0.00    -0.027 A 
ATOM      5  C   LIG d   1       2.896   1.644  -9.093  0.00  0.00    -0.057 A 
ATOM      6  C   LIG d   1       3.756   2.711  -9.272  0.00  0.00    -0.061 A 
ATOM      7  H   LIG d   1       1.828   1.797  -9.142  0.00  0.00     0.062 H 
ATOM      8  C   LIG d   1       5.125   2.519  -9.210  0.00  0.00    -0.060 A 
ATOM      9  H   LIG d   1       3.359   3.698  -9.461  0.00  0.00     0.062 H 
ATOM     10  C   LIG d   1       5.636   1.258  -8.969  0.00  0.00    -0.041 A 
ATOM     11  H   LIG d   1       5.794   3.354  -9.350  0.00  0.00     0.062 H 
ATOM     12  H   LIG d   1       6.704   1.108  -8.920  0.00  0.00     0.064 H 
BRANCH   4  13
ATOM     13  C   LIG d   1       2.463  -0.783  -8.663  0.00  0.00    -0.029 C 
ATOM     14  H   LIG d   1       3.035  -1.711  -8.639  0.00  0.00     0.031 H 
ATOM     15  H   LIG d   1       1.921  -0.666  -7.725  0.00  0.00     0.031 H 
BRANCH  13  16
ATOM     16  C   LIG d   1       1.467  -0.829  -9.824  0.00  0.00    -0.061 C 
ATOM     17  H   LIG d   1       0.477  -1.080  -9.444  0.00  0.00     0.023 H 
ATOM     18  H   LIG d   1       1.432   0.146 -10.311  0.00  0.00     0.023 H 
ATOM     19  H   LIG d   1       1.783  -1.585 -10.544  0.00  0.00     0.023 H 
ENDBRANCH  13  16
ENDBRANCH   4  13
ENDBRANCH   1   3
BRANCH   1  20
ATOM     20  C   LIG d   1       6.394  -1.268  -7.601  0.00  0.00     0.086 C 
ATOM     21  H   LIG d   1       6.873  -2.232  -7.779  0.00  0.00     0.068 H 
ATOM     22  H   LIG d   1       7.122  -0.470  -7.742  0.00  0.00     0.068 H 
BRANCH  20  23
ATOM     23  N   LIG d   1       5.879  -1.225  -6.231  0.00  0.00    -0.218 N 
ATOM     24  C   LIG d   1       5.099  -2.173  -5.680  0.00  0.00     0.255 A 
ATOM     25  C   LIG d   1       4.786  -1.777  -4.290  0.00  0.00     0.050 A 
ATOM     26  O   LIG d   1       4.718  -3.185  -6.232  0.00  0.00    -0.270 OA
ATOM     27  C   LIG d   1       5.436  -0.543  -4.085  0.00  0.00     0.050 A 
ATOM     28  C   LIG d   1       4.046  -2.344  -3.266  0.00  0.00    -0.049 A 
ATOM     29  C   LIG d   1       6.127  -0.234  -5.355  0.00  0.00     0.255 A 
ATOM     30  C   LIG d   1       5.331   0.097  -2.861  0.00  0.00    -0.049 A 
ATOM     31  O   LIG d   1       6.802   0.752  -5.574  0.00  0.00    -0.270 OA
ATOM     32  C   LIG d   1       4.587  -0.483  -1.845  0.00  0.00    -0.061 A 
ATOM     33  H   LIG d   1       5.827   1.042  -2.698  0.00  0.00     0.062 H 
ATOM     34  C   LIG d   1       3.950  -1.694  -2.046  0.00  0.00    -0.061 A 
ATOM     35  H   LIG d   1       4.505   0.014  -0.889  0.00  0.00     0.062 H 
ATOM     36  H   LIG d   1       3.374  -2.136  -1.246  0.00  0.00     0.062 H 
ATOM     37  H   LIG d   1       3.546  -3.289  -3.418  0.00  0.00     0.062 H 
ENDBRANCH  20  23
ENDBRANCH   1  20
TORSDOF 5
ENDMDL
MODEL 2
REMARK VINA RESULT:      -6.7      2.247      6.570
REMARK  5 active torsions:
REMARK  status: ('A' for Active; 'I' for Inactive)
REMARK    1  A    between atoms: C_1  and  C_2 
REMARK    2  A    between atoms: C_2  and  C_3 
REMARK    3  A    between atoms: C_8  and  N_9 
REMARK    4  A    between atoms: N_9  and  C_10 
REMARK    5  A    between atoms: C_10  and  N_11 
ROOT
ATOM      1  N   LIG d   1       3.273  -0.771  -5.429  0.00  0.00    -0.328 N 
ATOM      2  H   LIG d   1       2.523  -1.373  -5.553  0.00  0.00     0.148 HD
ENDROOT
BRANCH   1   3
ATOM      3  C   LIG d   1       3.650  -0.382  -4.142  0.00  0.00     0.032 A 
ATOM      4  C   LIG d   1       4.295  -1.283  -3.304  0.00  0.00    -0.027 A 
ATOM      5  C   LIG d   1       4.667  -0.895  -2.031  0.00  0.00    -0.057 A 
ATOM      6  C   LIG d   1       4.398   0.388  -1.591  0.00  0.00    -0.061 A 
ATOM      7  H   LIG d   1       5.168  -1.595  -1.379  0.00  0.00     0.062 H 
ATOM      8  C   LIG d   1       3.755   1.287  -2.423  0.00  0.00    -0.060 A 
ATOM      9  H   LIG d   1       4.689   0.689  -0.595  0.00  0.00     0.062 H 
ATOM     10  C   LIG d   1       3.382   0.906  -3.697  0.00  0.00    -0.041 A 
ATOM     11  H   LIG d   1       3.547   2.288  -2.076  0.00  0.00     0.062 H 
ATOM     12  H   LIG d   1       2.880   1.609  -4.346  0.00  0.00     0.064 H 
BRANCH   4  13
ATOM     13  C   LIG d   1       4.583  -2.682  -3.780  0.00  0.00    -0.029 C 
ATOM     14  H   LIG d   1       4.442  -3.383  -2.956  0.00  0.00     0.031 H 
ATOM     15  H   LIG d   1       3.904  -2.937  -4.594  0.00  0.00     0.031 H 
BRANCH  13  16
ATOM     16  C   LIG d   1       6.028  -2.765  -4.277  0.00  0.00    -0.061 C 
ATOM     17  H   LIG d   1       6.203  -1.984  -5.017  0.00  0.00     0.023 H 
ATOM     18  H   LIG d   1       6.710  -2.629  -3.438  0.00  0.00     0.023 H 
ATOM     19  H   LIG d   1       6.200  -3.742  -4.732  0.00  0.00     0.023 H 
ENDBRANCH  13  16
ENDBRANCH   4  13
ENDBRANCH   1   3
BRANCH   1  20
ATOM     20  C   LIG d   1       4.010  -0.269  -6.591  0.00  0.00     0.086 C 
ATOM     21  H   LIG d   1       3.978   0.821  -6.599  0.00  0.00     0.068 H 
ATOM     22  H   LIG d   1       5.046  -0.601  -6.535  0.00  0.00     0.068 H 
BRANCH  20  23
ATOM     23  N   LIG d   1       3.397  -0.783  -7.818  0.00  0.00    -0.218 N 
ATOM     24  C   LIG d   1       2.698  -0.036  -8.692  0.00  0.00     0.255 A 
ATOM     25  C   LIG d   1       2.242  -0.906  -9.797  0.00  0.00     0.050 A 
ATOM     26  O   LIG d   1       2.479   1.154  -8.589  0.00  0.00    -0.270 OA
ATOM     27  C   LIG d   1       2.725  -2.195  -9.497  0.00  0.00     0.050 A 
ATOM     28  C   LIG d   1       1.503  -0.698 -10.950  0.00  0.00    -0.049 A 
ATOM     29  C   LIG d   1       3.463  -2.065  -8.223  0.00  0.00     0.255 A 
ATOM     30  C   LIG d   1       2.459  -3.249 -10.357  0.00  0.00    -0.049 A 
ATOM     31  O   LIG d   1       4.031  -2.964  -7.637  0.00  0.00    -0.270 OA
ATOM     32  C   LIG d   1       1.718  -3.025 -11.507  0.00  0.00    -0.061 A 
ATOM     33  H   LIG d   1       2.827  -4.239 -10.133  0.00  0.00     0.062 H 
ATOM     34  C   LIG d   1       1.244  -1.760 -11.802  0.00  0.00    -0.061 A 
ATOM     35  H   LIG d   1       1.510  -3.846 -12.179  0.00  0.00     0.062 H 
ATOM     36  H   LIG d   1       0.669  -1.598 -12.701  0.00  0.00     0.062 H 
ATOM     37  H   LIG d   1       1.130   0.288 -11.184  0.00  0.00     0.062 H 
ENDBRANCH  20  23
ENDBRANCH   1  20
TORSDOF 5
ENDMDL
MODEL 3
REMARK VINA RESULT:      -6.6      1.132      2.374
REMARK  5 active torsions:
REMARK  status: ('A' for Active; 'I' for Inactive)
REMARK    1  A    between atoms: C_1  and  C_2 
REMARK    2  A    between atoms: C_2  and  C_3 
REMARK    3  A    between atoms: C_8  and  N_9 
REMARK    4  A    between atoms: N_9  and  C_10 
REMARK    5  A    between atoms: C_10  and  N_11 
ROOT
ATOM      1  N   LIG d   1       5.071  -1.227  -8.328  0.00  0.00    -0.328 N 
ATOM      2  H   LIG d   1       5.613  -0.451  -8.539  0.00  0.00     0.148 HD
ENDROOT
BRANCH   1   3
ATOM      3  C   LIG d   1       3.837  -1.409  -8.955  0.00  0.00     0.032 A 
ATOM      4  C   LIG d   1       2.853  -0.433  -8.852  0.00  0.00    -0.027 A 
ATOM      5  C   LIG d   1       1.633  -0.618  -9.473  0.00  0.00    -0.057 A 
ATOM      6  C   LIG d   1       1.391  -1.770 -10.197  0.00  0.00    -0.061 A 
ATOM      7  H   LIG d   1       0.868   0.140  -9.394  0.00  0.00     0.062 H 
ATOM      8  C   LIG d   1       2.368  -2.744 -10.301  0.00  0.00    -0.060 A 
ATOM      9  H   LIG d   1       0.436  -1.912 -10.682  0.00  0.00     0.062 H 
ATOM     10  C   LIG d   1       3.590  -2.566  -9.683  0.00  0.00    -0.041 A 
ATOM     11  H   LIG d   1       2.175  -3.643 -10.867  0.00  0.00     0.062 H 
ATOM     12  H   LIG d   1       4.353  -3.326  -9.765  0.00  0.00     0.064 H 
BRANCH   4  13
ATOM     13  C   LIG d   1       3.114   0.820  -8.059  0.00  0.00    -0.029 C 
ATOM     14  H   LIG d   1       2.404   0.883  -7.234  0.00  0.00     0.031 H 
ATOM     15  H   LIG d   1       4.129   0.795  -7.662  0.00  0.00     0.031 H 
BRANCH  13  16
ATOM     16  C   LIG d   1       2.952   2.041  -8.966  0.00  0.00    -0.061 C 
ATOM     17  H   LIG d   1       2.656   1.716  -9.963  0.00  0.00     0.023 H 
ATOM     18  H   LIG d   1       2.185   2.699  -8.556  0.00  0.00     0.023 H 
ATOM     19  H   LIG d   1       3.899   2.579  -9.025  0.00  0.00     0.023 H 
ENDBRANCH  13  16
ENDBRANCH   4  13
ENDBRANCH   1   3
BRANCH   1  20
ATOM     20  C   LIG d   1       5.548  -2.208  -7.350  0.00  0.00     0.086 C 
ATOM     21  H   LIG d   1       5.006  -3.145  -7.482  0.00  0.00     0.068 H 
ATOM     22  H   LIG d   1       6.613  -2.382  -7.499  0.00  0.00     0.068 H 
BRANCH  20  23
ATOM     23  N   LIG d   1       5.319  -1.699  -5.995  0.00  0.00    -0.218 N 
ATOM     24  C   LIG d   1       4.761  -2.410  -4.998  0.00  0.00     0.255 A 
ATOM     25  C   LIG d   1       4.700  -1.560  -3.791  0.00  0.00     0.050 A 
ATOM     26  O   LIG d   1       4.373  -3.558  -5.078  0.00  0.00    -0.270 OA
ATOM     27  C   LIG d   1       5.258  -0.320  -4.163  0.00  0.00     0.050 A 
ATOM     28  C   LIG d   1       4.240  -1.747  -2.497  0.00  0.00    -0.049 A 
ATOM     29  C   LIG d   1       5.644  -0.460  -5.583  0.00  0.00     0.255 A 
ATOM     30  C   LIG d   1       5.344   0.704  -3.234  0.00  0.00    -0.049 A 
ATOM     31  O   LIG d   1       6.165   0.399  -6.264  0.00  0.00    -0.270 OA
ATOM     32  C   LIG d   1       4.879   0.501  -1.943  0.00  0.00    -0.061 A 
ATOM     33  H   LIG d   1       5.770   1.656  -3.513  0.00  0.00     0.062 H 
ATOM     34  C   LIG d   1       4.333  -0.715  -1.578  0.00  0.00    -0.061 A 
ATOM     35  H   LIG d   1       4.946   1.299  -1.218  0.00  0.00     0.062 H 
ATOM     36  H   LIG d   1       3.975  -0.861  -0.569  0.00  0.00     0.062 H 
ATOM     37  H   LIG d   1       3.812  -2.695  -2.207  0.00  0.00     0.062 H 
ENDBRANCH  20  23
ENDBRANCH   1  20
TORSDOF 5
ENDMDL
MODEL 4
REMARK VINA RESULT:      -6.5      1.098      2.980
REMARK  5 active torsions:
REMARK  status: ('A' for Active; 'I' for Inactive)
REMARK    1  A    between atoms: C_1  and  C_2 
REMARK    2  A    between atoms: C_2  and  C_3 
REMARK    3  A    between atoms: C_8  and  N_9 
REMARK    4  A    between atoms: N_9  and  C_10 
REMARK    5  A    between atoms: C_10  and  N_11 
ROOT
ATOM      1  N   LIG d   1       5.055  -1.247  -8.335  0.00  0.00    -0.328 N 
ATOM      2  H   LIG d   1       5.609  -0.481  -8.550  0.00  0.00     0.148 HD
ENDROOT
BRANCH   1   3
ATOM      3  C   LIG d   1       3.813  -1.408  -8.954  0.00  0.00     0.032 A 
ATOM      4  C   LIG d   1       2.872  -0.387  -8.902  0.00  0.00    -0.027 A 
ATOM      5  C   LIG d   1       1.645  -0.550  -9.515  0.00  0.00    -0.057 A 
ATOM      6  C   LIG d   1       1.354  -1.726 -10.181  0.00  0.00    -0.061 A 
ATOM      7  H   LIG d   1       0.912   0.242  -9.474  0.00  0.00     0.062 H 
ATOM      8  C   LIG d   1       2.289  -2.744 -10.236  0.00  0.00    -0.060 A 
ATOM      9  H   LIG d   1       0.393  -1.851 -10.660  0.00  0.00     0.062 H 
ATOM     10  C   LIG d   1       3.518  -2.588  -9.625  0.00  0.00    -0.041 A 
ATOM     11  H   LIG d   1       2.058  -3.661 -10.757  0.00  0.00     0.062 H 
ATOM     12  H   LIG d   1       4.248  -3.383  -9.668  0.00  0.00     0.064 H 
BRANCH   4  13
ATOM     13  C   LIG d   1       3.186   0.891  -8.171  0.00  0.00    -0.029 C 
ATOM     14  H   LIG d   1       2.447   1.052  -7.385  0.00  0.00     0.031 H 
ATOM     15  H   LIG d   1       4.179   0.822  -7.725  0.00  0.00     0.031 H 
BRANCH  13  16
ATOM     16  C   LIG d   1       3.149   2.063  -9.153  0.00  0.00    -0.061 C 
ATOM     17  H   LIG d   1       3.857   1.882  -9.962  0.00  0.00     0.023 H 
ATOM     18  H   LIG d   1       2.145   2.160  -9.566  0.00  0.00     0.023 H 
ATOM     19  H   LIG d   1       3.420   2.983  -8.633  0.00  0.00     0.023 H 
ENDBRANCH  13  16
ENDBRANCH   4  13
ENDBRANCH   1   3
BRANCH   1  20
ATOM     20  C   LIG d   1       5.519  -2.236  -7.358  0.00  0.00     0.086 C 
ATOM     21  H   LIG d   1       4.966  -3.166  -7.492  0.00  0.00     0.068 H 
ATOM     22  H   LIG d   1       6.582  -2.421  -7.506  0.00  0.00     0.068 H 
BRANCH  20  23
ATOM     23  N   LIG d   1       5.295  -1.727  -6.003  0.00  0.00    -0.218 N 
ATOM     24  C   LIG d   1       5.607  -0.483  -5.594  0.00  0.00     0.255 A 
ATOM     25  C   LIG d   1       5.234  -0.347  -4.171  0.00  0.00     0.050 A 
ATOM     26  O   LIG d   1       6.111   0.382  -6.282  0.00  0.00    -0.270 OA
ATOM     27  C   LIG d   1       4.690  -1.591  -3.794  0.00  0.00     0.050 A 
ATOM     28  C   LIG d   1       5.316   0.678  -3.242  0.00  0.00    -0.049 A 
ATOM     29  C   LIG d   1       4.746  -2.440  -5.003  0.00  0.00     0.255 A 
ATOM     30  C   LIG d   1       4.239  -1.783  -2.497  0.00  0.00    -0.049 A 
ATOM     31  O   LIG d   1       4.364  -3.590  -5.080  0.00  0.00    -0.270 OA
ATOM     32  C   LIG d   1       4.328  -0.747  -1.580  0.00  0.00    -0.061 A 
ATOM     33  H   LIG d   1       3.821  -2.734  -2.203  0.00  0.00     0.062 H 
ATOM     34  C   LIG d   1       4.862   0.473  -1.950  0.00  0.00    -0.061 A 
ATOM     35  H   LIG d   1       3.977  -0.896  -0.569  0.00  0.00     0.062 H 
ATOM     36  H   LIG d   1       4.925   1.273  -1.226  0.00  0.00     0.062 H 
ATOM     37  H   LIG d   1       5.732   1.634  -3.526  0.00  0.00     0.062 H 
ENDBRANCH  20  23
ENDBRANCH   1  20
TORSDOF 5
ENDMDL
MODEL 5
REMARK VINA RESULT:      -6.5      1.687      5.995
REMARK  5 active torsions:
REMARK  status: ('A' for Active; 'I' for Inactive)
REMARK    1  A    between atoms: C_1  and  C_2 
REMARK    2  A    between atoms: C_2  and  C_3 
REMARK    3  A    between atoms: C_8  and  N_9 
REMARK    4  A    between atoms: N_9  and  C_10 
REMARK    5  A    between atoms: C_10  and  N_11 
ROOT
ATOM      1  N   LIG d   1       5.687  -1.835  -4.976  0.00  0.00    -0.328 N 
ATOM      2  H   LIG d   1       6.613  -2.075  -5.135  0.00  0.00     0.148 HD
ENDROOT
BRANCH   1   3
ATOM      3  C   LIG d   1       5.349  -1.044  -3.876  0.00  0.00     0.032 A 
ATOM      4  C   LIG d   1       5.940   0.202  -3.707  0.00  0.00    -0.027 A 
ATOM      5  C   LIG d   1       5.604   0.982  -2.618  0.00  0.00    -0.057 A 
ATOM      6  C   LIG d   1       4.680   0.525  -1.698  0.00  0.00    -0.061 A 
ATOM      7  H   LIG d   1       6.064   1.950  -2.486  0.00  0.00     0.062 H 
ATOM      8  C   LIG d   1       4.088  -0.714  -1.863  0.00  0.00    -0.060 A 
ATOM      9  H   LIG d   1       4.418   1.137  -0.846  0.00  0.00     0.062 H 
ATOM     10  C   LIG d   1       4.420  -1.499  -2.950  0.00  0.00    -0.041 A 
ATOM     11  H   LIG d   1       3.367  -1.068  -1.142  0.00  0.00     0.062 H 
ATOM     12  H   LIG d   1       3.958  -2.467  -3.079  0.00  0.00     0.064 H 
BRANCH   4  13
ATOM     13  C   LIG d   1       6.953   0.697  -4.706  0.00  0.00    -0.029 C 
ATOM     14  H   LIG d   1       7.586  -0.132  -5.025  0.00  0.00     0.031 H 
ATOM     15  H   LIG d   1       6.437   1.113  -5.572  0.00  0.00     0.031 H 
BRANCH  13  16
ATOM     16  C   LIG d   1       7.819   1.781  -4.061  0.00  0.00    -0.061 C 
ATOM     17  H   LIG d   1       8.669   1.317  -3.562  0.00  0.00     0.023 H 
ATOM     18  H   LIG d   1       8.178   2.465  -4.830  0.00  0.00     0.023 H 
ATOM     19  H   LIG d   1       7.226   2.333  -3.331  0.00  0.00     0.023 H 
ENDBRANCH  13  16
ENDBRANCH   4  13
ENDBRANCH   1   3
BRANCH   1  20
ATOM     20  C   LIG d   1       4.642  -2.304  -5.890  0.00  0.00     0.086 C 
ATOM     21  H   LIG d   1       4.961  -3.235  -6.360  0.00  0.00     0.068 H 
ATOM     22  H   LIG d   1       3.722  -2.477  -5.332  0.00  0.00     0.068 H 
BRANCH  20  23
ATOM     23  N   LIG d   1       4.405  -1.293  -6.922  0.00  0.00    -0.218 N 
ATOM     24  C   LIG d   1       4.949  -1.318  -8.153  0.00  0.00     0.255 A 
ATOM     25  C   LIG d   1       4.475  -0.135  -8.902  0.00  0.00     0.050 A 
ATOM     26  O   LIG d   1       5.702  -2.171  -8.577  0.00  0.00    -0.270 OA
ATOM     27  C   LIG d   1       3.628   0.566  -8.020  0.00  0.00     0.050 A 
ATOM     28  C   LIG d   1       4.695   0.353 -10.180  0.00  0.00    -0.049 A 
ATOM     29  C   LIG d   1       3.611  -0.217  -6.767  0.00  0.00     0.255 A 
ATOM     30  C   LIG d   1       3.019   1.740  -8.436  0.00  0.00    -0.049 A 
ATOM     31  O   LIG d   1       2.988   0.064  -5.763  0.00  0.00    -0.270 OA
ATOM     32  C   LIG d   1       3.248   2.215  -9.718  0.00  0.00    -0.061 A 
ATOM     33  H   LIG d   1       2.369   2.281  -7.764  0.00  0.00     0.062 H 
ATOM     34  C   LIG d   1       4.079   1.527 -10.583  0.00  0.00    -0.061 A 
ATOM     35  H   LIG d   1       2.773   3.130 -10.043  0.00  0.00     0.062 H 
ATOM     36  H   LIG d   1       4.249   1.907 -11.579  0.00  0.00     0.062 H 
ATOM     37  H   LIG d   1       5.343  -0.180 -10.859  0.00  0.00     0.062 H 
ENDBRANCH  20  23
ENDBRANCH   1  20
TORSDOF 5
ENDMDL
MODEL 6
REMARK VINA RESULT:      -6.4      1.865      5.688
REMARK  5 active torsions:
REMARK  status: ('A' for Active; 'I' for Inactive)
REMARK    1  A    between atoms: C_1  and  C_2 
REMARK    2  A    between atoms: C_2  and  C_3 
REMARK    3  A    between atoms: C_8  and  N_9 
REMARK    4  A    between atoms: N_9  and  C_10 
REMARK    5  A    between atoms: C_10  and  N_11 
ROOT
ATOM      1  N   LIG d   1       5.300   0.231  -5.482  0.00  0.00    -0.328 N 
ATOM      2  H   LIG d   1       5.337   1.200  -5.471  0.00  0.00     0.148 HD
ENDROOT
BRANCH   1   3
ATOM      3  C   LIG d   1       4.741  -0.460  -4.405  0.00  0.00     0.032 A 
ATOM      4  C   LIG d   1       3.375  -0.386  -4.166  0.00  0.00    -0.027 A 
ATOM      5  C   LIG d   1       2.825  -1.070  -3.098  0.00  0.00    -0.057 A 
ATOM      6  C   LIG d   1       3.632  -1.826  -2.270  0.00  0.00    -0.061 A 
ATOM      7  H   LIG d   1       1.763  -1.013  -2.912  0.00  0.00     0.062 H 
ATOM      8  C   LIG d   1       4.993  -1.902  -2.505  0.00  0.00    -0.060 A 
ATOM      9  H   LIG d   1       3.200  -2.360  -1.436  0.00  0.00     0.062 H 
ATOM     10  C   LIG d   1       5.549  -1.221  -3.571  0.00  0.00    -0.041 A 
ATOM     11  H   LIG d   1       5.621  -2.494  -1.856  0.00  0.00     0.062 H 
ATOM     12  H   LIG d   1       6.612  -1.280  -3.754  0.00  0.00     0.064 H 
BRANCH   4  13
ATOM     13  C   LIG d   1       2.495   0.443  -5.064  0.00  0.00    -0.029 C 
ATOM     14  H   LIG d   1       2.887   0.417  -6.081  0.00  0.00     0.031 H 
ATOM     15  H   LIG d   1       1.482   0.041  -5.055  0.00  0.00     0.031 H 
BRANCH  13  16
ATOM     16  C   LIG d   1       2.473   1.889  -4.563  0.00  0.00    -0.061 C 
ATOM     17  H   LIG d   1       1.551   2.068  -4.010  0.00  0.00     0.023 H 
ATOM     18  H   LIG d   1       3.328   2.060  -3.909  0.00  0.00     0.023 H 
ATOM     19  H   LIG d   1       2.524   2.569  -5.414  0.00  0.00     0.023 H 
ENDBRANCH  13  16
ENDBRANCH   4  13
ENDBRANCH   1   3
BRANCH   1  20
ATOM     20  C   LIG d   1       5.833  -0.509  -6.629  0.00  0.00     0.086 C 
ATOM     21  H   LIG d   1       6.605   0.086  -7.119  0.00  0.00     0.068 H 
ATOM     22  H   LIG d   1       6.263  -1.450  -6.287  0.00  0.00     0.068 H 
BRANCH  20  23
ATOM     23  N   LIG d   1       4.752  -0.782  -7.580  0.00  0.00    -0.218 N 
ATOM     24  C   LIG d   1       4.337  -2.013  -7.929  0.00  0.00     0.255 A 
ATOM     25  C   LIG d   1       3.234  -1.880  -8.904  0.00  0.00     0.050 A 
ATOM     26  O   LIG d   1       4.793  -3.059  -7.512  0.00  0.00    -0.270 OA
ATOM     27  C   LIG d   1       3.048  -0.495  -9.089  0.00  0.00     0.050 A 
ATOM     28  C   LIG d   1       2.439  -2.780  -9.594  0.00  0.00    -0.049 A 
ATOM     29  C   LIG d   1       4.040   0.167  -8.215  0.00  0.00     0.255 A 
ATOM     30  C   LIG d   1       2.070  -0.041  -9.959  0.00  0.00    -0.049 A 
ATOM     31  O   LIG d   1       4.190   1.366  -8.094  0.00  0.00    -0.270 OA
ATOM     32  C   LIG d   1       1.281  -0.954 -10.642  0.00  0.00    -0.061 A 
ATOM     33  H   LIG d   1       1.922   1.019 -10.104  0.00  0.00     0.062 H 
ATOM     34  C   LIG d   1       1.464  -2.312 -10.461  0.00  0.00    -0.061 A 
ATOM     35  H   LIG d   1       0.518  -0.601 -11.320  0.00  0.00     0.062 H 
ATOM     36  H   LIG d   1       0.843  -3.014 -10.998  0.00  0.00     0.062 H 
ATOM     37  H   LIG d   1       2.578  -3.842  -9.456  0.00  0.00     0.062 H 
ENDBRANCH  20  23
ENDBRANCH   1  20
TORSDOF 5
ENDMDL
MODEL 7
REMARK VINA RESULT:      -6.3      1.413      2.712
REMARK  5 active torsions:
REMARK  status: ('A' for Active; 'I' for Inactive)
REMARK    1  A    between atoms: C_1  and  C_2 
REMARK    2  A    between atoms: C_2  and  C_3 
REMARK    3  A    between atoms: C_8  and  N_9 
REMARK    4  A    between atoms: N_9  and  C_10 
REMARK    5  A    between atoms: C_10  and  N_11 
ROOT
ATOM      1  N   LIG d   1       6.075   0.983  -7.951  0.00  0.00    -0.328 N 
ATOM      2  H   LIG d   1       5.854   1.848  -7.572  0.00  0.00     0.148 HD
ENDROOT
BRANCH   1   3
ATOM      3  C   LIG d   1       5.583   0.625  -9.208  0.00  0.00     0.032 A 
ATOM      4  C   LIG d   1       4.591   1.388  -9.810  0.00  0.00    -0.027 A 
ATOM      5  C   LIG d   1       4.106   1.030 -11.053  0.00  0.00    -0.057 A 
ATOM      6  C   LIG d   1       4.608  -0.085 -11.698  0.00  0.00    -0.061 A 
ATOM      7  H   LIG d   1       3.334   1.623 -11.522  0.00  0.00     0.062 H 
ATOM      8  C   LIG d   1       5.596  -0.847 -11.102  0.00  0.00    -0.060 A 
ATOM      9  H   LIG d   1       4.227  -0.362 -12.670  0.00  0.00     0.062 H 
ATOM     10  C   LIG d   1       6.085  -0.495  -9.859  0.00  0.00    -0.041 A 
ATOM     11  H   LIG d   1       5.985  -1.717 -11.608  0.00  0.00     0.062 H 
ATOM     12  H   LIG d   1       6.857  -1.090  -9.394  0.00  0.00     0.064 H 
BRANCH   4  13
ATOM     13  C   LIG d   1       4.039   2.599  -9.105  0.00  0.00    -0.029 C 
ATOM     14  H   LIG d   1       4.757   2.945  -8.360  0.00  0.00     0.031 H 
ATOM     15  H   LIG d   1       3.860   3.393  -9.831  0.00  0.00     0.031 H 
BRANCH  13  16
ATOM     16  C   LIG d   1       2.724   2.233  -8.415  0.00  0.00    -0.061 C 
ATOM     17  H   LIG d   1       2.163   1.542  -9.045  0.00  0.00     0.023 H 
ATOM     18  H   LIG d   1       2.936   1.760  -7.456  0.00  0.00     0.023 H 
ATOM     19  H   LIG d   1       2.135   3.137  -8.252  0.00  0.00     0.023 H 
ENDBRANCH  13  16
ENDBRANCH   4  13
ENDBRANCH   1   3
BRANCH   1  20
ATOM     20  C   LIG d   1       6.925   0.051  -7.205  0.00  0.00     0.086 C 
ATOM     21  H   LIG d   1       7.108  -0.838  -7.809  0.00  0.00     0.068 H 
ATOM     22  H   LIG d   1       7.874   0.533  -6.971  0.00  0.00     0.068 H 
BRANCH  20  23
ATOM     23  N   LIG d   1       6.253  -0.334  -5.961  0.00  0.00    -0.218 N 
ATOM     24  C   LIG d   1       6.299   0.376  -4.819  0.00  0.00     0.255 A 
ATOM     25  C   LIG d   1       5.503  -0.331  -3.793  0.00  0.00     0.050 A 
ATOM     26  O   LIG d   1       6.893   1.422  -4.659  0.00  0.00    -0.270 OA
ATOM     27  C   LIG d   1       5.002  -1.488  -4.423  0.00  0.00     0.050 A 
ATOM     28  C   LIG d   1       5.196  -0.082  -2.465  0.00  0.00    -0.049 A 
ATOM     29  C   LIG d   1       5.506  -1.443  -5.812  0.00  0.00     0.255 A 
ATOM     30  C   LIG d   1       4.206  -2.371  -3.711  0.00  0.00    -0.049 A 
ATOM     31  O   LIG d   1       5.286  -2.270  -6.673  0.00  0.00    -0.270 OA
ATOM     32  C   LIG d   1       3.908  -2.108  -2.383  0.00  0.00    -0.061 A 
ATOM     33  H   LIG d   1       3.819  -3.259  -4.188  0.00  0.00     0.062 H 
ATOM     34  C   LIG d   1       4.398  -0.973  -1.765  0.00  0.00    -0.061 A 
ATOM     35  H   LIG d   1       3.286  -2.796  -1.827  0.00  0.00     0.062 H 
ATOM     36  H   LIG d   1       4.158  -0.779  -0.730  0.00  0.00     0.062 H 
ATOM     37  H   LIG d   1       5.578   0.803  -1.978  0.00  0.00     0.062 H 
ENDBRANCH  20  23
ENDBRANCH   1  20
TORSDOF 5
ENDMDL
MODEL 8
REMARK VINA RESULT:      -6.3      1.871      2.636
REMARK  5 active torsions:
REMARK  status: ('A' for Active; 'I' for Inactive)
REMARK    1  A    between atoms: C_1  and  C_2 
REMARK    2  A    between atoms: C_2  and  C_3 
REMARK    3  A    between atoms: C_8  and  N_9 
REMARK    4  A    between atoms: N_9  and  C_10 
REMARK    5  A    between atoms: C_10  and  N_11 
ROOT
ATOM      1  N   LIG d   1       3.702  -2.862  -7.903  0.00  0.00    -0.328 N 
ATOM      2  H   LIG d   1       3.375  -3.688  -7.516  0.00  0.00     0.148 HD
ENDROOT
BRANCH   1   3
ATOM      3  C   LIG d   1       2.940  -2.188  -8.859  0.00  0.00     0.032 A 
ATOM      4  C   LIG d   1       2.383  -2.886  -9.924  0.00  0.00    -0.027 A 
ATOM      5  C   LIG d   1       1.630  -2.215 -10.868  0.00  0.00    -0.057 A 
ATOM      6  C   LIG d   1       1.429  -0.853 -10.754  0.00  0.00    -0.061 A 
ATOM      7  H   LIG d   1       1.198  -2.757 -11.696  0.00  0.00     0.062 H 
ATOM      8  C   LIG d   1       1.982  -0.154  -9.696  0.00  0.00    -0.060 A 
ATOM      9  H   LIG d   1       0.840  -0.331 -11.495  0.00  0.00     0.062 H 
ATOM     10  C   LIG d   1       2.735  -0.818  -8.748  0.00  0.00    -0.041 A 
ATOM     11  H   LIG d   1       1.823   0.910  -9.610  0.00  0.00     0.062 H 
ATOM     12  H   LIG d   1       3.166  -0.273  -7.921  0.00  0.00     0.064 H 
BRANCH   4  13
ATOM     13  C   LIG d   1       2.607  -4.370 -10.052  0.00  0.00    -0.029 C 
ATOM     14  H   LIG d   1       3.353  -4.560 -10.825  0.00  0.00     0.031 H 
ATOM     15  H   LIG d   1       2.961  -4.768  -9.101  0.00  0.00     0.031 H 
BRANCH  13  16
ATOM     16  C   LIG d   1       1.292  -5.053 -10.433  0.00  0.00    -0.061 C 
ATOM     17  H   LIG d   1       1.408  -6.134 -10.351  0.00  0.00     0.023 H 
ATOM     18  H   LIG d   1       0.502  -4.720  -9.760  0.00  0.00     0.023 H 
ATOM     19  H   LIG d   1       1.031  -4.792 -11.459  0.00  0.00     0.023 H 
ENDBRANCH  13  16
ENDBRANCH   4  13
ENDBRANCH   1   3
BRANCH   1  20
ATOM     20  C   LIG d   1       4.998  -2.320  -7.485  0.00  0.00     0.086 C 
ATOM     21  H   LIG d   1       5.753  -3.105  -7.536  0.00  0.00     0.068 H 
ATOM     22  H   LIG d   1       5.280  -1.502  -8.147  0.00  0.00     0.068 H 
BRANCH  20  23
ATOM     23  N   LIG d   1       4.901  -1.826  -6.110  0.00  0.00    -0.218 N 
ATOM     24  C   LIG d   1       4.573  -2.585  -5.049  0.00  0.00     0.255 A 
ATOM     25  C   LIG d   1       4.580  -1.733  -3.840  0.00  0.00     0.050 A 
ATOM     26  O   LIG d   1       4.316  -3.771  -5.079  0.00  0.00    -0.270 OA
ATOM     27  C   LIG d   1       4.932  -0.441  -4.281  0.00  0.00     0.050 A 
ATOM     28  C   LIG d   1       4.329  -1.958  -2.496  0.00  0.00    -0.049 A 
ATOM     29  C   LIG d   1       5.132  -0.552  -5.741  0.00  0.00     0.255 A 
ATOM     30  C   LIG d   1       5.024   0.597  -3.368  0.00  0.00    -0.049 A 
ATOM     31  O   LIG d   1       5.449   0.354  -6.484  0.00  0.00    -0.270 OA
ATOM     32  C   LIG d   1       4.770   0.356  -2.026  0.00  0.00    -0.061 A 
ATOM     33  H   LIG d   1       5.294   1.589  -3.699  0.00  0.00     0.062 H 
ATOM     34  C   LIG d   1       4.425  -0.911  -1.594  0.00  0.00    -0.061 A 
ATOM     35  H   LIG d   1       4.842   1.165  -1.314  0.00  0.00     0.062 H 
ATOM     36  H   LIG d   1       4.230  -1.086  -0.546  0.00  0.00     0.062 H 
ATOM     37  H   LIG d   1       4.059  -2.946  -2.154  0.00  0.00     0.062 H 
ENDBRANCH  20  23
ENDBRANCH   1  20
TORSDOF 5
ENDMDL
MODEL 9
REMARK VINA RESULT:      -6.2      2.161      6.613
REMARK  5 active torsions:
REMARK  status: ('A' for Active; 'I' for Inactive)
REMARK    1  A    between atoms: C_1  and  C_2 
REMARK    2  A    between atoms: C_2  and  C_3 
REMARK    3  A    between atoms: C_8  and  N_9 
REMARK    4  A    between atoms: N_9  and  C_10 
REMARK    5  A    between atoms: C_10  and  N_11 
ROOT
ATOM      1  N   LIG d   1       4.501  -0.094  -5.580  0.00  0.00    -0.328 N 
ATOM      2  H   LIG d   1       5.342  -0.108  -6.062  0.00  0.00     0.148 HD
ENDROOT
BRANCH   1   3
ATOM      3  C   LIG d   1       4.487  -0.267  -4.194  0.00  0.00     0.032 A 
ATOM      4  C   LIG d   1       4.581  -1.542  -3.651  0.00  0.00    -0.027 A 
ATOM      5  C   LIG d   1       4.566  -1.709  -2.280  0.00  0.00    -0.057 A 
ATOM      6  C   LIG d   1       4.459  -0.610  -1.449  0.00  0.00    -0.061 A 
ATOM      7  H   LIG d   1       4.639  -2.700  -1.857  0.00  0.00     0.062 H 
ATOM      8  C   LIG d   1       4.365   0.661  -1.986  0.00  0.00    -0.060 A 
ATOM      9  H   LIG d   1       4.447  -0.744  -0.376  0.00  0.00     0.062 H 
ATOM     10  C   LIG d   1       4.380   0.836  -3.356  0.00  0.00    -0.041 A 
ATOM     11  H   LIG d   1       4.281   1.518  -1.334  0.00  0.00     0.062 H 
ATOM     12  H   LIG d   1       4.307   1.829  -3.775  0.00  0.00     0.064 H 
BRANCH   4  13
ATOM     13  C   LIG d   1       4.692  -2.740  -4.556  0.00  0.00    -0.029 C 
ATOM     14  H   LIG d   1       4.047  -3.538  -4.184  0.00  0.00     0.031 H 
ATOM     15  H   LIG d   1       4.384  -2.465  -5.565  0.00  0.00     0.031 H 
BRANCH  13  16
ATOM     16  C   LIG d   1       6.142  -3.228  -4.582  0.00  0.00    -0.061 C 
ATOM     17  H   LIG d   1       6.664  -2.862  -3.698  0.00  0.00     0.023 H 
ATOM     18  H   LIG d   1       6.159  -4.318  -4.588  0.00  0.00     0.023 H 
ATOM     19  H   LIG d   1       6.637  -2.852  -5.478  0.00  0.00     0.023 H 
ENDBRANCH  13  16
ENDBRANCH   4  13
ENDBRANCH   1   3
BRANCH   1  20
ATOM     20  C   LIG d   1       3.244   0.109  -6.305  0.00  0.00     0.086 C 
ATOM     21  H   LIG d   1       2.508  -0.621  -5.966  0.00  0.00     0.068 H 
ATOM     22  H   LIG d   1       2.873   1.115  -6.114  0.00  0.00     0.068 H 
BRANCH  20  23
ATOM     23  N   LIG d   1       3.476  -0.062  -7.741  0.00  0.00    -0.218 N 
ATOM     24  C   LIG d   1       3.515   0.945  -8.632  0.00  0.00     0.255 A 
ATOM     25  C   LIG d   1       3.769   0.379  -9.973  0.00  0.00     0.050 A 
ATOM     26  O   LIG d   1       3.368   2.123  -8.376  0.00  0.00    -0.270 OA
ATOM     27  C   LIG d   1       3.871  -1.015  -9.791  0.00  0.00     0.050 A 
ATOM     28  C   LIG d   1       3.909   0.919 -11.242  0.00  0.00    -0.049 A 
ATOM     29  C   LIG d   1       3.681  -1.248  -8.343  0.00  0.00     0.255 A 
ATOM     30  C   LIG d   1       4.111  -1.838 -10.879  0.00  0.00    -0.049 A 
ATOM     31  O   LIG d   1       3.703  -2.329  -7.790  0.00  0.00    -0.270 OA
ATOM     32  C   LIG d   1       4.249  -1.282 -12.142  0.00  0.00    -0.061 A 
ATOM     33  H   LIG d   1       4.190  -2.906 -10.745  0.00  0.00     0.062 H 
ATOM     34  C   LIG d   1       4.149   0.085 -12.322  0.00  0.00    -0.061 A 
ATOM     35  H   LIG d   1       4.437  -1.923 -12.992  0.00  0.00     0.062 H 
ATOM     36  H   LIG d   1       4.259   0.505 -13.310  0.00  0.00     0.062 H 
ATOM     37  H   LIG d   1       3.832   1.986 -11.387  0.00  0.00     0.062 H 
ENDBRANCH  20  23
ENDBRANCH   1  20
TORSDOF 5
ENDMDL
MODEL 10
REMARK VINA RESULT:      -6.1      3.687      6.534
REMARK  5 active torsions:
REMARK  status: ('A' for Active; 'I' for Inactive)
REMARK    1  A    between atoms: C_1  and  C_2 
REMARK    2  A    between atoms: C_2  and  C_3 
REMARK    3  A    between atoms: C_8  and  N_9 
REMARK    4  A    between atoms: N_9  and  C_10 
REMARK    5  A    between atoms: C_10  and  N_11 
ROOT
ATOM      1  N   LIG d   1       5.927   0.295  -4.955  0.00  0.00    -0.328 N 
ATOM      2  H   LIG d   1       5.475   1.107  -5.234  0.00  0.00     0.148 HD
ENDROOT
BRANCH   1   3
ATOM      3  C   LIG d   1       5.273  -0.618  -4.125  0.00  0.00     0.032 A 
ATOM      4  C   LIG d   1       4.689  -0.187  -2.940  0.00  0.00    -0.027 A 
ATOM      5  C   LIG d   1       4.044  -1.093  -2.121  0.00  0.00    -0.057 A 
ATOM      6  C   LIG d   1       3.980  -2.427  -2.479  0.00  0.00    -0.061 A 
ATOM      7  H   LIG d   1       3.590  -0.759  -1.200  0.00  0.00     0.062 H 
ATOM      8  C   LIG d   1       4.561  -2.860  -3.657  0.00  0.00    -0.060 A 
ATOM      9  H   LIG d   1       3.475  -3.134  -1.836  0.00  0.00     0.062 H 
ATOM     10  C   LIG d   1       5.206  -1.959  -4.481  0.00  0.00    -0.041 A 
ATOM     11  H   LIG d   1       4.508  -3.902  -3.933  0.00  0.00     0.062 H 
ATOM     12  H   LIG d   1       5.660  -2.297  -5.401  0.00  0.00     0.064 H 
BRANCH   4  13
ATOM     13  C   LIG d   1       4.764   1.265  -2.547  0.00  0.00    -0.029 C 
ATOM     14  H   LIG d   1       4.978   1.342  -1.480  0.00  0.00     0.031 H 
ATOM     15  H   LIG d   1       5.558   1.755  -3.112  0.00  0.00     0.031 H 
BRANCH  13  16
ATOM     16  C   LIG d   1       3.428   1.946  -2.850  0.00  0.00    -0.061 C 
ATOM     17  H   LIG d   1       3.575   3.025  -2.907  0.00  0.00     0.023 H 
ATOM     18  H   LIG d   1       3.043   1.582  -3.803  0.00  0.00     0.023 H 
ATOM     19  H   LIG d   1       2.715   1.717  -2.058  0.00  0.00     0.023 H 
ENDBRANCH  13  16
ENDBRANCH   4  13
ENDBRANCH   1   3
BRANCH   1  20
ATOM     20  C   LIG d   1       7.295   0.027  -5.405  0.00  0.00     0.086 C 
ATOM     21  H   LIG d   1       7.811  -0.578  -4.658  0.00  0.00     0.068 H 
ATOM     22  H   LIG d   1       7.268  -0.511  -6.351  0.00  0.00     0.068 H 
BRANCH  20  23
ATOM     23  N   LIG d   1       8.008   1.294  -5.583  0.00  0.00    -0.218 N 
ATOM     24  C   LIG d   1       8.480   1.744  -6.760  0.00  0.00     0.255 A 
ATOM     25  C   LIG d   1       9.135   3.051  -6.537  0.00  0.00     0.050 A 
ATOM     26  O   LIG d   1       8.383   1.173  -7.827  0.00  0.00    -0.270 OA
ATOM     27  C   LIG d   1       9.008   3.316  -5.158  0.00  0.00     0.050 A 
ATOM     28  C   LIG d   1       9.783   3.961  -7.356  0.00  0.00    -0.049 A 
ATOM     29  C   LIG d   1       8.274   2.164  -4.591  0.00  0.00     0.255 A 
ATOM     30  C   LIG d   1       9.530   4.485  -4.630  0.00  0.00    -0.049 A 
ATOM     31  O   LIG d   1       7.966   2.025  -3.425  0.00  0.00    -0.270 OA
ATOM     32  C   LIG d   1      10.176   5.386  -5.462  0.00  0.00    -0.061 A 
ATOM     33  H   LIG d   1       9.435   4.694  -3.574  0.00  0.00     0.062 H 
ATOM     34  C   LIG d   1      10.301   5.127  -6.814  0.00  0.00    -0.061 A 
ATOM     35  H   LIG d   1      10.583   6.299  -5.051  0.00  0.00     0.062 H 
ATOM     36  H   LIG d   1      10.805   5.837  -7.453  0.00  0.00     0.062 H 
ATOM     37  H   LIG d   1       9.884   3.762  -8.413  0.00  0.00     0.062 H 
ENDBRANCH  20  23
ENDBRANCH   1  20
TORSDOF 5
ENDMDL
