MODEL 1
REMARK VINA RESULT:      -6.1      0.000      0.000
REMARK  4 active torsions:
REMARK  status: ('A' for Active; 'I' for Inactive)
REMARK    1  A    between atoms: C_1  and  C_2 
REMARK    2  A    between atoms: C_13  and  O_15 
REMARK    3  A    between atoms: C_19  and  C_26 
REMARK    4  A    between atoms: C_22  and  O_25 
ROOT
ATOM      1  C   LIG d   1       5.306  -0.664  -3.306  0.00  0.00    -0.003 C 
ATOM      2  C   LIG d   1       5.071  -2.151  -3.032  0.00  0.00    -0.045 C 
ATOM      3  C   LIG d   1       5.406  -2.981  -4.267  0.00  0.00    -0.049 C 
ATOM      4  C   LIG d   1       4.460  -2.580  -5.406  0.00  0.00    -0.029 C 
ATOM      5  H   LIG d   1       3.427  -2.707  -5.081  0.00  0.00     0.031 H 
ATOM      6  C   LIG d   1       4.702  -1.113  -5.748  0.00  0.00    -0.031 C 
ATOM      7  H   LIG d   1       5.721  -0.997  -6.115  0.00  0.00     0.031 H 
ATOM      8  C   LIG d   1       4.529  -0.217  -4.556  0.00  0.00    -0.030 C 
ATOM      9  H   LIG d   1       4.837   0.793  -4.824  0.00  0.00     0.031 H 
ATOM     10  C   LIG d   1       3.067  -0.170  -4.074  0.00  0.00    -0.047 C 
ATOM     11  C   LIG d   1       3.179   0.415  -2.647  0.00  0.00    -0.026 C 
ATOM     12  C   LIG d   1       4.616   0.114  -2.153  0.00  0.00     0.061 C 
ATOM     13  H   LIG d   1       4.593  -0.496  -1.251  0.00  0.00     0.060 H 
ATOM     14  C   LIG d   1       3.694  -0.712  -6.853  0.00  0.00    -0.031 C 
ATOM     15  C   LIG d   1       3.853  -1.637  -8.023  0.00  0.00    -0.084 C 
ATOM     16  C   LIG d   1       4.301  -2.852  -7.909  0.00  0.00    -0.065 C 
ATOM     17  C   LIG d   1       4.723  -3.471  -6.610  0.00  0.00    -0.008 C 
ATOM     18  C   LIG d   1       4.000  -4.809  -6.440  0.00  0.00    -0.041 C 
ATOM     19  C   LIG d   1       4.278  -5.693  -7.657  0.00  0.00    -0.026 C 
ATOM     20  C   LIG d   1       3.686  -5.033  -8.903  0.00  0.00     0.059 C 
ATOM     21  H   LIG d   1       2.623  -4.849  -8.748  0.00  0.00     0.060 H 
ATOM     22  C   LIG d   1       4.402  -3.704  -9.165  0.00  0.00    -0.005 C 
ATOM     23  H   LIG d   1       5.702  -2.470  -2.203  0.00  0.00     0.027 H 
ATOM     24  H   LIG d   1       4.024  -2.307  -2.767  0.00  0.00     0.027 H 
ATOM     25  H   LIG d   1       6.437  -2.793  -4.565  0.00  0.00     0.027 H 
ATOM     26  H   LIG d   1       5.277  -4.040  -4.042  0.00  0.00     0.027 H 
ATOM     27  H   LIG d   1       2.474   0.485  -4.712  0.00  0.00     0.027 H 
ATOM     28  H   LIG d   1       2.638  -1.171  -4.049  0.00  0.00     0.027 H 
ATOM     29  H   LIG d   1       3.002   1.490  -2.669  0.00  0.00     0.029 H 
ATOM     30  H   LIG d   1       2.457  -0.069  -1.988  0.00  0.00     0.029 H 
ATOM     31  H   LIG d   1       3.894   0.312  -7.168  0.00  0.00     0.031 H 
ATOM     32  H   LIG d   1       2.675  -0.783  -6.470  0.00  0.00     0.031 H 
ATOM     33  H   LIG d   1       3.583  -1.277  -9.005  0.00  0.00     0.057 H 
ATOM     34  H   LIG d   1       4.368  -5.312  -5.546  0.00  0.00     0.027 H 
ATOM     35  H   LIG d   1       2.928  -4.634  -6.343  0.00  0.00     0.027 H 
ATOM     36  H   LIG d   1       3.815  -6.670  -7.511  0.00  0.00     0.029 H 
ATOM     37  H   LIG d   1       5.353  -5.819  -7.789  0.00  0.00     0.029 H 
ATOM     38  H   LIG d   1       3.924  -3.186  -9.998  0.00  0.00     0.034 H 
ATOM     39  H   LIG d   1       5.450  -3.889  -9.399  0.00  0.00     0.034 H 
ENDROOT
BRANCH   1  40
ATOM     40  C   LIG d   1       6.796  -0.333  -3.410  0.00  0.00    -0.057 C 
ATOM     41  H   LIG d   1       7.328  -1.184  -3.834  0.00  0.00     0.024 H 
ATOM     42  H   LIG d   1       7.191  -0.116  -2.417  0.00  0.00     0.024 H 
ATOM     43  H   LIG d   1       6.931   0.537  -4.053  0.00  0.00     0.024 H 
ENDBRANCH   1  40
BRANCH  12  44
ATOM     44  O   LIG d   1       5.311   1.338  -1.903  0.00  0.00    -0.391 OA
ATOM     45  H   LIG d   1       5.906   1.303  -1.141  0.00  0.00     0.210 HD
ENDBRANCH  12  44
BRANCH  17  46
ATOM     46  C   LIG d   1       6.226  -3.748  -6.679  0.00  0.00    -0.056 C 
ATOM     47  H   LIG d   1       6.418  -4.529  -7.413  0.00  0.00     0.024 H 
ATOM     48  H   LIG d   1       6.750  -2.839  -6.970  0.00  0.00     0.024 H 
ATOM     49  H   LIG d   1       6.581  -4.074  -5.701  0.00  0.00     0.024 H 
ENDBRANCH  17  46
BRANCH  20  50
ATOM     50  O   LIG d   1       3.860  -5.896 -10.029  0.00  0.00    -0.392 OA
ATOM     51  H   LIG d   1       4.023  -6.820  -9.795  0.00  0.00     0.210 HD
ENDBRANCH  20  50
TORSDOF 4
ENDMDL
MODEL 2
REMARK VINA RESULT:      -6.1      2.107      6.458
REMARK  4 active torsions:
REMARK  status: ('A' for Active; 'I' for Inactive)
REMARK    1  A    between atoms: C_1  and  C_2 
REMARK    2  A    between atoms: C_13  and  O_15 
REMARK    3  A    between atoms: C_19  and  C_26 
REMARK    4  A    between atoms: C_22  and  O_25 
ROOT
ATOM      1  C   LIG d   1       6.670  -5.295  -6.456  0.00  0.00    -0.003 C 
ATOM      2  C   LIG d   1       5.366  -5.458  -5.670  0.00  0.00    -0.045 C 
ATOM      3  C   LIG d   1       4.762  -4.094  -5.350  0.00  0.00    -0.049 C 
ATOM      4  C   LIG d   1       5.734  -3.321  -4.451  0.00  0.00    -0.029 C 
ATOM      5  H   LIG d   1       5.946  -3.907  -3.557  0.00  0.00     0.031 H 
ATOM      6  C   LIG d   1       7.031  -3.089  -5.220  0.00  0.00    -0.031 C 
ATOM      7  H   LIG d   1       6.823  -2.464  -6.088  0.00  0.00     0.031 H 
ATOM      8  C   LIG d   1       7.641  -4.372  -5.702  0.00  0.00    -0.030 C 
ATOM      9  H   LIG d   1       8.488  -4.142  -6.349  0.00  0.00     0.031 H 
ATOM     10  C   LIG d   1       8.141  -5.249  -4.539  0.00  0.00    -0.047 C 
ATOM     11  C   LIG d   1       8.312  -6.642  -5.187  0.00  0.00    -0.026 C 
ATOM     12  C   LIG d   1       7.382  -6.675  -6.425  0.00  0.00     0.061 C 
ATOM     13  H   LIG d   1       6.647  -7.473  -6.333  0.00  0.00     0.060 H 
ATOM     14  C   LIG d   1       8.019  -2.364  -4.273  0.00  0.00    -0.031 C 
ATOM     15  C   LIG d   1       7.383  -1.101  -3.771  0.00  0.00    -0.084 C 
ATOM     16  C   LIG d   1       6.096  -0.949  -3.669  0.00  0.00    -0.065 C 
ATOM     17  C   LIG d   1       5.096  -2.000  -4.048  0.00  0.00    -0.008 C 
ATOM     18  C   LIG d   1       4.137  -2.218  -2.875  0.00  0.00    -0.041 C 
ATOM     19  C   LIG d   1       3.502  -0.882  -2.485  0.00  0.00    -0.026 C 
ATOM     20  C   LIG d   1       4.594   0.066  -1.986  0.00  0.00     0.059 C 
ATOM     21  H   LIG d   1       5.133  -0.402  -1.163  0.00  0.00     0.060 H 
ATOM     22  C   LIG d   1       5.567   0.370  -3.129  0.00  0.00    -0.005 C 
ATOM     23  H   LIG d   1       4.657  -6.035  -6.264  0.00  0.00     0.027 H 
ATOM     24  H   LIG d   1       5.571  -5.989  -4.740  0.00  0.00     0.027 H 
ATOM     25  H   LIG d   1       4.599  -3.541  -6.275  0.00  0.00     0.027 H 
ATOM     26  H   LIG d   1       3.813  -4.229  -4.831  0.00  0.00     0.027 H 
ATOM     27  H   LIG d   1       9.096  -4.880  -4.164  0.00  0.00     0.027 H 
ATOM     28  H   LIG d   1       7.403  -5.283  -3.738  0.00  0.00     0.027 H 
ATOM     29  H   LIG d   1       9.349  -6.790  -5.487  0.00  0.00     0.029 H 
ATOM     30  H   LIG d   1       8.012  -7.420  -4.484  0.00  0.00     0.029 H 
ATOM     31  H   LIG d   1       8.929  -2.120  -4.821  0.00  0.00     0.031 H 
ATOM     32  H   LIG d   1       8.264  -3.008  -3.428  0.00  0.00     0.031 H 
ATOM     33  H   LIG d   1       8.024  -0.281  -3.482  0.00  0.00     0.057 H 
ATOM     34  H   LIG d   1       3.350  -2.910  -3.172  0.00  0.00     0.027 H 
ATOM     35  H   LIG d   1       4.685  -2.632  -2.028  0.00  0.00     0.027 H 
ATOM     36  H   LIG d   1       2.772  -1.043  -1.691  0.00  0.00     0.029 H 
ATOM     37  H   LIG d   1       3.005  -0.439  -3.348  0.00  0.00     0.029 H 
ATOM     38  H   LIG d   1       6.396   0.972  -2.756  0.00  0.00     0.034 H 
ATOM     39  H   LIG d   1       5.049   0.909  -3.921  0.00  0.00     0.034 H 
ENDROOT
BRANCH   1  40
ATOM     40  C   LIG d   1       6.416  -4.813  -7.886  0.00  0.00    -0.057 C 
ATOM     41  H   LIG d   1       5.771  -5.525  -8.401  0.00  0.00     0.024 H 
ATOM     42  H   LIG d   1       7.365  -4.733  -8.417  0.00  0.00     0.024 H 
ATOM     43  H   LIG d   1       5.931  -3.837  -7.860  0.00  0.00     0.024 H 
ENDBRANCH   1  40
BRANCH  12  44
ATOM     44  O   LIG d   1       8.158  -6.853  -7.613  0.00  0.00    -0.391 OA
ATOM     45  H   LIG d   1       7.690  -6.619  -8.426  0.00  0.00     0.210 HD
ENDBRANCH  12  44
BRANCH  17  46
ATOM     46  C   LIG d   1       4.284  -1.480  -5.236  0.00  0.00    -0.056 C 
ATOM     47  H   LIG d   1       4.146  -0.404  -5.139  0.00  0.00     0.024 H 
ATOM     48  H   LIG d   1       4.816  -1.697  -6.161  0.00  0.00     0.024 H 
ATOM     49  H   LIG d   1       3.310  -1.971  -5.253  0.00  0.00     0.024 H 
ENDBRANCH  17  46
BRANCH  20  50
ATOM     50  O   LIG d   1       3.998   1.284  -1.533  0.00  0.00    -0.392 OA
ATOM     51  H   LIG d   1       3.728   1.879  -2.246  0.00  0.00     0.210 HD
ENDBRANCH  20  50
TORSDOF 4
ENDMDL
MODEL 3
REMARK VINA RESULT:      -6.0      1.901      3.378
REMARK  4 active torsions:
REMARK  status: ('A' for Active; 'I' for Inactive)
REMARK    1  A    between atoms: C_1  and  C_2 
REMARK    2  A    between atoms: C_13  and  O_15 
REMARK    3  A    between atoms: C_19  and  C_26 
REMARK    4  A    between atoms: C_22  and  O_25 
ROOT
ATOM      1  C   LIG d   1       4.948  -0.647  -3.211  0.00  0.00    -0.003 C 
ATOM      2  C   LIG d   1       4.398  -0.779  -4.634  0.00  0.00    -0.045 C 
ATOM      3  C   LIG d   1       4.498  -2.225  -5.113  0.00  0.00    -0.049 C 
ATOM      4  C   LIG d   1       5.977  -2.629  -5.164  0.00  0.00    -0.029 C 
ATOM      5  H   LIG d   1       6.521  -1.935  -5.804  0.00  0.00     0.031 H 
ATOM      6  C   LIG d   1       6.550  -2.563  -3.751  0.00  0.00    -0.031 C 
ATOM      7  H   LIG d   1       6.035  -3.290  -3.124  0.00  0.00     0.031 H 
ATOM      8  C   LIG d   1       6.378  -1.207  -3.132  0.00  0.00    -0.030 C 
ATOM      9  H   LIG d   1       6.686  -1.252  -2.088  0.00  0.00     0.031 H 
ATOM     10  C   LIG d   1       7.224  -0.134  -3.843  0.00  0.00    -0.047 C 
ATOM     11  C   LIG d   1       6.592   1.194  -3.367  0.00  0.00    -0.026 C 
ATOM     12  C   LIG d   1       5.137   0.871  -2.948  0.00  0.00     0.061 C 
ATOM     13  H   LIG d   1       4.429   1.445  -3.543  0.00  0.00     0.060 H 
ATOM     14  C   LIG d   1       8.057  -2.912  -3.835  0.00  0.00    -0.031 C 
ATOM     15  C   LIG d   1       8.215  -4.254  -4.487  0.00  0.00    -0.084 C 
ATOM     16  C   LIG d   1       7.349  -4.740  -5.326  0.00  0.00    -0.065 C 
ATOM     17  C   LIG d   1       6.090  -4.035  -5.733  0.00  0.00    -0.008 C 
ATOM     18  C   LIG d   1       6.019  -3.989  -7.261  0.00  0.00    -0.041 C 
ATOM     19  C   LIG d   1       6.130  -5.410  -7.816  0.00  0.00    -0.026 C 
ATOM     20  C   LIG d   1       7.504  -5.981  -7.461  0.00  0.00     0.059 C 
ATOM     21  H   LIG d   1       8.282  -5.318  -7.836  0.00  0.00     0.060 H 
ATOM     22  C   LIG d   1       7.627  -6.104  -5.938  0.00  0.00    -0.005 C 
ATOM     23  H   LIG d   1       3.354  -0.467  -4.648  0.00  0.00     0.027 H 
ATOM     24  H   LIG d   1       4.974  -0.138  -5.303  0.00  0.00     0.027 H 
ATOM     25  H   LIG d   1       3.964  -2.876  -4.421  0.00  0.00     0.027 H 
ATOM     26  H   LIG d   1       4.062  -2.310  -6.109  0.00  0.00     0.027 H 
ATOM     27  H   LIG d   1       8.266  -0.198  -3.529  0.00  0.00     0.027 H 
ATOM     28  H   LIG d   1       7.143  -0.235  -4.925  0.00  0.00     0.027 H 
ATOM     29  H   LIG d   1       7.153   1.592  -2.522  0.00  0.00     0.029 H 
ATOM     30  H   LIG d   1       6.585   1.917  -4.184  0.00  0.00     0.029 H 
ATOM     31  H   LIG d   1       8.475  -2.944  -2.829  0.00  0.00     0.031 H 
ATOM     32  H   LIG d   1       8.580  -2.158  -4.423  0.00  0.00     0.031 H 
ATOM     33  H   LIG d   1       9.089  -4.843  -4.249  0.00  0.00     0.057 H 
ATOM     34  H   LIG d   1       5.064  -3.563  -7.569  0.00  0.00     0.027 H 
ATOM     35  H   LIG d   1       6.832  -3.373  -7.645  0.00  0.00     0.027 H 
ATOM     36  H   LIG d   1       6.018  -5.387  -8.901  0.00  0.00     0.029 H 
ATOM     37  H   LIG d   1       5.352  -6.040  -7.385  0.00  0.00     0.029 H 
ATOM     38  H   LIG d   1       8.635  -6.425  -5.675  0.00  0.00     0.034 H 
ATOM     39  H   LIG d   1       6.901  -6.827  -5.567  0.00  0.00     0.034 H 
ENDROOT
BRANCH   1  40
ATOM     40  C   LIG d   1       4.022  -1.297  -2.181  0.00  0.00    -0.057 C 
ATOM     41  H   LIG d   1       3.003  -1.316  -2.569  0.00  0.00     0.024 H 
ATOM     42  H   LIG d   1       4.047  -0.722  -1.255  0.00  0.00     0.024 H 
ATOM     43  H   LIG d   1       4.355  -2.316  -1.985  0.00  0.00     0.024 H 
ENDBRANCH   1  40
BRANCH  12  44
ATOM     44  O   LIG d   1       4.957   1.154  -1.558  0.00  0.00    -0.391 OA
ATOM     45  H   LIG d   1       5.421   0.543  -0.969  0.00  0.00     0.210 HD
ENDBRANCH  12  44
BRANCH  17  46
ATOM     46  C   LIG d   1       4.900  -4.852  -5.226  0.00  0.00    -0.056 C 
ATOM     47  H   LIG d   1       4.360  -5.271  -6.074  0.00  0.00     0.024 H 
ATOM     48  H   LIG d   1       5.259  -5.659  -4.588  0.00  0.00     0.024 H 
ATOM     49  H   LIG d   1       4.233  -4.206  -4.653  0.00  0.00     0.024 H 
ENDBRANCH  17  46
BRANCH  20  50
ATOM     50  O   LIG d   1       7.651  -7.273  -8.054  0.00  0.00    -0.392 OA
ATOM     51  H   LIG d   1       8.126  -7.909  -7.502  0.00  0.00     0.210 HD
ENDBRANCH  20  50
TORSDOF 4
ENDMDL
MODEL 4
REMARK VINA RESULT:      -6.0      1.756      6.355
REMARK  4 active torsions:
REMARK  status: ('A' for Active; 'I' for Inactive)
REMARK    1  A    between atoms: C_1  and  C_2 
REMARK    2  A    between atoms: C_13  and  O_15 
REMARK    3  A    between atoms: C_19  and  C_26 
REMARK    4  A    between atoms: C_22  and  O_25 
ROOT
ATOM      1  C   LIG d   1       4.007  -1.781  -9.149  0.00  0.00    -0.003 C 
ATOM      2  C   LIG d   1       5.416  -1.703  -8.555  0.00  0.00    -0.045 C 
ATOM      3  C   LIG d   1       5.357  -1.761  -7.031  0.00  0.00    -0.049 C 
ATOM      4  C   LIG d   1       4.586  -0.538  -6.518  0.00  0.00    -0.029 C 
ATOM      5  H   LIG d   1       5.060   0.371  -6.887  0.00  0.00     0.031 H 
ATOM      6  C   LIG d   1       3.155  -0.607  -7.045  0.00  0.00    -0.031 C 
ATOM      7  H   LIG d   1       2.669  -1.493  -6.639  0.00  0.00     0.031 H 
ATOM      8  C   LIG d   1       3.107  -0.692  -8.542  0.00  0.00    -0.030 C 
ATOM      9  H   LIG d   1       2.077  -0.867  -8.854  0.00  0.00     0.031 H 
ATOM     10  C   LIG d   1       3.605   0.602  -9.212  0.00  0.00    -0.047 C 
ATOM     11  C   LIG d   1       3.885   0.167 -10.669  0.00  0.00    -0.026 C 
ATOM     12  C   LIG d   1       4.131  -1.362 -10.639  0.00  0.00     0.061 C 
ATOM     13  H   LIG d   1       5.125  -1.599 -11.013  0.00  0.00     0.060 H 
ATOM     14  C   LIG d   1       2.414   0.667  -6.570  0.00  0.00    -0.031 C 
ATOM     15  C   LIG d   1       2.501   0.757  -5.075  0.00  0.00    -0.084 C 
ATOM     16  C   LIG d   1       3.472   0.230  -4.388  0.00  0.00    -0.065 C 
ATOM     17  C   LIG d   1       4.606  -0.537  -4.997  0.00  0.00    -0.008 C 
ATOM     18  C   LIG d   1       5.928   0.046  -4.491  0.00  0.00    -0.041 C 
ATOM     19  C   LIG d   1       5.933   0.036  -2.962  0.00  0.00    -0.026 C 
ATOM     20  C   LIG d   1       4.825   0.957  -2.449  0.00  0.00     0.059 C 
ATOM     21  H   LIG d   1       4.959   1.955  -2.866  0.00  0.00     0.060 H 
ATOM     22  C   LIG d   1       3.463   0.403  -2.878  0.00  0.00    -0.005 C 
ATOM     23  H   LIG d   1       6.010  -2.539  -8.923  0.00  0.00     0.027 H 
ATOM     24  H   LIG d   1       5.885  -0.767  -8.861  0.00  0.00     0.027 H 
ATOM     25  H   LIG d   1       4.847  -2.672  -6.720  0.00  0.00     0.027 H 
ATOM     26  H   LIG d   1       6.369  -1.750  -6.626  0.00  0.00     0.027 H 
ATOM     27  H   LIG d   1       2.833   1.371  -9.183  0.00  0.00     0.027 H 
ATOM     28  H   LIG d   1       4.517   0.957  -8.733  0.00  0.00     0.027 H 
ATOM     29  H   LIG d   1       3.029   0.402 -11.301  0.00  0.00     0.029 H 
ATOM     30  H   LIG d   1       4.776   0.673 -11.045  0.00  0.00     0.029 H 
ATOM     31  H   LIG d   1       1.368   0.608  -6.871  0.00  0.00     0.031 H 
ATOM     32  H   LIG d   1       2.872   1.551  -7.014  0.00  0.00     0.031 H 
ATOM     33  H   LIG d   1       1.722   1.284  -4.544  0.00  0.00     0.057 H 
ATOM     34  H   LIG d   1       6.757  -0.562  -4.852  0.00  0.00     0.027 H 
ATOM     35  H   LIG d   1       6.039   1.067  -4.858  0.00  0.00     0.027 H 
ATOM     36  H   LIG d   1       6.898   0.394  -2.599  0.00  0.00     0.029 H 
ATOM     37  H   LIG d   1       5.762  -0.977  -2.595  0.00  0.00     0.029 H 
ATOM     38  H   LIG d   1       2.675   1.101  -2.594  0.00  0.00     0.034 H 
ATOM     39  H   LIG d   1       3.290  -0.561  -2.399  0.00  0.00     0.034 H 
ENDROOT
BRANCH   1  40
ATOM     40  C   LIG d   1       3.401  -3.176  -8.993  0.00  0.00    -0.057 C 
ATOM     41  H   LIG d   1       2.344  -3.145  -9.262  0.00  0.00     0.024 H 
ATOM     42  H   LIG d   1       3.502  -3.504  -7.959  0.00  0.00     0.024 H 
ATOM     43  H   LIG d   1       3.921  -3.874  -9.649  0.00  0.00     0.024 H 
ENDBRANCH   1  40
BRANCH  12  44
ATOM     44  O   LIG d   1       3.137  -2.030 -11.420  0.00  0.00    -0.391 OA
ATOM     45  H   LIG d   1       2.528  -2.572 -10.900  0.00  0.00     0.210 HD
ENDBRANCH  12  44
BRANCH  17  46
ATOM     46  C   LIG d   1       4.513  -1.988  -4.518  0.00  0.00    -0.056 C 
ATOM     47  H   LIG d   1       3.614  -2.115  -3.917  0.00  0.00     0.024 H 
ATOM     48  H   LIG d   1       4.470  -2.653  -5.380  0.00  0.00     0.024 H 
ATOM     49  H   LIG d   1       5.390  -2.229  -3.917  0.00  0.00     0.024 H 
ENDBRANCH  17  46
BRANCH  20  50
ATOM     50  O   LIG d   1       4.883   1.025  -1.023  0.00  0.00    -0.392 OA
ATOM     51  H   LIG d   1       5.053   0.175  -0.595  0.00  0.00     0.210 HD
ENDBRANCH  20  50
TORSDOF 4
ENDMDL
MODEL 5
REMARK VINA RESULT:      -5.8      2.808      4.027
REMARK  4 active torsions:
REMARK  status: ('A' for Active; 'I' for Inactive)
REMARK    1  A    between atoms: C_1  and  C_2 
REMARK    2  A    between atoms: C_13  and  O_15 
REMARK    3  A    between atoms: C_19  and  C_26 
REMARK    4  A    between atoms: C_22  and  O_25 
ROOT
ATOM      1  C   LIG d   1       3.790  -0.169  -3.723  0.00  0.00    -0.003 C 
ATOM      2  C   LIG d   1       3.108   1.009  -4.423  0.00  0.00    -0.045 C 
ATOM      3  C   LIG d   1       2.803   0.662  -5.877  0.00  0.00    -0.049 C 
ATOM      4  C   LIG d   1       4.123   0.406  -6.614  0.00  0.00    -0.029 C 
ATOM      5  H   LIG d   1       4.768   1.278  -6.517  0.00  0.00     0.031 H 
ATOM      6  C   LIG d   1       4.810  -0.800  -5.979  0.00  0.00    -0.031 C 
ATOM      7  H   LIG d   1       4.183  -1.681  -6.117  0.00  0.00     0.031 H 
ATOM      8  C   LIG d   1       5.036  -0.614  -4.507  0.00  0.00    -0.030 C 
ATOM      9  H   LIG d   1       5.409  -1.546  -4.085  0.00  0.00     0.031 H 
ATOM     10  C   LIG d   1       6.062   0.497  -4.215  0.00  0.00    -0.047 C 
ATOM     11  C   LIG d   1       5.825   0.820  -2.721  0.00  0.00    -0.026 C 
ATOM     12  C   LIG d   1       4.376   0.383  -2.395  0.00  0.00     0.061 C 
ATOM     13  H   LIG d   1       3.786   1.231  -2.050  0.00  0.00     0.060 H 
ATOM     14  C   LIG d   1       6.169  -1.001  -6.695  0.00  0.00    -0.031 C 
ATOM     15  C   LIG d   1       5.931  -1.151  -8.168  0.00  0.00    -0.084 C 
ATOM     16  C   LIG d   1       4.904  -0.635  -8.776  0.00  0.00    -0.065 C 
ATOM     17  C   LIG d   1       3.833   0.154  -8.085  0.00  0.00    -0.008 C 
ATOM     18  C   LIG d   1       3.648   1.486  -8.818  0.00  0.00    -0.041 C 
ATOM     19  C   LIG d   1       3.352   1.215 -10.294  0.00  0.00    -0.026 C 
ATOM     20  C   LIG d   1       4.564   0.531 -10.931  0.00  0.00     0.059 C 
ATOM     21  H   LIG d   1       5.449   1.148 -10.783  0.00  0.00     0.060 H 
ATOM     22  C   LIG d   1       4.779  -0.837 -10.277  0.00  0.00    -0.005 C 
ATOM     23  H   LIG d   1       2.179   1.247  -3.907  0.00  0.00     0.027 H 
ATOM     24  H   LIG d   1       3.768   1.877  -4.392  0.00  0.00     0.027 H 
ATOM     25  H   LIG d   1       2.182  -0.233  -5.916  0.00  0.00     0.027 H 
ATOM     26  H   LIG d   1       2.278   1.493  -6.348  0.00  0.00     0.027 H 
ATOM     27  H   LIG d   1       7.077   0.134  -4.373  0.00  0.00     0.027 H 
ATOM     28  H   LIG d   1       5.868   1.373  -4.834  0.00  0.00     0.027 H 
ATOM     29  H   LIG d   1       6.536   0.271  -2.104  0.00  0.00     0.029 H 
ATOM     30  H   LIG d   1       5.931   1.892  -2.550  0.00  0.00     0.029 H 
ATOM     31  H   LIG d   1       6.648  -1.901  -6.310  0.00  0.00     0.031 H 
ATOM     32  H   LIG d   1       6.814  -0.140  -6.516  0.00  0.00     0.031 H 
ATOM     33  H   LIG d   1       6.646  -1.713  -8.751  0.00  0.00     0.057 H 
ATOM     34  H   LIG d   1       2.808   2.027  -8.383  0.00  0.00     0.027 H 
ATOM     35  H   LIG d   1       4.554   2.083  -8.722  0.00  0.00     0.027 H 
ATOM     36  H   LIG d   1       3.159   2.158 -10.806  0.00  0.00     0.029 H 
ATOM     37  H   LIG d   1       2.480   0.568 -10.387  0.00  0.00     0.029 H 
ATOM     38  H   LIG d   1       5.692  -1.290 -10.664  0.00  0.00     0.034 H 
ATOM     39  H   LIG d   1       3.929  -1.485 -10.491  0.00  0.00     0.034 H 
ENDROOT
BRANCH   1  40
ATOM     40  C   LIG d   1       2.821  -1.328  -3.485  0.00  0.00    -0.057 C 
ATOM     41  H   LIG d   1       3.341  -2.274  -3.637  0.00  0.00     0.024 H 
ATOM     42  H   LIG d   1       1.988  -1.256  -4.185  0.00  0.00     0.024 H 
ATOM     43  H   LIG d   1       2.442  -1.281  -2.464  0.00  0.00     0.024 H 
ENDBRANCH   1  40
BRANCH  12  44
ATOM     44  O   LIG d   1       4.389  -0.644  -1.400  0.00  0.00    -0.391 OA
ATOM     45  H   LIG d   1       4.818  -1.462  -1.687  0.00  0.00     0.210 HD
ENDBRANCH  12  44
BRANCH  17  46
ATOM     46  C   LIG d   1       2.522  -0.630  -8.186  0.00  0.00    -0.056 C 
ATOM     47  H   LIG d   1       2.657  -1.620  -7.752  0.00  0.00     0.024 H 
ATOM     48  H   LIG d   1       1.740  -0.099  -7.644  0.00  0.00     0.024 H 
ATOM     49  H   LIG d   1       2.237  -0.727  -9.234  0.00  0.00     0.024 H 
ENDBRANCH  17  46
BRANCH  20  50
ATOM     50  O   LIG d   1       4.332   0.358 -12.331  0.00  0.00    -0.392 OA
ATOM     51  H   LIG d   1       3.414   0.155 -12.556  0.00  0.00     0.210 HD
ENDBRANCH  20  50
TORSDOF 4
ENDMDL
MODEL 6
REMARK VINA RESULT:      -5.6      2.211      3.146
REMARK  4 active torsions:
REMARK  status: ('A' for Active; 'I' for Inactive)
REMARK    1  A    between atoms: C_1  and  C_2 
REMARK    2  A    between atoms: C_13  and  O_15 
REMARK    3  A    between atoms: C_19  and  C_26 
REMARK    4  A    between atoms: C_22  and  O_25 
ROOT
ATOM      1  C   LIG d   1       6.484  -1.597  -5.201  0.00  0.00    -0.003 C 
ATOM      2  C   LIG d   1       6.244  -2.912  -5.948  0.00  0.00    -0.045 C 
ATOM      3  C   LIG d   1       5.683  -2.641  -7.340  0.00  0.00    -0.049 C 
ATOM      4  C   LIG d   1       4.322  -1.950  -7.200  0.00  0.00    -0.029 C 
ATOM      5  H   LIG d   1       3.661  -2.570  -6.594  0.00  0.00     0.031 H 
ATOM      6  C   LIG d   1       4.525  -0.605  -6.507  0.00  0.00    -0.031 C 
ATOM      7  H   LIG d   1       5.148   0.028  -7.137  0.00  0.00     0.031 H 
ATOM      8  C   LIG d   1       5.200  -0.751  -5.175  0.00  0.00    -0.030 C 
ATOM      9  H   LIG d   1       5.434   0.240  -4.786  0.00  0.00     0.031 H 
ATOM     10  C   LIG d   1       4.310  -1.478  -4.151  0.00  0.00    -0.047 C 
ATOM     11  C   LIG d   1       5.306  -1.903  -3.047  0.00  0.00    -0.026 C 
ATOM     12  C   LIG d   1       6.704  -1.968  -3.709  0.00  0.00     0.061 C 
ATOM     13  H   LIG d   1       7.121  -2.971  -3.631  0.00  0.00     0.060 H 
ATOM     14  C   LIG d   1       3.132   0.045  -6.319  0.00  0.00    -0.031 C 
ATOM     15  C   LIG d   1       2.454   0.151  -7.653  0.00  0.00    -0.084 C 
ATOM     16  C   LIG d   1       2.710  -0.651  -8.643  0.00  0.00    -0.065 C 
ATOM     17  C   LIG d   1       3.712  -1.764  -8.581  0.00  0.00    -0.008 C 
ATOM     18  C   LIG d   1       3.040  -3.062  -9.037  0.00  0.00    -0.041 C 
ATOM     19  C   LIG d   1       2.437  -2.859 -10.427  0.00  0.00    -0.026 C 
ATOM     20  C   LIG d   1       1.334  -1.803 -10.347  0.00  0.00     0.059 C 
ATOM     21  H   LIG d   1       0.595  -2.104  -9.605  0.00  0.00     0.060 H 
ATOM     22  C   LIG d   1       1.945  -0.457  -9.943  0.00  0.00    -0.005 C 
ATOM     23  H   LIG d   1       7.186  -3.452  -6.038  0.00  0.00     0.027 H 
ATOM     24  H   LIG d   1       5.534  -3.520  -5.386  0.00  0.00     0.027 H 
ATOM     25  H   LIG d   1       6.367  -1.994  -7.889  0.00  0.00     0.027 H 
ATOM     26  H   LIG d   1       5.561  -3.583  -7.874  0.00  0.00     0.027 H 
ATOM     27  H   LIG d   1       3.557  -0.801  -3.748  0.00  0.00     0.027 H 
ATOM     28  H   LIG d   1       3.838  -2.351  -4.602  0.00  0.00     0.027 H 
ATOM     29  H   LIG d   1       5.302  -1.172  -2.239  0.00  0.00     0.029 H 
ATOM     30  H   LIG d   1       5.038  -2.887  -2.661  0.00  0.00     0.029 H 
ATOM     31  H   LIG d   1       3.254   1.040  -5.892  0.00  0.00     0.031 H 
ATOM     32  H   LIG d   1       2.525  -0.566  -5.650  0.00  0.00     0.031 H 
ATOM     33  H   LIG d   1       1.720   0.931  -7.797  0.00  0.00     0.057 H 
ATOM     34  H   LIG d   1       3.783  -3.859  -9.086  0.00  0.00     0.027 H 
ATOM     35  H   LIG d   1       2.260  -3.337  -8.327  0.00  0.00     0.027 H 
ATOM     36  H   LIG d   1       2.012  -3.800 -10.781  0.00  0.00     0.029 H 
ATOM     37  H   LIG d   1       3.208  -2.527 -11.123  0.00  0.00     0.029 H 
ATOM     38  H   LIG d   1       1.153   0.277  -9.796  0.00  0.00     0.034 H 
ATOM     39  H   LIG d   1       2.626  -0.113 -10.721  0.00  0.00     0.034 H 
ENDROOT
BRANCH   1  40
ATOM     40  C   LIG d   1       7.668  -0.821  -5.781  0.00  0.00    -0.057 C 
ATOM     41  H   LIG d   1       7.890  -1.191  -6.782  0.00  0.00     0.024 H 
ATOM     42  H   LIG d   1       8.541  -0.959  -5.142  0.00  0.00     0.024 H 
ATOM     43  H   LIG d   1       7.419   0.238  -5.831  0.00  0.00     0.024 H 
ENDBRANCH   1  40
BRANCH  12  44
ATOM     44  O   LIG d   1       7.580  -1.020  -3.093  0.00  0.00    -0.391 OA
ATOM     45  H   LIG d   1       8.160  -0.559  -3.715  0.00  0.00     0.210 HD
ENDBRANCH  12  44
BRANCH  17  46
ATOM     46  C   LIG d   1       4.842  -1.444  -9.562  0.00  0.00    -0.056 C 
ATOM     47  H   LIG d   1       5.492  -2.312  -9.663  0.00  0.00     0.024 H 
ATOM     48  H   LIG d   1       4.419  -1.192 -10.533  0.00  0.00     0.024 H 
ATOM     49  H   LIG d   1       5.420  -0.599  -9.187  0.00  0.00     0.024 H 
ENDBRANCH  17  46
BRANCH  20  50
ATOM     50  O   LIG d   1       0.703  -1.674 -11.622  0.00  0.00    -0.392 OA
ATOM     51  H   LIG d   1       1.287  -1.856 -12.371  0.00  0.00     0.210 HD
ENDBRANCH  20  50
TORSDOF 4
ENDMDL
MODEL 7
REMARK VINA RESULT:      -5.4      2.866      3.963
REMARK  4 active torsions:
REMARK  status: ('A' for Active; 'I' for Inactive)
REMARK    1  A    between atoms: C_1  and  C_2 
REMARK    2  A    between atoms: C_13  and  O_15 
REMARK    3  A    between atoms: C_19  and  C_26 
REMARK    4  A    between atoms: C_22  and  O_25 
ROOT
ATOM      1  C   LIG d   1       5.643  -0.808  -4.159  0.00  0.00    -0.003 C 
ATOM      2  C   LIG d   1       6.943  -1.135  -3.420  0.00  0.00    -0.045 C 
ATOM      3  C   LIG d   1       7.763  -2.151  -4.208  0.00  0.00    -0.049 C 
ATOM      4  C   LIG d   1       6.966  -3.457  -4.313  0.00  0.00    -0.029 C 
ATOM      5  H   LIG d   1       6.710  -3.807  -3.313  0.00  0.00     0.031 H 
ATOM      6  C   LIG d   1       5.684  -3.185  -5.094  0.00  0.00    -0.031 C 
ATOM      7  H   LIG d   1       5.942  -2.879  -6.107  0.00  0.00     0.031 H 
ATOM      8  C   LIG d   1       4.862  -2.095  -4.471  0.00  0.00    -0.030 C 
ATOM      9  H   LIG d   1       4.030  -1.856  -5.133  0.00  0.00     0.031 H 
ATOM     10  C   LIG d   1       4.291  -2.510  -3.102  0.00  0.00    -0.047 C 
ATOM     11  C   LIG d   1       3.878  -1.165  -2.463  0.00  0.00    -0.026 C 
ATOM     12  C   LIG d   1       4.730  -0.067  -3.145  0.00  0.00     0.061 C 
ATOM     13  H   LIG d   1       5.338   0.461  -2.411  0.00  0.00     0.060 H 
ATOM     14  C   LIG d   1       4.866  -4.500  -5.132  0.00  0.00    -0.031 C 
ATOM     15  C   LIG d   1       5.711  -5.588  -5.724  0.00  0.00    -0.084 C 
ATOM     16  C   LIG d   1       7.010  -5.589  -5.663  0.00  0.00    -0.065 C 
ATOM     17  C   LIG d   1       7.817  -4.506  -5.012  0.00  0.00    -0.008 C 
ATOM     18  C   LIG d   1       8.788  -5.144  -4.015  0.00  0.00    -0.041 C 
ATOM     19  C   LIG d   1       9.638  -6.192  -4.735  0.00  0.00    -0.026 C 
ATOM     20  C   LIG d   1       8.730  -7.315  -5.238  0.00  0.00     0.059 C 
ATOM     21  H   LIG d   1       8.166  -7.729  -4.403  0.00  0.00     0.060 H 
ATOM     22  C   LIG d   1       7.760  -6.756  -6.283  0.00  0.00    -0.005 C 
ATOM     23  H   LIG d   1       7.525  -0.222  -3.294  0.00  0.00     0.027 H 
ATOM     24  H   LIG d   1       6.705  -1.547  -2.439  0.00  0.00     0.027 H 
ATOM     25  H   LIG d   1       7.964  -1.763  -5.207  0.00  0.00     0.027 H 
ATOM     26  H   LIG d   1       8.705  -2.339  -3.691  0.00  0.00     0.027 H 
ATOM     27  H   LIG d   1       3.423  -3.158  -3.229  0.00  0.00     0.027 H 
ATOM     28  H   LIG d   1       5.053  -3.006  -2.502  0.00  0.00     0.027 H 
ATOM     29  H   LIG d   1       2.817  -0.982  -2.631  0.00  0.00     0.029 H 
ATOM     30  H   LIG d   1       4.089  -1.180  -1.393  0.00  0.00     0.029 H 
ATOM     31  H   LIG d   1       3.978  -4.353  -5.747  0.00  0.00     0.031 H 
ATOM     32  H   LIG d   1       4.566  -4.780  -4.122  0.00  0.00     0.031 H 
ATOM     33  H   LIG d   1       5.219  -6.409  -6.224  0.00  0.00     0.057 H 
ATOM     34  H   LIG d   1       9.445  -4.376  -3.604  0.00  0.00     0.027 H 
ATOM     35  H   LIG d   1       8.225  -5.610  -3.206  0.00  0.00     0.027 H 
ATOM     36  H   LIG d   1      10.373  -6.604  -4.041  0.00  0.00     0.029 H 
ATOM     37  H   LIG d   1      10.155  -5.737  -5.580  0.00  0.00     0.029 H 
ATOM     38  H   LIG d   1       7.052  -7.531  -6.579  0.00  0.00     0.034 H 
ATOM     39  H   LIG d   1       8.316  -6.414  -7.156  0.00  0.00     0.034 H 
ENDROOT
BRANCH   1  40
ATOM     40  C   LIG d   1       5.897   0.025  -5.417  0.00  0.00    -0.057 C 
ATOM     41  H   LIG d   1       6.071   1.064  -5.136  0.00  0.00     0.024 H 
ATOM     42  H   LIG d   1       5.029  -0.033  -6.074  0.00  0.00     0.024 H 
ATOM     43  H   LIG d   1       6.773  -0.361  -5.938  0.00  0.00     0.024 H 
ENDBRANCH   1  40
BRANCH  12  44
ATOM     44  O   LIG d   1       3.879   0.854  -3.832  0.00  0.00    -0.391 OA
ATOM     45  H   LIG d   1       4.289   1.712  -4.007  0.00  0.00     0.210 HD
ENDBRANCH  12  44
BRANCH  17  46
ATOM     46  C   LIG d   1       8.641  -3.807  -6.096  0.00  0.00    -0.056 C 
ATOM     47  H   LIG d   1       9.371  -4.505  -6.505  0.00  0.00     0.024 H 
ATOM     48  H   LIG d   1       7.979  -3.466  -6.891  0.00  0.00     0.024 H 
ATOM     49  H   LIG d   1       9.159  -2.951  -5.663  0.00  0.00     0.024 H 
ENDBRANCH  17  46
BRANCH  20  50
ATOM     50  O   LIG d   1       9.527  -8.343  -5.830  0.00  0.00    -0.392 OA
ATOM     51  H   LIG d   1       9.594  -8.284  -6.793  0.00  0.00     0.210 HD
ENDBRANCH  20  50
TORSDOF 4
ENDMDL
MODEL 8
REMARK VINA RESULT:      -5.3      4.817      6.760
REMARK  4 active torsions:
REMARK  status: ('A' for Active; 'I' for Inactive)
REMARK    1  A    between atoms: C_1  and  C_2 
REMARK    2  A    between atoms: C_13  and  O_15 
REMARK    3  A    between atoms: C_19  and  C_26 
REMARK    4  A    between atoms: C_22  and  O_25 
ROOT
ATOM      1  C   LIG d   1       3.524  -0.218  -9.041  0.00  0.00    -0.003 C 
ATOM      2  C   LIG d   1       1.994  -0.222  -9.071  0.00  0.00    -0.045 C 
ATOM      3  C   LIG d   1       1.481  -1.291 -10.032  0.00  0.00    -0.049 C 
ATOM      4  C   LIG d   1       1.956  -0.951 -11.450  0.00  0.00    -0.029 C 
ATOM      5  H   LIG d   1       1.618   0.051 -11.715  0.00  0.00     0.031 H 
ATOM      6  C   LIG d   1       3.482  -0.990 -11.477  0.00  0.00    -0.031 C 
ATOM      7  H   LIG d   1       3.815  -2.004 -11.255  0.00  0.00     0.031 H 
ATOM      8  C   LIG d   1       4.090  -0.066 -10.463  0.00  0.00    -0.030 C 
ATOM      9  H   LIG d   1       5.167  -0.228 -10.437  0.00  0.00     0.031 H 
ATOM     10  C   LIG d   1       3.828   1.414 -10.798  0.00  0.00    -0.047 C 
ATOM     11  C   LIG d   1       4.130   2.142  -9.468  0.00  0.00    -0.026 C 
ATOM     12  C   LIG d   1       3.951   1.099  -8.338  0.00  0.00     0.061 C 
ATOM     13  H   LIG d   1       3.179   1.417  -7.639  0.00  0.00     0.060 H 
ATOM     14  C   LIG d   1       3.940  -0.582 -12.898  0.00  0.00    -0.031 C 
ATOM     15  C   LIG d   1       3.297  -1.491 -13.903  0.00  0.00    -0.084 C 
ATOM     16  C   LIG d   1       2.162  -2.089 -13.692  0.00  0.00    -0.065 C 
ATOM     17  C   LIG d   1       1.368  -1.957 -12.428  0.00  0.00    -0.008 C 
ATOM     18  C   LIG d   1      -0.069  -1.565 -12.782  0.00  0.00    -0.041 C 
ATOM     19  C   LIG d   1      -0.645  -2.589 -13.762  0.00  0.00    -0.026 C 
ATOM     20  C   LIG d   1       0.154  -2.542 -15.065  0.00  0.00     0.059 C 
ATOM     21  H   LIG d   1       0.146  -1.527 -15.461  0.00  0.00     0.060 H 
ATOM     22  C   LIG d   1       1.598  -2.974 -14.793  0.00  0.00    -0.005 C 
ATOM     23  H   LIG d   1       1.614  -0.427  -8.070  0.00  0.00     0.027 H 
ATOM     24  H   LIG d   1       1.637   0.756  -9.397  0.00  0.00     0.027 H 
ATOM     25  H   LIG d   1       1.873  -2.264  -9.738  0.00  0.00     0.027 H 
ATOM     26  H   LIG d   1       0.391  -1.311 -10.007  0.00  0.00     0.027 H 
ATOM     27  H   LIG d   1       4.502   1.755 -11.584  0.00  0.00     0.027 H 
ATOM     28  H   LIG d   1       2.789   1.564 -11.093  0.00  0.00     0.027 H 
ATOM     29  H   LIG d   1       5.150   2.524  -9.475  0.00  0.00     0.029 H 
ATOM     30  H   LIG d   1       3.426   2.962  -9.323  0.00  0.00     0.029 H 
ATOM     31  H   LIG d   1       5.024  -0.673 -12.966  0.00  0.00     0.031 H 
ATOM     32  H   LIG d   1       3.648   0.449 -13.101  0.00  0.00     0.031 H 
ATOM     33  H   LIG d   1       3.800  -1.657 -14.845  0.00  0.00     0.057 H 
ATOM     34  H   LIG d   1      -0.678  -1.558 -11.879  0.00  0.00     0.027 H 
ATOM     35  H   LIG d   1      -0.074  -0.572 -13.233  0.00  0.00     0.027 H 
ATOM     36  H   LIG d   1      -1.688  -2.347 -13.969  0.00  0.00     0.029 H 
ATOM     37  H   LIG d   1      -0.584  -3.589 -13.335  0.00  0.00     0.029 H 
ATOM     38  H   LIG d   1       2.194  -2.856 -15.699  0.00  0.00     0.034 H 
ATOM     39  H   LIG d   1       1.617  -4.015 -14.473  0.00  0.00     0.034 H 
ENDROOT
BRANCH   1  40
ATOM     40  C   LIG d   1       4.083  -1.454  -8.333  0.00  0.00    -0.057 C 
ATOM     41  H   LIG d   1       4.719  -1.142  -7.505  0.00  0.00     0.024 H 
ATOM     42  H   LIG d   1       4.670  -2.043  -9.039  0.00  0.00     0.024 H 
ATOM     43  H   LIG d   1       3.260  -2.058  -7.952  0.00  0.00     0.024 H 
ENDBRANCH   1  40
BRANCH  12  44
ATOM     44  O   LIG d   1       5.190   0.908  -7.650  0.00  0.00    -0.391 OA
ATOM     45  H   LIG d   1       5.260   1.405  -6.823  0.00  0.00     0.210 HD
ENDBRANCH  12  44
BRANCH  17  46
ATOM     46  C   LIG d   1       1.332  -3.324 -11.741  0.00  0.00    -0.056 C 
ATOM     47  H   LIG d   1       1.371  -3.189 -10.661  0.00  0.00     0.024 H 
ATOM     48  H   LIG d   1       0.412  -3.841 -12.010  0.00  0.00     0.024 H 
ATOM     49  H   LIG d   1       2.190  -3.915 -12.064  0.00  0.00     0.024 H 
ENDBRANCH  17  46
BRANCH  20  50
ATOM     50  O   LIG d   1      -0.436  -3.429 -16.018  0.00  0.00    -0.392 OA
ATOM     51  H   LIG d   1      -0.166  -4.351 -15.917  0.00  0.00     0.210 HD
ENDBRANCH  20  50
TORSDOF 4
ENDMDL
MODEL 9
REMARK VINA RESULT:      -5.3      2.133      2.564
REMARK  4 active torsions:
REMARK  status: ('A' for Active; 'I' for Inactive)
REMARK    1  A    between atoms: C_1  and  C_2 
REMARK    2  A    between atoms: C_13  and  O_15 
REMARK    3  A    between atoms: C_19  and  C_26 
REMARK    4  A    between atoms: C_22  and  O_25 
ROOT
ATOM      1  C   LIG d   1       5.036  -0.121  -3.021  0.00  0.00    -0.003 C 
ATOM      2  C   LIG d   1       5.708  -1.362  -2.427  0.00  0.00    -0.045 C 
ATOM      3  C   LIG d   1       6.766  -1.905  -3.382  0.00  0.00    -0.049 C 
ATOM      4  C   LIG d   1       6.082  -2.344  -4.683  0.00  0.00    -0.029 C 
ATOM      5  H   LIG d   1       5.306  -3.074  -4.456  0.00  0.00     0.031 H 
ATOM      6  C   LIG d   1       5.445  -1.121  -5.337  0.00  0.00    -0.031 C 
ATOM      7  H   LIG d   1       6.229  -0.412  -5.603  0.00  0.00     0.031 H 
ATOM      8  C   LIG d   1       4.479  -0.428  -4.421  0.00  0.00    -0.030 C 
ATOM      9  H   LIG d   1       4.154   0.502  -4.887  0.00  0.00     0.031 H 
ATOM     10  C   LIG d   1       3.235  -1.289  -4.133  0.00  0.00    -0.047 C 
ATOM     11  C   LIG d   1       2.617  -0.619  -2.884  0.00  0.00    -0.026 C 
ATOM     12  C   LIG d   1       3.762   0.143  -2.174  0.00  0.00     0.061 C 
ATOM     13  H   LIG d   1       3.903  -0.230  -1.161  0.00  0.00     0.060 H 
ATOM     14  C   LIG d   1       4.707  -1.597  -6.612  0.00  0.00    -0.031 C 
ATOM     15  C   LIG d   1       5.677  -2.319  -7.501  0.00  0.00    -0.084 C 
ATOM     16  C   LIG d   1       6.733  -2.928  -7.050  0.00  0.00    -0.065 C 
ATOM     17  C   LIG d   1       7.117  -2.976  -5.602  0.00  0.00    -0.008 C 
ATOM     18  C   LIG d   1       7.355  -4.433  -5.199  0.00  0.00    -0.041 C 
ATOM     19  C   LIG d   1       8.399  -5.052  -6.129  0.00  0.00    -0.026 C 
ATOM     20  C   LIG d   1       7.848  -5.078  -7.556  0.00  0.00     0.059 C 
ATOM     21  H   LIG d   1       6.900  -5.613  -7.570  0.00  0.00     0.060 H 
ATOM     22  C   LIG d   1       7.633  -3.642  -8.045  0.00  0.00    -0.005 C 
ATOM     23  H   LIG d   1       6.178  -1.099  -1.480  0.00  0.00     0.027 H 
ATOM     24  H   LIG d   1       4.953  -2.130  -2.252  0.00  0.00     0.027 H 
ATOM     25  H   LIG d   1       7.497  -1.126  -3.598  0.00  0.00     0.027 H 
ATOM     26  H   LIG d   1       7.265  -2.760  -2.926  0.00  0.00     0.027 H 
ATOM     27  H   LIG d   1       2.540  -1.252  -4.972  0.00  0.00     0.027 H 
ATOM     28  H   LIG d   1       3.521  -2.318  -3.918  0.00  0.00     0.027 H 
ATOM     29  H   LIG d   1       1.829   0.072  -3.183  0.00  0.00     0.029 H 
ATOM     30  H   LIG d   1       2.213  -1.379  -2.214  0.00  0.00     0.029 H 
ATOM     31  H   LIG d   1       4.305  -0.732  -7.139  0.00  0.00     0.031 H 
ATOM     32  H   LIG d   1       3.893  -2.270  -6.341  0.00  0.00     0.031 H 
ATOM     33  H   LIG d   1       5.489  -2.332  -8.565  0.00  0.00     0.057 H 
ATOM     34  H   LIG d   1       7.725  -4.473  -4.175  0.00  0.00     0.027 H 
ATOM     35  H   LIG d   1       6.418  -4.987  -5.268  0.00  0.00     0.027 H 
ATOM     36  H   LIG d   1       8.616  -6.071  -5.807  0.00  0.00     0.029 H 
ATOM     37  H   LIG d   1       9.316  -4.462  -6.105  0.00  0.00     0.029 H 
ATOM     38  H   LIG d   1       7.157  -3.655  -9.026  0.00  0.00     0.034 H 
ATOM     39  H   LIG d   1       8.591  -3.127  -8.109  0.00  0.00     0.034 H 
ENDROOT
BRANCH   1  40
ATOM     40  C   LIG d   1       5.978   1.085  -3.033  0.00  0.00    -0.057 C 
ATOM     41  H   LIG d   1       5.993   1.525  -4.030  0.00  0.00     0.024 H 
ATOM     42  H   LIG d   1       6.984   0.764  -2.763  0.00  0.00     0.024 H 
ATOM     43  H   LIG d   1       5.629   1.826  -2.314  0.00  0.00     0.024 H 
ENDBRANCH   1  40
BRANCH  12  44
ATOM     44  O   LIG d   1       3.473   1.543  -2.147  0.00  0.00    -0.391 OA
ATOM     45  H   LIG d   1       2.790   1.790  -1.507  0.00  0.00     0.210 HD
ENDBRANCH  12  44
BRANCH  17  46
ATOM     46  C   LIG d   1       8.434  -2.215  -5.432  0.00  0.00    -0.056 C 
ATOM     47  H   LIG d   1       8.808  -2.358  -4.419  0.00  0.00     0.024 H 
ATOM     48  H   LIG d   1       9.165  -2.591  -6.146  0.00  0.00     0.024 H 
ATOM     49  H   LIG d   1       8.265  -1.152  -5.610  0.00  0.00     0.024 H 
ENDBRANCH  17  46
BRANCH  20  50
ATOM     50  O   LIG d   1       8.780  -5.738  -8.415  0.00  0.00    -0.392 OA
ATOM     51  H   LIG d   1       8.481  -5.821  -9.331  0.00  0.00     0.210 HD
ENDBRANCH  20  50
TORSDOF 4
ENDMDL
MODEL 10
REMARK VINA RESULT:      -5.3      7.731     10.460
REMARK  4 active torsions:
REMARK  status: ('A' for Active; 'I' for Inactive)
REMARK    1  A    between atoms: C_1  and  C_2 
REMARK    2  A    between atoms: C_13  and  O_15 
REMARK    3  A    between atoms: C_19  and  C_26 
REMARK    4  A    between atoms: C_22  and  O_25 
ROOT
ATOM      1  C   LIG d   1       5.836 -10.454  -4.609  0.00  0.00    -0.003 C 
ATOM      2  C   LIG d   1       6.225  -8.978  -4.723  0.00  0.00    -0.045 C 
ATOM      3  C   LIG d   1       7.668  -8.770  -4.273  0.00  0.00    -0.049 C 
ATOM      4  C   LIG d   1       7.785  -9.151  -2.792  0.00  0.00    -0.029 C 
ATOM      5  H   LIG d   1       7.074  -8.566  -2.210  0.00  0.00     0.031 H 
ATOM      6  C   LIG d   1       7.457 -10.635  -2.643  0.00  0.00    -0.031 C 
ATOM      7  H   LIG d   1       8.197 -11.219  -3.189  0.00  0.00     0.031 H 
ATOM      8  C   LIG d   1       6.100 -10.972  -3.185  0.00  0.00    -0.030 C 
ATOM      9  H   LIG d   1       5.971 -12.054  -3.170  0.00  0.00     0.031 H 
ATOM     10  C   LIG d   1       4.969 -10.335  -2.355  0.00  0.00    -0.047 C 
ATOM     11  C   LIG d   1       3.742 -10.426  -3.291  0.00  0.00    -0.026 C 
ATOM     12  C   LIG d   1       4.290 -10.516  -4.737  0.00  0.00     0.061 C 
ATOM     13  H   LIG d   1       3.930  -9.682  -5.337  0.00  0.00     0.060 H 
ATOM     14  C   LIG d   1       7.519 -10.982  -1.134  0.00  0.00    -0.031 C 
ATOM     15  C   LIG d   1       8.868 -10.607  -0.598  0.00  0.00    -0.084 C 
ATOM     16  C   LIG d   1       9.600  -9.666  -1.116  0.00  0.00    -0.065 C 
ATOM     17  C   LIG d   1       9.197  -8.855  -2.311  0.00  0.00    -0.008 C 
ATOM     18  C   LIG d   1       9.333  -7.369  -1.970  0.00  0.00    -0.041 C 
ATOM     19  C   LIG d   1      10.759  -7.087  -1.492  0.00  0.00    -0.026 C 
ATOM     20  C   LIG d   1      11.015  -7.857  -0.196  0.00  0.00     0.059 C 
ATOM     21  H   LIG d   1      10.260  -7.588   0.543  0.00  0.00     0.060 H 
ATOM     22  C   LIG d   1      10.944  -9.362  -0.474  0.00  0.00    -0.005 C 
ATOM     23  H   LIG d   1       6.122  -8.657  -5.759  0.00  0.00     0.027 H 
ATOM     24  H   LIG d   1       5.563  -8.381  -4.094  0.00  0.00     0.027 H 
ATOM     25  H   LIG d   1       8.330  -9.400  -4.867  0.00  0.00     0.027 H 
ATOM     26  H   LIG d   1       7.944  -7.723  -4.403  0.00  0.00     0.027 H 
ATOM     27  H   LIG d   1       4.798 -10.904  -1.441  0.00  0.00     0.027 H 
ATOM     28  H   LIG d   1       5.202  -9.296  -2.122  0.00  0.00     0.027 H 
ATOM     29  H   LIG d   1       3.154 -11.312  -3.051  0.00  0.00     0.029 H 
ATOM     30  H   LIG d   1       3.128  -9.531  -3.188  0.00  0.00     0.029 H 
ATOM     31  H   LIG d   1       7.360 -12.053  -1.006  0.00  0.00     0.031 H 
ATOM     32  H   LIG d   1       6.747 -10.433  -0.595  0.00  0.00     0.031 H 
ATOM     33  H   LIG d   1       9.250 -11.144   0.259  0.00  0.00     0.057 H 
ATOM     34  H   LIG d   1       9.134  -6.771  -2.859  0.00  0.00     0.027 H 
ATOM     35  H   LIG d   1       8.619  -7.107  -1.189  0.00  0.00     0.027 H 
ATOM     36  H   LIG d   1      10.876  -6.019  -1.307  0.00  0.00     0.029 H 
ATOM     37  H   LIG d   1      11.476  -7.404  -2.250  0.00  0.00     0.029 H 
ATOM     38  H   LIG d   1      11.036  -9.914   0.462  0.00  0.00     0.034 H 
ATOM     39  H   LIG d   1      11.748  -9.650  -1.151  0.00  0.00     0.034 H 
ENDROOT
BRANCH   1  40
ATOM     40  C   LIG d   1       6.534 -11.310  -5.667  0.00  0.00    -0.057 C 
ATOM     41  H   LIG d   1       6.687 -12.317  -5.277  0.00  0.00     0.024 H 
ATOM     42  H   LIG d   1       7.499 -10.867  -5.916  0.00  0.00     0.024 H 
ATOM     43  H   LIG d   1       5.915 -11.359  -6.563  0.00  0.00     0.024 H 
ENDBRANCH   1  40
BRANCH  12  44
ATOM     44  O   LIG d   1       3.896 -11.756  -5.330  0.00  0.00    -0.391 OA
ATOM     45  H   LIG d   1       3.449 -11.659  -6.182  0.00  0.00     0.210 HD
ENDBRANCH  12  44
BRANCH  17  46
ATOM     46  C   LIG d   1      10.167  -9.171  -3.452  0.00  0.00    -0.056 C 
ATOM     47  H   LIG d   1       9.873 -10.106  -3.929  0.00  0.00     0.024 H 
ATOM     48  H   LIG d   1      10.140  -8.366  -4.185  0.00  0.00     0.024 H 
ATOM     49  H   LIG d   1      11.177  -9.268  -3.054  0.00  0.00     0.024 H 
ENDBRANCH  17  46
BRANCH  20  50
ATOM     50  O   LIG d   1      12.312  -7.527   0.306  0.00  0.00    -0.392 OA
ATOM     51  H   LIG d   1      12.304  -7.136   1.191  0.00  0.00     0.210 HD
ENDBRANCH  20  50
TORSDOF 4
ENDMDL
