MODEL 1
REMARK VINA RESULT:      -6.2      0.000      0.000
REMARK  8 active torsions:
REMARK  status: ('A' for Active; 'I' for Inactive)
REMARK    1  A    between atoms: C_1  and  C_2 
REMARK    2  A    between atoms: C_5  and  C_30 
REMARK    3  A    between atoms: C_8  and  C_10 
REMARK    4  A    between atoms: N_11  and  N_12 
REMARK    5  A    between atoms: C_30  and  C_31 
REMARK    6  A    between atoms: C_31  and  C_32 
REMARK    7  A    between atoms: C_33  and  C_34 
REMARK    8  A    between atoms: C_33  and  C_35 
ROOT
ATOM      1  C   LIG d   1       7.442   0.705  -3.525  0.00  0.00    -0.032 C 
ATOM      2  H   LIG d   1       7.963   0.984  -2.609  0.00  0.00     0.031 H 
ATOM      3  C   LIG d   1       7.400  -0.820  -3.648  0.00  0.00    -0.029 C 
ATOM      4  C   LIG d   1       6.928  -1.215  -5.016  0.00  0.00    -0.073 C 
ATOM      5  C   LIG d   1       6.909  -0.417  -6.036  0.00  0.00    -0.084 C 
ATOM      6  C   LIG d   1       7.348   1.017  -5.990  0.00  0.00    -0.026 C 
ATOM      7  C   LIG d   1       8.191   1.269  -4.738  0.00  0.00     0.002 C 
ATOM      8  H   LIG d   1       9.155   0.769  -4.839  0.00  0.00     0.036 H 
ATOM      9  H   LIG d   1       8.399  -1.224  -3.480  0.00  0.00     0.031 H 
ATOM     10  H   LIG d   1       6.716  -1.224  -2.902  0.00  0.00     0.031 H 
ATOM     11  H   LIG d   1       6.556  -0.809  -6.978  0.00  0.00     0.057 H 
ATOM     12  H   LIG d   1       6.470   1.663  -5.969  0.00  0.00     0.031 H 
ATOM     13  H   LIG d   1       7.940   1.243  -6.876  0.00  0.00     0.031 H 
ENDROOT
BRANCH   7  14
ATOM     14  C   LIG d   1       8.406   2.750  -4.557  0.00  0.00     0.030 C 
ATOM     15  N   LIG d   1       9.586   3.241  -4.642  0.00  0.00    -0.172 NA
ATOM     16  H   LIG d   1       7.566   3.396  -4.355  0.00  0.00     0.080 H 
BRANCH  15  17
ATOM     17  N   LIG d   1       9.774   4.627  -4.576  0.00  0.00    -0.143 N 
ATOM     18  C   LIG d   1       9.779   5.349  -5.710  0.00  0.00     0.351 A 
ATOM     19  N   LIG d   1       9.956   6.684  -5.690  0.00  0.00    -0.304 N 
ATOM     20  O   LIG d   1       9.620   4.785  -6.775  0.00  0.00    -0.244 OA
ATOM     21  C   LIG d   1      10.138   7.343  -4.488  0.00  0.00     0.081 A 
ATOM     22  H   LIG d   1       9.956   7.185  -6.522  0.00  0.00     0.171 HD
ATOM     23  C   LIG d   1      10.136   6.620  -3.309  0.00  0.00     0.131 A 
ATOM     24  C   LIG d   1      10.351   8.743  -4.125  0.00  0.00     0.025 A 
ATOM     25  C   LIG d   1       9.940   5.217  -3.376  0.00  0.00     0.301 A 
ATOM     26  N   LIG d   1      10.335   7.492  -2.251  0.00  0.00    -0.349 N 
ATOM     27  O   LIG d   1       9.928   4.549  -2.356  0.00  0.00    -0.263 OA
ATOM     28  C   LIG d   1      10.467   8.779  -2.722  0.00  0.00     0.049 A 
ATOM     29  H   LIG d   1      10.374   7.234  -1.317  0.00  0.00     0.166 HD
ATOM     30  C   LIG d   1      10.677  10.000  -2.087  0.00  0.00    -0.037 A 
ATOM     31  C   LIG d   1      10.770  11.154  -2.832  0.00  0.00    -0.046 A 
ATOM     32  H   LIG d   1      10.768  10.042  -1.011  0.00  0.00     0.064 H 
ATOM     33  C   LIG d   1      10.656  11.114  -4.216  0.00  0.00     0.019 A 
ATOM     34  H   LIG d   1      10.934  12.099  -2.336  0.00  0.00     0.063 H 
ATOM     35  C   LIG d   1      10.449   9.929  -4.861  0.00  0.00    -0.037 A 
ATOM     36 BR   LIG d   1      10.788  12.715  -5.215  0.00  0.00    -0.050 Br
ATOM     37  H   LIG d   1      10.361   9.905  -5.937  0.00  0.00     0.064 H 
ENDBRANCH  15  17
ENDBRANCH   7  14
BRANCH   1  38
ATOM     38  C   LIG d   1       6.015   1.258  -3.499  0.00  0.00    -0.061 C 
ATOM     39  H   LIG d   1       5.602   1.243  -4.507  0.00  0.00     0.023 H 
ATOM     40  H   LIG d   1       5.399   0.642  -2.844  0.00  0.00     0.023 H 
ATOM     41  H   LIG d   1       6.030   2.282  -3.127  0.00  0.00     0.023 H 
ENDBRANCH   1  38
BRANCH   4  42
ATOM     42  C   LIG d   1       6.445  -2.629  -5.216  0.00  0.00    -0.028 C 
ATOM     43  H   LIG d   1       5.962  -2.714  -6.189  0.00  0.00     0.031 H 
ATOM     44  H   LIG d   1       7.293  -3.312  -5.169  0.00  0.00     0.031 H 
BRANCH  42  45
ATOM     45  C   LIG d   1       5.442  -2.985  -4.116  0.00  0.00    -0.031 C 
ATOM     46  H   LIG d   1       5.178  -4.040  -4.192  0.00  0.00     0.031 H 
ATOM     47  H   LIG d   1       5.888  -2.791  -3.141  0.00  0.00     0.031 H 
BRANCH  45  48
ATOM     48  C   LIG d   1       4.201  -2.144  -4.277  0.00  0.00    -0.085 C 
ATOM     49  C   LIG d   1       3.697  -1.517  -3.243  0.00  0.00    -0.080 C 
ATOM     50  H   LIG d   1       3.728  -2.059  -5.243  0.00  0.00     0.057 H 
BRANCH  49  51
ATOM     51  C   LIG d   1       4.322  -1.683  -1.882  0.00  0.00    -0.044 C 
ATOM     52  H   LIG d   1       5.272  -1.148  -1.852  0.00  0.00     0.027 H 
ATOM     53  H   LIG d   1       3.653  -1.278  -1.123  0.00  0.00     0.027 H 
ATOM     54  H   LIG d   1       4.495  -2.741  -1.688  0.00  0.00     0.027 H 
ENDBRANCH  49  51
BRANCH  49  55
ATOM     55  C   LIG d   1       2.490  -0.631  -3.414  0.00  0.00    -0.044 C 
ATOM     56  H   LIG d   1       1.664  -1.021  -2.820  0.00  0.00     0.027 H 
ATOM     57  H   LIG d   1       2.731   0.379  -3.082  0.00  0.00     0.027 H 
ATOM     58  H   LIG d   1       2.202  -0.608  -4.466  0.00  0.00     0.027 H 
ENDBRANCH  49  55
ENDBRANCH  45  48
ENDBRANCH  42  45
ENDBRANCH   4  42
TORSDOF 8
ENDMDL
MODEL 2
REMARK VINA RESULT:      -6.2      0.810      2.029
REMARK  8 active torsions:
REMARK  status: ('A' for Active; 'I' for Inactive)
REMARK    1  A    between atoms: C_1  and  C_2 
REMARK    2  A    between atoms: C_5  and  C_30 
REMARK    3  A    between atoms: C_8  and  C_10 
REMARK    4  A    between atoms: N_11  and  N_12 
REMARK    5  A    between atoms: C_30  and  C_31 
REMARK    6  A    between atoms: C_31  and  C_32 
REMARK    7  A    between atoms: C_33  and  C_34 
REMARK    8  A    between atoms: C_33  and  C_35 
ROOT
ATOM      1  C   LIG d   1       7.467   0.813  -3.444  0.00  0.00    -0.032 C 
ATOM      2  H   LIG d   1       7.965   1.107  -2.520  0.00  0.00     0.031 H 
ATOM      3  C   LIG d   1       7.469  -0.712  -3.566  0.00  0.00    -0.029 C 
ATOM      4  C   LIG d   1       7.031  -1.121  -4.941  0.00  0.00    -0.073 C 
ATOM      5  C   LIG d   1       7.006  -0.325  -5.962  0.00  0.00    -0.084 C 
ATOM      6  C   LIG d   1       7.404   1.121  -5.910  0.00  0.00    -0.026 C 
ATOM      7  C   LIG d   1       8.220   1.398  -4.645  0.00  0.00     0.002 C 
ATOM      8  H   LIG d   1       9.199   0.925  -4.730  0.00  0.00     0.036 H 
ATOM      9  H   LIG d   1       8.476  -1.087  -3.381  0.00  0.00     0.031 H 
ATOM     10  H   LIG d   1       6.786  -1.134  -2.830  0.00  0.00     0.031 H 
ATOM     11  H   LIG d   1       6.679  -0.727  -6.909  0.00  0.00     0.057 H 
ATOM     12  H   LIG d   1       6.509   1.742  -5.905  0.00  0.00     0.031 H 
ATOM     13  H   LIG d   1       8.004   1.363  -6.787  0.00  0.00     0.031 H 
ENDROOT
BRANCH   7  14
ATOM     14  C   LIG d   1       8.390   2.884  -4.462  0.00  0.00     0.030 C 
ATOM     15  N   LIG d   1       9.540   3.422  -4.628  0.00  0.00    -0.172 NA
ATOM     16  H   LIG d   1       7.543   3.495  -4.192  0.00  0.00     0.080 H 
BRANCH  15  17
ATOM     17  N   LIG d   1       9.679   4.814  -4.559  0.00  0.00    -0.143 N 
ATOM     18  C   LIG d   1       9.861   5.401  -3.363  0.00  0.00     0.351 A 
ATOM     19  N   LIG d   1       9.999   6.736  -3.252  0.00  0.00    -0.304 N 
ATOM     20  O   LIG d   1       9.903   4.712  -2.362  0.00  0.00    -0.244 OA
ATOM     21  C   LIG d   1       9.955   7.536  -4.380  0.00  0.00     0.081 A 
ATOM     22  H   LIG d   1      10.130   7.138  -2.378  0.00  0.00     0.171 HD
ATOM     23  C   LIG d   1       9.769   6.952  -5.620  0.00  0.00     0.131 A 
ATOM     24  C   LIG d   1      10.068   8.976  -4.603  0.00  0.00     0.025 A 
ATOM     25  C   LIG d   1       9.634   5.542  -5.691  0.00  0.00     0.301 A 
ATOM     26  N   LIG d   1       9.761   7.947  -6.583  0.00  0.00    -0.349 N 
ATOM     27  O   LIG d   1       9.473   4.994  -6.768  0.00  0.00    -0.263 OA
ATOM     28  C   LIG d   1       9.940   9.176  -5.991  0.00  0.00     0.049 A 
ATOM     29  H   LIG d   1       9.646   7.799  -7.535  0.00  0.00     0.166 HD
ATOM     30  C   LIG d   1      10.009  10.470  -6.501  0.00  0.00    -0.037 A 
ATOM     31  C   LIG d   1      10.200  11.535  -5.649  0.00  0.00    -0.046 A 
ATOM     32  H   LIG d   1       9.912  10.639  -7.564  0.00  0.00     0.064 H 
ATOM     33  C   LIG d   1      10.326  11.333  -4.281  0.00  0.00     0.019 A 
ATOM     34  H   LIG d   1      10.252  12.537  -6.049  0.00  0.00     0.063 H 
ATOM     35  C   LIG d   1      10.261  10.073  -3.757  0.00  0.00    -0.037 A 
ATOM     36 BR   LIG d   1      10.587  12.813  -3.133  0.00  0.00    -0.050 Br
ATOM     37  H   LIG d   1      10.360   9.923  -2.692  0.00  0.00     0.064 H 
ENDBRANCH  15  17
ENDBRANCH   7  14
BRANCH   1  38
ATOM     38  C   LIG d   1       6.025   1.327  -3.442  0.00  0.00    -0.061 C 
ATOM     39  H   LIG d   1       5.629   1.299  -4.456  0.00  0.00     0.023 H 
ATOM     40  H   LIG d   1       5.416   0.694  -2.796  0.00  0.00     0.023 H 
ATOM     41  H   LIG d   1       6.005   2.351  -3.071  0.00  0.00     0.023 H 
ENDBRANCH   1  38
BRANCH   4  42
ATOM     42  C   LIG d   1       6.591  -2.548  -5.147  0.00  0.00    -0.028 C 
ATOM     43  H   LIG d   1       6.147  -2.652  -6.137  0.00  0.00     0.031 H 
ATOM     44  H   LIG d   1       7.453  -3.209  -5.064  0.00  0.00     0.031 H 
BRANCH  42  45
ATOM     45  C   LIG d   1       5.557  -2.921  -4.082  0.00  0.00    -0.031 C 
ATOM     46  H   LIG d   1       5.317  -3.981  -4.164  0.00  0.00     0.031 H 
ATOM     47  H   LIG d   1       5.965  -2.717  -3.092  0.00  0.00     0.031 H 
BRANCH  45  48
ATOM     48  C   LIG d   1       4.307  -2.105  -4.288  0.00  0.00    -0.085 C 
ATOM     49  C   LIG d   1       3.754  -1.487  -3.273  0.00  0.00    -0.080 C 
ATOM     50  H   LIG d   1       3.866  -2.030  -5.270  0.00  0.00     0.057 H 
BRANCH  49  51
ATOM     51  C   LIG d   1       4.334  -1.640  -1.890  0.00  0.00    -0.044 C 
ATOM     52  H   LIG d   1       5.271  -1.087  -1.827  0.00  0.00     0.027 H 
ATOM     53  H   LIG d   1       3.631  -1.248  -1.156  0.00  0.00     0.027 H 
ATOM     54  H   LIG d   1       4.520  -2.694  -1.689  0.00  0.00     0.027 H 
ENDBRANCH  49  51
BRANCH  49  55
ATOM     55  C   LIG d   1       2.537  -0.625  -3.488  0.00  0.00    -0.044 C 
ATOM     56  H   LIG d   1       1.699  -1.031  -2.923  0.00  0.00     0.027 H 
ATOM     57  H   LIG d   1       2.746   0.389  -3.149  0.00  0.00     0.027 H 
ATOM     58  H   LIG d   1       2.287  -0.609  -4.549  0.00  0.00     0.027 H 
ENDBRANCH  49  55
ENDBRANCH  45  48
ENDBRANCH  42  45
ENDBRANCH   4  42
TORSDOF 8
ENDMDL
MODEL 3
REMARK VINA RESULT:      -6.1      3.630      4.795
REMARK  8 active torsions:
REMARK  status: ('A' for Active; 'I' for Inactive)
REMARK    1  A    between atoms: C_1  and  C_2 
REMARK    2  A    between atoms: C_5  and  C_30 
REMARK    3  A    between atoms: C_8  and  C_10 
REMARK    4  A    between atoms: N_11  and  N_12 
REMARK    5  A    between atoms: C_30  and  C_31 
REMARK    6  A    between atoms: C_31  and  C_32 
REMARK    7  A    between atoms: C_33  and  C_34 
REMARK    8  A    between atoms: C_33  and  C_35 
ROOT
ATOM      1  C   LIG d   1       7.908  -0.709  -4.609  0.00  0.00    -0.032 C 
ATOM      2  H   LIG d   1       8.982  -0.760  -4.434  0.00  0.00     0.031 H 
ATOM      3  C   LIG d   1       7.239  -1.977  -4.075  0.00  0.00    -0.029 C 
ATOM      4  C   LIG d   1       5.814  -2.045  -4.539  0.00  0.00    -0.073 C 
ATOM      5  C   LIG d   1       5.336  -1.346  -5.518  0.00  0.00    -0.084 C 
ATOM      6  C   LIG d   1       6.138  -0.363  -6.320  0.00  0.00    -0.026 C 
ATOM      7  C   LIG d   1       7.634  -0.612  -6.114  0.00  0.00     0.002 C 
ATOM      8  H   LIG d   1       7.920  -1.545  -6.600  0.00  0.00     0.036 H 
ATOM      9  H   LIG d   1       7.780  -2.851  -4.440  0.00  0.00     0.031 H 
ATOM     10  H   LIG d   1       7.262  -1.967  -2.986  0.00  0.00     0.031 H 
ATOM     11  H   LIG d   1       4.295  -1.479  -5.774  0.00  0.00     0.057 H 
ATOM     12  H   LIG d   1       5.894   0.650  -6.000  0.00  0.00     0.031 H 
ATOM     13  H   LIG d   1       5.895  -0.474  -7.376  0.00  0.00     0.031 H 
ENDROOT
BRANCH   7  14
ATOM     14  C   LIG d   1       8.427   0.527  -6.701  0.00  0.00     0.030 C 
ATOM     15  N   LIG d   1       7.850   1.641  -6.962  0.00  0.00    -0.172 NA
ATOM     16  H   LIG d   1       9.480   0.405  -6.902  0.00  0.00     0.080 H 
BRANCH  15  17
ATOM     17  N   LIG d   1       8.604   2.732  -7.412  0.00  0.00    -0.143 N 
ATOM     18  C   LIG d   1       9.323   3.448  -6.529  0.00  0.00     0.351 A 
ATOM     19  N   LIG d   1      10.062   4.503  -6.920  0.00  0.00    -0.304 N 
ATOM     20  O   LIG d   1       9.306   3.134  -5.355  0.00  0.00    -0.244 OA
ATOM     21  C   LIG d   1      10.094   4.874  -8.252  0.00  0.00     0.081 A 
ATOM     22  H   LIG d   1      10.574   5.005  -6.265  0.00  0.00     0.171 HD
ATOM     23  C   LIG d   1       9.363   4.152  -9.177  0.00  0.00     0.131 A 
ATOM     24  C   LIG d   1      10.774   5.939  -8.989  0.00  0.00     0.025 A 
ATOM     25  C   LIG d   1       8.603   3.044  -8.723  0.00  0.00     0.301 A 
ATOM     26  N   LIG d   1       9.554   4.710 -10.430  0.00  0.00    -0.349 N 
ATOM     27  O   LIG d   1       7.950   2.382  -9.511  0.00  0.00    -0.263 OA
ATOM     28  C   LIG d   1      10.403   5.790 -10.339  0.00  0.00     0.049 A 
ATOM     29  H   LIG d   1       9.150   4.387 -11.251  0.00  0.00     0.166 HD
ATOM     30  C   LIG d   1      10.908   6.677 -11.286  0.00  0.00    -0.037 A 
ATOM     31  C   LIG d   1      11.759   7.686 -10.896  0.00  0.00    -0.046 A 
ATOM     32  H   LIG d   1      10.631   6.575 -12.325  0.00  0.00     0.064 H 
ATOM     33  C   LIG d   1      12.123   7.830  -9.562  0.00  0.00     0.019 A 
ATOM     34  H   LIG d   1      12.148   8.373 -11.633  0.00  0.00     0.063 H 
ATOM     35  C   LIG d   1      11.641   6.972  -8.616  0.00  0.00    -0.037 A 
ATOM     36 BR   LIG d   1      13.294   9.226  -9.054  0.00  0.00    -0.050 Br
ATOM     37  H   LIG d   1      11.928   7.089  -7.581  0.00  0.00     0.064 H 
ENDBRANCH  15  17
ENDBRANCH   7  14
BRANCH   1  38
ATOM     38  C   LIG d   1       7.325   0.516  -3.901  0.00  0.00    -0.061 C 
ATOM     39  H   LIG d   1       6.879   0.211  -2.955  0.00  0.00     0.023 H 
ATOM     40  H   LIG d   1       8.119   1.239  -3.712  0.00  0.00     0.023 H 
ATOM     41  H   LIG d   1       6.562   0.972  -4.532  0.00  0.00     0.023 H 
ENDBRANCH   1  38
BRANCH   4  42
ATOM     42  C   LIG d   1       4.881  -2.985  -3.820  0.00  0.00    -0.028 C 
ATOM     43  H   LIG d   1       4.439  -3.677  -4.536  0.00  0.00     0.031 H 
ATOM     44  H   LIG d   1       5.438  -3.545  -3.069  0.00  0.00     0.031 H 
BRANCH  42  45
ATOM     45  C   LIG d   1       3.773  -2.180  -3.137  0.00  0.00    -0.031 C 
ATOM     46  H   LIG d   1       3.167  -1.681  -3.893  0.00  0.00     0.031 H 
ATOM     47  H   LIG d   1       3.144  -2.851  -2.553  0.00  0.00     0.031 H 
BRANCH  45  48
ATOM     48  C   LIG d   1       4.389  -1.149  -2.227  0.00  0.00    -0.085 C 
ATOM     49  C   LIG d   1       4.054   0.112  -2.344  0.00  0.00    -0.080 C 
ATOM     50  H   LIG d   1       5.108  -1.449  -1.479  0.00  0.00     0.057 H 
BRANCH  49  51
ATOM     51  C   LIG d   1       3.096   0.540  -3.426  0.00  0.00    -0.044 C 
ATOM     52  H   LIG d   1       2.266   1.087  -2.979  0.00  0.00     0.027 H 
ATOM     53  H   LIG d   1       3.616   1.184  -4.136  0.00  0.00     0.027 H 
ATOM     54  H   LIG d   1       2.716  -0.340  -3.943  0.00  0.00     0.027 H 
ENDBRANCH  49  51
BRANCH  49  55
ATOM     55  C   LIG d   1       4.626   1.135  -1.396  0.00  0.00    -0.044 C 
ATOM     56  H   LIG d   1       5.529   0.737  -0.933  0.00  0.00     0.027 H 
ATOM     57  H   LIG d   1       4.871   2.043  -1.946  0.00  0.00     0.027 H 
ATOM     58  H   LIG d   1       3.892   1.364  -0.623  0.00  0.00     0.027 H 
ENDBRANCH  49  55
ENDBRANCH  45  48
ENDBRANCH  42  45
ENDBRANCH   4  42
TORSDOF 8
ENDMDL
MODEL 4
REMARK VINA RESULT:      -6.1      8.811     12.861
REMARK  8 active torsions:
REMARK  status: ('A' for Active; 'I' for Inactive)
REMARK    1  A    between atoms: C_1  and  C_2 
REMARK    2  A    between atoms: C_5  and  C_30 
REMARK    3  A    between atoms: C_8  and  C_10 
REMARK    4  A    between atoms: N_11  and  N_12 
REMARK    5  A    between atoms: C_30  and  C_31 
REMARK    6  A    between atoms: C_31  and  C_32 
REMARK    7  A    between atoms: C_33  and  C_34 
REMARK    8  A    between atoms: C_33  and  C_35 
ROOT
ATOM      1  C   LIG d   1       5.155  -0.786  -6.991  0.00  0.00    -0.032 C 
ATOM      2  H   LIG d   1       5.489  -0.079  -7.750  0.00  0.00     0.031 H 
ATOM      3  C   LIG d   1       6.159  -0.814  -5.837  0.00  0.00    -0.029 C 
ATOM      4  C   LIG d   1       5.859  -1.960  -4.918  0.00  0.00    -0.073 C 
ATOM      5  C   LIG d   1       5.112  -2.969  -5.236  0.00  0.00    -0.084 C 
ATOM      6  C   LIG d   1       4.433  -3.126  -6.565  0.00  0.00    -0.026 C 
ATOM      7  C   LIG d   1       5.071  -2.192  -7.596  0.00  0.00     0.002 C 
ATOM      8  H   LIG d   1       6.072  -2.546  -7.841  0.00  0.00     0.036 H 
ATOM      9  H   LIG d   1       7.167  -0.926  -6.239  0.00  0.00     0.031 H 
ATOM     10  H   LIG d   1       6.095   0.121  -5.279  0.00  0.00     0.031 H 
ATOM     11  H   LIG d   1       4.969  -3.744  -4.498  0.00  0.00     0.057 H 
ATOM     12  H   LIG d   1       3.376  -2.882  -6.462  0.00  0.00     0.031 H 
ATOM     13  H   LIG d   1       4.532  -4.158  -6.902  0.00  0.00     0.031 H 
ENDROOT
BRANCH   7  14
ATOM     14  C   LIG d   1       4.227  -2.157  -8.844  0.00  0.00     0.030 C 
ATOM     15  N   LIG d   1       3.112  -2.787  -8.881  0.00  0.00    -0.172 NA
ATOM     16  H   LIG d   1       4.561  -1.601  -9.706  0.00  0.00     0.080 H 
BRANCH  15  17
ATOM     17  N   LIG d   1       2.280  -2.673 -10.002  0.00  0.00    -0.143 N 
ATOM     18  C   LIG d   1       1.525  -1.571 -10.155  0.00  0.00     0.351 A 
ATOM     19  N   LIG d   1       0.712  -1.421 -11.218  0.00  0.00    -0.304 N 
ATOM     20  O   LIG d   1       1.579  -0.692  -9.317  0.00  0.00    -0.244 OA
ATOM     21  C   LIG d   1       0.639  -2.411 -12.182  0.00  0.00     0.081 A 
ATOM     22  H   LIG d   1       0.176  -0.617 -11.309  0.00  0.00     0.171 HD
ATOM     23  C   LIG d   1       1.407  -3.553 -12.044  0.00  0.00     0.131 A 
ATOM     24  C   LIG d   1      -0.120  -2.559 -13.423  0.00  0.00     0.025 A 
ATOM     25  C   LIG d   1       2.253  -3.666 -10.912  0.00  0.00     0.301 A 
ATOM     26  N   LIG d   1       1.163  -4.386 -13.122  0.00  0.00    -0.349 N 
ATOM     27  O   LIG d   1       2.948  -4.656 -10.761  0.00  0.00    -0.263 OA
ATOM     28  C   LIG d   1       0.244  -3.805 -13.967  0.00  0.00     0.049 A 
ATOM     29  H   LIG d   1       1.578  -5.251 -13.262  0.00  0.00     0.166 HD
ATOM     30  C   LIG d   1      -0.330  -4.218 -15.167  0.00  0.00    -0.037 A 
ATOM     31  C   LIG d   1      -1.242  -3.409 -15.805  0.00  0.00    -0.046 A 
ATOM     32  H   LIG d   1      -0.060  -5.172 -15.596  0.00  0.00     0.064 H 
ATOM     33  C   LIG d   1      -1.599  -2.180 -15.265  0.00  0.00     0.019 A 
ATOM     34  H   LIG d   1      -1.686  -3.733 -16.736  0.00  0.00     0.063 H 
ATOM     35  C   LIG d   1      -1.050  -1.754 -14.089  0.00  0.00    -0.037 A 
ATOM     36 BR   LIG d   1      -2.856  -1.089 -16.163  0.00  0.00    -0.050 Br
ATOM     37  H   LIG d   1      -1.332  -0.797 -13.675  0.00  0.00     0.064 H 
ENDBRANCH  15  17
ENDBRANCH   7  14
BRANCH   1  38
ATOM     38  C   LIG d   1       3.779  -0.370  -6.464  0.00  0.00    -0.061 C 
ATOM     39  H   LIG d   1       3.085  -0.275  -7.299  0.00  0.00     0.023 H 
ATOM     40  H   LIG d   1       3.413  -1.125  -5.770  0.00  0.00     0.023 H 
ATOM     41  H   LIG d   1       3.862   0.587  -5.949  0.00  0.00     0.023 H 
ENDBRANCH   1  38
BRANCH   4  42
ATOM     42  C   LIG d   1       6.466  -1.938  -3.539  0.00  0.00    -0.028 C 
ATOM     43  H   LIG d   1       6.990  -2.875  -3.356  0.00  0.00     0.031 H 
ATOM     44  H   LIG d   1       7.169  -1.108  -3.465  0.00  0.00     0.031 H 
BRANCH  42  45
ATOM     45  C   LIG d   1       5.358  -1.761  -2.498  0.00  0.00    -0.031 C 
ATOM     46  H   LIG d   1       4.476  -2.320  -2.807  0.00  0.00     0.031 H 
ATOM     47  H   LIG d   1       5.704  -2.132  -1.533  0.00  0.00     0.031 H 
BRANCH  45  48
ATOM     48  C   LIG d   1       5.011  -0.299  -2.378  0.00  0.00    -0.085 C 
ATOM     49  C   LIG d   1       3.780   0.100  -2.584  0.00  0.00    -0.080 C 
ATOM     50  H   LIG d   1       5.775   0.419  -2.123  0.00  0.00     0.057 H 
BRANCH  49  51
ATOM     51  C   LIG d   1       2.725  -0.893  -2.998  0.00  0.00    -0.044 C 
ATOM     52  H   LIG d   1       2.715  -0.981  -4.084  0.00  0.00     0.027 H 
ATOM     53  H   LIG d   1       2.948  -1.865  -2.557  0.00  0.00     0.027 H 
ATOM     54  H   LIG d   1       1.750  -0.552  -2.652  0.00  0.00     0.027 H 
ENDBRANCH  49  51
BRANCH  49  55
ATOM     55  C   LIG d   1       3.419   1.553  -2.408  0.00  0.00    -0.044 C 
ATOM     56  H   LIG d   1       3.750   1.893  -1.427  0.00  0.00     0.027 H 
ATOM     57  H   LIG d   1       3.908   2.145  -3.181  0.00  0.00     0.027 H 
ATOM     58  H   LIG d   1       2.338   1.671  -2.488  0.00  0.00     0.027 H 
ENDBRANCH  49  55
ENDBRANCH  45  48
ENDBRANCH  42  45
ENDBRANCH   4  42
TORSDOF 8
ENDMDL
MODEL 5
REMARK VINA RESULT:      -6.0      9.270     12.024
REMARK  8 active torsions:
REMARK  status: ('A' for Active; 'I' for Inactive)
REMARK    1  A    between atoms: C_1  and  C_2 
REMARK    2  A    between atoms: C_5  and  C_30 
REMARK    3  A    between atoms: C_8  and  C_10 
REMARK    4  A    between atoms: N_11  and  N_12 
REMARK    5  A    between atoms: C_30  and  C_31 
REMARK    6  A    between atoms: C_31  and  C_32 
REMARK    7  A    between atoms: C_33  and  C_34 
REMARK    8  A    between atoms: C_33  and  C_35 
ROOT
ATOM      1  C   LIG d   1       6.728  -9.020  -5.750  0.00  0.00    -0.032 C 
ATOM      2  H   LIG d   1       7.252  -8.933  -6.701  0.00  0.00     0.031 H 
ATOM      3  C   LIG d   1       6.863 -10.448  -5.216  0.00  0.00    -0.029 C 
ATOM      4  C   LIG d   1       5.937 -10.655  -4.055  0.00  0.00    -0.073 C 
ATOM      5  C   LIG d   1       4.934  -9.884  -3.780  0.00  0.00    -0.084 C 
ATOM      6  C   LIG d   1       4.564  -8.669  -4.578  0.00  0.00    -0.026 C 
ATOM      7  C   LIG d   1       5.239  -8.715  -5.951  0.00  0.00     0.002 C 
ATOM      8  H   LIG d   1       4.783  -9.499  -6.557  0.00  0.00     0.036 H 
ATOM      9  H   LIG d   1       6.613 -11.154  -6.009  0.00  0.00     0.031 H 
ATOM     10  H   LIG d   1       7.890 -10.617  -4.892  0.00  0.00     0.031 H 
ATOM     11  H   LIG d   1       4.326 -10.131  -2.922  0.00  0.00     0.057 H 
ATOM     12  H   LIG d   1       4.888  -7.775  -4.047  0.00  0.00     0.031 H 
ATOM     13  H   LIG d   1       3.482  -8.638  -4.708  0.00  0.00     0.031 H 
ENDROOT
BRANCH   7  14
ATOM     14  C   LIG d   1       5.083  -7.385  -6.642  0.00  0.00     0.030 C 
ATOM     15  N   LIG d   1       4.062  -6.652  -6.396  0.00  0.00    -0.172 NA
ATOM     16  H   LIG d   1       5.831  -7.051  -7.344  0.00  0.00     0.080 H 
BRANCH  15  17
ATOM     17  N   LIG d   1       3.966  -5.373  -6.959  0.00  0.00    -0.143 N 
ATOM     18  C   LIG d   1       4.333  -4.303  -6.234  0.00  0.00     0.351 A 
ATOM     19  N   LIG d   1       4.257  -3.056  -6.737  0.00  0.00    -0.304 N 
ATOM     20  O   LIG d   1       4.743  -4.463  -5.101  0.00  0.00    -0.244 OA
ATOM     21  C   LIG d   1       3.793  -2.853  -8.025  0.00  0.00     0.081 A 
ATOM     22  H   LIG d   1       4.528  -2.297  -6.196  0.00  0.00     0.171 HD
ATOM     23  C   LIG d   1       3.410  -3.941  -8.788  0.00  0.00     0.131 A 
ATOM     24  C   LIG d   1       3.591  -1.664  -8.851  0.00  0.00     0.025 A 
ATOM     25  C   LIG d   1       3.512  -5.236  -8.220  0.00  0.00     0.301 A 
ATOM     26  N   LIG d   1       2.987  -3.489 -10.027  0.00  0.00    -0.349 N 
ATOM     27  O   LIG d   1       3.188  -6.218  -8.866  0.00  0.00    -0.263 OA
ATOM     28  C   LIG d   1       3.088  -2.117 -10.086  0.00  0.00     0.049 A 
ATOM     29  H   LIG d   1       2.667  -4.055 -10.747  0.00  0.00     0.166 HD
ATOM     30  C   LIG d   1       2.799  -1.190 -11.084  0.00  0.00    -0.037 A 
ATOM     31  C   LIG d   1       3.005   0.151 -10.856  0.00  0.00    -0.046 A 
ATOM     32  H   LIG d   1       2.412  -1.524 -12.036  0.00  0.00     0.064 H 
ATOM     33  C   LIG d   1       3.501   0.594  -9.636  0.00  0.00     0.019 A 
ATOM     34  H   LIG d   1       2.778   0.867 -11.632  0.00  0.00     0.063 H 
ATOM     35  C   LIG d   1       3.792  -0.296  -8.642  0.00  0.00    -0.037 A 
ATOM     36 BR   LIG d   1       3.774   2.444  -9.348  0.00  0.00    -0.050 Br
ATOM     37  H   LIG d   1       4.178   0.055  -7.696  0.00  0.00     0.064 H 
ENDBRANCH  15  17
ENDBRANCH   7  14
BRANCH   1  38
ATOM     38  C   LIG d   1       7.322  -8.036  -4.739  0.00  0.00    -0.061 C 
ATOM     39  H   LIG d   1       6.549  -7.342  -4.410  0.00  0.00     0.023 H 
ATOM     40  H   LIG d   1       7.707  -8.585  -3.880  0.00  0.00     0.023 H 
ATOM     41  H   LIG d   1       8.133  -7.480  -5.208  0.00  0.00     0.023 H 
ENDBRANCH   1  38
BRANCH   4  42
ATOM     42  C   LIG d   1       6.190 -11.835  -3.151  0.00  0.00    -0.028 C 
ATOM     43  H   LIG d   1       5.460 -12.617  -3.362  0.00  0.00     0.031 H 
ATOM     44  H   LIG d   1       7.195 -12.218  -3.328  0.00  0.00     0.031 H 
BRANCH  42  45
ATOM     45  C   LIG d   1       6.061 -11.396  -1.691  0.00  0.00    -0.031 C 
ATOM     46  H   LIG d   1       5.910 -10.318  -1.648  0.00  0.00     0.031 H 
ATOM     47  H   LIG d   1       5.211 -11.901  -1.233  0.00  0.00     0.031 H 
BRANCH  45  48
ATOM     48  C   LIG d   1       7.321 -11.757  -0.946  0.00  0.00    -0.085 C 
ATOM     49  C   LIG d   1       8.245 -10.850  -0.745  0.00  0.00    -0.080 C 
ATOM     50  H   LIG d   1       7.462 -12.762  -0.578  0.00  0.00     0.057 H 
BRANCH  49  51
ATOM     51  C   LIG d   1       8.075  -9.463  -1.309  0.00  0.00    -0.044 C 
ATOM     52  H   LIG d   1       8.723  -9.343  -2.177  0.00  0.00     0.027 H 
ATOM     53  H   LIG d   1       7.037  -9.316  -1.606  0.00  0.00     0.027 H 
ATOM     54  H   LIG d   1       8.344  -8.727  -0.551  0.00  0.00     0.027 H 
ENDBRANCH  49  51
BRANCH  49  55
ATOM     55  C   LIG d   1       9.478 -11.194   0.050  0.00  0.00    -0.044 C 
ATOM     56  H   LIG d   1      10.026 -11.989  -0.456  0.00  0.00     0.027 H 
ATOM     57  H   LIG d   1      10.113 -10.314   0.136  0.00  0.00     0.027 H 
ATOM     58  H   LIG d   1       9.186 -11.531   1.046  0.00  0.00     0.027 H 
ENDBRANCH  49  55
ENDBRANCH  45  48
ENDBRANCH  42  45
ENDBRANCH   4  42
TORSDOF 8
ENDMDL
MODEL 6
REMARK VINA RESULT:      -6.0      3.574      5.869
REMARK  8 active torsions:
REMARK  status: ('A' for Active; 'I' for Inactive)
REMARK    1  A    between atoms: C_1  and  C_2 
REMARK    2  A    between atoms: C_5  and  C_30 
REMARK    3  A    between atoms: C_8  and  C_10 
REMARK    4  A    between atoms: N_11  and  N_12 
REMARK    5  A    between atoms: C_30  and  C_31 
REMARK    6  A    between atoms: C_31  and  C_32 
REMARK    7  A    between atoms: C_33  and  C_34 
REMARK    8  A    between atoms: C_33  and  C_35 
ROOT
ATOM      1  C   LIG d   1       9.753   5.350  -3.973  0.00  0.00    -0.032 C 
ATOM      2  H   LIG d   1       9.141   6.205  -4.258  0.00  0.00     0.031 H 
ATOM      3  C   LIG d   1       9.103   4.061  -4.479  0.00  0.00    -0.029 C 
ATOM      4  C   LIG d   1       9.782   2.868  -3.876  0.00  0.00    -0.073 C 
ATOM      5  C   LIG d   1      10.543   2.918  -2.829  0.00  0.00    -0.084 C 
ATOM      6  C   LIG d   1      10.859   4.178  -2.080  0.00  0.00    -0.026 C 
ATOM      7  C   LIG d   1       9.856   5.275  -2.445  0.00  0.00     0.002 C 
ATOM      8  H   LIG d   1       8.879   5.032  -2.023  0.00  0.00     0.036 H 
ATOM      9  H   LIG d   1       8.048   4.055  -4.202  0.00  0.00     0.031 H 
ATOM     10  H   LIG d   1       9.191   4.014  -5.565  0.00  0.00     0.031 H 
ATOM     11  H   LIG d   1      10.976   1.995  -2.474  0.00  0.00     0.057 H 
ATOM     12  H   LIG d   1      11.865   4.510  -2.338  0.00  0.00     0.031 H 
ATOM     13  H   LIG d   1      10.809   3.985  -1.008  0.00  0.00     0.031 H 
ENDROOT
BRANCH   7  14
ATOM     14  C   LIG d   1      10.326   6.599  -1.902  0.00  0.00     0.030 C 
ATOM     15  N   LIG d   1       9.931   6.996  -0.750  0.00  0.00    -0.172 NA
ATOM     16  H   LIG d   1      10.995   7.214  -2.484  0.00  0.00     0.080 H 
BRANCH  15  17
ATOM     17  N   LIG d   1      10.447   8.177  -0.201  0.00  0.00    -0.143 N 
ATOM     18  C   LIG d   1      11.533   8.119   0.589  0.00  0.00     0.351 A 
ATOM     19  N   LIG d   1      12.060   9.231   1.137  0.00  0.00    -0.304 N 
ATOM     20  O   LIG d   1      12.049   7.042   0.814  0.00  0.00    -0.244 OA
ATOM     21  C   LIG d   1      11.486  10.466   0.892  0.00  0.00     0.081 A 
ATOM     22  H   LIG d   1      12.845   9.167   1.704  0.00  0.00     0.171 HD
ATOM     23  C   LIG d   1      10.368  10.548   0.081  0.00  0.00     0.131 A 
ATOM     24  C   LIG d   1      11.800  11.829   1.318  0.00  0.00     0.025 A 
ATOM     25  C   LIG d   1       9.850   9.352  -0.479  0.00  0.00     0.301 A 
ATOM     26  N   LIG d   1       9.982  11.874  -0.012  0.00  0.00    -0.349 N 
ATOM     27  O   LIG d   1       8.869   9.388  -1.201  0.00  0.00    -0.263 OA
ATOM     28  C   LIG d   1      10.833  12.665   0.727  0.00  0.00     0.049 A 
ATOM     29  H   LIG d   1       9.224  12.198  -0.523  0.00  0.00     0.166 HD
ATOM     30  C   LIG d   1      10.884  14.036   0.961  0.00  0.00    -0.037 A 
ATOM     31  C   LIG d   1      11.873  14.559   1.763  0.00  0.00    -0.046 A 
ATOM     32  H   LIG d   1      10.148  14.689   0.514  0.00  0.00     0.064 H 
ATOM     33  C   LIG d   1      12.825  13.731   2.344  0.00  0.00     0.019 A 
ATOM     34  H   LIG d   1      11.909  15.624   1.943  0.00  0.00     0.063 H 
ATOM     35  C   LIG d   1      12.795  12.383   2.130  0.00  0.00    -0.037 A 
ATOM     36 BR   LIG d   1      14.173  14.477   3.443  0.00  0.00    -0.050 Br
ATOM     37  H   LIG d   1      13.539  11.745   2.584  0.00  0.00     0.064 H 
ENDBRANCH  15  17
ENDBRANCH   7  14
BRANCH   1  38
ATOM     38  C   LIG d   1      11.153   5.491  -4.575  0.00  0.00    -0.061 C 
ATOM     39  H   LIG d   1      11.079   5.523  -5.662  0.00  0.00     0.023 H 
ATOM     40  H   LIG d   1      11.613   6.411  -4.214  0.00  0.00     0.023 H 
ATOM     41  H   LIG d   1      11.764   4.639  -4.277  0.00  0.00     0.023 H 
ENDBRANCH   1  38
BRANCH   4  42
ATOM     42  C   LIG d   1       9.566   1.526  -4.528  0.00  0.00    -0.028 C 
ATOM     43  H   LIG d   1      10.117   1.485  -5.467  0.00  0.00     0.031 H 
ATOM     44  H   LIG d   1       9.920   0.738  -3.863  0.00  0.00     0.031 H 
BRANCH  42  45
ATOM     45  C   LIG d   1       8.073   1.329  -4.804  0.00  0.00    -0.031 C 
ATOM     46  H   LIG d   1       7.501   2.083  -4.266  0.00  0.00     0.031 H 
ATOM     47  H   LIG d   1       7.886   1.425  -5.873  0.00  0.00     0.031 H 
BRANCH  45  48
ATOM     48  C   LIG d   1       7.655  -0.044  -4.342  0.00  0.00    -0.085 C 
ATOM     49  C   LIG d   1       6.628  -0.179  -3.540  0.00  0.00    -0.080 C 
ATOM     50  H   LIG d   1       8.201  -0.914  -4.672  0.00  0.00     0.057 H 
BRANCH  49  51
ATOM     51  C   LIG d   1       5.902   1.040  -3.032  0.00  0.00    -0.044 C 
ATOM     52  H   LIG d   1       5.119   0.732  -2.339  0.00  0.00     0.027 H 
ATOM     53  H   LIG d   1       6.607   1.693  -2.517  0.00  0.00     0.027 H 
ATOM     54  H   LIG d   1       5.457   1.573  -3.870  0.00  0.00     0.027 H 
ENDBRANCH  49  51
BRANCH  49  55
ATOM     55  C   LIG d   1       6.174  -1.555  -3.124  0.00  0.00    -0.044 C 
ATOM     56  H   LIG d   1       6.934  -2.013  -2.491  0.00  0.00     0.027 H 
ATOM     57  H   LIG d   1       5.240  -1.477  -2.569  0.00  0.00     0.027 H 
ATOM     58  H   LIG d   1       6.020  -2.170  -4.011  0.00  0.00     0.027 H 
ENDBRANCH  49  55
ENDBRANCH  45  48
ENDBRANCH  42  45
ENDBRANCH   4  42
TORSDOF 8
ENDMDL
MODEL 7
REMARK VINA RESULT:      -5.9      2.054      2.764
REMARK  8 active torsions:
REMARK  status: ('A' for Active; 'I' for Inactive)
REMARK    1  A    between atoms: C_1  and  C_2 
REMARK    2  A    between atoms: C_5  and  C_30 
REMARK    3  A    between atoms: C_8  and  C_10 
REMARK    4  A    between atoms: N_11  and  N_12 
REMARK    5  A    between atoms: C_30  and  C_31 
REMARK    6  A    between atoms: C_31  and  C_32 
REMARK    7  A    between atoms: C_33  and  C_34 
REMARK    8  A    between atoms: C_33  and  C_35 
ROOT
ATOM      1  C   LIG d   1       7.672   0.602  -3.639  0.00  0.00    -0.032 C 
ATOM      2  H   LIG d   1       8.058   0.352  -2.651  0.00  0.00     0.031 H 
ATOM      3  C   LIG d   1       7.459  -0.679  -4.448  0.00  0.00    -0.029 C 
ATOM      4  C   LIG d   1       7.184  -0.345  -5.884  0.00  0.00    -0.073 C 
ATOM      5  C   LIG d   1       7.442   0.803  -6.424  0.00  0.00    -0.084 C 
ATOM      6  C   LIG d   1       8.044   1.963  -5.686  0.00  0.00    -0.026 C 
ATOM      7  C   LIG d   1       8.684   1.483  -4.382  0.00  0.00     0.002 C 
ATOM      8  H   LIG d   1       9.580   0.903  -4.606  0.00  0.00     0.036 H 
ATOM      9  H   LIG d   1       8.355  -1.298  -4.386  0.00  0.00     0.031 H 
ATOM     10  H   LIG d   1       6.612  -1.229  -4.038  0.00  0.00     0.031 H 
ATOM     11  H   LIG d   1       7.210   0.934  -7.471  0.00  0.00     0.057 H 
ATOM     12  H   LIG d   1       7.265   2.690  -5.459  0.00  0.00     0.031 H 
ATOM     13  H   LIG d   1       8.804   2.434  -6.310  0.00  0.00     0.031 H 
ENDROOT
BRANCH   7  14
ATOM     14  C   LIG d   1       9.049   2.668  -3.525  0.00  0.00     0.030 C 
ATOM     15  N   LIG d   1       9.793   3.596  -4.000  0.00  0.00    -0.172 NA
ATOM     16  H   LIG d   1       8.684   2.735  -2.512  0.00  0.00     0.080 H 
BRANCH  15  17
ATOM     17  N   LIG d   1      10.049   4.745  -3.242  0.00  0.00    -0.143 N 
ATOM     18  C   LIG d   1      10.780   4.645  -2.118  0.00  0.00     0.351 A 
ATOM     19  N   LIG d   1      11.050   5.725  -1.360  0.00  0.00    -0.304 N 
ATOM     20  O   LIG d   1      11.207   3.558  -1.779  0.00  0.00    -0.244 OA
ATOM     21  C   LIG d   1      10.574   6.971  -1.729  0.00  0.00     0.081 A 
ATOM     22  H   LIG d   1      11.580   5.630  -0.552  0.00  0.00     0.171 HD
ATOM     23  C   LIG d   1       9.820   7.095  -2.882  0.00  0.00     0.131 A 
ATOM     24  C   LIG d   1      10.681   8.307  -1.148  0.00  0.00     0.025 A 
ATOM     25  C   LIG d   1       9.565   5.933  -3.653  0.00  0.00     0.301 A 
ATOM     26  N   LIG d   1       9.462   8.424  -3.038  0.00  0.00    -0.349 N 
ATOM     27  O   LIG d   1       8.908   6.007  -4.677  0.00  0.00    -0.263 OA
ATOM     28  C   LIG d   1       9.972   9.173  -2.002  0.00  0.00     0.049 A 
ATOM     29  H   LIG d   1       8.931   8.775  -3.770  0.00  0.00     0.166 HD
ATOM     30  C   LIG d   1       9.904  10.529  -1.693  0.00  0.00    -0.037 A 
ATOM     31  C   LIG d   1      10.527  11.008  -0.563  0.00  0.00    -0.046 A 
ATOM     32  H   LIG d   1       9.363  11.205  -2.340  0.00  0.00     0.064 H 
ATOM     33  C   LIG d   1      11.226  10.150   0.277  0.00  0.00     0.019 A 
ATOM     34  H   LIG d   1      10.471  12.061  -0.327  0.00  0.00     0.063 H 
ATOM     35  C   LIG d   1      11.306   8.817  -0.004  0.00  0.00    -0.037 A 
ATOM     36 BR   LIG d   1      12.071  10.835   1.825  0.00  0.00    -0.050 Br
ATOM     37  H   LIG d   1      11.852   8.156   0.654  0.00  0.00     0.064 H 
ENDBRANCH  15  17
ENDBRANCH   7  14
BRANCH   1  38
ATOM     38  C   LIG d   1       6.343   1.350  -3.503  0.00  0.00    -0.061 C 
ATOM     39  H   LIG d   1       6.456   2.161  -2.784  0.00  0.00     0.023 H 
ATOM     40  H   LIG d   1       6.056   1.759  -4.471  0.00  0.00     0.023 H 
ATOM     41  H   LIG d   1       5.573   0.661  -3.157  0.00  0.00     0.023 H 
ENDBRANCH   1  38
BRANCH   4  42
ATOM     42  C   LIG d   1       6.568  -1.412  -6.753  0.00  0.00    -0.028 C 
ATOM     43  H   LIG d   1       6.320  -0.990  -7.726  0.00  0.00     0.031 H 
ATOM     44  H   LIG d   1       7.278  -2.229  -6.881  0.00  0.00     0.031 H 
BRANCH  42  45
ATOM     45  C   LIG d   1       5.296  -1.941  -6.086  0.00  0.00    -0.031 C 
ATOM     46  H   LIG d   1       4.907  -2.781  -6.660  0.00  0.00     0.031 H 
ATOM     47  H   LIG d   1       5.527  -2.269  -5.072  0.00  0.00     0.031 H 
BRANCH  45  48
ATOM     48  C   LIG d   1       4.263  -0.845  -6.036  0.00  0.00    -0.085 C 
ATOM     49  C   LIG d   1       3.602  -0.618  -4.927  0.00  0.00    -0.080 C 
ATOM     50  H   LIG d   1       4.066  -0.248  -6.913  0.00  0.00     0.057 H 
BRANCH  49  51
ATOM     51  C   LIG d   1       3.834  -1.489  -3.720  0.00  0.00    -0.044 C 
ATOM     52  H   LIG d   1       3.022  -2.212  -3.633  0.00  0.00     0.027 H 
ATOM     53  H   LIG d   1       4.781  -2.018  -3.830  0.00  0.00     0.027 H 
ATOM     54  H   LIG d   1       3.865  -0.869  -2.825  0.00  0.00     0.027 H 
ENDBRANCH  49  51
BRANCH  49  55
ATOM     55  C   LIG d   1       2.611   0.515  -4.860  0.00  0.00    -0.044 C 
ATOM     56  H   LIG d   1       2.215   0.712  -5.856  0.00  0.00     0.027 H 
ATOM     57  H   LIG d   1       1.794   0.244  -4.192  0.00  0.00     0.027 H 
ATOM     58  H   LIG d   1       3.106   1.410  -4.483  0.00  0.00     0.027 H 
ENDBRANCH  49  55
ENDBRANCH  45  48
ENDBRANCH  42  45
ENDBRANCH   4  42
TORSDOF 8
ENDMDL
MODEL 8
REMARK VINA RESULT:      -5.9      6.051     10.872
REMARK  8 active torsions:
REMARK  status: ('A' for Active; 'I' for Inactive)
REMARK    1  A    between atoms: C_1  and  C_2 
REMARK    2  A    between atoms: C_5  and  C_30 
REMARK    3  A    between atoms: C_8  and  C_10 
REMARK    4  A    between atoms: N_11  and  N_12 
REMARK    5  A    between atoms: C_30  and  C_31 
REMARK    6  A    between atoms: C_31  and  C_32 
REMARK    7  A    between atoms: C_33  and  C_34 
REMARK    8  A    between atoms: C_33  and  C_35 
ROOT
ATOM      1  C   LIG d   1       9.681   0.899  -5.609  0.00  0.00    -0.032 C 
ATOM      2  H   LIG d   1      10.069   0.025  -6.131  0.00  0.00     0.031 H 
ATOM      3  C   LIG d   1      10.718   1.398  -4.601  0.00  0.00    -0.029 C 
ATOM      4  C   LIG d   1      10.106   2.426  -3.696  0.00  0.00    -0.073 C 
ATOM      5  C   LIG d   1       8.831   2.597  -3.550  0.00  0.00    -0.084 C 
ATOM      6  C   LIG d   1       7.787   1.798  -4.273  0.00  0.00    -0.026 C 
ATOM      7  C   LIG d   1       8.406   0.521  -4.847  0.00  0.00     0.002 C 
ATOM      8  H   LIG d   1       8.653  -0.163  -4.035  0.00  0.00     0.036 H 
ATOM      9  H   LIG d   1      11.075   0.558  -4.005  0.00  0.00     0.031 H 
ATOM     10  H   LIG d   1      11.557   1.844  -5.136  0.00  0.00     0.031 H 
ATOM     11  H   LIG d   1       8.498   3.363  -2.865  0.00  0.00     0.057 H 
ATOM     12  H   LIG d   1       7.373   2.395  -5.086  0.00  0.00     0.031 H 
ATOM     13  H   LIG d   1       6.989   1.533  -3.580  0.00  0.00     0.031 H 
ENDROOT
BRANCH   7  14
ATOM     14  C   LIG d   1       7.431  -0.141  -5.787  0.00  0.00     0.030 C 
ATOM     15  N   LIG d   1       6.193   0.186  -5.760  0.00  0.00    -0.172 NA
ATOM     16  H   LIG d   1       7.776  -0.890  -6.483  0.00  0.00     0.080 H 
BRANCH  15  17
ATOM     17  N   LIG d   1       5.305  -0.353  -6.700  0.00  0.00    -0.143 N 
ATOM     18  C   LIG d   1       4.655  -1.495  -6.415  0.00  0.00     0.351 A 
ATOM     19  N   LIG d   1       3.793  -2.046  -7.291  0.00  0.00    -0.304 N 
ATOM     20  O   LIG d   1       4.848  -2.040  -5.346  0.00  0.00    -0.244 OA
ATOM     21  C   LIG d   1       3.560  -1.440  -8.513  0.00  0.00     0.081 A 
ATOM     22  H   LIG d   1       3.333  -2.871  -7.065  0.00  0.00     0.171 HD
ATOM     23  C   LIG d   1       4.219  -0.265  -8.825  0.00  0.00     0.131 A 
ATOM     24  C   LIG d   1       2.711  -1.767  -9.658  0.00  0.00     0.025 A 
ATOM     25  C   LIG d   1       5.113   0.283  -7.871  0.00  0.00     0.301 A 
ATOM     26  N   LIG d   1       3.825   0.144 -10.088  0.00  0.00    -0.349 N 
ATOM     27  O   LIG d   1       5.707   1.320  -8.111  0.00  0.00    -0.263 OA
ATOM     28  C   LIG d   1       2.915  -0.749 -10.609  0.00  0.00     0.049 A 
ATOM     29  H   LIG d   1       4.143   0.941 -10.539  0.00  0.00     0.166 HD
ATOM     30  C   LIG d   1       2.225  -0.799 -11.817  0.00  0.00    -0.037 A 
ATOM     31  C   LIG d   1       1.357  -1.836 -12.070  0.00  0.00    -0.046 A 
ATOM     32  H   LIG d   1       2.372  -0.024 -12.556  0.00  0.00     0.064 H 
ATOM     33  C   LIG d   1       1.160  -2.839 -11.129  0.00  0.00     0.019 A 
ATOM     34  H   LIG d   1       0.825  -1.872 -13.010  0.00  0.00     0.063 H 
ATOM     35  C   LIG d   1       1.824  -2.812  -9.937  0.00  0.00    -0.037 A 
ATOM     36 BR   LIG d   1      -0.039  -4.254 -11.503  0.00  0.00    -0.050 Br
ATOM     37  H   LIG d   1       1.665  -3.594  -9.209  0.00  0.00     0.064 H 
ENDBRANCH  15  17
ENDBRANCH   7  14
BRANCH   1  38
ATOM     38  C   LIG d   1       9.368   2.008  -6.617  0.00  0.00    -0.061 C 
ATOM     39  H   LIG d   1       9.068   2.909  -6.083  0.00  0.00     0.023 H 
ATOM     40  H   LIG d   1      10.256   2.217  -7.214  0.00  0.00     0.023 H 
ATOM     41  H   LIG d   1       8.558   1.686  -7.271  0.00  0.00     0.023 H 
ENDBRANCH   1  38
BRANCH   4  42
ATOM     42  C   LIG d   1      11.033   3.315  -2.908  0.00  0.00    -0.028 C 
ATOM     43  H   LIG d   1      11.347   2.799  -2.000  0.00  0.00     0.031 H 
ATOM     44  H   LIG d   1      11.908   3.553  -3.512  0.00  0.00     0.031 H 
BRANCH  42  45
ATOM     45  C   LIG d   1      10.304   4.608  -2.534  0.00  0.00    -0.031 C 
ATOM     46  H   LIG d   1      10.441   5.344  -3.325  0.00  0.00     0.031 H 
ATOM     47  H   LIG d   1       9.241   4.402  -2.409  0.00  0.00     0.031 H 
BRANCH  45  48
ATOM     48  C   LIG d   1      10.867   5.146  -1.243  0.00  0.00    -0.085 C 
ATOM     49  C   LIG d   1      10.464   6.307  -0.787  0.00  0.00    -0.080 C 
ATOM     50  H   LIG d   1      11.601   4.576  -0.695  0.00  0.00     0.057 H 
BRANCH  49  51
ATOM     51  C   LIG d   1       9.484   7.130  -1.582  0.00  0.00    -0.044 C 
ATOM     52  H   LIG d   1       8.546   6.583  -1.679  0.00  0.00     0.027 H 
ATOM     53  H   LIG d   1       9.302   8.074  -1.069  0.00  0.00     0.027 H 
ATOM     54  H   LIG d   1       9.893   7.327  -2.572  0.00  0.00     0.027 H 
ENDBRANCH  49  51
BRANCH  49  55
ATOM     55  C   LIG d   1      10.983   6.819   0.532  0.00  0.00    -0.044 C 
ATOM     56  H   LIG d   1      10.766   7.884   0.619  0.00  0.00     0.027 H 
ATOM     57  H   LIG d   1      10.499   6.282   1.346  0.00  0.00     0.027 H 
ATOM     58  H   LIG d   1      12.061   6.663   0.583  0.00  0.00     0.027 H 
ENDBRANCH  49  55
ENDBRANCH  45  48
ENDBRANCH  42  45
ENDBRANCH   4  42
TORSDOF 8
ENDMDL
MODEL 9
REMARK VINA RESULT:      -5.8      2.282      2.861
REMARK  8 active torsions:
REMARK  status: ('A' for Active; 'I' for Inactive)
REMARK    1  A    between atoms: C_1  and  C_2 
REMARK    2  A    between atoms: C_5  and  C_30 
REMARK    3  A    between atoms: C_8  and  C_10 
REMARK    4  A    between atoms: N_11  and  N_12 
REMARK    5  A    between atoms: C_30  and  C_31 
REMARK    6  A    between atoms: C_31  and  C_32 
REMARK    7  A    between atoms: C_33  and  C_34 
REMARK    8  A    between atoms: C_33  and  C_35 
ROOT
ATOM      1  C   LIG d   1       7.718   0.457  -3.812  0.00  0.00    -0.032 C 
ATOM      2  H   LIG d   1       8.144   0.227  -2.835  0.00  0.00     0.031 H 
ATOM      3  C   LIG d   1       7.608  -0.824  -4.640  0.00  0.00    -0.029 C 
ATOM      4  C   LIG d   1       7.277  -0.492  -6.065  0.00  0.00    -0.073 C 
ATOM      5  C   LIG d   1       7.420   0.683  -6.588  0.00  0.00    -0.084 C 
ATOM      6  C   LIG d   1       7.927   1.881  -5.839  0.00  0.00    -0.026 C 
ATOM      7  C   LIG d   1       8.632   1.439  -4.555  0.00  0.00     0.002 C 
ATOM      8  H   LIG d   1       9.573   0.947  -4.804  0.00  0.00     0.036 H 
ATOM      9  H   LIG d   1       8.557  -1.360  -4.605  0.00  0.00     0.031 H 
ATOM     10  H   LIG d   1       6.822  -1.456  -4.226  0.00  0.00     0.031 H 
ATOM     11  H   LIG d   1       7.157   0.810  -7.628  0.00  0.00     0.057 H 
ATOM     12  H   LIG d   1       7.089   2.530  -5.586  0.00  0.00     0.031 H 
ATOM     13  H   LIG d   1       8.629   2.429  -6.467  0.00  0.00     0.031 H 
ENDROOT
BRANCH   7  14
ATOM     14  C   LIG d   1       8.904   2.637  -3.683  0.00  0.00     0.030 C 
ATOM     15  N   LIG d   1       9.701   3.555  -4.087  0.00  0.00    -0.172 NA
ATOM     16  H   LIG d   1       8.426   2.723  -2.719  0.00  0.00     0.080 H 
BRANCH  15  17
ATOM     17  N   LIG d   1       9.876   4.716  -3.324  0.00  0.00    -0.143 N 
ATOM     18  C   LIG d   1       9.388   5.884  -3.777  0.00  0.00     0.351 A 
ATOM     19  N   LIG d   1       9.534   7.024  -3.074  0.00  0.00    -0.304 N 
ATOM     20  O   LIG d   1       8.802   5.911  -4.842  0.00  0.00    -0.244 OA
ATOM     21  C   LIG d   1      10.197   7.012  -1.860  0.00  0.00     0.081 A 
ATOM     22  H   LIG d   1       9.172   7.856  -3.420  0.00  0.00     0.171 HD
ATOM     23  C   LIG d   1      10.707   5.822  -1.376  0.00  0.00     0.131 A 
ATOM     24  C   LIG d   1      10.519   8.043  -0.875  0.00  0.00     0.025 A 
ATOM     25  C   LIG d   1      10.525   4.644  -2.146  0.00  0.00     0.301 A 
ATOM     26  N   LIG d   1      11.320   6.063  -0.158  0.00  0.00    -0.349 N 
ATOM     27  O   LIG d   1      10.958   3.577  -1.747  0.00  0.00    -0.263 OA
ATOM     28  C   LIG d   1      11.218   7.398   0.164  0.00  0.00     0.049 A 
ATOM     29  H   LIG d   1      11.756   5.391   0.389  0.00  0.00     0.166 HD
ATOM     30  C   LIG d   1      11.657   8.143   1.255  0.00  0.00    -0.037 A 
ATOM     31  C   LIG d   1      11.405   9.495   1.308  0.00  0.00    -0.046 A 
ATOM     32  H   LIG d   1      12.194   7.661   2.059  0.00  0.00     0.064 H 
ATOM     33  C   LIG d   1      10.716  10.128   0.281  0.00  0.00     0.019 A 
ATOM     34  H   LIG d   1      11.748  10.070   2.156  0.00  0.00     0.063 H 
ATOM     35  C   LIG d   1      10.276   9.418  -0.799  0.00  0.00    -0.037 A 
ATOM     36 BR   LIG d   1      10.384  11.988   0.380  0.00  0.00    -0.050 Br
ATOM     37  H   LIG d   1       9.740   9.917  -1.593  0.00  0.00     0.064 H 
ENDBRANCH  15  17
ENDBRANCH   7  14
BRANCH   1  38
ATOM     38  C   LIG d   1       6.330   1.078  -3.639  0.00  0.00    -0.061 C 
ATOM     39  H   LIG d   1       5.983   0.913  -2.619  0.00  0.00     0.023 H 
ATOM     40  H   LIG d   1       6.384   2.149  -3.837  0.00  0.00     0.023 H 
ATOM     41  H   LIG d   1       5.635   0.615  -4.339  0.00  0.00     0.023 H 
ENDBRANCH   1  38
BRANCH   4  42
ATOM     42  C   LIG d   1       6.745  -1.596  -6.943  0.00  0.00    -0.028 C 
ATOM     43  H   LIG d   1       7.372  -1.691  -7.828  0.00  0.00     0.031 H 
ATOM     44  H   LIG d   1       6.753  -2.535  -6.389  0.00  0.00     0.031 H 
BRANCH  42  45
ATOM     45  C   LIG d   1       5.311  -1.266  -7.365  0.00  0.00    -0.031 C 
ATOM     46  H   LIG d   1       5.320  -0.418  -8.050  0.00  0.00     0.031 H 
ATOM     47  H   LIG d   1       4.871  -2.130  -7.861  0.00  0.00     0.031 H 
BRANCH  45  48
ATOM     48  C   LIG d   1       4.497  -0.918  -6.145  0.00  0.00    -0.085 C 
ATOM     49  C   LIG d   1       3.511  -0.059  -6.240  0.00  0.00    -0.080 C 
ATOM     50  H   LIG d   1       4.725  -1.375  -5.195  0.00  0.00     0.057 H 
BRANCH  49  51
ATOM     51  C   LIG d   1       3.230   0.624  -7.553  0.00  0.00    -0.044 C 
ATOM     52  H   LIG d   1       3.865   0.194  -8.329  0.00  0.00     0.027 H 
ATOM     53  H   LIG d   1       2.183   0.480  -7.820  0.00  0.00     0.027 H 
ATOM     54  H   LIG d   1       3.439   1.689  -7.461  0.00  0.00     0.027 H 
ENDBRANCH  49  51
BRANCH  49  55
ATOM     55  C   LIG d   1       2.660   0.246  -5.035  0.00  0.00    -0.044 C 
ATOM     56  H   LIG d   1       3.126  -0.175  -4.144  0.00  0.00     0.027 H 
ATOM     57  H   LIG d   1       2.567   1.325  -4.919  0.00  0.00     0.027 H 
ATOM     58  H   LIG d   1       1.670  -0.192  -5.169  0.00  0.00     0.027 H 
ENDBRANCH  49  55
ENDBRANCH  45  48
ENDBRANCH  42  45
ENDBRANCH   4  42
TORSDOF 8
ENDMDL
