MODEL 1
REMARK VINA RESULT:      -7.3      0.000      0.000
REMARK  7 active torsions:
REMARK  status: ('A' for Active; 'I' for Inactive)
REMARK    1  A    between atoms: C_4  and  N_7 
REMARK       I    between atoms: N_7  and  C_8 
REMARK    2  A    between atoms: C_8  and  C_10 
REMARK    3  A    between atoms: C_10  and  C_11 
REMARK    4  A    between atoms: C_10  and  O_15 
REMARK    5  A    between atoms: O_15  and  C_16 
REMARK    6  A    between atoms: C_16  and  C_17 
REMARK    7  A    between atoms: C_17  and  C_18 
ROOT
ATOM      1  N   LIG d   1       3.575   0.274  -6.008  0.00  0.00    -0.307 N 
ATOM      2  C   LIG d   1       2.897   0.220  -4.845  0.00  0.00     0.288 C 
ATOM      3  O   LIG d   1       1.685   0.205  -4.850  0.00  0.00    -0.269 OA
ATOM      4  H   LIG d   1       4.545   0.285  -6.004  0.00  0.00     0.149 HD
ENDROOT
BRANCH   1   5
ATOM      5  C   LIG d   1       2.848   0.314  -7.279  0.00  0.00     0.023 C 
ATOM      6  C   LIG d   1       3.280   1.547  -8.076  0.00  0.00    -0.035 C 
ATOM      7  C   LIG d   1       2.520   1.589  -9.403  0.00  0.00    -0.051 C 
ATOM      8  H   LIG d   1       4.351   1.495  -8.272  0.00  0.00     0.028 H 
ATOM      9  H   LIG d   1       3.059   2.447  -7.501  0.00  0.00     0.028 H 
ATOM     10  C   LIG d   1       2.831   0.327 -10.209  0.00  0.00    -0.053 C 
ATOM     11  H   LIG d   1       2.828   2.467  -9.970  0.00  0.00     0.027 H 
ATOM     12  H   LIG d   1       1.449   1.641  -9.207  0.00  0.00     0.027 H 
ATOM     13  C   LIG d   1       2.398  -0.907  -9.413  0.00  0.00    -0.051 C 
ATOM     14  H   LIG d   1       2.289   0.356 -11.155  0.00  0.00     0.026 H 
ATOM     15  H   LIG d   1       3.902   0.276 -10.405  0.00  0.00     0.026 H 
ATOM     16  C   LIG d   1       3.158  -0.949  -8.086  0.00  0.00    -0.035 C 
ATOM     17  H   LIG d   1       1.328  -0.855  -9.217  0.00  0.00     0.027 H 
ATOM     18  H   LIG d   1       2.620  -1.806  -9.987  0.00  0.00     0.027 H 
ATOM     19  H   LIG d   1       4.230  -1.000  -8.281  0.00  0.00     0.028 H 
ATOM     20  H   LIG d   1       2.851  -1.827  -7.518  0.00  0.00     0.028 H 
ATOM     21  H   LIG d   1       1.776   0.366  -7.083  0.00  0.00     0.050 H 
ENDBRANCH   1   5
BRANCH   2  22
ATOM     22  C   LIG d   1       3.645   0.178  -3.538  0.00  0.00     0.386 C 
ATOM     23  F   LIG d   1       2.939  -0.609  -2.621  0.00  0.00    -0.190 F 
BRANCH  22  24
ATOM     24  C   LIG d   1       3.789   1.597  -2.986  0.00  0.00     0.459 C 
ATOM     25  F   LIG d   1       5.139   1.964  -2.987  0.00  0.00    -0.165 F 
ATOM     26  F   LIG d   1       3.064   2.485  -3.787  0.00  0.00    -0.165 F 
ATOM     27  F   LIG d   1       3.296   1.642  -1.678  0.00  0.00    -0.165 F 
ENDBRANCH  22  24
BRANCH  22  28
ATOM     28  O   LIG d   1       4.941  -0.384  -3.749  0.00  0.00    -0.263 OA
BRANCH  28  29
ATOM     29  C   LIG d   1       5.004  -1.796  -3.541  0.00  0.00     0.432 C 
ATOM     30  F   LIG d   1       5.243  -2.058  -2.187  0.00  0.00    -0.168 F 
ATOM     31  F   LIG d   1       3.790  -2.378  -3.920  0.00  0.00    -0.168 F 
BRANCH  29  32
ATOM     32  C   LIG d   1       6.138  -2.387  -4.381  0.00  0.00     0.429 C 
ATOM     33  F   LIG d   1       6.051  -3.783  -4.366  0.00  0.00    -0.186 F 
ATOM     34  F   LIG d   1       6.031  -1.927  -5.698  0.00  0.00    -0.186 F 
BRANCH  32  35
ATOM     35  C   LIG d   1       7.484  -1.954  -3.797  0.00  0.00     0.463 C 
ATOM     36  F   LIG d   1       7.343  -0.712  -3.169  0.00  0.00    -0.165 F 
ATOM     37  F   LIG d   1       7.913  -2.903  -2.862  0.00  0.00    -0.165 F 
ATOM     38  F   LIG d   1       8.428  -1.855  -4.824  0.00  0.00    -0.165 F 
ENDBRANCH  32  35
ENDBRANCH  29  32
ENDBRANCH  28  29
ENDBRANCH  22  28
ENDBRANCH   2  22
TORSDOF 7
ENDMDL
MODEL 2
REMARK VINA RESULT:      -7.3      1.750      4.305
REMARK  7 active torsions:
REMARK  status: ('A' for Active; 'I' for Inactive)
REMARK    1  A    between atoms: C_4  and  N_7 
REMARK       I    between atoms: N_7  and  C_8 
REMARK    2  A    between atoms: C_8  and  C_10 
REMARK    3  A    between atoms: C_10  and  C_11 
REMARK    4  A    between atoms: C_10  and  O_15 
REMARK    5  A    between atoms: O_15  and  C_16 
REMARK    6  A    between atoms: C_16  and  C_17 
REMARK    7  A    between atoms: C_17  and  C_18 
ROOT
ATOM      1  N   LIG d   1       4.303  -0.953  -6.955  0.00  0.00    -0.307 N 
ATOM      2  C   LIG d   1       5.257  -1.195  -6.035  0.00  0.00     0.288 C 
ATOM      3  O   LIG d   1       6.199  -0.440  -5.926  0.00  0.00    -0.269 OA
ATOM      4  H   LIG d   1       3.549  -1.557  -7.042  0.00  0.00     0.149 HD
ENDROOT
BRANCH   1   5
ATOM      5  C   LIG d   1       4.404   0.222  -7.824  0.00  0.00     0.023 C 
ATOM      6  C   LIG d   1       4.796  -0.219  -9.236  0.00  0.00    -0.035 C 
ATOM      7  C   LIG d   1       4.902   1.008 -10.143  0.00  0.00    -0.051 C 
ATOM      8  H   LIG d   1       4.038  -0.897  -9.628  0.00  0.00     0.028 H 
ATOM      9  H   LIG d   1       5.758  -0.731  -9.202  0.00  0.00     0.028 H 
ATOM     10  C   LIG d   1       3.552   1.725 -10.190  0.00  0.00    -0.053 C 
ATOM     11  H   LIG d   1       5.181   0.694 -11.148  0.00  0.00     0.027 H 
ATOM     12  H   LIG d   1       5.660   1.686  -9.751  0.00  0.00     0.027 H 
ATOM     13  C   LIG d   1       3.160   2.167  -8.778  0.00  0.00    -0.051 C 
ATOM     14  H   LIG d   1       3.627   2.601 -10.835  0.00  0.00     0.026 H 
ATOM     15  H   LIG d   1       2.794   1.048 -10.582  0.00  0.00     0.026 H 
ATOM     16  C   LIG d   1       3.054   0.940  -7.871  0.00  0.00    -0.035 C 
ATOM     17  H   LIG d   1       3.917   2.845  -8.385  0.00  0.00     0.027 H 
ATOM     18  H   LIG d   1       2.197   2.678  -8.811  0.00  0.00     0.027 H 
ATOM     19  H   LIG d   1       2.295   0.262  -8.263  0.00  0.00     0.028 H 
ATOM     20  H   LIG d   1       2.774   1.254  -6.865  0.00  0.00     0.028 H 
ATOM     21  H   LIG d   1       5.162   0.900  -7.432  0.00  0.00     0.050 H 
ENDBRANCH   1   5
BRANCH   2  22
ATOM     22  C   LIG d   1       5.153  -2.403  -5.141  0.00  0.00     0.386 C 
ATOM     23  F   LIG d   1       6.220  -2.406  -4.234  0.00  0.00    -0.190 F 
BRANCH  22  24
ATOM     24  C   LIG d   1       5.204  -3.674  -5.991  0.00  0.00     0.459 C 
ATOM     25  F   LIG d   1       5.685  -4.734  -5.217  0.00  0.00    -0.165 F 
ATOM     26  F   LIG d   1       3.919  -3.979  -6.451  0.00  0.00    -0.165 F 
ATOM     27  F   LIG d   1       6.054  -3.471  -7.083  0.00  0.00    -0.165 F 
ENDBRANCH  22  24
BRANCH  22  28
ATOM     28  O   LIG d   1       3.919  -2.360  -4.423  0.00  0.00    -0.263 OA
BRANCH  28  29
ATOM     29  C   LIG d   1       4.025  -1.793  -3.116  0.00  0.00     0.432 C 
ATOM     30  F   LIG d   1       3.551  -2.709  -2.170  0.00  0.00    -0.168 F 
ATOM     31  F   LIG d   1       5.365  -1.496  -2.844  0.00  0.00    -0.168 F 
BRANCH  29  32
ATOM     32  C   LIG d   1       3.193  -0.511  -3.045  0.00  0.00     0.429 C 
ATOM     33  F   LIG d   1       2.855  -0.103  -4.340  0.00  0.00    -0.186 F 
ATOM     34  F   LIG d   1       2.027  -0.752  -2.312  0.00  0.00    -0.186 F 
BRANCH  32  35
ATOM     35  C   LIG d   1       4.008   0.589  -2.362  0.00  0.00     0.463 C 
ATOM     36  F   LIG d   1       5.022   1.022  -3.223  0.00  0.00    -0.165 F 
ATOM     37  F   LIG d   1       3.170   1.665  -2.050  0.00  0.00    -0.165 F 
ATOM     38  F   LIG d   1       4.577   0.086  -1.187  0.00  0.00    -0.165 F 
ENDBRANCH  32  35
ENDBRANCH  29  32
ENDBRANCH  28  29
ENDBRANCH  22  28
ENDBRANCH   2  22
TORSDOF 7
ENDMDL
MODEL 3
REMARK VINA RESULT:      -6.9      1.731      4.323
REMARK  7 active torsions:
REMARK  status: ('A' for Active; 'I' for Inactive)
REMARK    1  A    between atoms: C_4  and  N_7 
REMARK       I    between atoms: N_7  and  C_8 
REMARK    2  A    between atoms: C_8  and  C_10 
REMARK    3  A    between atoms: C_10  and  C_11 
REMARK    4  A    between atoms: C_10  and  O_15 
REMARK    5  A    between atoms: O_15  and  C_16 
REMARK    6  A    between atoms: C_16  and  C_17 
REMARK    7  A    between atoms: C_17  and  C_18 
ROOT
ATOM      1  N   LIG d   1       4.382  -0.720  -6.732  0.00  0.00    -0.307 N 
ATOM      2  C   LIG d   1       5.290  -1.693  -6.524  0.00  0.00     0.288 C 
ATOM      3  O   LIG d   1       5.938  -2.126  -7.452  0.00  0.00    -0.269 OA
ATOM      4  H   LIG d   1       3.864  -0.372  -5.989  0.00  0.00     0.149 HD
ENDROOT
BRANCH   1   5
ATOM      5  C   LIG d   1       4.177  -0.186  -8.080  0.00  0.00     0.023 C 
ATOM      6  C   LIG d   1       2.750   0.355  -8.204  0.00  0.00    -0.035 C 
ATOM      7  C   LIG d   1       2.536   0.912  -9.612  0.00  0.00    -0.051 C 
ATOM      8  H   LIG d   1       2.598   1.148  -7.472  0.00  0.00     0.028 H 
ATOM      9  H   LIG d   1       2.039  -0.452  -8.019  0.00  0.00     0.028 H 
ATOM     10  C   LIG d   1       3.533   2.043  -9.870  0.00  0.00    -0.053 C 
ATOM     11  H   LIG d   1       1.520   1.296  -9.700  0.00  0.00     0.027 H 
ATOM     12  H   LIG d   1       2.688   0.119 -10.344  0.00  0.00     0.027 H 
ATOM     13  C   LIG d   1       4.960   1.503  -9.748  0.00  0.00    -0.051 C 
ATOM     14  H   LIG d   1       3.381   2.440 -10.874  0.00  0.00     0.026 H 
ATOM     15  H   LIG d   1       3.380   2.835  -9.139  0.00  0.00     0.026 H 
ATOM     16  C   LIG d   1       5.174   0.945  -8.339  0.00  0.00    -0.035 C 
ATOM     17  H   LIG d   1       5.112   0.710 -10.479  0.00  0.00     0.027 H 
ATOM     18  H   LIG d   1       5.670   2.308  -9.931  0.00  0.00     0.027 H 
ATOM     19  H   LIG d   1       5.022   1.739  -7.607  0.00  0.00     0.028 H 
ATOM     20  H   LIG d   1       6.190   0.561  -8.251  0.00  0.00     0.028 H 
ATOM     21  H   LIG d   1       4.329  -0.979  -8.813  0.00  0.00     0.050 H 
ENDBRANCH   1   5
BRANCH   2  22
ATOM     22  C   LIG d   1       5.502  -2.242  -5.136  0.00  0.00     0.386 C 
ATOM     23  F   LIG d   1       6.860  -2.165  -4.807  0.00  0.00    -0.190 F 
BRANCH  22  24
ATOM     24  C   LIG d   1       5.048  -3.701  -5.090  0.00  0.00     0.459 C 
ATOM     25  F   LIG d   1       4.112  -3.931  -6.104  0.00  0.00    -0.165 F 
ATOM     26  F   LIG d   1       6.152  -4.539  -5.277  0.00  0.00    -0.165 F 
ATOM     27  F   LIG d   1       4.464  -3.969  -3.848  0.00  0.00    -0.165 F 
ENDBRANCH  22  24
BRANCH  22  28
ATOM     28  O   LIG d   1       4.742  -1.476  -4.200  0.00  0.00    -0.263 OA
BRANCH  28  29
ATOM     29  C   LIG d   1       5.536  -0.707  -3.295  0.00  0.00     0.432 C 
ATOM     30  F   LIG d   1       6.520  -1.524  -2.728  0.00  0.00    -0.168 F 
ATOM     31  F   LIG d   1       6.146   0.344  -3.987  0.00  0.00    -0.168 F 
BRANCH  29  32
ATOM     32  C   LIG d   1       4.645  -0.141  -2.188  0.00  0.00     0.429 C 
ATOM     33  F   LIG d   1       4.324  -1.158  -1.282  0.00  0.00    -0.186 F 
ATOM     34  F   LIG d   1       5.325   0.882  -1.519  0.00  0.00    -0.186 F 
BRANCH  32  35
ATOM     35  C   LIG d   1       3.360   0.417  -2.803  0.00  0.00     0.463 C 
ATOM     36  F   LIG d   1       2.355  -0.554  -2.746  0.00  0.00    -0.165 F 
ATOM     37  F   LIG d   1       2.955   1.551  -2.090  0.00  0.00    -0.165 F 
ATOM     38  F   LIG d   1       3.596   0.767  -4.138  0.00  0.00    -0.165 F 
ENDBRANCH  32  35
ENDBRANCH  29  32
ENDBRANCH  28  29
ENDBRANCH  22  28
ENDBRANCH   2  22
TORSDOF 7
ENDMDL
MODEL 4
REMARK VINA RESULT:      -6.8      3.800      6.579
REMARK  7 active torsions:
REMARK  status: ('A' for Active; 'I' for Inactive)
REMARK    1  A    between atoms: C_4  and  N_7 
REMARK       I    between atoms: N_7  and  C_8 
REMARK    2  A    between atoms: C_8  and  C_10 
REMARK    3  A    between atoms: C_10  and  C_11 
REMARK    4  A    between atoms: C_10  and  O_15 
REMARK    5  A    between atoms: O_15  and  C_16 
REMARK    6  A    between atoms: C_16  and  C_17 
REMARK    7  A    between atoms: C_17  and  C_18 
ROOT
ATOM      1  N   LIG d   1       5.793   0.205  -5.446  0.00  0.00    -0.307 N 
ATOM      2  C   LIG d   1       6.917  -0.022  -6.154  0.00  0.00     0.288 C 
ATOM      3  O   LIG d   1       7.704  -0.868  -5.788  0.00  0.00    -0.269 OA
ATOM      4  H   LIG d   1       5.164   0.882  -5.740  0.00  0.00     0.149 HD
ENDROOT
BRANCH   1   5
ATOM      5  C   LIG d   1       5.522  -0.571  -4.234  0.00  0.00     0.023 C 
ATOM      6  C   LIG d   1       4.763   0.299  -3.230  0.00  0.00    -0.035 C 
ATOM      7  C   LIG d   1       4.480  -0.512  -1.964  0.00  0.00    -0.051 C 
ATOM      8  H   LIG d   1       3.821   0.625  -3.671  0.00  0.00     0.028 H 
ATOM      9  H   LIG d   1       5.366   1.171  -2.976  0.00  0.00     0.028 H 
ATOM     10  C   LIG d   1       3.633  -1.735  -2.320  0.00  0.00    -0.053 C 
ATOM     11  H   LIG d   1       3.939   0.108  -1.249  0.00  0.00     0.027 H 
ATOM     12  H   LIG d   1       5.421  -0.837  -1.523  0.00  0.00     0.027 H 
ATOM     13  C   LIG d   1       4.393  -2.606  -3.324  0.00  0.00    -0.051 C 
ATOM     14  H   LIG d   1       3.432  -2.313  -1.418  0.00  0.00     0.026 H 
ATOM     15  H   LIG d   1       2.692  -1.409  -2.761  0.00  0.00     0.026 H 
ATOM     16  C   LIG d   1       4.675  -1.795  -4.590  0.00  0.00    -0.035 C 
ATOM     17  H   LIG d   1       5.334  -2.932  -2.883  0.00  0.00     0.027 H 
ATOM     18  H   LIG d   1       3.789  -3.477  -3.578  0.00  0.00     0.027 H 
ATOM     19  H   LIG d   1       3.733  -1.469  -5.032  0.00  0.00     0.028 H 
ATOM     20  H   LIG d   1       5.216  -2.415  -5.305  0.00  0.00     0.028 H 
ATOM     21  H   LIG d   1       6.464  -0.897  -3.793  0.00  0.00     0.050 H 
ENDBRANCH   1   5
BRANCH   2  22
ATOM     22  C   LIG d   1       7.196   0.777  -7.402  0.00  0.00     0.386 C 
ATOM     23  F   LIG d   1       7.564  -0.090  -8.437  0.00  0.00    -0.190 F 
BRANCH  22  24
ATOM     24  C   LIG d   1       8.334   1.763  -7.133  0.00  0.00     0.459 C 
ATOM     25  F   LIG d   1       8.278   2.804  -8.065  0.00  0.00    -0.165 F 
ATOM     26  F   LIG d   1       8.204   2.285  -5.842  0.00  0.00    -0.165 F 
ATOM     27  F   LIG d   1       9.561   1.101  -7.247  0.00  0.00    -0.165 F 
ENDBRANCH  22  24
BRANCH  22  28
ATOM     28  O   LIG d   1       6.021   1.497  -7.779  0.00  0.00    -0.263 OA
BRANCH  28  29
ATOM     29  C   LIG d   1       5.467   1.091  -9.032  0.00  0.00     0.432 C 
ATOM     30  F   LIG d   1       6.438   1.213 -10.032  0.00  0.00    -0.168 F 
ATOM     31  F   LIG d   1       5.049  -0.241  -8.948  0.00  0.00    -0.168 F 
BRANCH  29  32
ATOM     32  C   LIG d   1       4.270   1.981  -9.373  0.00  0.00     0.429 C 
ATOM     33  F   LIG d   1       4.601   3.319  -9.132  0.00  0.00    -0.186 F 
ATOM     34  F   LIG d   1       3.937   1.818 -10.722  0.00  0.00    -0.186 F 
BRANCH  32  35
ATOM     35  C   LIG d   1       3.077   1.587  -8.500  0.00  0.00     0.463 C 
ATOM     36  F   LIG d   1       2.551   2.728  -7.886  0.00  0.00    -0.165 F 
ATOM     37  F   LIG d   1       2.094   0.990  -9.297  0.00  0.00    -0.165 F 
ATOM     38  F   LIG d   1       3.496   0.680  -7.520  0.00  0.00    -0.165 F 
ENDBRANCH  32  35
ENDBRANCH  29  32
ENDBRANCH  28  29
ENDBRANCH  22  28
ENDBRANCH   2  22
TORSDOF 7
ENDMDL
MODEL 5
REMARK VINA RESULT:      -6.8      4.504      7.132
REMARK  7 active torsions:
REMARK  status: ('A' for Active; 'I' for Inactive)
REMARK    1  A    between atoms: C_4  and  N_7 
REMARK       I    between atoms: N_7  and  C_8 
REMARK    2  A    between atoms: C_8  and  C_10 
REMARK    3  A    between atoms: C_10  and  C_11 
REMARK    4  A    between atoms: C_10  and  O_15 
REMARK    5  A    between atoms: O_15  and  C_16 
REMARK    6  A    between atoms: C_16  and  C_17 
REMARK    7  A    between atoms: C_17  and  C_18 
ROOT
ATOM      1  N   LIG d   1       3.436  -0.344  -6.295  0.00  0.00    -0.307 N 
ATOM      2  C   LIG d   1       4.212   0.289  -7.196  0.00  0.00     0.288 C 
ATOM      3  O   LIG d   1       5.352   0.587  -6.912  0.00  0.00    -0.269 OA
ATOM      4  H   LIG d   1       2.524  -0.582  -6.522  0.00  0.00     0.149 HD
ENDROOT
BRANCH   1   5
ATOM      5  C   LIG d   1       3.971  -0.674  -4.972  0.00  0.00     0.023 C 
ATOM      6  C   LIG d   1       2.925  -0.350  -3.903  0.00  0.00    -0.035 C 
ATOM      7  C   LIG d   1       3.483  -0.694  -2.521  0.00  0.00    -0.051 C 
ATOM      8  H   LIG d   1       2.024  -0.936  -4.087  0.00  0.00     0.028 H 
ATOM      9  H   LIG d   1       2.682   0.713  -3.943  0.00  0.00     0.028 H 
ATOM     10  C   LIG d   1       3.823  -2.184  -2.465  0.00  0.00    -0.053 C 
ATOM     11  H   LIG d   1       2.738  -0.463  -1.760  0.00  0.00     0.027 H 
ATOM     12  H   LIG d   1       4.383  -0.108  -2.337  0.00  0.00     0.027 H 
ATOM     13  C   LIG d   1       4.871  -2.509  -3.533  0.00  0.00    -0.051 C 
ATOM     14  H   LIG d   1       4.222  -2.429  -1.480  0.00  0.00     0.026 H 
ATOM     15  H   LIG d   1       2.923  -2.769  -2.649  0.00  0.00     0.026 H 
ATOM     16  C   LIG d   1       4.312  -2.165  -4.915  0.00  0.00    -0.035 C 
ATOM     17  H   LIG d   1       5.771  -1.923  -3.349  0.00  0.00     0.027 H 
ATOM     18  H   LIG d   1       5.113  -3.570  -3.494  0.00  0.00     0.027 H 
ATOM     19  H   LIG d   1       3.411  -2.750  -5.100  0.00  0.00     0.028 H 
ATOM     20  H   LIG d   1       5.057  -2.396  -5.676  0.00  0.00     0.028 H 
ATOM     21  H   LIG d   1       4.872  -0.088  -4.787  0.00  0.00     0.050 H 
ENDBRANCH   1   5
BRANCH   2  22
ATOM     22  C   LIG d   1       3.662   0.628  -8.558  0.00  0.00     0.386 C 
ATOM     23  F   LIG d   1       4.703   0.630  -9.493  0.00  0.00    -0.190 F 
BRANCH  22  24
ATOM     24  C   LIG d   1       3.012   2.012  -8.516  0.00  0.00     0.459 C 
ATOM     25  F   LIG d   1       2.634   2.310  -7.202  0.00  0.00    -0.165 F 
ATOM     26  F   LIG d   1       3.925   2.970  -8.967  0.00  0.00    -0.165 F 
ATOM     27  F   LIG d   1       1.881   2.021  -9.339  0.00  0.00    -0.165 F 
ENDBRANCH  22  24
BRANCH  22  28
ATOM     28  O   LIG d   1       2.687  -0.346  -8.933  0.00  0.00    -0.263 OA
BRANCH  28  29
ATOM     29  C   LIG d   1       2.801  -0.794 -10.285  0.00  0.00     0.432 C 
ATOM     30  F   LIG d   1       3.151   0.284 -11.105  0.00  0.00    -0.168 F 
ATOM     31  F   LIG d   1       3.789  -1.781 -10.367  0.00  0.00    -0.168 F 
BRANCH  29  32
ATOM     32  C   LIG d   1       1.462  -1.372 -10.746  0.00  0.00     0.429 C 
ATOM     33  F   LIG d   1       1.081  -2.408  -9.887  0.00  0.00    -0.186 F 
ATOM     34  F   LIG d   1       0.489  -0.368 -10.727  0.00  0.00    -0.186 F 
BRANCH  32  35
ATOM     35  C   LIG d   1       1.606  -1.918 -12.168  0.00  0.00     0.463 C 
ATOM     36  F   LIG d   1       2.065  -3.238 -12.118  0.00  0.00    -0.165 F 
ATOM     37  F   LIG d   1       0.363  -1.880 -12.810  0.00  0.00    -0.165 F 
ATOM     38  F   LIG d   1       2.520  -1.132 -12.879  0.00  0.00    -0.165 F 
ENDBRANCH  32  35
ENDBRANCH  29  32
ENDBRANCH  28  29
ENDBRANCH  22  28
ENDBRANCH   2  22
TORSDOF 7
ENDMDL
MODEL 6
REMARK VINA RESULT:      -6.8      1.421      2.312
REMARK  7 active torsions:
REMARK  status: ('A' for Active; 'I' for Inactive)
REMARK    1  A    between atoms: C_4  and  N_7 
REMARK       I    between atoms: N_7  and  C_8 
REMARK    2  A    between atoms: C_8  and  C_10 
REMARK    3  A    between atoms: C_10  and  C_11 
REMARK    4  A    between atoms: C_10  and  O_15 
REMARK    5  A    between atoms: O_15  and  C_16 
REMARK    6  A    between atoms: C_16  and  C_17 
REMARK    7  A    between atoms: C_17  and  C_18 
ROOT
ATOM      1  N   LIG d   1       3.288  -0.798  -7.359  0.00  0.00    -0.307 N 
ATOM      2  C   LIG d   1       3.336   0.045  -6.309  0.00  0.00     0.288 C 
ATOM      3  O   LIG d   1       3.034   1.210  -6.453  0.00  0.00    -0.269 OA
ATOM      4  H   LIG d   1       3.529  -1.731  -7.243  0.00  0.00     0.149 HD
ENDROOT
BRANCH   1   5
ATOM      5  C   LIG d   1       2.871  -0.307  -8.674  0.00  0.00     0.023 C 
ATOM      6  C   LIG d   1       4.108   0.004  -9.519  0.00  0.00    -0.035 C 
ATOM      7  C   LIG d   1       3.672   0.517 -10.893  0.00  0.00    -0.051 C 
ATOM      8  H   LIG d   1       4.701  -0.903  -9.641  0.00  0.00     0.028 H 
ATOM      9  H   LIG d   1       4.707   0.765  -9.019  0.00  0.00     0.028 H 
ATOM     10  C   LIG d   1       2.833  -0.552 -11.593  0.00  0.00    -0.053 C 
ATOM     11  H   LIG d   1       4.554   0.738 -11.494  0.00  0.00     0.027 H 
ATOM     12  H   LIG d   1       3.079   1.423 -10.771  0.00  0.00     0.027 H 
ATOM     13  C   LIG d   1       1.594  -0.863 -10.749  0.00  0.00    -0.051 C 
ATOM     14  H   LIG d   1       2.521  -0.187 -12.572  0.00  0.00     0.026 H 
ATOM     15  H   LIG d   1       3.425  -1.458 -11.715  0.00  0.00     0.026 H 
ATOM     16  C   LIG d   1       2.030  -1.376  -9.376  0.00  0.00    -0.035 C 
ATOM     17  H   LIG d   1       1.001   0.043 -10.627  0.00  0.00     0.027 H 
ATOM     18  H   LIG d   1       0.996  -1.625 -11.248  0.00  0.00     0.027 H 
ATOM     19  H   LIG d   1       2.623  -2.283  -9.497  0.00  0.00     0.028 H 
ATOM     20  H   LIG d   1       1.149  -1.598  -8.774  0.00  0.00     0.028 H 
ATOM     21  H   LIG d   1       2.277   0.599  -8.552  0.00  0.00     0.050 H 
ENDBRANCH   1   5
BRANCH   2  22
ATOM     22  C   LIG d   1       3.764  -0.460  -4.955  0.00  0.00     0.386 C 
ATOM     23  F   LIG d   1       3.990  -1.840  -5.022  0.00  0.00    -0.190 F 
BRANCH  22  24
ATOM     24  C   LIG d   1       2.665  -0.172  -3.932  0.00  0.00     0.459 C 
ATOM     25  F   LIG d   1       1.442  -0.019  -4.592  0.00  0.00    -0.165 F 
ATOM     26  F   LIG d   1       2.577  -1.237  -3.030  0.00  0.00    -0.165 F 
ATOM     27  F   LIG d   1       2.970   1.003  -3.237  0.00  0.00    -0.165 F 
ENDBRANCH  22  24
BRANCH  22  28
ATOM     28  O   LIG d   1       4.968   0.200  -4.560  0.00  0.00    -0.263 OA
BRANCH  28  29
ATOM     29  C   LIG d   1       5.841  -0.607  -3.768  0.00  0.00     0.432 C 
ATOM     30  F   LIG d   1       6.255   0.118  -2.645  0.00  0.00    -0.168 F 
ATOM     31  F   LIG d   1       5.165  -1.760  -3.355  0.00  0.00    -0.168 F 
BRANCH  29  32
ATOM     32  C   LIG d   1       7.064  -1.003  -4.598  0.00  0.00     0.429 C 
ATOM     33  F   LIG d   1       6.717  -1.033  -5.953  0.00  0.00    -0.186 F 
ATOM     34  F   LIG d   1       8.086  -0.068  -4.398  0.00  0.00    -0.186 F 
BRANCH  32  35
ATOM     35  C   LIG d   1       7.547  -2.388  -4.165  0.00  0.00     0.463 C 
ATOM     36  F   LIG d   1       6.650  -3.359  -4.622  0.00  0.00    -0.165 F 
ATOM     37  F   LIG d   1       8.814  -2.631  -4.708  0.00  0.00    -0.165 F 
ATOM     38  F   LIG d   1       7.621  -2.442  -2.769  0.00  0.00    -0.165 F 
ENDBRANCH  32  35
ENDBRANCH  29  32
ENDBRANCH  28  29
ENDBRANCH  22  28
ENDBRANCH   2  22
TORSDOF 7
ENDMDL
MODEL 7
REMARK VINA RESULT:      -6.8      2.985      4.992
REMARK  7 active torsions:
REMARK  status: ('A' for Active; 'I' for Inactive)
REMARK    1  A    between atoms: C_4  and  N_7 
REMARK       I    between atoms: N_7  and  C_8 
REMARK    2  A    between atoms: C_8  and  C_10 
REMARK    3  A    between atoms: C_10  and  C_11 
REMARK    4  A    between atoms: C_10  and  O_15 
REMARK    5  A    between atoms: O_15  and  C_16 
REMARK    6  A    between atoms: C_16  and  C_17 
REMARK    7  A    between atoms: C_17  and  C_18 
ROOT
ATOM      1  N   LIG d   1       6.382   0.579  -5.610  0.00  0.00    -0.307 N 
ATOM      2  C   LIG d   1       5.883  -0.586  -6.067  0.00  0.00     0.288 C 
ATOM      3  O   LIG d   1       6.601  -1.364  -6.656  0.00  0.00    -0.269 OA
ATOM      4  H   LIG d   1       5.807   1.202  -5.138  0.00  0.00     0.149 HD
ENDROOT
BRANCH   1   5
ATOM      5  C   LIG d   1       7.794   0.905  -5.824  0.00  0.00     0.023 C 
ATOM      6  C   LIG d   1       7.939   1.731  -7.103  0.00  0.00    -0.035 C 
ATOM      7  C   LIG d   1       9.414   2.071  -7.327  0.00  0.00    -0.051 C 
ATOM      8  H   LIG d   1       7.364   2.653  -7.007  0.00  0.00     0.028 H 
ATOM      9  H   LIG d   1       7.565   1.157  -7.951  0.00  0.00     0.028 H 
ATOM     10  C   LIG d   1       9.937   2.877  -6.138  0.00  0.00    -0.053 C 
ATOM     11  H   LIG d   1       9.517   2.660  -8.238  0.00  0.00     0.027 H 
ATOM     12  H   LIG d   1       9.988   1.150  -7.423  0.00  0.00     0.027 H 
ATOM     13  C   LIG d   1       9.794   2.050  -4.857  0.00  0.00    -0.051 C 
ATOM     14  H   LIG d   1      10.989   3.119  -6.296  0.00  0.00     0.026 H 
ATOM     15  H   LIG d   1       9.363   3.798  -6.042  0.00  0.00     0.026 H 
ATOM     16  C   LIG d   1       8.319   1.711  -4.634  0.00  0.00    -0.035 C 
ATOM     17  H   LIG d   1      10.368   1.130  -4.953  0.00  0.00     0.027 H 
ATOM     18  H   LIG d   1      10.166   2.625  -4.010  0.00  0.00     0.027 H 
ATOM     19  H   LIG d   1       7.744   2.632  -4.538  0.00  0.00     0.028 H 
ATOM     20  H   LIG d   1       8.215   1.123  -3.722  0.00  0.00     0.028 H 
ATOM     21  H   LIG d   1       8.369  -0.017  -5.920  0.00  0.00     0.050 H 
ENDBRANCH   1   5
BRANCH   2  22
ATOM     22  C   LIG d   1       4.430  -0.921  -5.846  0.00  0.00     0.386 C 
ATOM     23  F   LIG d   1       4.291  -2.303  -5.674  0.00  0.00    -0.190 F 
BRANCH  22  24
ATOM     24  C   LIG d   1       3.613  -0.474  -7.059  0.00  0.00     0.459 C 
ATOM     25  F   LIG d   1       3.393  -1.569  -7.902  0.00  0.00    -0.165 F 
ATOM     26  F   LIG d   1       2.384   0.038  -6.631  0.00  0.00    -0.165 F 
ATOM     27  F   LIG d   1       4.314   0.516  -7.756  0.00  0.00    -0.165 F 
ENDBRANCH  22  24
BRANCH  22  28
ATOM     28  O   LIG d   1       3.958  -0.246  -4.679  0.00  0.00    -0.263 OA
BRANCH  28  29
ATOM     29  C   LIG d   1       3.765  -1.101  -3.550  0.00  0.00     0.432 C 
ATOM     30  F   LIG d   1       2.430  -1.034  -3.137  0.00  0.00    -0.168 F 
ATOM     31  F   LIG d   1       4.077  -2.418  -3.904  0.00  0.00    -0.168 F 
BRANCH  29  32
ATOM     32  C   LIG d   1       4.675  -0.650  -2.407  0.00  0.00     0.429 C 
ATOM     33  F   LIG d   1       4.406  -1.415  -1.266  0.00  0.00    -0.186 F 
ATOM     34  F   LIG d   1       6.013  -0.823  -2.779  0.00  0.00    -0.186 F 
BRANCH  32  35
ATOM     35  C   LIG d   1       4.416   0.827  -2.101  0.00  0.00     0.463 C 
ATOM     36  F   LIG d   1       4.803   1.107  -0.786  0.00  0.00    -0.165 F 
ATOM     37  F   LIG d   1       5.155   1.622  -2.984  0.00  0.00    -0.165 F 
ATOM     38  F   LIG d   1       3.053   1.103  -2.256  0.00  0.00    -0.165 F 
ENDBRANCH  32  35
ENDBRANCH  29  32
ENDBRANCH  28  29
ENDBRANCH  22  28
ENDBRANCH   2  22
TORSDOF 7
ENDMDL
MODEL 8
REMARK VINA RESULT:      -6.6      3.604      6.553
REMARK  7 active torsions:
REMARK  status: ('A' for Active; 'I' for Inactive)
REMARK    1  A    between atoms: C_4  and  N_7 
REMARK       I    between atoms: N_7  and  C_8 
REMARK    2  A    between atoms: C_8  and  C_10 
REMARK    3  A    between atoms: C_10  and  C_11 
REMARK    4  A    between atoms: C_10  and  O_15 
REMARK    5  A    between atoms: O_15  and  C_16 
REMARK    6  A    between atoms: C_16  and  C_17 
REMARK    7  A    between atoms: C_17  and  C_18 
ROOT
ATOM      1  N   LIG d   1       9.023   1.209  -3.813  0.00  0.00    -0.307 N 
ATOM      2  C   LIG d   1       7.914   1.082  -4.568  0.00  0.00     0.288 C 
ATOM      3  O   LIG d   1       7.701   1.863  -5.469  0.00  0.00    -0.269 OA
ATOM      4  H   LIG d   1       9.193   0.583  -3.092  0.00  0.00     0.149 HD
ENDROOT
BRANCH   1   5
ATOM      5  C   LIG d   1       9.971   2.293  -4.081  0.00  0.00     0.023 C 
ATOM      6  C   LIG d   1       9.654   3.485  -3.175  0.00  0.00    -0.035 C 
ATOM      7  C   LIG d   1      10.644   4.617  -3.456  0.00  0.00    -0.051 C 
ATOM      8  H   LIG d   1       9.737   3.180  -2.132  0.00  0.00     0.028 H 
ATOM      9  H   LIG d   1       8.639   3.832  -3.373  0.00  0.00     0.028 H 
ATOM     10  C   LIG d   1      12.067   4.130  -3.178  0.00  0.00    -0.053 C 
ATOM     11  H   LIG d   1      10.418   5.465  -2.810  0.00  0.00     0.027 H 
ATOM     12  H   LIG d   1      10.561   4.922  -4.499  0.00  0.00     0.027 H 
ATOM     13  C   LIG d   1      12.385   2.938  -4.085  0.00  0.00    -0.051 C 
ATOM     14  H   LIG d   1      12.773   4.936  -3.379  0.00  0.00     0.026 H 
ATOM     15  H   LIG d   1      12.150   3.825  -2.135  0.00  0.00     0.026 H 
ATOM     16  C   LIG d   1      11.395   1.807  -3.804  0.00  0.00    -0.035 C 
ATOM     17  H   LIG d   1      12.302   3.243  -5.128  0.00  0.00     0.027 H 
ATOM     18  H   LIG d   1      13.399   2.591  -3.887  0.00  0.00     0.027 H 
ATOM     19  H   LIG d   1      11.478   1.501  -2.760  0.00  0.00     0.028 H 
ATOM     20  H   LIG d   1      11.621   0.958  -4.449  0.00  0.00     0.028 H 
ATOM     21  H   LIG d   1       9.888   2.598  -5.125  0.00  0.00     0.050 H 
ENDBRANCH   1   5
BRANCH   2  22
ATOM     22  C   LIG d   1       6.939  -0.034  -4.292  0.00  0.00     0.386 C 
ATOM     23  F   LIG d   1       7.235  -0.617  -3.055  0.00  0.00    -0.190 F 
BRANCH  22  24
ATOM     24  C   LIG d   1       7.047  -1.090  -5.393  0.00  0.00     0.459 C 
ATOM     25  F   LIG d   1       6.222  -0.734  -6.464  0.00  0.00    -0.165 F 
ATOM     26  F   LIG d   1       8.372  -1.171  -5.833  0.00  0.00    -0.165 F 
ATOM     27  F   LIG d   1       6.646  -2.332  -4.889  0.00  0.00    -0.165 F 
ENDBRANCH  22  24
BRANCH  22  28
ATOM     28  O   LIG d   1       5.611   0.491  -4.265  0.00  0.00    -0.263 OA
BRANCH  28  29
ATOM     29  C   LIG d   1       4.989   0.436  -2.979  0.00  0.00     0.432 C 
ATOM     30  F   LIG d   1       5.234  -0.812  -2.396  0.00  0.00    -0.168 F 
ATOM     31  F   LIG d   1       5.516   1.443  -2.164  0.00  0.00    -0.168 F 
BRANCH  29  32
ATOM     32  C   LIG d   1       3.481   0.640  -3.133  0.00  0.00     0.429 C 
ATOM     33  F   LIG d   1       2.941   1.063  -1.912  0.00  0.00    -0.186 F 
ATOM     34  F   LIG d   1       3.237   1.610  -4.111  0.00  0.00    -0.186 F 
BRANCH  32  35
ATOM     35  C   LIG d   1       2.828  -0.680  -3.548  0.00  0.00     0.463 C 
ATOM     36  F   LIG d   1       1.571  -0.424  -4.106  0.00  0.00    -0.165 F 
ATOM     37  F   LIG d   1       3.636  -1.323  -4.492  0.00  0.00    -0.165 F 
ATOM     38  F   LIG d   1       2.681  -1.501  -2.424  0.00  0.00    -0.165 F 
ENDBRANCH  32  35
ENDBRANCH  29  32
ENDBRANCH  28  29
ENDBRANCH  22  28
ENDBRANCH   2  22
TORSDOF 7
ENDMDL
MODEL 9
REMARK VINA RESULT:      -6.6      4.142      6.863
REMARK  7 active torsions:
REMARK  status: ('A' for Active; 'I' for Inactive)
REMARK    1  A    between atoms: C_4  and  N_7 
REMARK       I    between atoms: N_7  and  C_8 
REMARK    2  A    between atoms: C_8  and  C_10 
REMARK    3  A    between atoms: C_10  and  C_11 
REMARK    4  A    between atoms: C_10  and  O_15 
REMARK    5  A    between atoms: O_15  and  C_16 
REMARK    6  A    between atoms: C_16  and  C_17 
REMARK    7  A    between atoms: C_17  and  C_18 
ROOT
ATOM      1  N   LIG d   1       4.313   0.163  -5.880  0.00  0.00    -0.307 N 
ATOM      2  C   LIG d   1       3.441   0.227  -6.905  0.00  0.00     0.288 C 
ATOM      3  O   LIG d   1       2.296  -0.139  -6.750  0.00  0.00    -0.269 OA
ATOM      4  H   LIG d   1       5.230   0.457  -6.005  0.00  0.00     0.149 HD
ENDROOT
BRANCH   1   5
ATOM      5  C   LIG d   1       3.878  -0.348  -4.579  0.00  0.00     0.023 C 
ATOM      6  C   LIG d   1       4.485  -1.733  -4.345  0.00  0.00    -0.035 C 
ATOM      7  C   LIG d   1       4.030  -2.267  -2.985  0.00  0.00    -0.051 C 
ATOM      8  H   LIG d   1       5.573  -1.660  -4.361  0.00  0.00     0.028 H 
ATOM      9  H   LIG d   1       4.155  -2.412  -5.132  0.00  0.00     0.028 H 
ATOM     10  C   LIG d   1       4.494  -1.314  -1.882  0.00  0.00    -0.053 C 
ATOM     11  H   LIG d   1       4.463  -3.253  -2.819  0.00  0.00     0.027 H 
ATOM     12  H   LIG d   1       2.943  -2.339  -2.969  0.00  0.00     0.027 H 
ATOM     13  C   LIG d   1       3.887   0.071  -2.115  0.00  0.00    -0.051 C 
ATOM     14  H   LIG d   1       4.169  -1.694  -0.913  0.00  0.00     0.026 H 
ATOM     15  H   LIG d   1       5.581  -1.242  -1.899  0.00  0.00     0.026 H 
ATOM     16  C   LIG d   1       4.342   0.605  -3.475  0.00  0.00    -0.035 C 
ATOM     17  H   LIG d   1       2.800  -0.001  -2.099  0.00  0.00     0.027 H 
ATOM     18  H   LIG d   1       4.218   0.750  -1.329  0.00  0.00     0.027 H 
ATOM     19  H   LIG d   1       5.430   0.678  -3.491  0.00  0.00     0.028 H 
ATOM     20  H   LIG d   1       3.910   1.592  -3.641  0.00  0.00     0.028 H 
ATOM     21  H   LIG d   1       2.790  -0.421  -4.562  0.00  0.00     0.050 H 
ENDBRANCH   1   5
BRANCH   2  22
ATOM     22  C   LIG d   1       3.889   0.753  -8.245  0.00  0.00     0.386 C 
ATOM     23  F   LIG d   1       5.250   1.072  -8.189  0.00  0.00    -0.190 F 
BRANCH  22  24
ATOM     24  C   LIG d   1       3.086   2.007  -8.594  0.00  0.00     0.459 C 
ATOM     25  F   LIG d   1       2.572   2.573  -7.423  0.00  0.00    -0.165 F 
ATOM     26  F   LIG d   1       3.919   2.932  -9.232  0.00  0.00    -0.165 F 
ATOM     27  F   LIG d   1       2.032   1.664  -9.447  0.00  0.00    -0.165 F 
ENDBRANCH  22  24
BRANCH  22  28
ATOM     28  O   LIG d   1       3.673  -0.244  -9.244  0.00  0.00    -0.263 OA
BRANCH  28  29
ATOM     29  C   LIG d   1       4.741  -0.364 -10.187  0.00  0.00     0.432 C 
ATOM     30  F   LIG d   1       4.921   0.857 -10.845  0.00  0.00    -0.168 F 
ATOM     31  F   LIG d   1       5.919  -0.710  -9.515  0.00  0.00    -0.168 F 
BRANCH  29  32
ATOM     32  C   LIG d   1       4.399  -1.448 -11.210  0.00  0.00     0.429 C 
ATOM     33  F   LIG d   1       5.577  -1.914 -11.807  0.00  0.00    -0.186 F 
ATOM     34  F   LIG d   1       3.751  -2.509 -10.568  0.00  0.00    -0.186 F 
BRANCH  32  35
ATOM     35  C   LIG d   1       3.482  -0.863 -12.285  0.00  0.00     0.463 C 
ATOM     36  F   LIG d   1       4.213   0.005 -13.102  0.00  0.00    -0.165 F 
ATOM     37  F   LIG d   1       2.953  -1.900 -13.062  0.00  0.00    -0.165 F 
ATOM     38  F   LIG d   1       2.437  -0.161 -11.675  0.00  0.00    -0.165 F 
ENDBRANCH  32  35
ENDBRANCH  29  32
ENDBRANCH  28  29
ENDBRANCH  22  28
ENDBRANCH   2  22
TORSDOF 7
ENDMDL
MODEL 10
REMARK VINA RESULT:      -6.5      2.954      5.674
REMARK  7 active torsions:
REMARK  status: ('A' for Active; 'I' for Inactive)
REMARK    1  A    between atoms: C_4  and  N_7 
REMARK       I    between atoms: N_7  and  C_8 
REMARK    2  A    between atoms: C_8  and  C_10 
REMARK    3  A    between atoms: C_10  and  C_11 
REMARK    4  A    between atoms: C_10  and  O_15 
REMARK    5  A    between atoms: O_15  and  C_16 
REMARK    6  A    between atoms: C_16  and  C_17 
REMARK    7  A    between atoms: C_17  and  C_18 
ROOT
ATOM      1  N   LIG d   1       7.170   0.113  -5.104  0.00  0.00    -0.307 N 
ATOM      2  C   LIG d   1       7.373  -1.212  -4.965  0.00  0.00     0.288 C 
ATOM      3  O   LIG d   1       8.496  -1.640  -4.809  0.00  0.00    -0.269 OA
ATOM      4  H   LIG d   1       6.271   0.455  -5.228  0.00  0.00     0.149 HD
ENDROOT
BRANCH   1   5
ATOM      5  C   LIG d   1       8.306   1.036  -5.066  0.00  0.00     0.023 C 
ATOM      6  C   LIG d   1       8.287   1.921  -6.314  0.00  0.00    -0.035 C 
ATOM      7  C   LIG d   1       9.475   2.885  -6.275  0.00  0.00    -0.051 C 
ATOM      8  H   LIG d   1       7.357   2.490  -6.342  0.00  0.00     0.028 H 
ATOM      9  H   LIG d   1       8.356   1.295  -7.204  0.00  0.00     0.028 H 
ATOM     10  C   LIG d   1       9.376   3.763  -5.026  0.00  0.00    -0.053 C 
ATOM     11  H   LIG d   1       9.460   3.515  -7.164  0.00  0.00     0.027 H 
ATOM     12  H   LIG d   1      10.403   2.316  -6.247  0.00  0.00     0.027 H 
ATOM     13  C   LIG d   1       9.397   2.878  -3.777  0.00  0.00    -0.051 C 
ATOM     14  H   LIG d   1      10.223   4.450  -4.997  0.00  0.00     0.026 H 
ATOM     15  H   LIG d   1       8.448   4.332  -5.054  0.00  0.00     0.026 H 
ATOM     16  C   LIG d   1       8.209   1.915  -3.817  0.00  0.00    -0.035 C 
ATOM     17  H   LIG d   1      10.325   2.310  -3.750  0.00  0.00     0.027 H 
ATOM     18  H   LIG d   1       9.326   3.504  -2.888  0.00  0.00     0.027 H 
ATOM     19  H   LIG d   1       7.279   2.483  -3.844  0.00  0.00     0.028 H 
ATOM     20  H   LIG d   1       8.223   1.285  -2.928  0.00  0.00     0.028 H 
ATOM     21  H   LIG d   1       9.236   0.467  -5.038  0.00  0.00     0.050 H 
ENDBRANCH   1   5
BRANCH   2  22
ATOM     22  C   LIG d   1       6.204  -2.162  -5.004  0.00  0.00     0.386 C 
ATOM     23  F   LIG d   1       6.374  -3.151  -4.029  0.00  0.00    -0.190 F 
BRANCH  22  24
ATOM     24  C   LIG d   1       6.122  -2.816  -6.384  0.00  0.00     0.459 C 
ATOM     25  F   LIG d   1       6.841  -4.015  -6.375  0.00  0.00    -0.165 F 
ATOM     26  F   LIG d   1       4.785  -3.077  -6.698  0.00  0.00    -0.165 F 
ATOM     27  F   LIG d   1       6.666  -1.954  -7.342  0.00  0.00    -0.165 F 
ENDBRANCH  22  24
BRANCH  22  28
ATOM     28  O   LIG d   1       4.997  -1.442  -4.745  0.00  0.00    -0.263 OA
BRANCH  28  29
ATOM     29  C   LIG d   1       4.579  -1.479  -3.379  0.00  0.00     0.432 C 
ATOM     30  F   LIG d   1       4.033  -2.734  -3.092  0.00  0.00    -0.168 F 
ATOM     31  F   LIG d   1       5.680  -1.248  -2.548  0.00  0.00    -0.168 F 
BRANCH  29  32
ATOM     32  C   LIG d   1       3.523  -0.398  -3.140  0.00  0.00     0.429 C 
ATOM     33  F   LIG d   1       3.124   0.144  -4.367  0.00  0.00    -0.186 F 
ATOM     34  F   LIG d   1       2.416  -0.960  -2.495  0.00  0.00    -0.186 F 
BRANCH  32  35
ATOM     35  C   LIG d   1       4.116   0.708  -2.265  0.00  0.00     0.463 C 
ATOM     36  F   LIG d   1       5.211   1.284  -2.917  0.00  0.00    -0.165 F 
ATOM     37  F   LIG d   1       3.145   1.688  -2.030  0.00  0.00    -0.165 F 
ATOM     38  F   LIG d   1       4.533   0.165  -1.044  0.00  0.00    -0.165 F 
ENDBRANCH  32  35
ENDBRANCH  29  32
ENDBRANCH  28  29
ENDBRANCH  22  28
ENDBRANCH   2  22
TORSDOF 7
ENDMDL
