MODEL 1
REMARK VINA RESULT:      -6.2      0.000      0.000
REMARK  7 active torsions:
REMARK  status: ('A' for Active; 'I' for Inactive)
REMARK    1  A    between atoms: C_1  and  C_2 
REMARK    2  A    between atoms: C_2  and  O_4 
REMARK    3  A    between atoms: O_4  and  C_5 
REMARK    4  A    between atoms: C_11  and  C_32 
REMARK    5  A    between atoms: C_22  and  C_31 
REMARK    6  A    between atoms: C_25  and  C_28 
REMARK    7  A    between atoms: C_28  and  C_29 
ROOT
ATOM      1  C   LIG d   1       5.622  -9.625  -3.685  0.00  0.00     0.109 C 
ATOM      2  H   LIG d   1       5.275  -8.604  -3.564  0.00  0.00     0.074 H 
ATOM      3  C   LIG d   1       4.840 -10.586  -2.758  0.00  0.00    -0.015 C 
ATOM      4  C   LIG d   1       5.801 -10.962  -1.597  0.00  0.00    -0.046 C 
ATOM      5  C   LIG d   1       6.874  -9.867  -1.681  0.00  0.00    -0.029 C 
ATOM      6  H   LIG d   1       6.414  -8.925  -1.311  0.00  0.00     0.031 H 
ATOM      7  C   LIG d   1       7.085  -9.738  -3.202  0.00  0.00     0.008 C 
ATOM      8  C   LIG d   1       7.943  -8.544  -3.537  0.00  0.00    -0.044 C 
ATOM      9  C   LIG d   1       9.033  -8.333  -2.477  0.00  0.00    -0.049 C 
ATOM     10  C   LIG d   1       9.356  -9.626  -1.743  0.00  0.00    -0.032 C 
ATOM     11  H   LIG d   1       9.627 -10.397  -2.465  0.00  0.00     0.031 H 
ATOM     12  C   LIG d   1       8.149 -10.092  -0.929  0.00  0.00    -0.034 C 
ATOM     13  H   LIG d   1       8.107  -9.446  -0.027  0.00  0.00     0.031 H 
ATOM     14  C   LIG d   1       8.353 -11.518  -0.437  0.00  0.00    -0.049 C 
ATOM     15  C   LIG d   1       9.768 -11.653   0.149  0.00  0.00    -0.049 C 
ATOM     16  C   LIG d   1      10.296 -10.262   0.464  0.00  0.00    -0.035 C 
ATOM     17  H   LIG d   1       9.516  -9.728   1.031  0.00  0.00     0.031 H 
ATOM     18  C   LIG d   1      10.564  -9.478  -0.821  0.00  0.00    -0.026 C 
ATOM     19  C   LIG d   1      10.868  -8.030  -0.466  0.00  0.00    -0.047 C 
ATOM     20  C   LIG d   1      12.076  -7.965   0.470  0.00  0.00    -0.049 C 
ATOM     21  C   LIG d   1      11.875  -8.823   1.714  0.00  0.00    -0.036 C 
ATOM     22  H   LIG d   1      11.053  -8.413   2.306  0.00  0.00     0.030 H 
ATOM     23  C   LIG d   1      11.548 -10.274   1.334  0.00  0.00    -0.046 C 
ATOM     24  H   LIG d   1       3.953 -10.090  -2.364  0.00  0.00     0.030 H 
ATOM     25  H   LIG d   1       4.553 -11.482  -3.308  0.00  0.00     0.030 H 
ATOM     26  H   LIG d   1       6.221 -11.952  -1.740  0.00  0.00     0.027 H 
ATOM     27  H   LIG d   1       5.275 -10.906  -0.641  0.00  0.00     0.027 H 
ATOM     28  H   LIG d   1       8.413  -8.692  -4.518  0.00  0.00     0.027 H 
ATOM     29  H   LIG d   1       7.316  -7.645  -3.596  0.00  0.00     0.027 H 
ATOM     30  H   LIG d   1       9.937  -7.957  -2.968  0.00  0.00     0.027 H 
ATOM     31  H   LIG d   1       8.697  -7.579  -1.760  0.00  0.00     0.027 H 
ATOM     32  H   LIG d   1       7.623 -11.747   0.340  0.00  0.00     0.027 H 
ATOM     33  H   LIG d   1       8.241 -12.218  -1.262  0.00  0.00     0.027 H 
ATOM     34  H   LIG d   1       9.715 -12.238   1.072  0.00  0.00     0.027 H 
ATOM     35  H   LIG d   1      10.412 -12.164  -0.560  0.00  0.00     0.027 H 
ATOM     36  H   LIG d   1      10.001  -7.584   0.026  0.00  0.00     0.027 H 
ATOM     37  H   LIG d   1      11.086  -7.469  -1.378  0.00  0.00     0.027 H 
ATOM     38  H   LIG d   1      12.214  -6.921   0.786  0.00  0.00     0.027 H 
ATOM     39  H   LIG d   1      12.980  -8.273  -0.050  0.00  0.00     0.027 H 
ATOM     40  H   LIG d   1      11.337 -10.839   2.252  0.00  0.00     0.027 H 
ATOM     41  H   LIG d   1      12.388 -10.739   0.833  0.00  0.00     0.027 H 
ENDROOT
BRANCH   1  42
ATOM     42  O   LIG d   1       5.527 -10.050  -5.066  0.00  0.00    -0.461 OA
BRANCH  42  43
ATOM     43  C   LIG d   1       4.927  -9.209  -5.924  0.00  0.00     0.304 C 
ATOM     44  O   LIG d   1       4.293  -9.647  -6.854  0.00  0.00    -0.251 OA
BRANCH  43  45
ATOM     45  C   LIG d   1       5.043  -7.721  -5.724  0.00  0.00     0.033 C 
ATOM     46  H   LIG d   1       5.711  -7.517  -4.886  0.00  0.00     0.034 H 
ATOM     47  H   LIG d   1       5.444  -7.263  -6.628  0.00  0.00     0.034 H 
ATOM     48  H   LIG d   1       4.059  -7.304  -5.513  0.00  0.00     0.034 H 
ENDBRANCH  43  45
ENDBRANCH  42  43
ENDBRANCH   1  42
BRANCH   7  49
ATOM     49  C   LIG d   1       7.654 -11.015  -3.826  0.00  0.00    -0.056 C 
ATOM     50  H   LIG d   1       7.832 -11.754  -3.045  0.00  0.00     0.024 H 
ATOM     51  H   LIG d   1       6.942 -11.414  -4.549  0.00  0.00     0.024 H 
ATOM     52  H   LIG d   1       8.594 -10.785  -4.330  0.00  0.00     0.024 H 
ENDBRANCH   7  49
BRANCH  18  53
ATOM     53  C   LIG d   1      11.767 -10.071  -1.560  0.00  0.00    -0.059 C 
ATOM     54  H   LIG d   1      12.323 -10.723  -0.887  0.00  0.00     0.024 H 
ATOM     55  H   LIG d   1      11.418 -10.647  -2.418  0.00  0.00     0.024 H 
ATOM     56  H   LIG d   1      12.417  -9.265  -1.903  0.00  0.00     0.024 H 
ENDBRANCH  18  53
BRANCH  21  57
ATOM     57  C   LIG d   1      13.154  -8.800   2.556  0.00  0.00    -0.010 C 
ATOM     58  H   LIG d   1      13.738  -9.698   2.355  0.00  0.00     0.033 H 
ATOM     59  H   LIG d   1      13.742  -7.919   2.299  0.00  0.00     0.033 H 
BRANCH  57  60
ATOM     60  C   LIG d   1      12.792  -8.753   4.018  0.00  0.00     0.042 C 
ATOM     61  O   LIG d   1      13.402  -9.429   4.813  0.00  0.00    -0.550 OA
ATOM     62  O   LIG d   1      11.793  -7.960   4.438  0.00  0.00    -0.550 OA
ENDBRANCH  57  60
ENDBRANCH  21  57
TORSDOF 7
ENDMDL
MODEL 2
REMARK VINA RESULT:      -5.7     12.234     14.889
REMARK  7 active torsions:
REMARK  status: ('A' for Active; 'I' for Inactive)
REMARK    1  A    between atoms: C_1  and  C_2 
REMARK    2  A    between atoms: C_2  and  O_4 
REMARK    3  A    between atoms: O_4  and  C_5 
REMARK    4  A    between atoms: C_11  and  C_32 
REMARK    5  A    between atoms: C_22  and  C_31 
REMARK    6  A    between atoms: C_25  and  C_28 
REMARK    7  A    between atoms: C_28  and  C_29 
ROOT
ATOM      1  C   LIG d   1       4.892   1.321  -8.858  0.00  0.00     0.109 C 
ATOM      2  H   LIG d   1       5.188   1.056  -7.848  0.00  0.00     0.074 H 
ATOM      3  C   LIG d   1       3.623   2.206  -8.845  0.00  0.00    -0.015 C 
ATOM      4  C   LIG d   1       2.448   1.301  -9.310  0.00  0.00    -0.046 C 
ATOM      5  C   LIG d   1       3.016  -0.113  -9.120  0.00  0.00    -0.029 C 
ATOM      6  H   LIG d   1       3.049  -0.311  -8.026  0.00  0.00     0.031 H 
ATOM      7  C   LIG d   1       4.464   0.051  -9.625  0.00  0.00     0.008 C 
ATOM      8  C   LIG d   1       5.293  -1.170  -9.316  0.00  0.00    -0.044 C 
ATOM      9  C   LIG d   1       4.457  -2.451  -9.443  0.00  0.00    -0.049 C 
ATOM     10  C   LIG d   1       3.270  -2.254 -10.374  0.00  0.00    -0.032 C 
ATOM     11  H   LIG d   1       3.621  -1.894 -11.341  0.00  0.00     0.031 H 
ATOM     12  C   LIG d   1       2.290  -1.243  -9.779  0.00  0.00    -0.034 C 
ATOM     13  H   LIG d   1       1.732  -1.774  -8.980  0.00  0.00     0.031 H 
ATOM     14  C   LIG d   1       1.263  -0.816 -10.820  0.00  0.00    -0.049 C 
ATOM     15  C   LIG d   1       0.729  -2.063 -11.544  0.00  0.00    -0.049 C 
ATOM     16  C   LIG d   1       1.035  -3.285 -10.692  0.00  0.00    -0.035 C 
ATOM     17  H   LIG d   1       0.708  -3.066  -9.662  0.00  0.00     0.031 H 
ATOM     18  C   LIG d   1       2.538  -3.564 -10.659  0.00  0.00    -0.026 C 
ATOM     19  C   LIG d   1       2.822  -4.641  -9.623  0.00  0.00    -0.047 C 
ATOM     20  C   LIG d   1       2.043  -5.912  -9.966  0.00  0.00    -0.049 C 
ATOM     21  C   LIG d   1       0.549  -5.641 -10.107  0.00  0.00    -0.036 C 
ATOM     22  H   LIG d   1       0.147  -5.331  -9.139  0.00  0.00     0.030 H 
ATOM     23  C   LIG d   1       0.287  -4.536 -11.139  0.00  0.00    -0.046 C 
ATOM     24  H   LIG d   1       3.433   2.578  -7.839  0.00  0.00     0.030 H 
ATOM     25  H   LIG d   1       3.744   3.041  -9.535  0.00  0.00     0.030 H 
ATOM     26  H   LIG d   1       2.188   1.497 -10.345  0.00  0.00     0.027 H 
ATOM     27  H   LIG d   1       1.580   1.451  -8.664  0.00  0.00     0.027 H 
ATOM     28  H   LIG d   1       6.144  -1.221 -10.008  0.00  0.00     0.027 H 
ATOM     29  H   LIG d   1       5.691  -1.096  -8.297  0.00  0.00     0.027 H 
ATOM     30  H   LIG d   1       5.094  -3.253  -9.830  0.00  0.00     0.027 H 
ATOM     31  H   LIG d   1       4.101  -2.748  -8.452  0.00  0.00     0.027 H 
ATOM     32  H   LIG d   1       0.433  -0.307 -10.330  0.00  0.00     0.027 H 
ATOM     33  H   LIG d   1       1.723  -0.152 -11.548  0.00  0.00     0.027 H 
ATOM     34  H   LIG d   1      -0.354  -1.967 -11.663  0.00  0.00     0.027 H 
ATOM     35  H   LIG d   1       1.191  -2.144 -12.523  0.00  0.00     0.027 H 
ATOM     36  H   LIG d   1       2.523  -4.286  -8.634  0.00  0.00     0.027 H 
ATOM     37  H   LIG d   1       3.892  -4.864  -9.612  0.00  0.00     0.027 H 
ATOM     38  H   LIG d   1       2.189  -6.639  -9.155  0.00  0.00     0.027 H 
ATOM     39  H   LIG d   1       2.426  -6.360 -10.881  0.00  0.00     0.027 H 
ATOM     40  H   LIG d   1      -0.790  -4.319 -11.156  0.00  0.00     0.027 H 
ATOM     41  H   LIG d   1       0.585  -4.857 -12.130  0.00  0.00     0.027 H 
ENDROOT
BRANCH   1  42
ATOM     42  O   LIG d   1       5.972   1.980  -9.564  0.00  0.00    -0.461 OA
BRANCH  42  43
ATOM     43  C   LIG d   1       7.102   2.207  -8.876  0.00  0.00     0.304 C 
ATOM     44  O   LIG d   1       7.866   3.070  -9.237  0.00  0.00    -0.251 OA
BRANCH  43  45
ATOM     45  C   LIG d   1       7.416   1.387  -7.652  0.00  0.00     0.033 C 
ATOM     46  H   LIG d   1       6.508   1.246  -7.065  0.00  0.00     0.034 H 
ATOM     47  H   LIG d   1       7.806   0.415  -7.956  0.00  0.00     0.034 H 
ATOM     48  H   LIG d   1       8.162   1.903  -7.049  0.00  0.00     0.034 H 
ENDBRANCH  43  45
ENDBRANCH  42  43
ENDBRANCH   1  42
BRANCH   7  49
ATOM     49  C   LIG d   1       4.529   0.397 -11.115  0.00  0.00    -0.056 C 
ATOM     50  H   LIG d   1       5.301   1.149 -11.280  0.00  0.00     0.024 H 
ATOM     51  H   LIG d   1       4.767  -0.500 -11.686  0.00  0.00     0.024 H 
ATOM     52  H   LIG d   1       3.565   0.790 -11.440  0.00  0.00     0.024 H 
ENDBRANCH   7  49
BRANCH  18  53
ATOM     53  C   LIG d   1       3.014  -4.054 -12.029  0.00  0.00    -0.059 C 
ATOM     54  H   LIG d   1       2.700  -3.348 -12.797  0.00  0.00     0.024 H 
ATOM     55  H   LIG d   1       4.102  -4.131 -12.029  0.00  0.00     0.024 H 
ATOM     56  H   LIG d   1       2.580  -5.033 -12.236  0.00  0.00     0.024 H 
ENDBRANCH  18  53
BRANCH  21  57
ATOM     57  C   LIG d   1      -0.158  -6.924 -10.552  0.00  0.00    -0.010 C 
ATOM     58  H   LIG d   1      -0.513  -6.807 -11.576  0.00  0.00     0.033 H 
ATOM     59  H   LIG d   1       0.541  -7.760 -10.503  0.00  0.00     0.033 H 
BRANCH  57  60
ATOM     60  C   LIG d   1      -1.328  -7.194  -9.642  0.00  0.00     0.042 C 
ATOM     61  O   LIG d   1      -2.064  -8.126  -9.865  0.00  0.00    -0.550 OA
ATOM     62  O   LIG d   1      -1.553  -6.399  -8.583  0.00  0.00    -0.550 OA
ENDBRANCH  57  60
ENDBRANCH  21  57
TORSDOF 7
ENDMDL
MODEL 3
REMARK VINA RESULT:      -5.6     14.784     17.610
REMARK  7 active torsions:
REMARK  status: ('A' for Active; 'I' for Inactive)
REMARK    1  A    between atoms: C_1  and  C_2 
REMARK    2  A    between atoms: C_2  and  O_4 
REMARK    3  A    between atoms: O_4  and  C_5 
REMARK    4  A    between atoms: C_11  and  C_32 
REMARK    5  A    between atoms: C_22  and  C_31 
REMARK    6  A    between atoms: C_25  and  C_28 
REMARK    7  A    between atoms: C_28  and  C_29 
ROOT
ATOM      1  C   LIG d   1      10.720   9.090   0.689  0.00  0.00     0.109 C 
ATOM      2  H   LIG d   1      10.121   8.635   1.470  0.00  0.00     0.074 H 
ATOM      3  C   LIG d   1       9.914  10.178  -0.060  0.00  0.00    -0.015 C 
ATOM      4  C   LIG d   1       9.535   9.576  -1.441  0.00  0.00    -0.046 C 
ATOM      5  C   LIG d   1       9.741   8.070  -1.220  0.00  0.00    -0.029 C 
ATOM      6  H   LIG d   1       8.910   7.715  -0.570  0.00  0.00     0.031 H 
ATOM      7  C   LIG d   1      11.044   8.041  -0.397  0.00  0.00     0.008 C 
ATOM      8  C   LIG d   1      11.322   6.659   0.139  0.00  0.00    -0.044 C 
ATOM      9  C   LIG d   1      10.891   5.581  -0.865  0.00  0.00    -0.049 C 
ATOM     10  C   LIG d   1      10.869   6.119  -2.288  0.00  0.00    -0.032 C 
ATOM     11  H   LIG d   1      11.843   6.543  -2.532  0.00  0.00     0.031 H 
ATOM     12  C   LIG d   1       9.793   7.195  -2.433  0.00  0.00    -0.034 C 
ATOM     13  H   LIG d   1       8.820   6.665  -2.487  0.00  0.00     0.031 H 
ATOM     14  C   LIG d   1       9.957   7.944  -3.748  0.00  0.00    -0.049 C 
ATOM     15  C   LIG d   1      10.181   6.929  -4.882  0.00  0.00    -0.049 C 
ATOM     16  C   LIG d   1       9.708   5.563  -4.410  0.00  0.00    -0.035 C 
ATOM     17  H   LIG d   1       8.702   5.689  -3.976  0.00  0.00     0.031 H 
ATOM     18  C   LIG d   1      10.626   5.017  -3.317  0.00  0.00    -0.026 C 
ATOM     19  C   LIG d   1       9.997   3.770  -2.715  0.00  0.00    -0.047 C 
ATOM     20  C   LIG d   1       9.770   2.721  -3.806  0.00  0.00    -0.049 C 
ATOM     21  C   LIG d   1       8.941   3.275  -4.959  0.00  0.00    -0.036 C 
ATOM     22  H   LIG d   1       7.936   3.511  -4.600  0.00  0.00     0.030 H 
ATOM     23  C   LIG d   1       9.581   4.545  -5.537  0.00  0.00    -0.046 C 
ATOM     24  H   LIG d   1       9.014  10.431   0.499  0.00  0.00     0.030 H 
ATOM     25  H   LIG d   1      10.529  11.067  -0.199  0.00  0.00     0.030 H 
ATOM     26  H   LIG d   1      10.177   9.961  -2.227  0.00  0.00     0.027 H 
ATOM     27  H   LIG d   1       8.487   9.786  -1.667  0.00  0.00     0.027 H 
ATOM     28  H   LIG d   1      12.395   6.554   0.347  0.00  0.00     0.027 H 
ATOM     29  H   LIG d   1      10.781   6.513   1.081  0.00  0.00     0.027 H 
ATOM     30  H   LIG d   1      11.591   4.740  -0.804  0.00  0.00     0.027 H 
ATOM     31  H   LIG d   1       9.896   5.215  -0.595  0.00  0.00     0.027 H 
ATOM     32  H   LIG d   1       9.056   8.519  -3.959  0.00  0.00     0.027 H 
ATOM     33  H   LIG d   1      10.814   8.611  -3.694  0.00  0.00     0.027 H 
ATOM     34  H   LIG d   1       9.593   7.235  -5.752  0.00  0.00     0.027 H 
ATOM     35  H   LIG d   1      11.232   6.906  -5.152  0.00  0.00     0.027 H 
ATOM     36  H   LIG d   1       9.041   4.028  -2.253  0.00  0.00     0.027 H 
ATOM     37  H   LIG d   1      10.660   3.358  -1.950  0.00  0.00     0.027 H 
ATOM     38  H   LIG d   1       9.229   1.872  -3.365  0.00  0.00     0.027 H 
ATOM     39  H   LIG d   1      10.721   2.347  -4.180  0.00  0.00     0.027 H 
ATOM     40  H   LIG d   1       8.917   4.953  -6.311  0.00  0.00     0.027 H 
ATOM     41  H   LIG d   1      10.538   4.320  -5.992  0.00  0.00     0.027 H 
ENDROOT
BRANCH   1  42
ATOM     42  O   LIG d   1      11.951   9.637   1.225  0.00  0.00    -0.461 OA
BRANCH  42  43
ATOM     43  C   LIG d   1      12.137   9.537   2.550  0.00  0.00     0.304 C 
ATOM     44  O   LIG d   1      11.875   8.505   3.120  0.00  0.00    -0.251 OA
BRANCH  43  45
ATOM     45  C   LIG d   1      12.674  10.711   3.326  0.00  0.00     0.033 C 
ATOM     46  H   LIG d   1      13.305  10.352   4.140  0.00  0.00     0.034 H 
ATOM     47  H   LIG d   1      13.262  11.346   2.663  0.00  0.00     0.034 H 
ATOM     48  H   LIG d   1      11.845  11.286   3.737  0.00  0.00     0.034 H 
ENDBRANCH  43  45
ENDBRANCH  42  43
ENDBRANCH   1  42
BRANCH   7  49
ATOM     49  C   LIG d   1      12.244   8.578  -1.180  0.00  0.00    -0.056 C 
ATOM     50  H   LIG d   1      12.563   9.528  -0.753  0.00  0.00     0.024 H 
ATOM     51  H   LIG d   1      13.064   7.861  -1.125  0.00  0.00     0.024 H 
ATOM     52  H   LIG d   1      11.961   8.725  -2.223  0.00  0.00     0.024 H 
ENDBRANCH   7  49
BRANCH  18  53
ATOM     53  C   LIG d   1      11.990   4.649  -3.908  0.00  0.00    -0.059 C 
ATOM     54  H   LIG d   1      12.780   4.993  -3.242  0.00  0.00     0.024 H 
ATOM     55  H   LIG d   1      12.056   3.566  -4.023  0.00  0.00     0.024 H 
ATOM     56  H   LIG d   1      12.103   5.125  -4.883  0.00  0.00     0.024 H 
ENDBRANCH  18  53
BRANCH  21  57
ATOM     57  C   LIG d   1       8.839   2.217  -6.062  0.00  0.00    -0.010 C 
ATOM     58  H   LIG d   1       8.326   2.640  -6.925  0.00  0.00     0.033 H 
ATOM     59  H   LIG d   1       9.840   1.898  -6.353  0.00  0.00     0.033 H 
BRANCH  57  60
ATOM     60  C   LIG d   1       8.064   1.030  -5.549  0.00  0.00     0.042 C 
ATOM     61  O   LIG d   1       6.912   1.162  -5.209  0.00  0.00    -0.550 OA
ATOM     62  O   LIG d   1       8.654  -0.174  -5.471  0.00  0.00    -0.550 OA
ENDBRANCH  57  60
ENDBRANCH  21  57
TORSDOF 7
ENDMDL
MODEL 4
REMARK VINA RESULT:      -5.4     10.013     14.972
REMARK  7 active torsions:
REMARK  status: ('A' for Active; 'I' for Inactive)
REMARK    1  A    between atoms: C_1  and  C_2 
REMARK    2  A    between atoms: C_2  and  O_4 
REMARK    3  A    between atoms: O_4  and  C_5 
REMARK    4  A    between atoms: C_11  and  C_32 
REMARK    5  A    between atoms: C_22  and  C_31 
REMARK    6  A    between atoms: C_25  and  C_28 
REMARK    7  A    between atoms: C_28  and  C_29 
ROOT
ATOM      1  C   LIG d   1       3.593  -0.655  -4.810  0.00  0.00     0.109 C 
ATOM      2  H   LIG d   1       2.951  -1.509  -4.621  0.00  0.00     0.074 H 
ATOM      3  C   LIG d   1       2.771   0.657  -4.829  0.00  0.00    -0.015 C 
ATOM      4  C   LIG d   1       2.660   1.087  -6.317  0.00  0.00    -0.046 C 
ATOM      5  C   LIG d   1       3.014  -0.204  -7.069  0.00  0.00    -0.029 C 
ATOM      6  H   LIG d   1       2.151  -0.898  -6.958  0.00  0.00     0.031 H 
ATOM      7  C   LIG d   1       4.186  -0.753  -6.232  0.00  0.00     0.008 C 
ATOM      8  C   LIG d   1       4.553  -2.153  -6.655  0.00  0.00    -0.044 C 
ATOM      9  C   LIG d   1       4.397  -2.329  -8.172  0.00  0.00    -0.049 C 
ATOM     10  C   LIG d   1       4.505  -0.999  -8.903  0.00  0.00    -0.032 C 
ATOM     11  H   LIG d   1       5.445  -0.514  -8.640  0.00  0.00     0.031 H 
ATOM     12  C   LIG d   1       3.337  -0.089  -8.526  0.00  0.00    -0.034 C 
ATOM     13  H   LIG d   1       2.451  -0.462  -9.081  0.00  0.00     0.031 H 
ATOM     14  C   LIG d   1       3.588   1.334  -9.009  0.00  0.00    -0.049 C 
ATOM     15  C   LIG d   1       4.086   1.292 -10.463  0.00  0.00    -0.049 C 
ATOM     16  C   LIG d   1       3.721  -0.058 -11.062  0.00  0.00    -0.035 C 
ATOM     17  H   LIG d   1       2.657  -0.246 -10.840  0.00  0.00     0.031 H 
ATOM     18  C   LIG d   1       4.540  -1.177 -10.420  0.00  0.00    -0.026 C 
ATOM     19  C   LIG d   1       3.990  -2.520 -10.874  0.00  0.00    -0.047 C 
ATOM     20  C   LIG d   1       4.042  -2.617 -12.400  0.00  0.00    -0.049 C 
ATOM     21  C   LIG d   1       3.318  -1.452 -13.066  0.00  0.00    -0.036 C 
ATOM     22  H   LIG d   1       2.253  -1.508 -12.830  0.00  0.00     0.030 H 
ATOM     23  C   LIG d   1       3.874  -0.108 -12.578  0.00  0.00    -0.046 C 
ATOM     24  H   LIG d   1       1.779   0.485  -4.413  0.00  0.00     0.030 H 
ATOM     25  H   LIG d   1       3.288   1.428  -4.257  0.00  0.00     0.030 H 
ATOM     26  H   LIG d   1       3.352   1.891  -6.546  0.00  0.00     0.027 H 
ATOM     27  H   LIG d   1       1.635   1.391  -6.545  0.00  0.00     0.027 H 
ATOM     28  H   LIG d   1       5.592  -2.363  -6.370  0.00  0.00     0.027 H 
ATOM     29  H   LIG d   1       3.909  -2.875  -6.139  0.00  0.00     0.027 H 
ATOM     30  H   LIG d   1       5.178  -3.007  -8.532  0.00  0.00     0.027 H 
ATOM     31  H   LIG d   1       3.426  -2.786  -8.383  0.00  0.00     0.027 H 
ATOM     32  H   LIG d   1       2.661   1.905  -8.967  0.00  0.00     0.027 H 
ATOM     33  H   LIG d   1       4.343   1.811  -8.388  0.00  0.00     0.027 H 
ATOM     34  H   LIG d   1       3.590   2.085 -11.030  0.00  0.00     0.027 H 
ATOM     35  H   LIG d   1       5.159   1.453 -10.489  0.00  0.00     0.027 H 
ATOM     36  H   LIG d   1       2.956  -2.625 -10.538  0.00  0.00     0.027 H 
ATOM     37  H   LIG d   1       4.587  -3.326 -10.440  0.00  0.00     0.027 H 
ATOM     38  H   LIG d   1       3.553  -3.552 -12.706  0.00  0.00     0.027 H 
ATOM     39  H   LIG d   1       5.074  -2.658 -12.745  0.00  0.00     0.027 H 
ATOM     40  H   LIG d   1       3.278   0.701 -13.021  0.00  0.00     0.027 H 
ATOM     41  H   LIG d   1       4.904   0.018 -12.887  0.00  0.00     0.027 H 
ENDROOT
BRANCH   1  42
ATOM     42  O   LIG d   1       4.663  -0.578  -3.836  0.00  0.00    -0.461 OA
BRANCH  42  43
ATOM     43  C   LIG d   1       4.359  -0.901  -2.569  0.00  0.00     0.304 C 
ATOM     44  O   LIG d   1       4.540  -0.102  -1.682  0.00  0.00    -0.251 OA
BRANCH  43  45
ATOM     45  C   LIG d   1       3.791  -2.260  -2.254  0.00  0.00     0.033 C 
ATOM     46  H   LIG d   1       4.218  -2.999  -2.932  0.00  0.00     0.034 H 
ATOM     47  H   LIG d   1       4.035  -2.527  -1.225  0.00  0.00     0.034 H 
ATOM     48  H   LIG d   1       2.708  -2.239  -2.375  0.00  0.00     0.034 H 
ENDBRANCH  43  45
ENDBRANCH  42  43
ENDBRANCH   1  42
BRANCH   7  49
ATOM     49  C   LIG d   1       5.409   0.167  -6.260  0.00  0.00    -0.056 C 
ATOM     50  H   LIG d   1       5.126   1.136  -6.671  0.00  0.00     0.024 H 
ATOM     51  H   LIG d   1       5.788   0.299  -5.247  0.00  0.00     0.024 H 
ATOM     52  H   LIG d   1       6.185  -0.279  -6.884  0.00  0.00     0.024 H 
ENDBRANCH   7  49
BRANCH  18  53
ATOM     53  C   LIG d   1       6.007  -1.071 -10.849  0.00  0.00    -0.059 C 
ATOM     54  H   LIG d   1       6.495  -2.035 -10.717  0.00  0.00     0.024 H 
ATOM     55  H   LIG d   1       6.057  -0.778 -11.898  0.00  0.00     0.024 H 
ATOM     56  H   LIG d   1       6.510  -0.322 -10.238  0.00  0.00     0.024 H 
ENDBRANCH  18  53
BRANCH  21  57
ATOM     57  C   LIG d   1       3.497  -1.549 -14.584  0.00  0.00    -0.010 C 
ATOM     58  H   LIG d   1       3.525  -0.547 -15.012  0.00  0.00     0.033 H 
ATOM     59  H   LIG d   1       4.430  -2.066 -14.808  0.00  0.00     0.033 H 
BRANCH  57  60
ATOM     60  C   LIG d   1       2.343  -2.316 -15.178  0.00  0.00     0.042 C 
ATOM     61  O   LIG d   1       2.500  -2.951 -16.193  0.00  0.00    -0.550 OA
ATOM     62  O   LIG d   1       1.142  -2.293 -14.578  0.00  0.00    -0.550 OA
ENDBRANCH  57  60
ENDBRANCH  21  57
TORSDOF 7
ENDMDL
MODEL 5
REMARK VINA RESULT:      -5.4     11.306     13.107
REMARK  7 active torsions:
REMARK  status: ('A' for Active; 'I' for Inactive)
REMARK    1  A    between atoms: C_1  and  C_2 
REMARK    2  A    between atoms: C_2  and  O_4 
REMARK    3  A    between atoms: O_4  and  C_5 
REMARK    4  A    between atoms: C_11  and  C_32 
REMARK    5  A    between atoms: C_22  and  C_31 
REMARK    6  A    between atoms: C_25  and  C_28 
REMARK    7  A    between atoms: C_28  and  C_29 
ROOT
ATOM      1  C   LIG d   1       1.145  -3.138 -12.580  0.00  0.00     0.109 C 
ATOM      2  H   LIG d   1       0.096  -3.129 -12.301  0.00  0.00     0.074 H 
ATOM      3  C   LIG d   1       1.753  -4.548 -12.387  0.00  0.00    -0.015 C 
ATOM      4  C   LIG d   1       2.642  -4.477 -11.115  0.00  0.00    -0.046 C 
ATOM      5  C   LIG d   1       2.137  -3.203 -10.423  0.00  0.00    -0.029 C 
ATOM      6  H   LIG d   1       1.135  -3.433  -9.998  0.00  0.00     0.031 H 
ATOM      7  C   LIG d   1       1.949  -2.242 -11.613  0.00  0.00     0.008 C 
ATOM      8  C   LIG d   1       1.232  -0.984 -11.193  0.00  0.00    -0.044 C 
ATOM      9  C   LIG d   1       1.646  -0.560  -9.777  0.00  0.00    -0.049 C 
ATOM     10  C   LIG d   1       3.020  -1.102  -9.411  0.00  0.00    -0.032 C 
ATOM     11  H   LIG d   1       3.746  -0.792 -10.162  0.00  0.00     0.031 H 
ATOM     12  C   LIG d   1       2.986  -2.628  -9.333  0.00  0.00    -0.034 C 
ATOM     13  H   LIG d   1       2.492  -2.885  -8.373  0.00  0.00     0.031 H 
ATOM     14  C   LIG d   1       4.399  -3.192  -9.264  0.00  0.00    -0.049 C 
ATOM     15  C   LIG d   1       5.213  -2.392  -8.234  0.00  0.00    -0.049 C 
ATOM     16  C   LIG d   1       4.246  -1.650  -7.324  0.00  0.00    -0.035 C 
ATOM     17  H   LIG d   1       3.486  -2.373  -6.982  0.00  0.00     0.031 H 
ATOM     18  C   LIG d   1       3.527  -0.537  -8.085  0.00  0.00    -0.026 C 
ATOM     19  C   LIG d   1       2.414   0.025  -7.213  0.00  0.00    -0.047 C 
ATOM     20  C   LIG d   1       2.996   0.554  -5.902  0.00  0.00    -0.049 C 
ATOM     21  C   LIG d   1       3.806  -0.510  -5.171  0.00  0.00    -0.036 C 
ATOM     22  H   LIG d   1       3.140  -1.320  -4.863  0.00  0.00     0.030 H 
ATOM     23  C   LIG d   1       4.908  -1.079  -6.075  0.00  0.00    -0.046 C 
ATOM     24  H   LIG d   1       0.961  -5.284 -12.250  0.00  0.00     0.030 H 
ATOM     25  H   LIG d   1       2.362  -4.813 -13.252  0.00  0.00     0.030 H 
ATOM     26  H   LIG d   1       3.693  -4.408 -11.375  0.00  0.00     0.027 H 
ATOM     27  H   LIG d   1       2.463  -5.350 -10.483  0.00  0.00     0.027 H 
ATOM     28  H   LIG d   1       1.465  -0.175 -11.898  0.00  0.00     0.027 H 
ATOM     29  H   LIG d   1       0.149  -1.151 -11.219  0.00  0.00     0.027 H 
ATOM     30  H   LIG d   1       1.660   0.534  -9.725  0.00  0.00     0.027 H 
ATOM     31  H   LIG d   1       0.905  -0.925  -9.061  0.00  0.00     0.027 H 
ATOM     32  H   LIG d   1       4.362  -4.237  -8.955  0.00  0.00     0.027 H 
ATOM     33  H   LIG d   1       4.881  -3.114 -10.236  0.00  0.00     0.027 H 
ATOM     34  H   LIG d   1       5.810  -3.088  -7.636  0.00  0.00     0.027 H 
ATOM     35  H   LIG d   1       5.875  -1.701  -8.745  0.00  0.00     0.027 H 
ATOM     36  H   LIG d   1       1.685  -0.760  -6.999  0.00  0.00     0.027 H 
ATOM     37  H   LIG d   1       1.912   0.840  -7.741  0.00  0.00     0.027 H 
ATOM     38  H   LIG d   1       2.165   0.865  -5.253  0.00  0.00     0.027 H 
ATOM     39  H   LIG d   1       3.615   1.430  -6.084  0.00  0.00     0.027 H 
ATOM     40  H   LIG d   1       5.417  -1.892  -5.540  0.00  0.00     0.027 H 
ATOM     41  H   LIG d   1       5.640  -0.318  -6.314  0.00  0.00     0.027 H 
ENDROOT
BRANCH   1  42
ATOM     42  O   LIG d   1       1.329  -2.680 -13.942  0.00  0.00    -0.461 OA
BRANCH  42  43
ATOM     43  C   LIG d   1       0.222  -2.387 -14.642  0.00  0.00     0.304 C 
ATOM     44  O   LIG d   1       0.279  -2.273 -15.843  0.00  0.00    -0.251 OA
BRANCH  43  45
ATOM     45  C   LIG d   1      -1.092  -2.200 -13.930  0.00  0.00     0.033 C 
ATOM     46  H   LIG d   1      -1.483  -3.172 -13.626  0.00  0.00     0.034 H 
ATOM     47  H   LIG d   1      -0.942  -1.577 -13.047  0.00  0.00     0.034 H 
ATOM     48  H   LIG d   1      -1.803  -1.716 -14.598  0.00  0.00     0.034 H 
ENDBRANCH  43  45
ENDBRANCH  42  43
ENDBRANCH   1  42
BRANCH   7  49
ATOM     49  C   LIG d   1       3.268  -1.914 -12.316  0.00  0.00    -0.056 C 
ATOM     50  H   LIG d   1       3.363  -2.522 -13.216  0.00  0.00     0.024 H 
ATOM     51  H   LIG d   1       3.283  -0.858 -12.587  0.00  0.00     0.024 H 
ATOM     52  H   LIG d   1       4.101  -2.128 -11.644  0.00  0.00     0.024 H 
ENDBRANCH   7  49
BRANCH  18  53
ATOM     53  C   LIG d   1       4.508   0.589  -8.425  0.00  0.00    -0.059 C 
ATOM     54  H   LIG d   1       4.361   0.900  -9.458  0.00  0.00     0.024 H 
ATOM     55  H   LIG d   1       4.332   1.436  -7.761  0.00  0.00     0.024 H 
ATOM     56  H   LIG d   1       5.530   0.232  -8.295  0.00  0.00     0.024 H 
ENDBRANCH  18  53
BRANCH  21  57
ATOM     57  C   LIG d   1       4.446   0.108  -3.925  0.00  0.00    -0.010 C 
ATOM     58  H   LIG d   1       5.276  -0.516  -3.594  0.00  0.00     0.033 H 
ATOM     59  H   LIG d   1       4.815   1.106  -4.163  0.00  0.00     0.033 H 
BRANCH  57  60
ATOM     60  C   LIG d   1       3.420   0.202  -2.826  0.00  0.00     0.042 C 
ATOM     61  O   LIG d   1       3.460   1.117  -2.039  0.00  0.00    -0.550 OA
ATOM     62  O   LIG d   1       2.460  -0.731  -2.723  0.00  0.00    -0.550 OA
ENDBRANCH  57  60
ENDBRANCH  21  57
TORSDOF 7
ENDMDL
MODEL 6
REMARK VINA RESULT:      -5.4     13.154     16.608
REMARK  7 active torsions:
REMARK  status: ('A' for Active; 'I' for Inactive)
REMARK    1  A    between atoms: C_1  and  C_2 
REMARK    2  A    between atoms: C_2  and  O_4 
REMARK    3  A    between atoms: O_4  and  C_5 
REMARK    4  A    between atoms: C_11  and  C_32 
REMARK    5  A    between atoms: C_22  and  C_31 
REMARK    6  A    between atoms: C_25  and  C_28 
REMARK    7  A    between atoms: C_28  and  C_29 
ROOT
ATOM      1  C   LIG d   1      10.587   6.905  -1.784  0.00  0.00     0.109 C 
ATOM      2  H   LIG d   1       9.738   6.741  -1.130  0.00  0.00     0.074 H 
ATOM      3  C   LIG d   1      10.399   8.195  -2.618  0.00  0.00    -0.015 C 
ATOM      4  C   LIG d   1      10.054   7.742  -4.063  0.00  0.00    -0.046 C 
ATOM      5  C   LIG d   1       9.626   6.280  -3.864  0.00  0.00    -0.029 C 
ATOM      6  H   LIG d   1       8.627   6.293  -3.376  0.00  0.00     0.031 H 
ATOM      7  C   LIG d   1      10.661   5.779  -2.838  0.00  0.00     0.008 C 
ATOM      8  C   LIG d   1      10.293   4.414  -2.312  0.00  0.00    -0.044 C 
ATOM      9  C   LIG d   1       9.656   3.553  -3.411  0.00  0.00    -0.049 C 
ATOM     10  C   LIG d   1      10.080   4.013  -4.798  0.00  0.00    -0.032 C 
ATOM     11  H   LIG d   1      11.169   4.022  -4.862  0.00  0.00     0.031 H 
ATOM     12  C   LIG d   1       9.541   5.414  -5.082  0.00  0.00    -0.034 C 
ATOM     13  H   LIG d   1       8.462   5.297  -5.316  0.00  0.00     0.031 H 
ATOM     14  C   LIG d   1      10.198   6.000  -6.325  0.00  0.00    -0.049 C 
ATOM     15  C   LIG d   1      10.202   4.942  -7.440  0.00  0.00    -0.049 C 
ATOM     16  C   LIG d   1       9.168   3.878  -7.102  0.00  0.00    -0.035 C 
ATOM     17  H   LIG d   1       8.230   4.394  -6.838  0.00  0.00     0.031 H 
ATOM     18  C   LIG d   1       9.609   3.056  -5.892  0.00  0.00    -0.026 C 
ATOM     19  C   LIG d   1       8.458   2.166  -5.448  0.00  0.00    -0.047 C 
ATOM     20  C   LIG d   1       8.032   1.251  -6.598  0.00  0.00    -0.049 C 
ATOM     21  C   LIG d   1       7.685   2.044  -7.853  0.00  0.00    -0.036 C 
ATOM     22  H   LIG d   1       6.804   2.659  -7.658  0.00  0.00     0.030 H 
ATOM     23  C   LIG d   1       8.851   2.951  -8.270  0.00  0.00    -0.046 C 
ATOM     24  H   LIG d   1       9.585   8.792  -2.209  0.00  0.00     0.030 H 
ATOM     25  H   LIG d   1      11.322   8.775  -2.621  0.00  0.00     0.030 H 
ATOM     26  H   LIG d   1      10.916   7.825  -4.717  0.00  0.00     0.027 H 
ATOM     27  H   LIG d   1       9.222   8.331  -4.454  0.00  0.00     0.027 H 
ATOM     28  H   LIG d   1      11.192   3.912  -1.932  0.00  0.00     0.027 H 
ATOM     29  H   LIG d   1       9.588   4.517  -1.479  0.00  0.00     0.027 H 
ATOM     30  H   LIG d   1       9.958   2.510  -3.265  0.00  0.00     0.027 H 
ATOM     31  H   LIG d   1       8.567   3.606  -3.325  0.00  0.00     0.027 H 
ATOM     32  H   LIG d   1       9.635   6.870  -6.662  0.00  0.00     0.027 H 
ATOM     33  H   LIG d   1      11.223   6.288  -6.105  0.00  0.00     0.027 H 
ATOM     34  H   LIG d   1       9.931   5.423  -8.385  0.00  0.00     0.027 H 
ATOM     35  H   LIG d   1      11.193   4.508  -7.532  0.00  0.00     0.027 H 
ATOM     36  H   LIG d   1       7.612   2.786  -5.143  0.00  0.00     0.027 H 
ATOM     37  H   LIG d   1       8.774   1.556  -4.598  0.00  0.00     0.027 H 
ATOM     38  H   LIG d   1       7.142   0.690  -6.284  0.00  0.00     0.027 H 
ATOM     39  H   LIG d   1       8.815   0.529  -6.821  0.00  0.00     0.027 H 
ATOM     40  H   LIG d   1       8.535   3.558  -9.130  0.00  0.00     0.027 H 
ATOM     41  H   LIG d   1       9.710   2.362  -8.567  0.00  0.00     0.027 H 
ENDROOT
BRANCH   1  42
ATOM     42  O   LIG d   1      11.825   6.955  -1.032  0.00  0.00    -0.461 OA
BRANCH  42  43
ATOM     43  C   LIG d   1      11.724   7.020   0.305  0.00  0.00     0.304 C 
ATOM     44  O   LIG d   1      12.179   7.969   0.899  0.00  0.00    -0.251 OA
BRANCH  43  45
ATOM     45  C   LIG d   1      11.043   5.912   1.064  0.00  0.00     0.033 C 
ATOM     46  H   LIG d   1      11.605   5.693   1.972  0.00  0.00     0.034 H 
ATOM     47  H   LIG d   1      10.031   6.221   1.329  0.00  0.00     0.034 H 
ATOM     48  H   LIG d   1      10.998   5.019   0.442  0.00  0.00     0.034 H 
ENDBRANCH  43  45
ENDBRANCH  42  43
ENDBRANCH   1  42
BRANCH   7  49
ATOM     49  C   LIG d   1      12.088   5.788  -3.390  0.00  0.00    -0.056 C 
ATOM     50  H   LIG d   1      12.721   5.150  -2.774  0.00  0.00     0.024 H 
ATOM     51  H   LIG d   1      12.083   5.415  -4.415  0.00  0.00     0.024 H 
ATOM     52  H   LIG d   1      12.476   6.807  -3.377  0.00  0.00     0.024 H 
ENDBRANCH   7  49
BRANCH  18  53
ATOM     53  C   LIG d   1      10.806   2.174  -6.260  0.00  0.00    -0.059 C 
ATOM     54  H   LIG d   1      10.836   1.308  -5.600  0.00  0.00     0.024 H 
ATOM     55  H   LIG d   1      10.706   1.840  -7.294  0.00  0.00     0.024 H 
ATOM     56  H   LIG d   1      11.727   2.746  -6.150  0.00  0.00     0.024 H 
ENDBRANCH  18  53
BRANCH  21  57
ATOM     57  C   LIG d   1       7.371   1.072  -8.994  0.00  0.00    -0.010 C 
ATOM     58  H   LIG d   1       8.040   1.266  -9.832  0.00  0.00     0.033 H 
ATOM     59  H   LIG d   1       7.510   0.048  -8.647  0.00  0.00     0.033 H 
BRANCH  57  60
ATOM     60  C   LIG d   1       5.943   1.262  -9.437  0.00  0.00     0.042 C 
ATOM     61  O   LIG d   1       5.453   2.366  -9.437  0.00  0.00    -0.550 OA
ATOM     62  O   LIG d   1       5.217   0.204  -9.832  0.00  0.00    -0.550 OA
ENDBRANCH  57  60
ENDBRANCH  21  57
TORSDOF 7
ENDMDL
MODEL 7
REMARK VINA RESULT:      -5.3      9.795     11.660
REMARK  7 active torsions:
REMARK  status: ('A' for Active; 'I' for Inactive)
REMARK    1  A    between atoms: C_1  and  C_2 
REMARK    2  A    between atoms: C_2  and  O_4 
REMARK    3  A    between atoms: O_4  and  C_5 
REMARK    4  A    between atoms: C_11  and  C_32 
REMARK    5  A    between atoms: C_22  and  C_31 
REMARK    6  A    between atoms: C_25  and  C_28 
REMARK    7  A    between atoms: C_28  and  C_29 
ROOT
ATOM      1  C   LIG d   1       2.920  -3.161 -11.426  0.00  0.00     0.109 C 
ATOM      2  H   LIG d   1       1.846  -3.010 -11.418  0.00  0.00     0.074 H 
ATOM      3  C   LIG d   1       3.267  -4.651 -11.195  0.00  0.00    -0.015 C 
ATOM      4  C   LIG d   1       3.801  -4.762  -9.741  0.00  0.00    -0.046 C 
ATOM      5  C   LIG d   1       3.307  -3.456  -9.101  0.00  0.00    -0.029 C 
ATOM      6  H   LIG d   1       2.208  -3.554  -8.958  0.00  0.00     0.031 H 
ATOM      7  C   LIG d   1       3.559  -2.431 -10.225  0.00  0.00     0.008 C 
ATOM      8  C   LIG d   1       2.930  -1.099  -9.902  0.00  0.00    -0.044 C 
ATOM      9  C   LIG d   1       3.018  -0.797  -8.400  0.00  0.00    -0.049 C 
ATOM     10  C   LIG d   1       4.167  -1.548  -7.745  0.00  0.00    -0.032 C 
ATOM     11  H   LIG d   1       5.097  -1.317  -8.266  0.00  0.00     0.031 H 
ATOM     12  C   LIG d   1       3.915  -3.054  -7.794  0.00  0.00    -0.034 C 
ATOM     13  H   LIG d   1       3.162  -3.275  -7.009  0.00  0.00     0.031 H 
ATOM     14  C   LIG d   1       5.176  -3.821  -7.418  0.00  0.00    -0.049 C 
ATOM     15  C   LIG d   1       5.795  -3.190  -6.161  0.00  0.00    -0.049 C 
ATOM     16  C   LIG d   1       4.733  -2.352  -5.466  0.00  0.00    -0.035 C 
ATOM     17  H   LIG d   1       3.822  -2.968  -5.380  0.00  0.00     0.031 H 
ATOM     18  C   LIG d   1       4.386  -1.116  -6.297  0.00  0.00    -0.026 C 
ATOM     19  C   LIG d   1       3.170  -0.433  -5.689  0.00  0.00    -0.047 C 
ATOM     20  C   LIG d   1       3.459  -0.046  -4.238  0.00  0.00    -0.049 C 
ATOM     21  C   LIG d   1       3.908  -1.246  -3.411  0.00  0.00    -0.036 C 
ATOM     22  H   LIG d   1       3.085  -1.962  -3.340  0.00  0.00     0.030 H 
ATOM     23  C   LIG d   1       5.121  -1.934  -4.053  0.00  0.00    -0.046 C 
ATOM     24  H   LIG d   1       2.377  -5.268 -11.316  0.00  0.00     0.030 H 
ATOM     25  H   LIG d   1       4.038  -4.967 -11.898  0.00  0.00     0.030 H 
ATOM     26  H   LIG d   1       4.884  -4.836  -9.724  0.00  0.00     0.027 H 
ATOM     27  H   LIG d   1       3.353  -5.623  -9.240  0.00  0.00     0.027 H 
ATOM     28  H   LIG d   1       3.440  -0.306 -10.464  0.00  0.00     0.027 H 
ATOM     29  H   LIG d   1       1.877  -1.105 -10.210  0.00  0.00     0.027 H 
ATOM     30  H   LIG d   1       3.161   0.281  -8.263  0.00  0.00     0.027 H 
ATOM     31  H   LIG d   1       2.076  -1.078  -7.921  0.00  0.00     0.027 H 
ATOM     32  H   LIG d   1       4.924  -4.861  -7.208  0.00  0.00     0.027 H 
ATOM     33  H   LIG d   1       5.897  -3.775  -8.231  0.00  0.00     0.027 H 
ATOM     34  H   LIG d   1       6.122  -3.989  -5.488  0.00  0.00     0.027 H 
ATOM     35  H   LIG d   1       6.652  -2.584  -6.437  0.00  0.00     0.027 H 
ATOM     36  H   LIG d   1       2.314  -1.111  -5.723  0.00  0.00     0.027 H 
ATOM     37  H   LIG d   1       2.932   0.467  -6.263  0.00  0.00     0.027 H 
ATOM     38  H   LIG d   1       2.538   0.357  -3.795  0.00  0.00     0.027 H 
ATOM     39  H   LIG d   1       4.214   0.736  -4.194  0.00  0.00     0.027 H 
ATOM     40  H   LIG d   1       5.364  -2.833  -3.471  0.00  0.00     0.027 H 
ATOM     41  H   LIG d   1       5.983  -1.279  -4.044  0.00  0.00     0.027 H 
ENDROOT
BRANCH   1  42
ATOM     42  O   LIG d   1       3.507  -2.681 -12.661  0.00  0.00    -0.461 OA
BRANCH  42  43
ATOM     43  C   LIG d   1       2.678  -2.103 -13.546  0.00  0.00     0.304 C 
ATOM     44  O   LIG d   1       3.128  -1.529 -14.508  0.00  0.00    -0.251 OA
BRANCH  43  45
ATOM     45  C   LIG d   1       1.188  -2.173 -13.338  0.00  0.00     0.033 C 
ATOM     46  H   LIG d   1       0.852  -1.281 -12.807  0.00  0.00     0.034 H 
ATOM     47  H   LIG d   1       0.689  -2.229 -14.306  0.00  0.00     0.034 H 
ATOM     48  H   LIG d   1       0.943  -3.058 -12.752  0.00  0.00     0.034 H 
ENDBRANCH  43  45
ENDBRANCH  42  43
ENDBRANCH   1  42
BRANCH   7  49
ATOM     49  C   LIG d   1       5.046  -2.272 -10.550  0.00  0.00    -0.056 C 
ATOM     50  H   LIG d   1       5.584  -1.965  -9.653  0.00  0.00     0.024 H 
ATOM     51  H   LIG d   1       5.444  -3.222 -10.907  0.00  0.00     0.024 H 
ATOM     52  H   LIG d   1       5.169  -1.513 -11.325  0.00  0.00     0.024 H 
ENDBRANCH   7  49
BRANCH  18  53
ATOM     53  C   LIG d   1       5.561  -0.133  -6.295  0.00  0.00    -0.059 C 
ATOM     54  H   LIG d   1       6.415  -0.586  -6.796  0.00  0.00     0.024 H 
ATOM     55  H   LIG d   1       5.272   0.778  -6.821  0.00  0.00     0.024 H 
ATOM     56  H   LIG d   1       5.829   0.110  -5.267  0.00  0.00     0.024 H 
ENDBRANCH  18  53
BRANCH  21  57
ATOM     57  C   LIG d   1       4.282  -0.778  -2.002  0.00  0.00    -0.010 C 
ATOM     58  H   LIG d   1       3.454  -0.975  -1.321  0.00  0.00     0.033 H 
ATOM     59  H   LIG d   1       5.167  -1.316  -1.663  0.00  0.00     0.033 H 
BRANCH  57  60
ATOM     60  C   LIG d   1       4.573   0.701  -2.025  0.00  0.00     0.042 C 
ATOM     61  O   LIG d   1       3.724   1.488  -1.679  0.00  0.00    -0.550 OA
ATOM     62  O   LIG d   1       5.775   1.142  -2.429  0.00  0.00    -0.550 OA
ENDBRANCH  57  60
ENDBRANCH  21  57
TORSDOF 7
ENDMDL
MODEL 8
REMARK VINA RESULT:      -4.9      6.994     10.581
REMARK  7 active torsions:
REMARK  status: ('A' for Active; 'I' for Inactive)
REMARK    1  A    between atoms: C_1  and  C_2 
REMARK    2  A    between atoms: C_2  and  O_4 
REMARK    3  A    between atoms: O_4  and  C_5 
REMARK    4  A    between atoms: C_11  and  C_32 
REMARK    5  A    between atoms: C_22  and  C_31 
REMARK    6  A    between atoms: C_25  and  C_28 
REMARK    7  A    between atoms: C_28  and  C_29 
ROOT
ATOM      1  C   LIG d   1      12.838  -4.211  -3.943  0.00  0.00     0.109 C 
ATOM      2  H   LIG d   1      13.056  -3.906  -2.925  0.00  0.00     0.074 H 
ATOM      3  C   LIG d   1      13.456  -3.221  -4.959  0.00  0.00    -0.015 C 
ATOM      4  C   LIG d   1      12.281  -2.378  -5.527  0.00  0.00    -0.046 C 
ATOM      5  C   LIG d   1      11.168  -2.615  -4.496  0.00  0.00    -0.029 C 
ATOM      6  H   LIG d   1      11.443  -2.049  -3.578  0.00  0.00     0.031 H 
ATOM      7  C   LIG d   1      11.318  -4.120  -4.199  0.00  0.00     0.008 C 
ATOM      8  C   LIG d   1      10.465  -4.535  -3.027  0.00  0.00    -0.044 C 
ATOM      9  C   LIG d   1       9.139  -3.763  -3.009  0.00  0.00    -0.049 C 
ATOM     10  C   LIG d   1       8.762  -3.266  -4.397  0.00  0.00    -0.032 C 
ATOM     11  H   LIG d   1       8.740  -4.106  -5.091  0.00  0.00     0.031 H 
ATOM     12  C   LIG d   1       9.774  -2.229  -4.883  0.00  0.00    -0.034 C 
ATOM     13  H   LIG d   1       9.543  -1.285  -4.348  0.00  0.00     0.031 H 
ATOM     14  C   LIG d   1       9.583  -1.949  -6.368  0.00  0.00    -0.049 C 
ATOM     15  C   LIG d   1       8.086  -1.750  -6.655  0.00  0.00    -0.049 C 
ATOM     16  C   LIG d   1       7.379  -1.437  -5.345  0.00  0.00    -0.035 C 
ATOM     17  H   LIG d   1       7.951  -0.643  -4.837  0.00  0.00     0.031 H 
ATOM     18  C   LIG d   1       7.360  -2.662  -4.431  0.00  0.00    -0.026 C 
ATOM     19  C   LIG d   1       6.856  -2.249  -3.057  0.00  0.00    -0.047 C 
ATOM     20  C   LIG d   1       5.458  -1.640  -3.174  0.00  0.00    -0.049 C 
ATOM     21  C   LIG d   1       5.428  -0.478  -4.161  0.00  0.00    -0.036 C 
ATOM     22  H   LIG d   1       6.046   0.337  -3.776  0.00  0.00     0.030 H 
ATOM     23  C   LIG d   1       5.961  -0.910  -5.534  0.00  0.00    -0.046 C 
ATOM     24  H   LIG d   1      14.176  -2.572  -4.462  0.00  0.00     0.030 H 
ATOM     25  H   LIG d   1      13.942  -3.770  -5.766  0.00  0.00     0.030 H 
ATOM     26  H   LIG d   1      11.995  -2.720  -6.517  0.00  0.00     0.027 H 
ATOM     27  H   LIG d   1      12.555  -1.321  -5.554  0.00  0.00     0.027 H 
ATOM     28  H   LIG d   1      10.259  -5.611  -3.085  0.00  0.00     0.027 H 
ATOM     29  H   LIG d   1      11.007  -4.346  -2.092  0.00  0.00     0.027 H 
ATOM     30  H   LIG d   1       8.350  -4.422  -2.631  0.00  0.00     0.027 H 
ATOM     31  H   LIG d   1       9.226  -2.912  -2.326  0.00  0.00     0.027 H 
ATOM     32  H   LIG d   1      10.122  -1.043  -6.643  0.00  0.00     0.027 H 
ATOM     33  H   LIG d   1       9.949  -2.787  -6.957  0.00  0.00     0.027 H 
ATOM     34  H   LIG d   1       7.967  -0.906  -7.341  0.00  0.00     0.027 H 
ATOM     35  H   LIG d   1       7.678  -2.644  -7.115  0.00  0.00     0.027 H 
ATOM     36  H   LIG d   1       7.538  -1.516  -2.621  0.00  0.00     0.027 H 
ATOM     37  H   LIG d   1       6.815  -3.125  -2.404  0.00  0.00     0.027 H 
ATOM     38  H   LIG d   1       5.158  -1.265  -2.186  0.00  0.00     0.027 H 
ATOM     39  H   LIG d   1       4.735  -2.397  -3.472  0.00  0.00     0.027 H 
ATOM     40  H   LIG d   1       5.994  -0.030  -6.192  0.00  0.00     0.027 H 
ATOM     41  H   LIG d   1       5.309  -1.647  -5.986  0.00  0.00     0.027 H 
ENDROOT
BRANCH   1  42
ATOM     42  O   LIG d   1      13.298  -5.562  -4.195  0.00  0.00    -0.461 OA
BRANCH  42  43
ATOM     43  C   LIG d   1      13.772  -6.250  -3.144  0.00  0.00     0.304 C 
ATOM     44  O   LIG d   1      14.815  -5.925  -2.629  0.00  0.00    -0.251 OA
BRANCH  43  45
ATOM     45  C   LIG d   1      13.002  -7.429  -2.608  0.00  0.00     0.033 C 
ATOM     46  H   LIG d   1      13.683  -8.266  -2.449  0.00  0.00     0.034 H 
ATOM     47  H   LIG d   1      12.534  -7.157  -1.661  0.00  0.00     0.034 H 
ATOM     48  H   LIG d   1      12.233  -7.717  -3.322  0.00  0.00     0.034 H 
ENDBRANCH  43  45
ENDBRANCH  42  43
ENDBRANCH   1  42
BRANCH   7  49
ATOM     49  C   LIG d   1      11.028  -4.991  -5.424  0.00  0.00    -0.056 C 
ATOM     50  H   LIG d   1      11.846  -4.900  -6.138  0.00  0.00     0.024 H 
ATOM     51  H   LIG d   1      10.929  -6.032  -5.115  0.00  0.00     0.024 H 
ATOM     52  H   LIG d   1      10.099  -4.662  -5.892  0.00  0.00     0.024 H 
ENDBRANCH   7  49
BRANCH  18  53
ATOM     53  C   LIG d   1       6.425  -3.732  -5.002  0.00  0.00    -0.059 C 
ATOM     54  H   LIG d   1       5.666  -3.984  -4.263  0.00  0.00     0.024 H 
ATOM     55  H   LIG d   1       5.944  -3.350  -5.903  0.00  0.00     0.024 H 
ATOM     56  H   LIG d   1       7.002  -4.624  -5.249  0.00  0.00     0.024 H 
ENDBRANCH  18  53
BRANCH  21  57
ATOM     57  C   LIG d   1       3.988   0.018  -4.314  0.00  0.00    -0.010 C 
ATOM     58  H   LIG d   1       3.867   0.491  -5.289  0.00  0.00     0.033 H 
ATOM     59  H   LIG d   1       3.302  -0.825  -4.233  0.00  0.00     0.033 H 
BRANCH  57  60
ATOM     60  C   LIG d   1       3.683   1.019  -3.229  0.00  0.00     0.042 C 
ATOM     61  O   LIG d   1       3.931   2.189  -3.400  0.00  0.00    -0.550 OA
ATOM     62  O   LIG d   1       3.135   0.610  -2.074  0.00  0.00    -0.550 OA
ENDBRANCH  57  60
ENDBRANCH  21  57
TORSDOF 7
ENDMDL
MODEL 9
REMARK VINA RESULT:      -4.9      7.016     10.990
REMARK  7 active torsions:
REMARK  status: ('A' for Active; 'I' for Inactive)
REMARK    1  A    between atoms: C_1  and  C_2 
REMARK    2  A    between atoms: C_2  and  O_4 
REMARK    3  A    between atoms: O_4  and  C_5 
REMARK    4  A    between atoms: C_11  and  C_32 
REMARK    5  A    between atoms: C_22  and  C_31 
REMARK    6  A    between atoms: C_25  and  C_28 
REMARK    7  A    between atoms: C_28  and  C_29 
ROOT
ATOM      1  C   LIG d   1       3.452  -0.396  -9.187  0.00  0.00     0.109 C 
ATOM      2  H   LIG d   1       2.999  -0.009  -8.281  0.00  0.00     0.074 H 
ATOM      3  C   LIG d   1       2.370  -0.899 -10.172  0.00  0.00    -0.015 C 
ATOM      4  C   LIG d   1       2.416  -2.452 -10.125  0.00  0.00    -0.046 C 
ATOM      5  C   LIG d   1       3.174  -2.726  -8.818  0.00  0.00    -0.029 C 
ATOM      6  H   LIG d   1       2.485  -2.484  -7.979  0.00  0.00     0.031 H 
ATOM      7  C   LIG d   1       4.283  -1.655  -8.858  0.00  0.00     0.008 C 
ATOM      8  C   LIG d   1       5.023  -1.585  -7.546  0.00  0.00    -0.044 C 
ATOM      9  C   LIG d   1       5.168  -2.978  -6.919  0.00  0.00    -0.049 C 
ATOM     10  C   LIG d   1       5.093  -4.075  -7.970  0.00  0.00    -0.032 C 
ATOM     11  H   LIG d   1       5.841  -3.892  -8.742  0.00  0.00     0.031 H 
ATOM     12  C   LIG d   1       3.703  -4.110  -8.604  0.00  0.00    -0.034 C 
ATOM     13  H   LIG d   1       3.031  -4.599  -7.869  0.00  0.00     0.031 H 
ATOM     14  C   LIG d   1       3.703  -4.988  -9.849  0.00  0.00    -0.049 C 
ATOM     15  C   LIG d   1       4.435  -6.304  -9.538  0.00  0.00    -0.049 C 
ATOM     16  C   LIG d   1       4.491  -6.482  -8.028  0.00  0.00    -0.035 C 
ATOM     17  H   LIG d   1       3.476  -6.311  -7.632  0.00  0.00     0.031 H 
ATOM     18  C   LIG d   1       5.423  -5.450  -7.393  0.00  0.00    -0.026 C 
ATOM     19  C   LIG d   1       5.275  -5.511  -5.880  0.00  0.00    -0.047 C 
ATOM     20  C   LIG d   1       5.604  -6.918  -5.379  0.00  0.00    -0.049 C 
ATOM     21  C   LIG d   1       4.757  -7.978  -6.074  0.00  0.00    -0.036 C 
ATOM     22  H   LIG d   1       3.708  -7.835  -5.805  0.00  0.00     0.030 H 
ATOM     23  C   LIG d   1       4.903  -7.885  -7.599  0.00  0.00    -0.046 C 
ATOM     24  H   LIG d   1       1.387  -0.544  -9.866  0.00  0.00     0.030 H 
ATOM     25  H   LIG d   1       2.595  -0.552 -11.181  0.00  0.00     0.030 H 
ATOM     26  H   LIG d   1       2.936  -2.856 -10.987  0.00  0.00     0.027 H 
ATOM     27  H   LIG d   1       1.403  -2.856 -10.068  0.00  0.00     0.027 H 
ATOM     28  H   LIG d   1       6.019  -1.154  -7.709  0.00  0.00     0.027 H 
ATOM     29  H   LIG d   1       4.482  -0.930  -6.853  0.00  0.00     0.027 H 
ATOM     30  H   LIG d   1       6.132  -3.035  -6.401  0.00  0.00     0.027 H 
ATOM     31  H   LIG d   1       4.376  -3.124  -6.179  0.00  0.00     0.027 H 
ATOM     32  H   LIG d   1       2.677  -5.212 -10.140  0.00  0.00     0.027 H 
ATOM     33  H   LIG d   1       4.215  -4.481 -10.664  0.00  0.00     0.027 H 
ATOM     34  H   LIG d   1       3.874  -7.133  -9.979  0.00  0.00     0.027 H 
ATOM     35  H   LIG d   1       5.432  -6.280  -9.965  0.00  0.00     0.027 H 
ATOM     36  H   LIG d   1       4.250  -5.254  -5.601  0.00  0.00     0.027 H 
ATOM     37  H   LIG d   1       5.957  -4.793  -5.417  0.00  0.00     0.027 H 
ATOM     38  H   LIG d   1       5.398  -6.960  -4.300  0.00  0.00     0.027 H 
ATOM     39  H   LIG d   1       6.660  -7.137  -5.520  0.00  0.00     0.027 H 
ATOM     40  H   LIG d   1       4.223  -8.613  -8.063  0.00  0.00     0.027 H 
ATOM     41  H   LIG d   1       5.915  -8.123  -7.904  0.00  0.00     0.027 H 
ENDROOT
BRANCH   1  42
ATOM     42  O   LIG d   1       4.298   0.599  -9.815  0.00  0.00    -0.461 OA
BRANCH  42  43
ATOM     43  C   LIG d   1       4.277   1.835  -9.292  0.00  0.00     0.304 C 
ATOM     44  O   LIG d   1       5.234   2.561  -9.420  0.00  0.00    -0.251 OA
BRANCH  43  45
ATOM     45  C   LIG d   1       3.060   2.317  -8.546  0.00  0.00     0.033 C 
ATOM     46  H   LIG d   1       3.349   2.633  -7.543  0.00  0.00     0.034 H 
ATOM     47  H   LIG d   1       2.617   3.158  -9.079  0.00  0.00     0.034 H 
ATOM     48  H   LIG d   1       2.333   1.509  -8.475  0.00  0.00     0.034 H 
ENDBRANCH  43  45
ENDBRANCH  42  43
ENDBRANCH   1  42
BRANCH   7  49
ATOM     49  C   LIG d   1       5.252  -1.858 -10.025  0.00  0.00    -0.056 C 
ATOM     50  H   LIG d   1       5.580  -0.888 -10.399  0.00  0.00     0.024 H 
ATOM     51  H   LIG d   1       6.117  -2.428  -9.685  0.00  0.00     0.024 H 
ATOM     52  H   LIG d   1       4.749  -2.404 -10.824  0.00  0.00     0.024 H 
ENDBRANCH   7  49
BRANCH  18  53
ATOM     53  C   LIG d   1       6.877  -5.754  -7.762  0.00  0.00    -0.059 C 
ATOM     54  H   LIG d   1       7.529  -4.999  -7.325  0.00  0.00     0.024 H 
ATOM     55  H   LIG d   1       7.151  -6.738  -7.379  0.00  0.00     0.024 H 
ATOM     56  H   LIG d   1       6.986  -5.744  -8.847  0.00  0.00     0.024 H 
ENDBRANCH  18  53
BRANCH  21  57
ATOM     57  C   LIG d   1       5.205  -9.367  -5.610  0.00  0.00    -0.010 C 
ATOM     58  H   LIG d   1       5.432  -9.986  -6.478  0.00  0.00     0.033 H 
ATOM     59  H   LIG d   1       6.096  -9.272  -4.988  0.00  0.00     0.033 H 
BRANCH  57  60
ATOM     60  C   LIG d   1       4.101 -10.010  -4.810  0.00  0.00     0.042 C 
ATOM     61  O   LIG d   1       3.678  -9.465  -3.819  0.00  0.00    -0.550 OA
ATOM     62  O   LIG d   1       3.588 -11.187  -5.201  0.00  0.00    -0.550 OA
ENDBRANCH  57  60
ENDBRANCH  21  57
TORSDOF 7
ENDMDL
MODEL 10
REMARK VINA RESULT:      -4.9     12.004     17.052
REMARK  7 active torsions:
REMARK  status: ('A' for Active; 'I' for Inactive)
REMARK    1  A    between atoms: C_1  and  C_2 
REMARK    2  A    between atoms: C_2  and  O_4 
REMARK    3  A    between atoms: O_4  and  C_5 
REMARK    4  A    between atoms: C_11  and  C_32 
REMARK    5  A    between atoms: C_22  and  C_31 
REMARK    6  A    between atoms: C_25  and  C_28 
REMARK    7  A    between atoms: C_28  and  C_29 
ROOT
ATOM      1  C   LIG d   1       3.506   0.914  -8.053  0.00  0.00     0.109 C 
ATOM      2  H   LIG d   1       2.586   1.449  -7.839  0.00  0.00     0.074 H 
ATOM      3  C   LIG d   1       4.531   1.840  -8.751  0.00  0.00    -0.015 C 
ATOM      4  C   LIG d   1       4.565   1.415 -10.245  0.00  0.00    -0.046 C 
ATOM      5  C   LIG d   1       3.265   0.612 -10.396  0.00  0.00    -0.029 C 
ATOM      6  H   LIG d   1       2.424   1.340 -10.376  0.00  0.00     0.031 H 
ATOM      7  C   LIG d   1       3.233  -0.200  -9.087  0.00  0.00     0.008 C 
ATOM      8  C   LIG d   1       1.910  -0.901  -8.909  0.00  0.00    -0.044 C 
ATOM      9  C   LIG d   1       1.355  -1.383 -10.256  0.00  0.00    -0.049 C 
ATOM     10  C   LIG d   1       2.465  -1.579 -11.279  0.00  0.00    -0.032 C 
ATOM     11  H   LIG d   1       3.216  -2.259 -10.876  0.00  0.00     0.031 H 
ATOM     12  C   LIG d   1       3.118  -0.240 -11.618  0.00  0.00    -0.034 C 
ATOM     13  H   LIG d   1       2.418   0.292 -12.296  0.00  0.00     0.031 H 
ATOM     14  C   LIG d   1       4.407  -0.455 -12.400  0.00  0.00    -0.049 C 
ATOM     15  C   LIG d   1       4.157  -1.487 -13.512  0.00  0.00    -0.049 C 
ATOM     16  C   LIG d   1       2.658  -1.585 -13.753  0.00  0.00    -0.035 C 
ATOM     17  H   LIG d   1       2.268  -0.559 -13.858  0.00  0.00     0.031 H 
ATOM     18  C   LIG d   1       1.956  -2.235 -12.561  0.00  0.00    -0.026 C 
ATOM     19  C   LIG d   1       0.451  -2.107 -12.739  0.00  0.00    -0.047 C 
ATOM     20  C   LIG d   1       0.021  -2.771 -14.048  0.00  0.00    -0.049 C 
ATOM     21  C   LIG d   1       0.783  -2.210 -15.244  0.00  0.00    -0.036 C 
ATOM     22  H   LIG d   1       0.520  -1.158 -15.377  0.00  0.00     0.030 H 
ATOM     23  C   LIG d   1       2.299  -2.329 -15.034  0.00  0.00    -0.046 C 
ATOM     24  H   LIG d   1       4.219   2.880  -8.664  0.00  0.00     0.030 H 
ATOM     25  H   LIG d   1       5.517   1.707  -8.305  0.00  0.00     0.030 H 
ATOM     26  H   LIG d   1       5.441   0.811 -10.461  0.00  0.00     0.027 H 
ATOM     27  H   LIG d   1       4.543   2.298 -10.887  0.00  0.00     0.027 H 
ATOM     28  H   LIG d   1       2.036  -1.761  -8.239  0.00  0.00     0.027 H 
ATOM     29  H   LIG d   1       1.190  -0.215  -8.445  0.00  0.00     0.027 H 
ATOM     30  H   LIG d   1       0.828  -2.331 -10.104  0.00  0.00     0.027 H 
ATOM     31  H   LIG d   1       0.635  -0.650 -10.632  0.00  0.00     0.027 H 
ATOM     32  H   LIG d   1       4.724   0.485 -12.852  0.00  0.00     0.027 H 
ATOM     33  H   LIG d   1       5.187  -0.827 -11.740  0.00  0.00     0.027 H 
ATOM     34  H   LIG d   1       4.649  -1.147 -14.428  0.00  0.00     0.027 H 
ATOM     35  H   LIG d   1       4.569  -2.448 -13.221  0.00  0.00     0.027 H 
ATOM     36  H   LIG d   1       0.173  -1.051 -12.757  0.00  0.00     0.027 H 
ATOM     37  H   LIG d   1      -0.058  -2.593 -11.903  0.00  0.00     0.027 H 
ATOM     38  H   LIG d   1      -1.050  -2.582 -14.199  0.00  0.00     0.027 H 
ATOM     39  H   LIG d   1       0.160  -3.849 -13.993  0.00  0.00     0.027 H 
ATOM     40  H   LIG d   1       2.810  -1.848 -15.880  0.00  0.00     0.027 H 
ATOM     41  H   LIG d   1       2.602  -3.368 -15.000  0.00  0.00     0.027 H 
ENDROOT
BRANCH   1  42
ATOM     42  O   LIG d   1       4.069   0.338  -6.848  0.00  0.00    -0.461 OA
BRANCH  42  43
ATOM     43  C   LIG d   1       3.317   0.394  -5.737  0.00  0.00     0.304 C 
ATOM     44  O   LIG d   1       2.482   1.257  -5.615  0.00  0.00    -0.251 OA
BRANCH  43  45
ATOM     45  C   LIG d   1       3.516  -0.622  -4.643  0.00  0.00     0.033 C 
ATOM     46  H   LIG d   1       2.695  -0.554  -3.928  0.00  0.00     0.034 H 
ATOM     47  H   LIG d   1       3.539  -1.623  -5.075  0.00  0.00     0.034 H 
ATOM     48  H   LIG d   1       4.458  -0.427  -4.131  0.00  0.00     0.034 H 
ENDBRANCH  43  45
ENDBRANCH  42  43
ENDBRANCH   1  42
BRANCH   7  49
ATOM     49  C   LIG d   1       4.396  -1.189  -8.981  0.00  0.00    -0.056 C 
ATOM     50  H   LIG d   1       4.282  -1.791  -8.080  0.00  0.00     0.024 H 
ATOM     51  H   LIG d   1       4.400  -1.840  -9.856  0.00  0.00     0.024 H 
ATOM     52  H   LIG d   1       5.337  -0.640  -8.934  0.00  0.00     0.024 H 
ENDBRANCH   7  49
BRANCH  18  53
ATOM     53  C   LIG d   1       2.322  -3.720 -12.479  0.00  0.00    -0.059 C 
ATOM     54  H   LIG d   1       3.384  -3.846 -12.690  0.00  0.00     0.024 H 
ATOM     55  H   LIG d   1       2.104  -4.093 -11.478  0.00  0.00     0.024 H 
ATOM     56  H   LIG d   1       1.738  -4.279 -13.211  0.00  0.00     0.024 H 
ENDBRANCH  18  53
BRANCH  21  57
ATOM     57  C   LIG d   1       0.387  -2.985 -16.504  0.00  0.00    -0.010 C 
ATOM     58  H   LIG d   1       1.279  -3.406 -16.967  0.00  0.00     0.033 H 
ATOM     59  H   LIG d   1      -0.297  -3.790 -16.235  0.00  0.00     0.033 H 
BRANCH  57  60
ATOM     60  C   LIG d   1      -0.291  -2.053 -17.474  0.00  0.00     0.042 C 
ATOM     61  O   LIG d   1      -0.587  -0.934 -17.130  0.00  0.00    -0.550 OA
ATOM     62  O   LIG d   1      -0.564  -2.466 -18.722  0.00  0.00    -0.550 OA
ENDBRANCH  57  60
ENDBRANCH  21  57
TORSDOF 7
ENDMDL
