MODEL 1
REMARK VINA RESULT:      -7.3      0.000      0.000
REMARK  12 active torsions:
REMARK  status: ('A' for Active; 'I' for Inactive)
REMARK    1  A    between atoms: C_1  and  O_2 
REMARK    2  A    between atoms: O_2  and  C_3 
REMARK    3  A    between atoms: C_6  and  C_13 
REMARK    4  A    between atoms: C_7  and  O_11 
REMARK    5  A    between atoms: C_8  and  O_9 
REMARK    6  A    between atoms: O_9  and  C_10 
REMARK    7  A    between atoms: O_11  and  C_12 
REMARK    8  A    between atoms: C_13  and  N_14 
REMARK       I    between atoms: N_17  and  C_20 
REMARK    9  A    between atoms: C_20  and  C_22 
REMARK   10  A    between atoms: C_22  and  C_23 
REMARK   11  A    between atoms: C_23  and  C_24 
REMARK   12  A    between atoms: C_26  and  O_37 
ROOT
ATOM      1  N   LIG d   1       9.766   3.022  -4.057  0.00  0.00     0.241 N 
ATOM      2  C   LIG d   1      10.506   1.759  -3.938  0.00  0.00    -0.015 C 
ATOM      3  C   LIG d   1      10.413   0.988  -5.260  0.00  0.00     0.055 C 
ATOM      4  N   LIG d   1       8.993   0.830  -5.609  0.00  0.00    -0.291 N 
ATOM      5  C   LIG d   1       8.137   2.026  -5.592  0.00  0.00     0.055 C 
ATOM      6  C   LIG d   1       8.338   2.748  -4.255  0.00  0.00    -0.015 C 
ATOM      7  C   LIG d   1       8.490  -0.377  -5.935  0.00  0.00     0.216 C 
ATOM      8  O   LIG d   1       9.211  -1.352  -5.944  0.00  0.00    -0.276 OA
ATOM      9  H   LIG d   1      11.551   1.969  -3.713  0.00  0.00     0.083 H 
ATOM     10  H   LIG d   1      10.075   1.159  -3.137  0.00  0.00     0.083 H 
ATOM     11  H   LIG d   1      10.923   1.546  -6.045  0.00  0.00     0.052 H 
ATOM     12  H   LIG d   1      10.873   0.007  -5.145  0.00  0.00     0.052 H 
ATOM     13  H   LIG d   1       8.418   2.689  -6.410  0.00  0.00     0.052 H 
ATOM     14  H   LIG d   1       7.093   1.732  -5.697  0.00  0.00     0.052 H 
ATOM     15  H   LIG d   1       7.973   2.117  -3.444  0.00  0.00     0.083 H 
ATOM     16  H   LIG d   1       7.785   3.687  -4.262  0.00  0.00     0.083 H 
ATOM     17  H   LIG d   1      10.119   3.543  -4.844  0.00  0.00     0.204 HD
ENDROOT
BRANCH   7  18
ATOM     18  C   LIG d   1       7.032  -0.514  -6.289  0.00  0.00     0.026 C 
ATOM     19  H   LIG d   1       6.583   0.475  -6.371  0.00  0.00     0.036 H 
ATOM     20  H   LIG d   1       6.936  -1.037  -7.241  0.00  0.00     0.036 H 
BRANCH  18  21
ATOM     21  C   LIG d   1       6.315  -1.309  -5.196  0.00  0.00    -0.018 C 
ATOM     22  H   LIG d   1       7.030  -1.958  -4.691  0.00  0.00     0.029 H 
ATOM     23  H   LIG d   1       5.876  -0.620  -4.473  0.00  0.00     0.029 H 
BRANCH  21  24
ATOM     24  C   LIG d   1       5.210  -2.160  -5.825  0.00  0.00     0.100 C 
ATOM     25  H   LIG d   1       5.625  -2.759  -6.635  0.00  0.00     0.060 H 
ATOM     26  N   LIG d   1       4.158  -1.288  -6.350  0.00  0.00    -0.300 N 
ATOM     27  C   LIG d   1       3.516  -0.432  -5.547  0.00  0.00     0.247 C 
ATOM     28  H   LIG d   1       3.923  -1.334  -7.289  0.00  0.00     0.150 HD
ATOM     29  C   LIG d   1       3.817  -0.261  -4.122  0.00  0.00     0.062 A 
ATOM     30  O   LIG d   1       2.632   0.249  -6.030  0.00  0.00    -0.270 OA
ATOM     31  C   LIG d   1       4.122  -1.332  -3.272  0.00  0.00     0.080 A 
ATOM     32  C   LIG d   1       3.803   1.043  -3.603  0.00  0.00    -0.048 A 
ATOM     33  N   LIG d   1       4.140  -2.629  -3.677  0.00  0.00    -0.215 NA
ATOM     34  C   LIG d   1       4.425  -1.073  -1.925  0.00  0.00    -0.035 A 
ATOM     35  C   LIG d   1       4.615  -3.066  -4.782  0.00  0.00     0.209 C 
ATOM     36  C   LIG d   1       4.412   0.214  -1.442  0.00  0.00    -0.060 A 
ATOM     37  H   LIG d   1       4.669  -1.892  -1.265  0.00  0.00     0.064 H 
ATOM     38  C   LIG d   1       4.098   1.272  -2.280  0.00  0.00    -0.061 A 
ATOM     39  H   LIG d   1       4.648   0.401  -0.405  0.00  0.00     0.062 H 
ATOM     40  H   LIG d   1       4.085   2.280  -1.892  0.00  0.00     0.062 H 
ATOM     41  H   LIG d   1       3.559   1.873  -4.249  0.00  0.00     0.063 H 
BRANCH  35  42
ATOM     42  O   LIG d   1       4.581  -4.391  -5.022  0.00  0.00    -0.494 OA
ATOM     43  H   LIG d   1       5.036  -4.923  -4.356  0.00  0.00     0.293 HD
ENDBRANCH  35  42
ENDBRANCH  21  24
ENDBRANCH  18  21
ENDBRANCH   7  18
BRANCH   1  44
ATOM     44  C   LIG d   1       9.946   3.808  -2.829  0.00  0.00    -0.002 C 
ATOM     45  H   LIG d   1      10.894   3.540  -2.361  0.00  0.00     0.087 H 
ATOM     46  H   LIG d   1       9.128   3.598  -2.140  0.00  0.00     0.087 H 
BRANCH  44  47
ATOM     47  C   LIG d   1       9.951   5.277  -3.170  0.00  0.00     0.043 A 
ATOM     48  C   LIG d   1       9.879   5.679  -4.490  0.00  0.00    -0.046 A 
ATOM     49  C   LIG d   1       9.883   7.024  -4.809  0.00  0.00    -0.016 A 
ATOM     50  H   LIG d   1       9.818   4.939  -5.276  0.00  0.00     0.062 H 
ATOM     51  C   LIG d   1       9.960   7.976  -3.803  0.00  0.00     0.165 A 
ATOM     52  H   LIG d   1       9.826   7.334  -5.842  0.00  0.00     0.066 H 
ATOM     53  C   LIG d   1      10.040   7.576  -2.475  0.00  0.00     0.204 A 
ATOM     54  C   LIG d   1      10.029   6.222  -2.158  0.00  0.00     0.173 A 
BRANCH  51  55
ATOM     55  O   LIG d   1       9.963   9.299  -4.117  0.00  0.00    -0.491 OA
BRANCH  55  56
ATOM     56  C   LIG d   1       9.529   9.655  -5.431  0.00  0.00     0.079 C 
ATOM     57  H   LIG d   1      10.395   9.771  -6.081  0.00  0.00     0.066 H 
ATOM     58  H   LIG d   1       8.882   8.872  -5.824  0.00  0.00     0.066 H 
ATOM     59  H   LIG d   1       8.978  10.595  -5.388  0.00  0.00     0.066 H 
ENDBRANCH  55  56
ENDBRANCH  51  55
BRANCH  53  60
ATOM     60  O   LIG d   1      10.121   8.507  -1.485  0.00  0.00    -0.488 OA
BRANCH  60  61
ATOM     61  C   LIG d   1       8.892   8.945  -0.904  0.00  0.00     0.079 C 
ATOM     62  H   LIG d   1       8.080   8.797  -1.616  0.00  0.00     0.066 H 
ATOM     63  H   LIG d   1       8.691   8.370   0.000  0.00  0.00     0.066 H 
ATOM     64  H   LIG d   1       8.966  10.004  -0.652  0.00  0.00     0.066 H 
ENDBRANCH  60  61
ENDBRANCH  53  60
BRANCH  54  65
ATOM     65  O   LIG d   1      10.100   5.826  -0.860  0.00  0.00    -0.491 OA
BRANCH  65  66
ATOM     66  C   LIG d   1      11.404   5.706  -0.288  0.00  0.00     0.079 C 
ATOM     67  H   LIG d   1      11.345   5.862   0.788  0.00  0.00     0.066 H 
ATOM     68  H   LIG d   1      11.799   4.710  -0.491  0.00  0.00     0.066 H 
ATOM     69  H   LIG d   1      12.064   6.454  -0.729  0.00  0.00     0.066 H 
ENDBRANCH  65  66
ENDBRANCH  54  65
ENDBRANCH  44  47
ENDBRANCH   1  44
TORSDOF 12
ENDMDL
MODEL 2
REMARK VINA RESULT:      -7.1      1.422      2.672
REMARK  12 active torsions:
REMARK  status: ('A' for Active; 'I' for Inactive)
REMARK    1  A    between atoms: C_1  and  O_2 
REMARK    2  A    between atoms: O_2  and  C_3 
REMARK    3  A    between atoms: C_6  and  C_13 
REMARK    4  A    between atoms: C_7  and  O_11 
REMARK    5  A    between atoms: C_8  and  O_9 
REMARK    6  A    between atoms: O_9  and  C_10 
REMARK    7  A    between atoms: O_11  and  C_12 
REMARK    8  A    between atoms: C_13  and  N_14 
REMARK       I    between atoms: N_17  and  C_20 
REMARK    9  A    between atoms: C_20  and  C_22 
REMARK   10  A    between atoms: C_22  and  C_23 
REMARK   11  A    between atoms: C_23  and  C_24 
REMARK   12  A    between atoms: C_26  and  O_37 
ROOT
ATOM      1  N   LIG d   1      10.279   4.171  -5.008  0.00  0.00     0.241 N 
ATOM      2  C   LIG d   1      10.501   3.838  -6.421  0.00  0.00    -0.015 C 
ATOM      3  C   LIG d   1       9.218   3.242  -7.012  0.00  0.00     0.055 C 
ATOM      4  N   LIG d   1       8.805   2.104  -6.177  0.00  0.00    -0.291 N 
ATOM      5  C   LIG d   1       8.715   2.307  -4.722  0.00  0.00     0.055 C 
ATOM      6  C   LIG d   1      10.022   2.947  -4.240  0.00  0.00    -0.015 C 
ATOM      7  C   LIG d   1       8.516   0.909  -6.728  0.00  0.00     0.216 C 
ATOM      8  O   LIG d   1       8.595   0.760  -7.929  0.00  0.00    -0.276 OA
ATOM      9  H   LIG d   1      10.769   4.740  -6.969  0.00  0.00     0.083 H 
ATOM     10  H   LIG d   1      11.309   3.111  -6.500  0.00  0.00     0.083 H 
ATOM     11  H   LIG d   1       8.433   3.998  -7.016  0.00  0.00     0.052 H 
ATOM     12  H   LIG d   1       9.407   2.900  -8.029  0.00  0.00     0.052 H 
ATOM     13  H   LIG d   1       7.879   2.968  -4.495  0.00  0.00     0.052 H 
ATOM     14  H   LIG d   1       8.572   1.347  -4.226  0.00  0.00     0.052 H 
ATOM     15  H   LIG d   1      10.844   2.247  -4.386  0.00  0.00     0.083 H 
ATOM     16  H   LIG d   1       9.937   3.193  -3.181  0.00  0.00     0.083 H 
ATOM     17  H   LIG d   1       9.485   4.788  -4.931  0.00  0.00     0.204 HD
ENDROOT
BRANCH   7  18
ATOM     18  C   LIG d   1       8.095  -0.243  -5.852  0.00  0.00     0.026 C 
ATOM     19  H   LIG d   1       8.314  -1.183  -6.358  0.00  0.00     0.036 H 
ATOM     20  H   LIG d   1       8.640  -0.201  -4.910  0.00  0.00     0.036 H 
BRANCH  18  21
ATOM     21  C   LIG d   1       6.592  -0.151  -5.577  0.00  0.00    -0.018 C 
ATOM     22  H   LIG d   1       6.401  -0.381  -4.529  0.00  0.00     0.029 H 
ATOM     23  H   LIG d   1       6.244   0.860  -5.796  0.00  0.00     0.029 H 
BRANCH  21  24
ATOM     24  C   LIG d   1       5.848  -1.150  -6.464  0.00  0.00     0.100 C 
ATOM     25  H   LIG d   1       6.440  -1.358  -7.356  0.00  0.00     0.060 H 
ATOM     26  N   LIG d   1       4.553  -0.590  -6.854  0.00  0.00    -0.300 N 
ATOM     27  C   LIG d   1       3.661  -0.223  -5.929  0.00  0.00     0.247 C 
ATOM     28  H   LIG d   1       4.340  -0.487  -7.795  0.00  0.00     0.150 HD
ATOM     29  C   LIG d   1       3.896  -0.307  -4.484  0.00  0.00     0.062 A 
ATOM     30  O   LIG d   1       2.590   0.210  -6.309  0.00  0.00    -0.270 OA
ATOM     31  C   LIG d   1       4.564  -1.380  -3.879  0.00  0.00     0.080 A 
ATOM     32  C   LIG d   1       3.432   0.750  -3.684  0.00  0.00    -0.048 A 
ATOM     33  N   LIG d   1       5.030  -2.455  -4.567  0.00  0.00    -0.215 NA
ATOM     34  C   LIG d   1       4.769  -1.364  -2.490  0.00  0.00    -0.035 A 
ATOM     35  C   LIG d   1       5.617  -2.426  -5.703  0.00  0.00     0.209 C 
ATOM     36  C   LIG d   1       4.313  -0.315  -1.729  0.00  0.00    -0.060 A 
ATOM     37  H   LIG d   1       5.290  -2.183  -2.018  0.00  0.00     0.064 H 
ATOM     38  C   LIG d   1       3.641   0.741  -2.325  0.00  0.00    -0.061 A 
ATOM     39  H   LIG d   1       4.477  -0.313  -0.662  0.00  0.00     0.062 H 
ATOM     40  H   LIG d   1       3.280   1.560  -1.720  0.00  0.00     0.062 H 
ATOM     41  H   LIG d   1       2.908   1.575  -4.141  0.00  0.00     0.063 H 
BRANCH  35  42
ATOM     42  O   LIG d   1       6.045  -3.585  -6.241  0.00  0.00    -0.494 OA
ATOM     43  H   LIG d   1       5.888  -3.659  -7.191  0.00  0.00     0.293 HD
ENDBRANCH  35  42
ENDBRANCH  21  24
ENDBRANCH  18  21
ENDBRANCH   7  18
BRANCH   1  44
ATOM     44  C   LIG d   1      11.471   4.841  -4.472  0.00  0.00    -0.002 C 
ATOM     45  H   LIG d   1      11.710   5.707  -5.090  0.00  0.00     0.087 H 
ATOM     46  H   LIG d   1      12.313   4.147  -4.480  0.00  0.00     0.087 H 
BRANCH  44  47
ATOM     47  C   LIG d   1      11.203   5.290  -3.059  0.00  0.00     0.043 A 
ATOM     48  C   LIG d   1      11.987   4.815  -2.024  0.00  0.00    -0.046 A 
ATOM     49  C   LIG d   1      11.746   5.223  -0.725  0.00  0.00    -0.016 A 
ATOM     50  H   LIG d   1      12.791   4.124  -2.231  0.00  0.00     0.062 H 
ATOM     51  C   LIG d   1      10.715   6.112  -0.456  0.00  0.00     0.165 A 
ATOM     52  H   LIG d   1      12.361   4.851   0.081  0.00  0.00     0.066 H 
ATOM     53  C   LIG d   1       9.921   6.586  -1.493  0.00  0.00     0.204 A 
ATOM     54  C   LIG d   1      10.170   6.177  -2.798  0.00  0.00     0.173 A 
BRANCH  51  55
ATOM     55  O   LIG d   1      10.479   6.513   0.821  0.00  0.00    -0.491 OA
BRANCH  55  56
ATOM     56  C   LIG d   1      10.994   5.687   1.867  0.00  0.00     0.079 C 
ATOM     57  H   LIG d   1      10.736   6.120   2.833  0.00  0.00     0.066 H 
ATOM     58  H   LIG d   1      10.560   4.690   1.790  0.00  0.00     0.066 H 
ATOM     59  H   LIG d   1      12.078   5.620   1.777  0.00  0.00     0.066 H 
ENDBRANCH  55  56
ENDBRANCH  51  55
BRANCH  53  60
ATOM     60  O   LIG d   1       8.904   7.453  -1.232  0.00  0.00    -0.488 OA
BRANCH  60  61
ATOM     61  C   LIG d   1       9.254   8.826  -1.048  0.00  0.00     0.079 C 
ATOM     62  H   LIG d   1       9.614   9.239  -1.990  0.00  0.00     0.066 H 
ATOM     63  H   LIG d   1       8.377   9.384  -0.718  0.00  0.00     0.066 H 
ATOM     64  H   LIG d   1      10.038   8.903  -0.294  0.00  0.00     0.066 H 
ENDBRANCH  60  61
ENDBRANCH  53  60
BRANCH  54  65
ATOM     65  O   LIG d   1       9.400   6.644  -3.816  0.00  0.00    -0.491 OA
BRANCH  65  66
ATOM     66  C   LIG d   1       9.877   7.794  -4.517  0.00  0.00     0.079 C 
ATOM     67  H   LIG d   1      10.942   7.683  -4.715  0.00  0.00     0.066 H 
ATOM     68  H   LIG d   1       9.339   7.894  -5.460  0.00  0.00     0.066 H 
ATOM     69  H   LIG d   1       9.710   8.684  -3.908  0.00  0.00     0.066 H 
ENDBRANCH  65  66
ENDBRANCH  54  65
ENDBRANCH  44  47
ENDBRANCH   1  44
TORSDOF 12
ENDMDL
MODEL 3
REMARK VINA RESULT:      -7.1      1.268      1.934
REMARK  12 active torsions:
REMARK  status: ('A' for Active; 'I' for Inactive)
REMARK    1  A    between atoms: C_1  and  O_2 
REMARK    2  A    between atoms: O_2  and  C_3 
REMARK    3  A    between atoms: C_6  and  C_13 
REMARK    4  A    between atoms: C_7  and  O_11 
REMARK    5  A    between atoms: C_8  and  O_9 
REMARK    6  A    between atoms: O_9  and  C_10 
REMARK    7  A    between atoms: O_11  and  C_12 
REMARK    8  A    between atoms: C_13  and  N_14 
REMARK       I    between atoms: N_17  and  C_20 
REMARK    9  A    between atoms: C_20  and  C_22 
REMARK   10  A    between atoms: C_22  and  C_23 
REMARK   11  A    between atoms: C_23  and  C_24 
REMARK   12  A    between atoms: C_26  and  O_37 
ROOT
ATOM      1  N   LIG d   1      10.230   2.691  -4.034  0.00  0.00     0.241 N 
ATOM      2  C   LIG d   1      10.864   1.383  -4.243  0.00  0.00    -0.015 C 
ATOM      3  C   LIG d   1      10.491   0.852  -5.632  0.00  0.00     0.055 C 
ATOM      4  N   LIG d   1       9.024   0.841  -5.748  0.00  0.00    -0.291 N 
ATOM      5  C   LIG d   1       8.292   2.068  -5.397  0.00  0.00     0.055 C 
ATOM      6  C   LIG d   1       8.769   2.541  -4.020  0.00  0.00    -0.015 C 
ATOM      7  C   LIG d   1       8.370  -0.262  -6.164  0.00  0.00     0.216 C 
ATOM      8  O   LIG d   1       8.991  -1.263  -6.449  0.00  0.00    -0.276 OA
ATOM      9  H   LIG d   1      11.946   1.489  -4.174  0.00  0.00     0.083 H 
ATOM     10  H   LIG d   1      10.517   0.685  -3.482  0.00  0.00     0.083 H 
ATOM     11  H   LIG d   1      10.914   1.501  -6.398  0.00  0.00     0.052 H 
ATOM     12  H   LIG d   1      10.875  -0.161  -5.752  0.00  0.00     0.052 H 
ATOM     13  H   LIG d   1       8.493   2.840  -6.140  0.00  0.00     0.052 H 
ATOM     14  H   LIG d   1       7.223   1.859  -5.363  0.00  0.00     0.052 H 
ATOM     15  H   LIG d   1       8.486   1.808  -3.265  0.00  0.00     0.083 H 
ATOM     16  H   LIG d   1       8.308   3.501  -3.786  0.00  0.00     0.083 H 
ATOM     17  H   LIG d   1      10.495   3.315  -4.781  0.00  0.00     0.204 HD
ENDROOT
BRANCH   7  18
ATOM     18  C   LIG d   1       6.868  -0.249  -6.275  0.00  0.00     0.026 C 
ATOM     19  H   LIG d   1       6.499   0.762  -6.100  0.00  0.00     0.036 H 
ATOM     20  H   LIG d   1       6.574  -0.575  -7.273  0.00  0.00     0.036 H 
BRANCH  18  21
ATOM     21  C   LIG d   1       6.271  -1.196  -5.232  0.00  0.00    -0.018 C 
ATOM     22  H   LIG d   1       7.053  -1.851  -4.848  0.00  0.00     0.029 H 
ATOM     23  H   LIG d   1       5.850  -0.614  -4.412  0.00  0.00     0.029 H 
BRANCH  21  24
ATOM     24  C   LIG d   1       5.170  -2.039  -5.878  0.00  0.00     0.100 C 
ATOM     25  H   LIG d   1       5.583  -2.600  -6.717  0.00  0.00     0.060 H 
ATOM     26  N   LIG d   1       4.098  -1.163  -6.354  0.00  0.00    -0.300 N 
ATOM     27  C   LIG d   1       3.456  -0.349  -5.511  0.00  0.00     0.247 C 
ATOM     28  H   LIG d   1       3.850  -1.177  -7.292  0.00  0.00     0.150 HD
ATOM     29  C   LIG d   1       3.774  -0.228  -4.084  0.00  0.00     0.062 A 
ATOM     30  O   LIG d   1       2.555   0.337  -5.954  0.00  0.00    -0.270 OA
ATOM     31  C   LIG d   1       4.108  -1.326  -3.280  0.00  0.00     0.080 A 
ATOM     32  C   LIG d   1       3.749   1.055  -3.515  0.00  0.00    -0.048 A 
ATOM     33  N   LIG d   1       4.139  -2.606  -3.736  0.00  0.00    -0.215 NA
ATOM     34  C   LIG d   1       4.426  -1.115  -1.929  0.00  0.00    -0.035 A 
ATOM     35  C   LIG d   1       4.604  -2.993  -4.863  0.00  0.00     0.209 C 
ATOM     36  C   LIG d   1       4.401   0.152  -1.396  0.00  0.00    -0.060 A 
ATOM     37  H   LIG d   1       4.691  -1.954  -1.305  0.00  0.00     0.064 H 
ATOM     38  C   LIG d   1       4.059   1.238  -2.188  0.00  0.00    -0.061 A 
ATOM     39  H   LIG d   1       4.648   0.303  -0.356  0.00  0.00     0.062 H 
ATOM     40  H   LIG d   1       4.037   2.229  -1.762  0.00  0.00     0.062 H 
ATOM     41  H   LIG d   1       3.482   1.905  -4.125  0.00  0.00     0.063 H 
BRANCH  35  42
ATOM     42  O   LIG d   1       4.586  -4.308  -5.154  0.00  0.00    -0.494 OA
ATOM     43  H   LIG d   1       3.717  -4.642  -5.413  0.00  0.00     0.293 HD
ENDBRANCH  35  42
ENDBRANCH  21  24
ENDBRANCH  18  21
ENDBRANCH   7  18
BRANCH   1  44
ATOM     44  C   LIG d   1      10.675   3.248  -2.751  0.00  0.00    -0.002 C 
ATOM     45  H   LIG d   1      11.702   2.939  -2.556  0.00  0.00     0.087 H 
ATOM     46  H   LIG d   1      10.028   2.883  -1.952  0.00  0.00     0.087 H 
BRANCH  44  47
ATOM     47  C   LIG d   1      10.606   4.753  -2.805  0.00  0.00     0.043 A 
ATOM     48  C   LIG d   1       9.878   5.445  -1.855  0.00  0.00    -0.046 A 
ATOM     49  C   LIG d   1       9.811   6.825  -1.900  0.00  0.00    -0.016 A 
ATOM     50  H   LIG d   1       9.361   4.906  -1.075  0.00  0.00     0.062 H 
ATOM     51  C   LIG d   1      10.474   7.521  -2.900  0.00  0.00     0.165 A 
ATOM     52  H   LIG d   1       9.242   7.362  -1.156  0.00  0.00     0.066 H 
ATOM     53  C   LIG d   1      11.200   6.829  -3.861  0.00  0.00     0.204 A 
ATOM     54  C   LIG d   1      11.271   5.441  -3.809  0.00  0.00     0.173 A 
BRANCH  51  55
ATOM     55  O   LIG d   1      10.408   8.878  -2.944  0.00  0.00    -0.491 OA
BRANCH  55  56
ATOM     56  C   LIG d   1       9.836   9.537  -1.812  0.00  0.00     0.079 C 
ATOM     57  H   LIG d   1       8.774   9.705  -1.987  0.00  0.00     0.066 H 
ATOM     58  H   LIG d   1       9.964   8.914  -0.927  0.00  0.00     0.066 H 
ATOM     59  H   LIG d   1      10.335  10.494  -1.658  0.00  0.00     0.066 H 
ENDBRANCH  55  56
ENDBRANCH  51  55
BRANCH  53  60
ATOM     60  O   LIG d   1      11.848   7.507  -4.848  0.00  0.00    -0.488 OA
BRANCH  60  61
ATOM     61  C   LIG d   1      11.110   7.776  -6.042  0.00  0.00     0.079 C 
ATOM     62  H   LIG d   1      11.659   7.394  -6.902  0.00  0.00     0.066 H 
ATOM     63  H   LIG d   1      10.137   7.288  -5.985  0.00  0.00     0.066 H 
ATOM     64  H   LIG d   1      10.971   8.852  -6.149  0.00  0.00     0.066 H 
ENDBRANCH  60  61
ENDBRANCH  53  60
BRANCH  54  65
ATOM     65  O   LIG d   1      11.986   4.760  -4.743  0.00  0.00    -0.491 OA
BRANCH  65  66
ATOM     66  C   LIG d   1      13.385   4.602  -4.501  0.00  0.00     0.079 C 
ATOM     67  H   LIG d   1      13.921   4.617  -5.449  0.00  0.00     0.066 H 
ATOM     68  H   LIG d   1      13.739   5.419  -3.870  0.00  0.00     0.066 H 
ATOM     69  H   LIG d   1      13.562   3.651  -3.997  0.00  0.00     0.066 H 
ENDBRANCH  65  66
ENDBRANCH  54  65
ENDBRANCH  44  47
ENDBRANCH   1  44
TORSDOF 12
ENDMDL
MODEL 4
REMARK VINA RESULT:      -7.0      1.433      2.266
REMARK  12 active torsions:
REMARK  status: ('A' for Active; 'I' for Inactive)
REMARK    1  A    between atoms: C_1  and  O_2 
REMARK    2  A    between atoms: O_2  and  C_3 
REMARK    3  A    between atoms: C_6  and  C_13 
REMARK    4  A    between atoms: C_7  and  O_11 
REMARK    5  A    between atoms: C_8  and  O_9 
REMARK    6  A    between atoms: O_9  and  C_10 
REMARK    7  A    between atoms: O_11  and  C_12 
REMARK    8  A    between atoms: C_13  and  N_14 
REMARK       I    between atoms: N_17  and  C_20 
REMARK    9  A    between atoms: C_20  and  C_22 
REMARK   10  A    between atoms: C_22  and  C_23 
REMARK   11  A    between atoms: C_23  and  C_24 
REMARK   12  A    between atoms: C_26  and  O_37 
ROOT
ATOM      1  N   LIG d   1       9.399   3.161  -5.741  0.00  0.00     0.241 N 
ATOM      2  C   LIG d   1       9.389   2.792  -7.163  0.00  0.00    -0.015 C 
ATOM      3  C   LIG d   1       8.087   2.053  -7.489  0.00  0.00     0.055 C 
ATOM      4  N   LIG d   1       7.953   0.915  -6.565  0.00  0.00    -0.291 N 
ATOM      5  C   LIG d   1       8.113   1.169  -5.125  0.00  0.00     0.055 C 
ATOM      6  C   LIG d   1       9.414   1.950  -4.911  0.00  0.00    -0.015 C 
ATOM      7  C   LIG d   1       7.690  -0.324  -7.025  0.00  0.00     0.216 C 
ATOM      8  O   LIG d   1       7.561  -0.514  -8.216  0.00  0.00    -0.276 OA
ATOM      9  H   LIG d   1       9.458   3.692  -7.772  0.00  0.00     0.083 H 
ATOM     10  H   LIG d   1      10.238   2.143  -7.376  0.00  0.00     0.083 H 
ATOM     11  H   LIG d   1       7.241   2.729  -7.362  0.00  0.00     0.052 H 
ATOM     12  H   LIG d   1       8.119   1.688  -8.515  0.00  0.00     0.052 H 
ATOM     13  H   LIG d   1       7.270   1.756  -4.760  0.00  0.00     0.052 H 
ATOM     14  H   LIG d   1       8.162   0.222  -4.589  0.00  0.00     0.052 H 
ATOM     15  H   LIG d   1      10.262   1.327  -5.193  0.00  0.00     0.083 H 
ATOM     16  H   LIG d   1       9.501   2.231  -3.861  0.00  0.00     0.083 H 
ATOM     17  H   LIG d   1       8.574   3.701  -5.531  0.00  0.00     0.204 HD
ENDROOT
BRANCH   7  18
ATOM     18  C   LIG d   1       7.556  -1.473  -6.060  0.00  0.00     0.026 C 
ATOM     19  H   LIG d   1       7.527  -2.411  -6.613  0.00  0.00     0.036 H 
ATOM     20  H   LIG d   1       8.409  -1.478  -5.381  0.00  0.00     0.036 H 
BRANCH  18  21
ATOM     21  C   LIG d   1       6.265  -1.315  -5.255  0.00  0.00    -0.018 C 
ATOM     22  H   LIG d   1       6.430  -1.656  -4.233  0.00  0.00     0.029 H 
ATOM     23  H   LIG d   1       5.969  -0.266  -5.244  0.00  0.00     0.029 H 
BRANCH  21  24
ATOM     24  C   LIG d   1       5.157  -2.151  -5.899  0.00  0.00     0.100 C 
ATOM     25  H   LIG d   1       5.569  -2.731  -6.725  0.00  0.00     0.060 H 
ATOM     26  N   LIG d   1       4.103  -1.266  -6.399  0.00  0.00    -0.300 N 
ATOM     27  C   LIG d   1       3.465  -0.429  -5.574  0.00  0.00     0.247 C 
ATOM     28  H   LIG d   1       3.864  -1.290  -7.338  0.00  0.00     0.150 HD
ATOM     29  C   LIG d   1       3.772  -0.291  -4.146  0.00  0.00     0.062 A 
ATOM     30  O   LIG d   1       2.580   0.264  -6.037  0.00  0.00    -0.270 OA
ATOM     31  C   LIG d   1       4.081  -1.382  -3.323  0.00  0.00     0.080 A 
ATOM     32  C   LIG d   1       3.761   1.000  -3.597  0.00  0.00    -0.048 A 
ATOM     33  N   LIG d   1       4.096  -2.669  -3.758  0.00  0.00    -0.215 NA
ATOM     34  C   LIG d   1       4.389  -1.155  -1.972  0.00  0.00    -0.035 A 
ATOM     35  C   LIG d   1       4.566  -3.080  -4.875  0.00  0.00     0.209 C 
ATOM     36  C   LIG d   1       4.379   0.120  -1.458  0.00  0.00    -0.060 A 
ATOM     37  H   LIG d   1       4.635  -1.989  -1.332  0.00  0.00     0.064 H 
ATOM     38  C   LIG d   1       4.061   1.199  -2.270  0.00  0.00    -0.061 A 
ATOM     39  H   LIG d   1       4.618   0.283  -0.418  0.00  0.00     0.062 H 
ATOM     40  H   LIG d   1       4.051   2.197  -1.859  0.00  0.00     0.062 H 
ATOM     41  H   LIG d   1       3.514   1.845  -4.223  0.00  0.00     0.063 H 
BRANCH  35  42
ATOM     42  O   LIG d   1       4.530  -4.399  -5.146  0.00  0.00    -0.494 OA
ATOM     43  H   LIG d   1       5.321  -4.880  -4.866  0.00  0.00     0.293 HD
ENDBRANCH  35  42
ENDBRANCH  21  24
ENDBRANCH  18  21
ENDBRANCH   7  18
BRANCH   1  44
ATOM     44  C   LIG d   1      10.595   3.963  -5.455  0.00  0.00    -0.002 C 
ATOM     45  H   LIG d   1      10.794   4.632  -6.293  0.00  0.00     0.087 H 
ATOM     46  H   LIG d   1      11.450   3.302  -5.307  0.00  0.00     0.087 H 
BRANCH  44  47
ATOM     47  C   LIG d   1      10.368   4.776  -4.206  0.00  0.00     0.043 A 
ATOM     48  C   LIG d   1       9.448   5.808  -4.213  0.00  0.00    -0.046 A 
ATOM     49  C   LIG d   1       9.235   6.557  -3.071  0.00  0.00    -0.016 A 
ATOM     50  H   LIG d   1       8.894   6.030  -5.113  0.00  0.00     0.062 H 
ATOM     51  C   LIG d   1       9.944   6.274  -1.912  0.00  0.00     0.165 A 
ATOM     52  H   LIG d   1       8.515   7.362  -3.079  0.00  0.00     0.066 H 
ATOM     53  C   LIG d   1      10.874   5.242  -1.903  0.00  0.00     0.204 A 
ATOM     54  C   LIG d   1      11.081   4.488  -3.052  0.00  0.00     0.173 A 
BRANCH  51  55
ATOM     55  O   LIG d   1       9.733   7.011  -0.789  0.00  0.00    -0.491 OA
BRANCH  55  56
ATOM     56  C   LIG d   1       9.935   8.422  -0.890  0.00  0.00     0.079 C 
ATOM     57  H   LIG d   1       9.177   8.851  -1.544  0.00  0.00     0.066 H 
ATOM     58  H   LIG d   1       9.857   8.872   0.100  0.00  0.00     0.066 H 
ATOM     59  H   LIG d   1      10.925   8.618  -1.302  0.00  0.00     0.066 H 
ENDBRANCH  55  56
ENDBRANCH  51  55
BRANCH  53  60
ATOM     60  O   LIG d   1      11.576   4.966  -0.770  0.00  0.00    -0.488 OA
BRANCH  60  61
ATOM     61  C   LIG d   1      12.721   5.778  -0.502  0.00  0.00     0.079 C 
ATOM     62  H   LIG d   1      12.617   6.733  -1.015  0.00  0.00     0.066 H 
ATOM     63  H   LIG d   1      12.801   5.949   0.572  0.00  0.00     0.066 H 
ATOM     64  H   LIG d   1      13.618   5.270  -0.857  0.00  0.00     0.066 H 
ENDBRANCH  60  61
ENDBRANCH  53  60
BRANCH  54  65
ATOM     65  O   LIG d   1      11.985   3.472  -3.047  0.00  0.00    -0.491 OA
BRANCH  65  66
ATOM     66  C   LIG d   1      13.314   3.784  -3.470  0.00  0.00     0.079 C 
ATOM     67  H   LIG d   1      14.028   3.352  -2.771  0.00  0.00     0.066 H 
ATOM     68  H   LIG d   1      13.484   3.372  -4.465  0.00  0.00     0.066 H 
ATOM     69  H   LIG d   1      13.441   4.867  -3.499  0.00  0.00     0.066 H 
ENDBRANCH  65  66
ENDBRANCH  54  65
ENDBRANCH  44  47
ENDBRANCH   1  44
TORSDOF 12
ENDMDL
MODEL 5
REMARK VINA RESULT:      -6.9      2.446      3.715
REMARK  12 active torsions:
REMARK  status: ('A' for Active; 'I' for Inactive)
REMARK    1  A    between atoms: C_1  and  O_2 
REMARK    2  A    between atoms: O_2  and  C_3 
REMARK    3  A    between atoms: C_6  and  C_13 
REMARK    4  A    between atoms: C_7  and  O_11 
REMARK    5  A    between atoms: C_8  and  O_9 
REMARK    6  A    between atoms: O_9  and  C_10 
REMARK    7  A    between atoms: O_11  and  C_12 
REMARK    8  A    between atoms: C_13  and  N_14 
REMARK       I    between atoms: N_17  and  C_20 
REMARK    9  A    between atoms: C_20  and  C_22 
REMARK   10  A    between atoms: C_22  and  C_23 
REMARK   11  A    between atoms: C_23  and  C_24 
REMARK   12  A    between atoms: C_26  and  O_37 
ROOT
ATOM      1  N   LIG d   1       9.071   3.304  -7.232  0.00  0.00     0.241 N 
ATOM      2  C   LIG d   1       8.583   2.720  -8.489  0.00  0.00    -0.015 C 
ATOM      3  C   LIG d   1       7.281   1.956  -8.224  0.00  0.00     0.055 C 
ATOM      4  N   LIG d   1       7.524   0.977  -7.153  0.00  0.00    -0.291 N 
ATOM      5  C   LIG d   1       8.164   1.449  -5.915  0.00  0.00     0.055 C 
ATOM      6  C   LIG d   1       9.424   2.236  -6.289  0.00  0.00    -0.015 C 
ATOM      7  C   LIG d   1       7.170  -0.315  -7.302  0.00  0.00     0.216 C 
ATOM      8  O   LIG d   1       6.644  -0.685  -8.329  0.00  0.00    -0.276 OA
ATOM      9  H   LIG d   1       8.398   3.515  -9.211  0.00  0.00     0.083 H 
ATOM     10  H   LIG d   1       9.332   2.035  -8.885  0.00  0.00     0.083 H 
ATOM     11  H   LIG d   1       6.504   2.654  -7.912  0.00  0.00     0.052 H 
ATOM     12  H   LIG d   1       6.969   1.437  -9.130  0.00  0.00     0.052 H 
ATOM     13  H   LIG d   1       7.477   2.095  -5.370  0.00  0.00     0.052 H 
ATOM     14  H   LIG d   1       8.436   0.594  -5.295  0.00  0.00     0.052 H 
ATOM     15  H   LIG d   1      10.147   1.566  -6.753  0.00  0.00     0.083 H 
ATOM     16  H   LIG d   1       9.859   2.675  -5.390  0.00  0.00     0.083 H 
ATOM     17  H   LIG d   1       8.349   3.881  -6.830  0.00  0.00     0.204 HD
ENDROOT
BRANCH   7  18
ATOM     18  C   LIG d   1       7.430  -1.299  -6.191  0.00  0.00     0.026 C 
ATOM     19  H   LIG d   1       7.568  -2.295  -6.612  0.00  0.00     0.036 H 
ATOM     20  H   LIG d   1       8.328  -1.006  -5.648  0.00  0.00     0.036 H 
BRANCH  18  21
ATOM     21  C   LIG d   1       6.236  -1.313  -5.233  0.00  0.00    -0.018 C 
ATOM     22  H   LIG d   1       6.549  -1.714  -4.269  0.00  0.00     0.029 H 
ATOM     23  H   LIG d   1       5.866  -0.296  -5.100  0.00  0.00     0.029 H 
BRANCH  21  24
ATOM     24  C   LIG d   1       5.125  -2.189  -5.814  0.00  0.00     0.100 C 
ATOM     25  H   LIG d   1       5.527  -2.802  -6.621  0.00  0.00     0.060 H 
ATOM     26  N   LIG d   1       4.052  -1.340  -6.333  0.00  0.00    -0.300 N 
ATOM     27  C   LIG d   1       3.421  -0.471  -5.535  0.00  0.00     0.247 C 
ATOM     28  H   LIG d   1       3.794  -1.410  -7.266  0.00  0.00     0.150 HD
ATOM     29  C   LIG d   1       3.755  -0.265  -4.122  0.00  0.00     0.062 A 
ATOM     30  O   LIG d   1       2.519   0.190  -6.011  0.00  0.00    -0.270 OA
ATOM     31  C   LIG d   1       4.093  -1.312  -3.255  0.00  0.00     0.080 A 
ATOM     32  C   LIG d   1       3.741   1.052  -3.633  0.00  0.00    -0.048 A 
ATOM     33  N   LIG d   1       4.114  -2.618  -3.631  0.00  0.00    -0.215 NA
ATOM     34  C   LIG d   1       4.425  -1.019  -1.923  0.00  0.00    -0.035 A 
ATOM     35  C   LIG d   1       4.566  -3.076  -4.737  0.00  0.00     0.209 C 
ATOM     36  C   LIG d   1       4.411   0.279  -1.469  0.00  0.00    -0.060 A 
ATOM     37  H   LIG d   1       4.694  -1.819  -1.250  0.00  0.00     0.064 H 
ATOM     38  C   LIG d   1       4.065   1.315  -2.324  0.00  0.00    -0.061 A 
ATOM     39  H   LIG d   1       4.670   0.492  -0.443  0.00  0.00     0.062 H 
ATOM     40  H   LIG d   1       4.051   2.331  -1.959  0.00  0.00     0.062 H 
ATOM     41  H   LIG d   1       3.472   1.864  -4.292  0.00  0.00     0.063 H 
BRANCH  35  42
ATOM     42  O   LIG d   1       4.539  -4.407  -4.945  0.00  0.00    -0.494 OA
ATOM     43  H   LIG d   1       5.329  -4.869  -4.634  0.00  0.00     0.293 HD
ENDBRANCH  35  42
ENDBRANCH  21  24
ENDBRANCH  18  21
ENDBRANCH   7  18
BRANCH   1  44
ATOM     44  C   LIG d   1      10.257   4.126  -7.506  0.00  0.00    -0.002 C 
ATOM     45  H   LIG d   1      10.496   4.078  -8.568  0.00  0.00     0.087 H 
ATOM     46  H   LIG d   1      11.101   3.750  -6.926  0.00  0.00     0.087 H 
BRANCH  44  47
ATOM     47  C   LIG d   1       9.978   5.555  -7.117  0.00  0.00     0.043 A 
ATOM     48  C   LIG d   1       9.720   5.874  -5.797  0.00  0.00    -0.046 A 
ATOM     49  C   LIG d   1       9.464   7.183  -5.435  0.00  0.00    -0.016 A 
ATOM     50  H   LIG d   1       9.719   5.097  -5.046  0.00  0.00     0.062 H 
ATOM     51  C   LIG d   1       9.465   8.183  -6.396  0.00  0.00     0.165 A 
ATOM     52  H   LIG d   1       9.263   7.427  -4.402  0.00  0.00     0.066 H 
ATOM     53  C   LIG d   1       9.717   7.866  -7.725  0.00  0.00     0.204 A 
ATOM     54  C   LIG d   1       9.980   6.549  -8.085  0.00  0.00     0.173 A 
BRANCH  51  55
ATOM     55  O   LIG d   1       9.214   9.470  -6.039  0.00  0.00    -0.491 OA
BRANCH  55  56
ATOM     56  C   LIG d   1      10.142  10.089  -5.145  0.00  0.00     0.079 C 
ATOM     57  H   LIG d   1      10.954  10.536  -5.717  0.00  0.00     0.066 H 
ATOM     58  H   LIG d   1       9.632  10.864  -4.572  0.00  0.00     0.066 H 
ATOM     59  H   LIG d   1      10.546   9.339  -4.465  0.00  0.00     0.066 H 
ENDBRANCH  55  56
ENDBRANCH  51  55
BRANCH  53  60
ATOM     60  O   LIG d   1       9.713   8.843  -8.673  0.00  0.00    -0.488 OA
BRANCH  60  61
ATOM     61  C   LIG d   1      10.961   9.480  -8.952  0.00  0.00     0.079 C 
ATOM     62  H   LIG d   1      10.789  10.530  -9.187  0.00  0.00     0.066 H 
ATOM     63  H   LIG d   1      11.611   9.405  -8.080  0.00  0.00     0.066 H 
ATOM     64  H   LIG d   1      11.437   8.991  -9.803  0.00  0.00     0.066 H 
ENDBRANCH  60  61
ENDBRANCH  53  60
BRANCH  54  65
ATOM     65  O   LIG d   1      10.234   6.235  -9.382  0.00  0.00    -0.491 OA
BRANCH  65  66
ATOM     66  C   LIG d   1       9.105   6.028 -10.233  0.00  0.00     0.079 C 
ATOM     67  H   LIG d   1       8.907   4.961 -10.320  0.00  0.00     0.066 H 
ATOM     68  H   LIG d   1       8.234   6.526  -9.807  0.00  0.00     0.066 H 
ATOM     69  H   LIG d   1       9.314   6.442 -11.220  0.00  0.00     0.066 H 
ENDBRANCH  65  66
ENDBRANCH  54  65
ENDBRANCH  44  47
ENDBRANCH   1  44
TORSDOF 12
ENDMDL
MODEL 6
REMARK VINA RESULT:      -6.8      5.769     10.884
REMARK  12 active torsions:
REMARK  status: ('A' for Active; 'I' for Inactive)
REMARK    1  A    between atoms: C_1  and  O_2 
REMARK    2  A    between atoms: O_2  and  C_3 
REMARK    3  A    between atoms: C_6  and  C_13 
REMARK    4  A    between atoms: C_7  and  O_11 
REMARK    5  A    between atoms: C_8  and  O_9 
REMARK    6  A    between atoms: O_9  and  C_10 
REMARK    7  A    between atoms: O_11  and  C_12 
REMARK    8  A    between atoms: C_13  and  N_14 
REMARK       I    between atoms: N_17  and  C_20 
REMARK    9  A    between atoms: C_20  and  C_22 
REMARK   10  A    between atoms: C_22  and  C_23 
REMARK   11  A    between atoms: C_23  and  C_24 
REMARK   12  A    between atoms: C_26  and  O_37 
ROOT
ATOM      1  N   LIG d   1       8.193  -5.902  -4.263  0.00  0.00     0.241 N 
ATOM      2  C   LIG d   1       9.238  -4.966  -3.830  0.00  0.00    -0.015 C 
ATOM      3  C   LIG d   1       8.602  -3.613  -3.492  0.00  0.00     0.055 C 
ATOM      4  N   LIG d   1       7.825  -3.160  -4.656  0.00  0.00    -0.291 N 
ATOM      5  C   LIG d   1       6.867  -4.100  -5.259  0.00  0.00     0.055 C 
ATOM      6  C   LIG d   1       7.586  -5.429  -5.513  0.00  0.00    -0.015 C 
ATOM      7  C   LIG d   1       7.986  -1.918  -5.155  0.00  0.00     0.216 C 
ATOM      8  O   LIG d   1       8.780  -1.157  -4.645  0.00  0.00    -0.276 OA
ATOM      9  H   LIG d   1       9.738  -5.363  -2.947  0.00  0.00     0.083 H 
ATOM     10  H   LIG d   1       9.965  -4.835  -4.631  0.00  0.00     0.083 H 
ATOM     11  H   LIG d   1       7.941  -3.724  -2.632  0.00  0.00     0.052 H 
ATOM     12  H   LIG d   1       9.382  -2.887  -3.267  0.00  0.00     0.052 H 
ATOM     13  H   LIG d   1       6.032  -4.260  -4.577  0.00  0.00     0.052 H 
ATOM     14  H   LIG d   1       6.501  -3.695  -6.202  0.00  0.00     0.052 H 
ATOM     15  H   LIG d   1       8.363  -5.284  -6.263  0.00  0.00     0.083 H 
ATOM     16  H   LIG d   1       6.868  -6.168  -5.871  0.00  0.00     0.083 H 
ATOM     17  H   LIG d   1       7.484  -5.966  -3.549  0.00  0.00     0.204 HD
ENDROOT
BRANCH   7  18
ATOM     18  C   LIG d   1       7.178  -1.476  -6.349  0.00  0.00     0.026 C 
ATOM     19  H   LIG d   1       7.816  -0.914  -7.031  0.00  0.00     0.036 H 
ATOM     20  H   LIG d   1       6.779  -2.351  -6.862  0.00  0.00     0.036 H 
BRANCH  18  21
ATOM     21  C   LIG d   1       6.024  -0.588  -5.882  0.00  0.00    -0.018 C 
ATOM     22  H   LIG d   1       5.830  -0.769  -4.825  0.00  0.00     0.029 H 
ATOM     23  H   LIG d   1       6.289   0.460  -6.028  0.00  0.00     0.029 H 
BRANCH  21  24
ATOM     24  C   LIG d   1       4.768  -0.913  -6.694  0.00  0.00     0.100 C 
ATOM     25  H   LIG d   1       5.031  -1.018  -7.747  0.00  0.00     0.060 H 
ATOM     26  N   LIG d   1       3.790   0.164  -6.537  0.00  0.00    -0.300 N 
ATOM     27  C   LIG d   1       3.336   0.504  -5.326  0.00  0.00     0.247 C 
ATOM     28  H   LIG d   1       3.466   0.634  -7.321  0.00  0.00     0.150 HD
ATOM     29  C   LIG d   1       3.784  -0.120  -4.077  0.00  0.00     0.062 A 
ATOM     30  O   LIG d   1       2.503   1.387  -5.256  0.00  0.00    -0.270 OA
ATOM     31  C   LIG d   1       4.031  -1.494  -3.954  0.00  0.00     0.080 A 
ATOM     32  C   LIG d   1       3.981   0.713  -2.964  0.00  0.00    -0.048 A 
ATOM     33  N   LIG d   1       3.850  -2.381  -4.968  0.00  0.00    -0.215 NA
ATOM     34  C   LIG d   1       4.485  -2.002  -2.727  0.00  0.00    -0.035 A 
ATOM     35  C   LIG d   1       4.164  -2.196  -6.195  0.00  0.00     0.209 C 
ATOM     36  C   LIG d   1       4.677  -1.165  -1.653  0.00  0.00    -0.060 A 
ATOM     37  H   LIG d   1       4.684  -3.058  -2.626  0.00  0.00     0.064 H 
ATOM     38  C   LIG d   1       4.421   0.193  -1.770  0.00  0.00    -0.061 A 
ATOM     39  H   LIG d   1       5.027  -1.567  -0.714  0.00  0.00     0.062 H 
ATOM     40  H   LIG d   1       4.570   0.843  -0.921  0.00  0.00     0.062 H 
ATOM     41  H   LIG d   1       3.783   1.771  -3.047  0.00  0.00     0.063 H 
BRANCH  35  42
ATOM     42  O   LIG d   1       3.943  -3.192  -7.076  0.00  0.00    -0.494 OA
ATOM     43  H   LIG d   1       4.614  -3.260  -7.768  0.00  0.00     0.293 HD
ENDBRANCH  35  42
ENDBRANCH  21  24
ENDBRANCH  18  21
ENDBRANCH   7  18
BRANCH   1  44
ATOM     44  C   LIG d   1       8.788  -7.228  -4.482  0.00  0.00    -0.002 C 
ATOM     45  H   LIG d   1       9.847  -7.198  -4.225  0.00  0.00     0.087 H 
ATOM     46  H   LIG d   1       8.676  -7.508  -5.530  0.00  0.00     0.087 H 
BRANCH  44  47
ATOM     47  C   LIG d   1       8.088  -8.241  -3.613  0.00  0.00     0.043 A 
ATOM     48  C   LIG d   1       8.567  -8.512  -2.345  0.00  0.00    -0.046 A 
ATOM     49  C   LIG d   1       7.929  -9.440  -1.544  0.00  0.00    -0.016 A 
ATOM     50  H   LIG d   1       9.443  -7.995  -1.979  0.00  0.00     0.062 H 
ATOM     51  C   LIG d   1       6.804 -10.104  -2.010  0.00  0.00     0.165 A 
ATOM     52  H   LIG d   1       8.306  -9.648  -0.553  0.00  0.00     0.066 H 
ATOM     53  C   LIG d   1       6.323  -9.840  -3.287  0.00  0.00     0.204 A 
ATOM     54  C   LIG d   1       6.964  -8.902  -4.087  0.00  0.00     0.173 A 
BRANCH  51  55
ATOM     55  O   LIG d   1       6.177 -11.017  -1.221  0.00  0.00    -0.491 OA
BRANCH  55  56
ATOM     56  C   LIG d   1       6.963 -12.109  -0.740  0.00  0.00     0.079 C 
ATOM     57  H   LIG d   1       6.486 -13.049  -1.014  0.00  0.00     0.066 H 
ATOM     58  H   LIG d   1       7.957 -12.064  -1.183  0.00  0.00     0.066 H 
ATOM     59  H   LIG d   1       7.045 -12.045   0.345  0.00  0.00     0.066 H 
ENDBRANCH  55  56
ENDBRANCH  51  55
BRANCH  53  60
ATOM     60  O   LIG d   1       5.223 -10.494  -3.751  0.00  0.00    -0.488 OA
BRANCH  60  61
ATOM     61  C   LIG d   1       3.952  -9.908  -3.465  0.00  0.00     0.079 C 
ATOM     62  H   LIG d   1       3.160 -10.591  -3.769  0.00  0.00     0.066 H 
ATOM     63  H   LIG d   1       3.873  -9.714  -2.395  0.00  0.00     0.066 H 
ATOM     64  H   LIG d   1       3.853  -8.970  -4.013  0.00  0.00     0.066 H 
ENDBRANCH  60  61
ENDBRANCH  53  60
BRANCH  54  65
ATOM     65  O   LIG d   1       6.494  -8.635  -5.334  0.00  0.00    -0.491 OA
BRANCH  65  66
ATOM     66  C   LIG d   1       6.929  -9.494  -6.390  0.00  0.00     0.079 C 
ATOM     67  H   LIG d   1       7.640 -10.219  -5.998  0.00  0.00     0.066 H 
ATOM     68  H   LIG d   1       6.069 -10.018  -6.809  0.00  0.00     0.066 H 
ATOM     69  H   LIG d   1       7.406  -8.899  -7.169  0.00  0.00     0.066 H 
ENDBRANCH  65  66
ENDBRANCH  54  65
ENDBRANCH  44  47
ENDBRANCH   1  44
TORSDOF 12
ENDMDL
MODEL 7
REMARK VINA RESULT:      -6.7      5.229     11.952
REMARK  12 active torsions:
REMARK  status: ('A' for Active; 'I' for Inactive)
REMARK    1  A    between atoms: C_1  and  O_2 
REMARK    2  A    between atoms: O_2  and  C_3 
REMARK    3  A    between atoms: C_6  and  C_13 
REMARK    4  A    between atoms: C_7  and  O_11 
REMARK    5  A    between atoms: C_8  and  O_9 
REMARK    6  A    between atoms: O_9  and  C_10 
REMARK    7  A    between atoms: O_11  and  C_12 
REMARK    8  A    between atoms: C_13  and  N_14 
REMARK       I    between atoms: N_17  and  C_20 
REMARK    9  A    between atoms: C_20  and  C_22 
REMARK   10  A    between atoms: C_22  and  C_23 
REMARK   11  A    between atoms: C_23  and  C_24 
REMARK   12  A    between atoms: C_26  and  O_37 
ROOT
ATOM      1  N   LIG d   1       3.052  -3.925  -9.432  0.00  0.00     0.241 N 
ATOM      2  C   LIG d   1       4.000  -4.787  -8.713  0.00  0.00    -0.015 C 
ATOM      3  C   LIG d   1       4.298  -4.180  -7.338  0.00  0.00     0.055 C 
ATOM      4  N   LIG d   1       4.760  -2.797  -7.529  0.00  0.00    -0.291 N 
ATOM      5  C   LIG d   1       3.951  -1.906  -8.375  0.00  0.00     0.055 C 
ATOM      6  C   LIG d   1       3.668  -2.620  -9.701  0.00  0.00    -0.015 C 
ATOM      7  C   LIG d   1       5.893  -2.357  -6.945  0.00  0.00     0.216 C 
ATOM      8  O   LIG d   1       6.547  -3.106  -6.251  0.00  0.00    -0.276 OA
ATOM      9  H   LIG d   1       3.565  -5.778  -8.587  0.00  0.00     0.083 H 
ATOM     10  H   LIG d   1       4.924  -4.865  -9.285  0.00  0.00     0.083 H 
ATOM     11  H   LIG d   1       3.392  -4.183  -6.732  0.00  0.00     0.052 H 
ATOM     12  H   LIG d   1       5.076  -4.761  -6.843  0.00  0.00     0.052 H 
ATOM     13  H   LIG d   1       3.010  -1.680  -7.874  0.00  0.00     0.052 H 
ATOM     14  H   LIG d   1       4.499  -0.983  -8.565  0.00  0.00     0.052 H 
ATOM     15  H   LIG d   1       4.604  -2.765 -10.242  0.00  0.00     0.083 H 
ATOM     16  H   LIG d   1       2.990  -2.015 -10.303  0.00  0.00     0.083 H 
ATOM     17  H   LIG d   1       2.225  -3.795  -8.869  0.00  0.00     0.204 HD
ENDROOT
BRANCH   7  18
ATOM     18  C   LIG d   1       6.346  -0.936  -7.156  0.00  0.00     0.026 C 
ATOM     19  H   LIG d   1       7.404  -0.926  -7.414  0.00  0.00     0.036 H 
ATOM     20  H   LIG d   1       5.769  -0.486  -7.964  0.00  0.00     0.036 H 
BRANCH  18  21
ATOM     21  C   LIG d   1       6.129  -0.136  -5.869  0.00  0.00    -0.018 C 
ATOM     22  H   LIG d   1       5.634   0.805  -6.106  0.00  0.00     0.029 H 
ATOM     23  H   LIG d   1       5.506  -0.712  -5.184  0.00  0.00     0.029 H 
BRANCH  21  24
ATOM     24  C   LIG d   1       7.480   0.150  -5.212  0.00  0.00     0.100 C 
ATOM     25  H   LIG d   1       8.223   0.364  -5.980  0.00  0.00     0.060 H 
ATOM     26  N   LIG d   1       7.903  -1.016  -4.433  0.00  0.00    -0.300 N 
ATOM     27  C   LIG d   1       7.137  -1.494  -3.447  0.00  0.00     0.247 C 
ATOM     28  H   LIG d   1       8.750  -1.444  -4.634  0.00  0.00     0.150 HD
ATOM     29  C   LIG d   1       5.827  -0.941  -3.085  0.00  0.00     0.062 A 
ATOM     30  O   LIG d   1       7.549  -2.447  -2.815  0.00  0.00    -0.270 OA
ATOM     31  C   LIG d   1       5.556   0.434  -3.066  0.00  0.00     0.080 A 
ATOM     32  C   LIG d   1       4.805  -1.845  -2.754  0.00  0.00    -0.048 A 
ATOM     33  N   LIG d   1       6.484   1.384  -3.351  0.00  0.00    -0.215 NA
ATOM     34  C   LIG d   1       4.265   0.873  -2.734  0.00  0.00    -0.035 A 
ATOM     35  C   LIG d   1       7.353   1.330  -4.289  0.00  0.00     0.209 C 
ATOM     36  C   LIG d   1       3.279  -0.032  -2.420  0.00  0.00    -0.060 A 
ATOM     37  H   LIG d   1       4.046   1.930  -2.724  0.00  0.00     0.064 H 
ATOM     38  C   LIG d   1       3.550  -1.392  -2.427  0.00  0.00    -0.061 A 
ATOM     39  H   LIG d   1       2.289   0.317  -2.167  0.00  0.00     0.062 H 
ATOM     40  H   LIG d   1       2.771  -2.097  -2.174  0.00  0.00     0.062 H 
ATOM     41  H   LIG d   1       5.009  -2.906  -2.756  0.00  0.00     0.063 H 
BRANCH  35  42
ATOM     42  O   LIG d   1       8.189   2.374  -4.458  0.00  0.00    -0.494 OA
ATOM     43  H   LIG d   1       7.740   3.212  -4.633  0.00  0.00     0.293 HD
ENDBRANCH  35  42
ENDBRANCH  21  24
ENDBRANCH  18  21
ENDBRANCH   7  18
BRANCH   1  44
ATOM     44  C   LIG d   1       2.682  -4.562 -10.703  0.00  0.00    -0.002 C 
ATOM     45  H   LIG d   1       3.252  -5.482 -10.828  0.00  0.00     0.087 H 
ATOM     46  H   LIG d   1       2.903  -3.883 -11.527  0.00  0.00     0.087 H 
BRANCH  44  47
ATOM     47  C   LIG d   1       1.209  -4.879 -10.695  0.00  0.00     0.043 A 
ATOM     48  C   LIG d   1       0.312  -4.010 -11.288  0.00  0.00    -0.046 A 
ATOM     49  C   LIG d   1      -1.040  -4.296 -11.284  0.00  0.00    -0.016 A 
ATOM     50  H   LIG d   1       0.670  -3.104 -11.756  0.00  0.00     0.062 H 
ATOM     51  C   LIG d   1      -1.503  -5.458 -10.685  0.00  0.00     0.165 A 
ATOM     52  H   LIG d   1      -1.737  -3.614 -11.749  0.00  0.00     0.066 H 
ATOM     53  C   LIG d   1      -0.606  -6.331 -10.083  0.00  0.00     0.204 A 
ATOM     54  C   LIG d   1       0.754  -6.043 -10.093  0.00  0.00     0.173 A 
BRANCH  51  55
ATOM     55  O   LIG d   1      -2.833  -5.739 -10.683  0.00  0.00    -0.491 OA
BRANCH  55  56
ATOM     56  C   LIG d   1      -3.642  -5.044  -9.732  0.00  0.00     0.079 C 
ATOM     57  H   LIG d   1      -4.670  -5.397  -9.802  0.00  0.00     0.066 H 
ATOM     58  H   LIG d   1      -3.262  -5.230  -8.727  0.00  0.00     0.066 H 
ATOM     59  H   LIG d   1      -3.610  -3.975  -9.941  0.00  0.00     0.066 H 
ENDBRANCH  55  56
ENDBRANCH  51  55
BRANCH  53  60
ATOM     60  O   LIG d   1      -1.056  -7.470  -9.488  0.00  0.00    -0.488 OA
BRANCH  60  61
ATOM     61  C   LIG d   1      -1.356  -8.574 -10.345  0.00  0.00     0.079 C 
ATOM     62  H   LIG d   1      -0.852  -9.467  -9.977  0.00  0.00     0.066 H 
ATOM     63  H   LIG d   1      -2.433  -8.744 -10.356  0.00  0.00     0.066 H 
ATOM     64  H   LIG d   1      -1.013  -8.353 -11.356  0.00  0.00     0.066 H 
ENDBRANCH  60  61
ENDBRANCH  53  60
BRANCH  54  65
ATOM     65  O   LIG d   1       1.636  -6.898  -9.511  0.00  0.00    -0.491 OA
BRANCH  65  66
ATOM     66  C   LIG d   1       2.216  -7.901 -10.347  0.00  0.00     0.079 C 
ATOM     67  H   LIG d   1       1.565  -8.084 -11.200  0.00  0.00     0.066 H 
ATOM     68  H   LIG d   1       3.191  -7.562 -10.699  0.00  0.00     0.066 H 
ATOM     69  H   LIG d   1       2.337  -8.823  -9.777  0.00  0.00     0.066 H 
ENDBRANCH  65  66
ENDBRANCH  54  65
ENDBRANCH  44  47
ENDBRANCH   1  44
TORSDOF 12
ENDMDL
MODEL 8
REMARK VINA RESULT:      -6.6      2.355      3.862
REMARK  12 active torsions:
REMARK  status: ('A' for Active; 'I' for Inactive)
REMARK    1  A    between atoms: C_1  and  O_2 
REMARK    2  A    between atoms: O_2  and  C_3 
REMARK    3  A    between atoms: C_6  and  C_13 
REMARK    4  A    between atoms: C_7  and  O_11 
REMARK    5  A    between atoms: C_8  and  O_9 
REMARK    6  A    between atoms: O_9  and  C_10 
REMARK    7  A    between atoms: O_11  and  C_12 
REMARK    8  A    between atoms: C_13  and  N_14 
REMARK       I    between atoms: N_17  and  C_20 
REMARK    9  A    between atoms: C_20  and  C_22 
REMARK   10  A    between atoms: C_22  and  C_23 
REMARK   11  A    between atoms: C_23  and  C_24 
REMARK   12  A    between atoms: C_26  and  O_37 
ROOT
ATOM      1  N   LIG d   1       9.949   3.246  -4.535  0.00  0.00     0.241 N 
ATOM      2  C   LIG d   1      10.615   2.408  -5.540  0.00  0.00    -0.015 C 
ATOM      3  C   LIG d   1       9.621   2.059  -6.653  0.00  0.00     0.055 C 
ATOM      4  N   LIG d   1       8.433   1.445  -6.042  0.00  0.00    -0.291 N 
ATOM      5  C   LIG d   1       7.795   2.141  -4.913  0.00  0.00     0.055 C 
ATOM      6  C   LIG d   1       8.875   2.486  -3.882  0.00  0.00    -0.015 C 
ATOM      7  C   LIG d   1       7.941   0.278  -6.502  0.00  0.00     0.216 C 
ATOM      8  O   LIG d   1       8.480  -0.281  -7.434  0.00  0.00    -0.276 OA
ATOM      9  H   LIG d   1      11.460   2.950  -5.963  0.00  0.00     0.083 H 
ATOM     10  H   LIG d   1      10.971   1.491  -5.070  0.00  0.00     0.083 H 
ATOM     11  H   LIG d   1       9.333   2.967  -7.183  0.00  0.00     0.052 H 
ATOM     12  H   LIG d   1      10.080   1.356  -7.348  0.00  0.00     0.052 H 
ATOM     13  H   LIG d   1       7.322   3.057  -5.267  0.00  0.00     0.052 H 
ATOM     14  H   LIG d   1       7.047   1.493  -4.457  0.00  0.00     0.052 H 
ATOM     15  H   LIG d   1       9.284   1.566  -3.463  0.00  0.00     0.083 H 
ATOM     16  H   LIG d   1       8.438   3.086  -3.084  0.00  0.00     0.083 H 
ATOM     17  H   LIG d   1       9.557   4.059  -4.984  0.00  0.00     0.204 HD
ENDROOT
BRANCH   7  18
ATOM     18  C   LIG d   1       6.722  -0.332  -5.860  0.00  0.00     0.026 C 
ATOM     19  H   LIG d   1       6.943  -1.357  -5.562  0.00  0.00     0.036 H 
ATOM     20  H   LIG d   1       6.445   0.250  -4.981  0.00  0.00     0.036 H 
BRANCH  18  21
ATOM     21  C   LIG d   1       5.564  -0.330  -6.860  0.00  0.00    -0.018 C 
ATOM     22  H   LIG d   1       5.260   0.697  -7.061  0.00  0.00     0.029 H 
ATOM     23  H   LIG d   1       5.885  -0.803  -7.789  0.00  0.00     0.029 H 
BRANCH  21  24
ATOM     24  C   LIG d   1       4.383  -1.106  -6.274  0.00  0.00     0.100 C 
ATOM     25  H   LIG d   1       4.706  -1.651  -5.387  0.00  0.00     0.060 H 
ATOM     26  N   LIG d   1       3.874  -2.050  -7.271  0.00  0.00    -0.300 N 
ATOM     27  C   LIG d   1       3.445  -1.621  -8.462  0.00  0.00     0.247 C 
ATOM     28  H   LIG d   1       3.846  -2.997  -7.062  0.00  0.00     0.150 HD
ATOM     29  C   LIG d   1       3.475  -0.218  -8.888  0.00  0.00     0.062 A 
ATOM     30  O   LIG d   1       3.007  -2.445  -9.241  0.00  0.00    -0.270 OA
ATOM     31  C   LIG d   1       3.167   0.847  -8.032  0.00  0.00     0.080 A 
ATOM     32  C   LIG d   1       3.842   0.054 -10.216  0.00  0.00    -0.048 A 
ATOM     33  N   LIG d   1       2.783   0.682  -6.739  0.00  0.00    -0.215 NA
ATOM     34  C   LIG d   1       3.248   2.162  -8.518  0.00  0.00    -0.035 A 
ATOM     35  C   LIG d   1       3.283  -0.149  -5.906  0.00  0.00     0.209 C 
ATOM     36  C   LIG d   1       3.617   2.404  -9.820  0.00  0.00    -0.060 A 
ATOM     37  H   LIG d   1       3.019   2.989  -7.863  0.00  0.00     0.064 H 
ATOM     38  C   LIG d   1       3.910   1.349 -10.671  0.00  0.00    -0.061 A 
ATOM     39  H   LIG d   1       3.677   3.419 -10.182  0.00  0.00     0.062 H 
ATOM     40  H   LIG d   1       4.194   1.546 -11.694  0.00  0.00     0.062 H 
ATOM     41  H   LIG d   1       4.071  -0.762 -10.885  0.00  0.00     0.063 H 
BRANCH  35  42
ATOM     42  O   LIG d   1       2.806  -0.169  -4.646  0.00  0.00    -0.494 OA
ATOM     43  H   LIG d   1       2.658   0.709  -4.268  0.00  0.00     0.293 HD
ENDBRANCH  35  42
ENDBRANCH  21  24
ENDBRANCH  18  21
ENDBRANCH   7  18
BRANCH   1  44
ATOM     44  C   LIG d   1      10.929   3.669  -3.526  0.00  0.00    -0.002 C 
ATOM     45  H   LIG d   1      11.933   3.604  -3.945  0.00  0.00     0.087 H 
ATOM     46  H   LIG d   1      10.857   3.019  -2.654  0.00  0.00     0.087 H 
BRANCH  44  47
ATOM     47  C   LIG d   1      10.646   5.092  -3.117  0.00  0.00     0.043 A 
ATOM     48  C   LIG d   1      10.211   5.367  -1.834  0.00  0.00    -0.046 A 
ATOM     49  C   LIG d   1       9.950   6.670  -1.453  0.00  0.00    -0.016 A 
ATOM     50  H   LIG d   1      10.076   4.562  -1.127  0.00  0.00     0.062 H 
ATOM     51  C   LIG d   1      10.124   7.707  -2.358  0.00  0.00     0.165 A 
ATOM     52  H   LIG d   1       9.612   6.881  -0.449  0.00  0.00     0.066 H 
ATOM     53  C   LIG d   1      10.554   7.434  -3.650  0.00  0.00     0.204 A 
ATOM     54  C   LIG d   1      10.821   6.123  -4.028  0.00  0.00     0.173 A 
BRANCH  51  55
ATOM     55  O   LIG d   1       9.868   8.988  -1.982  0.00  0.00    -0.491 OA
BRANCH  55  56
ATOM     56  C   LIG d   1       9.026   9.175  -0.842  0.00  0.00     0.079 C 
ATOM     57  H   LIG d   1       8.073   9.595  -1.159  0.00  0.00     0.066 H 
ATOM     58  H   LIG d   1       8.856   8.215  -0.356  0.00  0.00     0.066 H 
ATOM     59  H   LIG d   1       9.510   9.856  -0.142  0.00  0.00     0.066 H 
ENDBRANCH  55  56
ENDBRANCH  51  55
BRANCH  53  60
ATOM     60  O   LIG d   1      10.720   8.448  -4.544  0.00  0.00    -0.488 OA
BRANCH  60  61
ATOM     61  C   LIG d   1       9.608   8.758  -5.386  0.00  0.00     0.079 C 
ATOM     62  H   LIG d   1       9.470   9.838  -5.422  0.00  0.00     0.066 H 
ATOM     63  H   LIG d   1       9.799   8.383  -6.392  0.00  0.00     0.066 H 
ATOM     64  H   LIG d   1       8.708   8.288  -4.988  0.00  0.00     0.066 H 
ENDBRANCH  60  61
ENDBRANCH  53  60
BRANCH  54  65
ATOM     65  O   LIG d   1      11.249   5.851  -5.289  0.00  0.00    -0.491 OA
BRANCH  65  66
ATOM     66  C   LIG d   1      12.654   5.941  -5.532  0.00  0.00     0.079 C 
ATOM     67  H   LIG d   1      12.966   5.115  -6.170  0.00  0.00     0.066 H 
ATOM     68  H   LIG d   1      12.877   6.887  -6.026  0.00  0.00     0.066 H 
ATOM     69  H   LIG d   1      13.190   5.892  -4.584  0.00  0.00     0.066 H 
ENDBRANCH  65  66
ENDBRANCH  54  65
ENDBRANCH  44  47
ENDBRANCH   1  44
TORSDOF 12
ENDMDL
MODEL 9
REMARK VINA RESULT:      -6.5      4.406     11.469
REMARK  12 active torsions:
REMARK  status: ('A' for Active; 'I' for Inactive)
REMARK    1  A    between atoms: C_1  and  O_2 
REMARK    2  A    between atoms: O_2  and  C_3 
REMARK    3  A    between atoms: C_6  and  C_13 
REMARK    4  A    between atoms: C_7  and  O_11 
REMARK    5  A    between atoms: C_8  and  O_9 
REMARK    6  A    between atoms: O_9  and  C_10 
REMARK    7  A    between atoms: O_11  and  C_12 
REMARK    8  A    between atoms: C_13  and  N_14 
REMARK       I    between atoms: N_17  and  C_20 
REMARK    9  A    between atoms: C_20  and  C_22 
REMARK   10  A    between atoms: C_22  and  C_23 
REMARK   11  A    between atoms: C_23  and  C_24 
REMARK   12  A    between atoms: C_26  and  O_37 
ROOT
ATOM      1  N   LIG d   1       5.184  -5.291  -6.373  0.00  0.00     0.241 N 
ATOM      2  C   LIG d   1       4.014  -4.498  -6.772  0.00  0.00    -0.015 C 
ATOM      3  C   LIG d   1       4.416  -3.515  -7.876  0.00  0.00     0.055 C 
ATOM      4  N   LIG d   1       5.556  -2.717  -7.397  0.00  0.00    -0.291 N 
ATOM      5  C   LIG d   1       6.710  -3.429  -6.827  0.00  0.00     0.055 C 
ATOM      6  C   LIG d   1       6.199  -4.416  -5.772  0.00  0.00    -0.015 C 
ATOM      7  C   LIG d   1       5.543  -1.372  -7.480  0.00  0.00     0.216 C 
ATOM      8  O   LIG d   1       4.583  -0.803  -7.954  0.00  0.00    -0.276 OA
ATOM      9  H   LIG d   1       3.234  -5.163  -7.143  0.00  0.00     0.083 H 
ATOM     10  H   LIG d   1       3.639  -3.944  -5.911  0.00  0.00     0.083 H 
ATOM     11  H   LIG d   1       4.706  -4.068  -8.770  0.00  0.00     0.052 H 
ATOM     12  H   LIG d   1       3.579  -2.857  -8.105  0.00  0.00     0.052 H 
ATOM     13  H   LIG d   1       7.231  -3.973  -7.614  0.00  0.00     0.052 H 
ATOM     14  H   LIG d   1       7.388  -2.714  -6.361  0.00  0.00     0.052 H 
ATOM     15  H   LIG d   1       5.757  -3.864  -4.942  0.00  0.00     0.083 H 
ATOM     16  H   LIG d   1       7.029  -5.020  -5.407  0.00  0.00     0.083 H 
ATOM     17  H   LIG d   1       5.572  -5.746  -7.184  0.00  0.00     0.204 HD
ENDROOT
BRANCH   7  18
ATOM     18  C   LIG d   1       6.722  -0.576  -6.983  0.00  0.00     0.026 C 
ATOM     19  H   LIG d   1       7.565  -1.244  -6.811  0.00  0.00     0.036 H 
ATOM     20  H   LIG d   1       6.995   0.172  -7.727  0.00  0.00     0.036 H 
BRANCH  18  21
ATOM     21  C   LIG d   1       6.350   0.122  -5.672  0.00  0.00    -0.018 C 
ATOM     22  H   LIG d   1       5.915   1.097  -5.891  0.00  0.00     0.029 H 
ATOM     23  H   LIG d   1       5.623  -0.486  -5.131  0.00  0.00     0.029 H 
BRANCH  21  24
ATOM     24  C   LIG d   1       7.604   0.302  -4.816  0.00  0.00     0.100 C 
ATOM     25  H   LIG d   1       8.429   0.642  -5.442  0.00  0.00     0.060 H 
ATOM     26  N   LIG d   1       7.958  -0.973  -4.190  0.00  0.00    -0.300 N 
ATOM     27  C   LIG d   1       7.089  -1.609  -3.396  0.00  0.00     0.247 C 
ATOM     28  H   LIG d   1       8.833  -1.359  -4.351  0.00  0.00     0.150 HD
ATOM     29  C   LIG d   1       5.733  -1.129  -3.114  0.00  0.00     0.062 A 
ATOM     30  O   LIG d   1       7.445  -2.651  -2.880  0.00  0.00    -0.270 OA
ATOM     31  C   LIG d   1       5.428   0.223  -2.907  0.00  0.00     0.080 A 
ATOM     32  C   LIG d   1       4.701  -2.080  -3.062  0.00  0.00    -0.048 A 
ATOM     33  N   LIG d   1       6.361   1.211  -2.918  0.00  0.00    -0.215 NA
ATOM     34  C   LIG d   1       4.096   0.596  -2.669  0.00  0.00    -0.035 A 
ATOM     35  C   LIG d   1       7.338   1.315  -3.738  0.00  0.00     0.209 C 
ATOM     36  C   LIG d   1       3.101  -0.352  -2.630  0.00  0.00    -0.060 A 
ATOM     37  H   LIG d   1       3.851   1.637  -2.516  0.00  0.00     0.064 H 
ATOM     38  C   LIG d   1       3.404  -1.691  -2.823  0.00  0.00    -0.061 A 
ATOM     39  H   LIG d   1       2.080  -0.052  -2.448  0.00  0.00     0.062 H 
ATOM     40  H   LIG d   1       2.618  -2.431  -2.786  0.00  0.00     0.062 H 
ATOM     41  H   LIG d   1       4.929  -3.124  -3.210  0.00  0.00     0.063 H 
BRANCH  35  42
ATOM     42  O   LIG d   1       8.162   2.376  -3.631  0.00  0.00    -0.494 OA
ATOM     43  H   LIG d   1       7.712   3.230  -3.689  0.00  0.00     0.293 HD
ENDBRANCH  35  42
ENDBRANCH  21  24
ENDBRANCH  18  21
ENDBRANCH   7  18
BRANCH   1  44
ATOM     44  C   LIG d   1       4.774  -6.306  -5.393  0.00  0.00    -0.002 C 
ATOM     45  H   LIG d   1       3.693  -6.440  -5.440  0.00  0.00     0.087 H 
ATOM     46  H   LIG d   1       5.057  -5.980  -4.392  0.00  0.00     0.087 H 
BRANCH  44  47
ATOM     47  C   LIG d   1       5.457  -7.612  -5.708  0.00  0.00     0.043 A 
ATOM     48  C   LIG d   1       6.584  -7.989  -5.003  0.00  0.00    -0.046 A 
ATOM     49  C   LIG d   1       7.214  -9.186  -5.287  0.00  0.00    -0.016 A 
ATOM     50  H   LIG d   1       6.973  -7.347  -4.226  0.00  0.00     0.062 H 
ATOM     51  C   LIG d   1       6.717 -10.014  -6.283  0.00  0.00     0.165 A 
ATOM     52  H   LIG d   1       8.094  -9.477  -4.733  0.00  0.00     0.066 H 
ATOM     53  C   LIG d   1       5.588  -9.635  -6.999  0.00  0.00     0.204 A 
ATOM     54  C   LIG d   1       4.953  -8.434  -6.706  0.00  0.00     0.173 A 
BRANCH  51  55
ATOM     55  O   LIG d   1       7.337 -11.192  -6.561  0.00  0.00    -0.491 OA
BRANCH  55  56
ATOM     56  C   LIG d   1       8.724 -11.131  -6.899  0.00  0.00     0.079 C 
ATOM     57  H   LIG d   1       8.861 -10.470  -7.754  0.00  0.00     0.066 H 
ATOM     58  H   LIG d   1       9.289 -10.748  -6.050  0.00  0.00     0.066 H 
ATOM     59  H   LIG d   1       9.080 -12.130  -7.152  0.00  0.00     0.066 H 
ENDBRANCH  55  56
ENDBRANCH  51  55
BRANCH  53  60
ATOM     60  O   LIG d   1       5.100 -10.442  -7.981  0.00  0.00    -0.488 OA
BRANCH  60  61
ATOM     61  C   LIG d   1       4.171 -11.454  -7.587  0.00  0.00     0.079 C 
ATOM     62  H   LIG d   1       3.250 -11.344  -8.159  0.00  0.00     0.066 H 
ATOM     63  H   LIG d   1       4.602 -12.437  -7.778  0.00  0.00     0.066 H 
ATOM     64  H   LIG d   1       3.953 -11.353  -6.523  0.00  0.00     0.066 H 
ENDBRANCH  60  61
ENDBRANCH  53  60
BRANCH  54  65
ATOM     65  O   LIG d   1       3.845  -8.062  -7.399  0.00  0.00    -0.491 OA
BRANCH  65  66
ATOM     66  C   LIG d   1       4.037  -7.631  -8.748  0.00  0.00     0.079 C 
ATOM     67  H   LIG d   1       5.103  -7.566  -8.960  0.00  0.00     0.066 H 
ATOM     68  H   LIG d   1       3.573  -8.346  -9.427  0.00  0.00     0.066 H 
ATOM     69  H   LIG d   1       3.578  -6.651  -8.884  0.00  0.00     0.066 H 
ENDBRANCH  65  66
ENDBRANCH  54  65
ENDBRANCH  44  47
ENDBRANCH   1  44
TORSDOF 12
ENDMDL
MODEL 10
REMARK VINA RESULT:      -6.5      5.668     12.101
REMARK  12 active torsions:
REMARK  status: ('A' for Active; 'I' for Inactive)
REMARK    1  A    between atoms: C_1  and  O_2 
REMARK    2  A    between atoms: O_2  and  C_3 
REMARK    3  A    between atoms: C_6  and  C_13 
REMARK    4  A    between atoms: C_7  and  O_11 
REMARK    5  A    between atoms: C_8  and  O_9 
REMARK    6  A    between atoms: O_9  and  C_10 
REMARK    7  A    between atoms: O_11  and  C_12 
REMARK    8  A    between atoms: C_13  and  N_14 
REMARK       I    between atoms: N_17  and  C_20 
REMARK    9  A    between atoms: C_20  and  C_22 
REMARK   10  A    between atoms: C_22  and  C_23 
REMARK   11  A    between atoms: C_23  and  C_24 
REMARK   12  A    between atoms: C_26  and  O_37 
ROOT
ATOM      1  N   LIG d   1       2.370  -4.060  -9.660  0.00  0.00     0.241 N 
ATOM      2  C   LIG d   1       3.405  -4.896  -9.039  0.00  0.00    -0.015 C 
ATOM      3  C   LIG d   1       3.764  -4.325  -7.662  0.00  0.00     0.055 C 
ATOM      4  N   LIG d   1       4.141  -2.913  -7.827  0.00  0.00    -0.291 N 
ATOM      5  C   LIG d   1       3.232  -2.036  -8.583  0.00  0.00     0.055 C 
ATOM      6  C   LIG d   1       2.899  -2.715  -9.916  0.00  0.00    -0.015 C 
ATOM      7  C   LIG d   1       5.285  -2.435  -7.300  0.00  0.00     0.216 C 
ATOM      8  O   LIG d   1       6.021  -3.172  -6.680  0.00  0.00    -0.276 OA
ATOM      9  H   LIG d   1       3.032  -5.913  -8.925  0.00  0.00     0.083 H 
ATOM     10  H   LIG d   1       4.293  -4.904  -9.671  0.00  0.00     0.083 H 
ATOM     11  H   LIG d   1       2.901  -4.399  -7.000  0.00  0.00     0.052 H 
ATOM     12  H   LIG d   1       4.601  -4.880  -7.242  0.00  0.00     0.052 H 
ATOM     13  H   LIG d   1       2.316  -1.879  -8.014  0.00  0.00     0.052 H 
ATOM     14  H   LIG d   1       3.718  -1.079  -8.771  0.00  0.00     0.052 H 
ATOM     15  H   LIG d   1       3.803  -2.790 -10.521  0.00  0.00     0.083 H 
ATOM     16  H   LIG d   1       2.152  -2.126 -10.448  0.00  0.00     0.083 H 
ATOM     17  H   LIG d   1       1.577  -3.995  -9.040  0.00  0.00     0.204 HD
ENDROOT
BRANCH   7  18
ATOM     18  C   LIG d   1       5.650  -0.984  -7.482  0.00  0.00     0.026 C 
ATOM     19  H   LIG d   1       6.568  -0.911  -8.065  0.00  0.00     0.036 H 
ATOM     20  H   LIG d   1       4.844  -0.469  -8.005  0.00  0.00     0.036 H 
BRANCH  18  21
ATOM     21  C   LIG d   1       5.864  -0.337  -6.112  0.00  0.00    -0.018 C 
ATOM     22  H   LIG d   1       5.394   0.646  -6.098  0.00  0.00     0.029 H 
ATOM     23  H   LIG d   1       5.418  -0.964  -5.340  0.00  0.00     0.029 H 
BRANCH  21  24
ATOM     24  C   LIG d   1       7.363  -0.189  -5.846  0.00  0.00     0.100 C 
ATOM     25  H   LIG d   1       7.901  -0.148  -6.794  0.00  0.00     0.060 H 
ATOM     26  N   LIG d   1       7.837  -1.331  -5.062  0.00  0.00    -0.300 N 
ATOM     27  C   LIG d   1       7.303  -1.609  -3.869  0.00  0.00     0.247 C 
ATOM     28  H   LIG d   1       8.548  -1.890  -5.413  0.00  0.00     0.150 HD
ATOM     29  C   LIG d   1       6.205  -0.849  -3.264  0.00  0.00     0.062 A 
ATOM     30  O   LIG d   1       7.754  -2.553  -3.248  0.00  0.00    -0.270 OA
ATOM     31  C   LIG d   1       6.107   0.547  -3.343  0.00  0.00     0.080 A 
ATOM     32  C   LIG d   1       5.208  -1.568  -2.587  0.00  0.00    -0.048 A 
ATOM     33  N   LIG d   1       7.032   1.329  -3.959  0.00  0.00    -0.215 NA
ATOM     34  C   LIG d   1       5.005   1.190  -2.758  0.00  0.00    -0.035 A 
ATOM     35  C   LIG d   1       7.616   1.073  -5.068  0.00  0.00     0.209 C 
ATOM     36  C   LIG d   1       4.037   0.464  -2.106  0.00  0.00    -0.060 A 
ATOM     37  H   LIG d   1       4.918   2.265  -2.821  0.00  0.00     0.064 H 
ATOM     38  C   LIG d   1       4.140  -0.916  -2.017  0.00  0.00    -0.061 A 
ATOM     39  H   LIG d   1       3.194   0.970  -1.660  0.00  0.00     0.062 H 
ATOM     40  H   LIG d   1       3.378  -1.480  -1.499  0.00  0.00     0.062 H 
ATOM     41  H   LIG d   1       5.281  -2.643  -2.512  0.00  0.00     0.063 H 
BRANCH  35  42
ATOM     42  O   LIG d   1       8.493   1.970  -5.560  0.00  0.00    -0.494 OA
ATOM     43  H   LIG d   1       8.173   2.445  -6.339  0.00  0.00     0.293 HD
ENDBRANCH  35  42
ENDBRANCH  21  24
ENDBRANCH  18  21
ENDBRANCH   7  18
BRANCH   1  44
ATOM     44  C   LIG d   1       1.949  -4.668 -10.929  0.00  0.00    -0.002 C 
ATOM     45  H   LIG d   1       2.358  -5.676 -11.003  0.00  0.00     0.087 H 
ATOM     46  H   LIG d   1       2.316  -4.065 -11.760  0.00  0.00     0.087 H 
BRANCH  44  47
ATOM     47  C   LIG d   1       0.444  -4.732 -10.981  0.00  0.00     0.043 A 
ATOM     48  C   LIG d   1      -0.251  -5.433 -10.013  0.00  0.00    -0.046 A 
ATOM     49  C   LIG d   1      -1.631  -5.495 -10.056  0.00  0.00    -0.016 A 
ATOM     50  H   LIG d   1       0.287  -5.934  -9.221  0.00  0.00     0.062 H 
ATOM     51  C   LIG d   1      -2.324  -4.853 -11.071  0.00  0.00     0.165 A 
ATOM     52  H   LIG d   1      -2.170  -6.043  -9.297  0.00  0.00     0.066 H 
ATOM     53  C   LIG d   1      -1.630  -4.153 -12.049  0.00  0.00     0.204 A 
ATOM     54  C   LIG d   1      -0.242  -4.088 -12.000  0.00  0.00     0.173 A 
BRANCH  51  55
ATOM     55  O   LIG d   1      -3.682  -4.914 -11.112  0.00  0.00    -0.491 OA
BRANCH  55  56
ATOM     56  C   LIG d   1      -4.389  -4.408  -9.977  0.00  0.00     0.079 C 
ATOM     57  H   LIG d   1      -4.842  -5.236  -9.433  0.00  0.00     0.066 H 
ATOM     58  H   LIG d   1      -3.696  -3.880  -9.323  0.00  0.00     0.066 H 
ATOM     59  H   LIG d   1      -5.168  -3.723 -10.311  0.00  0.00     0.066 H 
ENDBRANCH  55  56
ENDBRANCH  51  55
BRANCH  53  60
ATOM     60  O   LIG d   1      -2.306  -3.526 -13.051  0.00  0.00    -0.488 OA
BRANCH  60  61
ATOM     61  C   LIG d   1      -2.545  -4.279 -14.242  0.00  0.00     0.079 C 
ATOM     62  H   LIG d   1      -1.744  -4.092 -14.957  0.00  0.00     0.066 H 
ATOM     63  H   LIG d   1      -2.576  -5.342 -14.000  0.00  0.00     0.066 H 
ATOM     64  H   LIG d   1      -3.498  -3.978 -14.678  0.00  0.00     0.066 H 
ENDBRANCH  60  61
ENDBRANCH  53  60
BRANCH  54  65
ATOM     65  O   LIG d   1       0.442  -3.399 -12.951  0.00  0.00    -0.491 OA
BRANCH  65  66
ATOM     66  C   LIG d   1       0.587  -1.991 -12.755  0.00  0.00     0.079 C 
ATOM     67  H   LIG d   1       1.640  -1.722 -12.817  0.00  0.00     0.066 H 
ATOM     68  H   LIG d   1       0.028  -1.458 -13.525  0.00  0.00     0.066 H 
ATOM     69  H   LIG d   1       0.198  -1.720 -11.773  0.00  0.00     0.066 H 
ENDBRANCH  65  66
ENDBRANCH  54  65
ENDBRANCH  44  47
ENDBRANCH   1  44
TORSDOF 12
ENDMDL
