MODEL 1
REMARK VINA RESULT:      -6.0      0.000      0.000
REMARK  8 active torsions:
REMARK  status: ('A' for Active; 'I' for Inactive)
REMARK    1  A    between atoms: C_1  and  C_2 
REMARK    2  A    between atoms: C_2  and  C_3 
REMARK    3  A    between atoms: C_3  and  C_4 
REMARK    4  A    between atoms: C_4  and  C_5 
REMARK    5  A    between atoms: C_5  and  O_6 
REMARK    6  A    between atoms: O_6  and  C_7 
REMARK    7  A    between atoms: C_7  and  C_9 
REMARK    8  A    between atoms: C_13  and  N_15 
ROOT
ATOM      1  C   LIG d   1       3.319   0.139  -7.043  0.00  0.00     0.093 C 
ATOM      2  H   LIG d   1       3.604  -0.912  -7.078  0.00  0.00     0.070 H 
ATOM      3  H   LIG d   1       4.184   0.740  -6.763  0.00  0.00     0.070 H 
ENDROOT
BRANCH   1   4
ATOM      4  C   LIG d   1       2.819   0.577  -8.421  0.00  0.00    -0.018 C 
ATOM      5  H   LIG d   1       1.785   0.257  -8.551  0.00  0.00     0.030 H 
ATOM      6  H   LIG d   1       3.439   0.124  -9.195  0.00  0.00     0.030 H 
BRANCH   4   7
ATOM      7  C   LIG d   1       2.898   2.101  -8.532  0.00  0.00    -0.050 C 
ATOM      8  H   LIG d   1       3.522   2.491  -7.728  0.00  0.00     0.027 H 
ATOM      9  H   LIG d   1       1.897   2.524  -8.454  0.00  0.00     0.027 H 
BRANCH   7  10
ATOM     10  C   LIG d   1       3.508   2.483  -9.883  0.00  0.00    -0.056 C 
ATOM     11  H   LIG d   1       4.411   3.071  -9.719  0.00  0.00     0.026 H 
ATOM     12  H   LIG d   1       2.789   3.071 -10.453  0.00  0.00     0.026 H 
BRANCH  10  13
ATOM     13  C   LIG d   1       3.861   1.214 -10.661  0.00  0.00    -0.065 C 
ATOM     14  H   LIG d   1       2.977   0.852 -11.186  0.00  0.00     0.023 H 
ATOM     15  H   LIG d   1       4.647   1.436 -11.382  0.00  0.00     0.023 H 
ATOM     16  H   LIG d   1       4.210   0.448  -9.967  0.00  0.00     0.023 H 
ENDBRANCH  10  13
ENDBRANCH   7  10
ENDBRANCH   4   7
ENDBRANCH   1   4
BRANCH   1  17
ATOM     17  O   LIG d   1       2.281   0.321  -6.080  0.00  0.00    -0.461 OA
BRANCH  17  18
ATOM     18  C   LIG d   1       2.567   1.085  -5.009  0.00  0.00     0.339 C 
ATOM     19  O   LIG d   1       2.290   2.268  -5.015  0.00  0.00    -0.245 OA
BRANCH  18  20
ATOM     20  C   LIG d   1       3.217   0.487  -3.825  0.00  0.00     0.061 A 
ATOM     21  C   LIG d   1       3.158  -0.891  -3.613  0.00  0.00    -0.027 A 
ATOM     22  C   LIG d   1       3.776  -1.445  -2.503  0.00  0.00     0.025 A 
ATOM     23  H   LIG d   1       2.634  -1.524  -4.315  0.00  0.00     0.064 H 
ATOM     24  C   LIG d   1       4.444  -0.626  -1.599  0.00  0.00    -0.041 A 
ATOM     25  C   LIG d   1       4.499   0.739  -1.806  0.00  0.00    -0.059 A 
ATOM     26  H   LIG d   1       4.921  -1.059  -0.733  0.00  0.00     0.064 H 
ATOM     27  C   LIG d   1       3.891   1.300  -2.910  0.00  0.00    -0.048 A 
ATOM     28  H   LIG d   1       5.020   1.369  -1.101  0.00  0.00     0.062 H 
ATOM     29  H   LIG d   1       3.938   2.367  -3.068  0.00  0.00     0.063 H 
BRANCH  22  30
ATOM     30  N   LIG d   1       3.723  -2.824  -2.289  0.00  0.00    -0.358 N 
ATOM     31  H   LIG d   1       3.034  -3.201  -1.721  0.00  0.00     0.142 HD
ATOM     32  H   LIG d   1       4.377  -3.406  -2.710  0.00  0.00     0.142 HD
ENDBRANCH  22  30
ENDBRANCH  18  20
ENDBRANCH  17  18
ENDBRANCH   1  17
TORSDOF 8
ENDMDL
MODEL 2
REMARK VINA RESULT:      -5.6      1.618      1.850
REMARK  8 active torsions:
REMARK  status: ('A' for Active; 'I' for Inactive)
REMARK    1  A    between atoms: C_1  and  C_2 
REMARK    2  A    between atoms: C_2  and  C_3 
REMARK    3  A    between atoms: C_3  and  C_4 
REMARK    4  A    between atoms: C_4  and  C_5 
REMARK    5  A    between atoms: C_5  and  O_6 
REMARK    6  A    between atoms: O_6  and  C_7 
REMARK    7  A    between atoms: C_7  and  C_9 
REMARK    8  A    between atoms: C_13  and  N_15 
ROOT
ATOM      1  C   LIG d   1       3.148  -0.289  -7.533  0.00  0.00     0.093 C 
ATOM      2  H   LIG d   1       2.430  -1.053  -7.236  0.00  0.00     0.070 H 
ATOM      3  H   LIG d   1       4.086  -0.765  -7.817  0.00  0.00     0.070 H 
ENDROOT
BRANCH   1   4
ATOM      4  C   LIG d   1       2.594   0.495  -8.724  0.00  0.00    -0.018 C 
ATOM      5  H   LIG d   1       1.512   0.366  -8.773  0.00  0.00     0.030 H 
ATOM      6  H   LIG d   1       3.046   0.127  -9.645  0.00  0.00     0.030 H 
BRANCH   4   7
ATOM      7  C   LIG d   1       2.922   1.980  -8.554  0.00  0.00    -0.050 C 
ATOM      8  H   LIG d   1       3.592   2.109  -7.703  0.00  0.00     0.027 H 
ATOM      9  H   LIG d   1       2.003   2.539  -8.381  0.00  0.00     0.027 H 
BRANCH   7  10
ATOM     10  C   LIG d   1       3.604   2.500  -9.822  0.00  0.00    -0.056 C 
ATOM     11  H   LIG d   1       4.509   3.043  -9.551  0.00  0.00     0.026 H 
ATOM     12  H   LIG d   1       2.925   3.169 -10.352  0.00  0.00     0.026 H 
BRANCH  10  13
ATOM     13  C   LIG d   1       3.968   1.321 -10.726  0.00  0.00    -0.065 C 
ATOM     14  H   LIG d   1       4.839   1.581 -11.329  0.00  0.00     0.023 H 
ATOM     15  H   LIG d   1       4.198   0.450 -10.113  0.00  0.00     0.023 H 
ATOM     16  H   LIG d   1       3.128   1.093 -11.381  0.00  0.00     0.023 H 
ENDBRANCH  10  13
ENDBRANCH   7  10
ENDBRANCH   4   7
ENDBRANCH   1   4
BRANCH   1  17
ATOM     17  O   LIG d   1       3.377   0.602  -6.441  0.00  0.00    -0.461 OA
BRANCH  17  18
ATOM     18  C   LIG d   1       2.848   0.260  -5.251  0.00  0.00     0.339 C 
ATOM     19  O   LIG d   1       1.681   0.499  -5.013  0.00  0.00    -0.245 OA
BRANCH  18  20
ATOM     20  C   LIG d   1       3.686  -0.407  -4.233  0.00  0.00     0.061 A 
ATOM     21  C   LIG d   1       5.074  -0.268  -4.267  0.00  0.00    -0.027 A 
ATOM     22  C   LIG d   1       5.852  -0.893  -3.304  0.00  0.00     0.025 A 
ATOM     23  H   LIG d   1       5.539   0.328  -5.038  0.00  0.00     0.064 H 
ATOM     24  C   LIG d   1       5.250  -1.664  -2.317  0.00  0.00    -0.041 A 
ATOM     25  C   LIG d   1       3.875  -1.806  -2.286  0.00  0.00    -0.059 A 
ATOM     26  H   LIG d   1       5.858  -2.153  -1.571  0.00  0.00     0.064 H 
ATOM     27  C   LIG d   1       3.091  -1.185  -3.236  0.00  0.00    -0.048 A 
ATOM     28  H   LIG d   1       3.413  -2.406  -1.516  0.00  0.00     0.062 H 
ATOM     29  H   LIG d   1       2.018  -1.299  -3.208  0.00  0.00     0.063 H 
BRANCH  22  30
ATOM     30  N   LIG d   1       7.242  -0.752  -3.330  0.00  0.00    -0.358 N 
ATOM     31  H   LIG d   1       7.810  -1.533  -3.250  0.00  0.00     0.142 HD
ATOM     32  H   LIG d   1       7.639   0.128  -3.429  0.00  0.00     0.142 HD
ENDBRANCH  22  30
ENDBRANCH  18  20
ENDBRANCH  17  18
ENDBRANCH   1  17
TORSDOF 8
ENDMDL
MODEL 3
REMARK VINA RESULT:      -5.4      2.592      6.327
REMARK  8 active torsions:
REMARK  status: ('A' for Active; 'I' for Inactive)
REMARK    1  A    between atoms: C_1  and  C_2 
REMARK    2  A    between atoms: C_2  and  C_3 
REMARK    3  A    between atoms: C_3  and  C_4 
REMARK    4  A    between atoms: C_4  and  C_5 
REMARK    5  A    between atoms: C_5  and  O_6 
REMARK    6  A    between atoms: O_6  and  C_7 
REMARK    7  A    between atoms: C_7  and  C_9 
REMARK    8  A    between atoms: C_13  and  N_15 
ROOT
ATOM      1  C   LIG d   1       2.586   0.497  -4.800  0.00  0.00     0.093 C 
ATOM      2  H   LIG d   1       1.840   0.134  -5.506  0.00  0.00     0.070 H 
ATOM      3  H   LIG d   1       2.388   1.543  -4.569  0.00  0.00     0.070 H 
ENDROOT
BRANCH   1   4
ATOM      4  C   LIG d   1       2.516  -0.331  -3.515  0.00  0.00    -0.018 C 
ATOM      5  H   LIG d   1       2.809  -1.359  -3.729  0.00  0.00     0.030 H 
ATOM      6  H   LIG d   1       1.498  -0.316  -3.127  0.00  0.00     0.030 H 
BRANCH   4   7
ATOM      7  C   LIG d   1       3.467   0.264  -2.473  0.00  0.00    -0.050 C 
ATOM      8  H   LIG d   1       2.887   0.720  -1.671  0.00  0.00     0.027 H 
ATOM      9  H   LIG d   1       4.095   1.019  -2.943  0.00  0.00     0.027 H 
BRANCH   7  10
ATOM     10  C   LIG d   1       4.349  -0.846  -1.896  0.00  0.00    -0.056 C 
ATOM     11  H   LIG d   1       4.252  -0.860  -0.811  0.00  0.00     0.026 H 
ATOM     12  H   LIG d   1       5.389  -0.660  -2.165  0.00  0.00     0.026 H 
BRANCH  10  13
ATOM     13  C   LIG d   1       3.909  -2.196  -2.465  0.00  0.00    -0.065 C 
ATOM     14  H   LIG d   1       3.418  -2.042  -3.427  0.00  0.00     0.023 H 
ATOM     15  H   LIG d   1       4.780  -2.836  -2.599  0.00  0.00     0.023 H 
ATOM     16  H   LIG d   1       3.212  -2.671  -1.774  0.00  0.00     0.023 H 
ENDBRANCH  10  13
ENDBRANCH   7  10
ENDBRANCH   4   7
ENDBRANCH   1   4
BRANCH   1  17
ATOM     17  O   LIG d   1       3.888   0.374  -5.375  0.00  0.00    -0.461 OA
BRANCH  17  18
ATOM     18  C   LIG d   1       4.028  -0.503  -6.387  0.00  0.00     0.339 C 
ATOM     19  O   LIG d   1       4.458  -1.618  -6.170  0.00  0.00    -0.245 OA
BRANCH  18  20
ATOM     20  C   LIG d   1       3.659  -0.110  -7.763  0.00  0.00     0.061 A 
ATOM     21  C   LIG d   1       2.514  -0.637  -8.360  0.00  0.00    -0.027 A 
ATOM     22  C   LIG d   1       2.173  -0.259  -9.650  0.00  0.00     0.025 A 
ATOM     23  H   LIG d   1       1.894  -1.336  -7.818  0.00  0.00     0.064 H 
ATOM     24  C   LIG d   1       2.976   0.636 -10.347  0.00  0.00    -0.041 A 
ATOM     25  C   LIG d   1       4.114   1.155  -9.757  0.00  0.00    -0.059 A 
ATOM     26  H   LIG d   1       2.711   0.926 -11.352  0.00  0.00     0.064 H 
ATOM     27  C   LIG d   1       4.460   0.788  -8.474  0.00  0.00    -0.048 A 
ATOM     28  H   LIG d   1       4.734   1.849 -10.304  0.00  0.00     0.062 H 
ATOM     29  H   LIG d   1       5.350   1.196  -8.017  0.00  0.00     0.063 H 
BRANCH  22  30
ATOM     30  N   LIG d   1       1.024  -0.780 -10.250  0.00  0.00    -0.358 N 
ATOM     31  H   LIG d   1       0.472  -1.415  -9.769  0.00  0.00     0.142 HD
ATOM     32  H   LIG d   1       0.778  -0.507 -11.148  0.00  0.00     0.142 HD
ENDBRANCH  22  30
ENDBRANCH  18  20
ENDBRANCH  17  18
ENDBRANCH   1  17
TORSDOF 8
ENDMDL
MODEL 4
REMARK VINA RESULT:      -5.4      3.057      6.483
REMARK  8 active torsions:
REMARK  status: ('A' for Active; 'I' for Inactive)
REMARK    1  A    between atoms: C_1  and  C_2 
REMARK    2  A    between atoms: C_2  and  C_3 
REMARK    3  A    between atoms: C_3  and  C_4 
REMARK    4  A    between atoms: C_4  and  C_5 
REMARK    5  A    between atoms: C_5  and  O_6 
REMARK    6  A    between atoms: O_6  and  C_7 
REMARK    7  A    between atoms: C_7  and  C_9 
REMARK    8  A    between atoms: C_13  and  N_15 
ROOT
ATOM      1  C   LIG d   1       2.453   0.401  -5.114  0.00  0.00     0.093 C 
ATOM      2  H   LIG d   1       1.926  -0.553  -5.129  0.00  0.00     0.070 H 
ATOM      3  H   LIG d   1       1.750   1.207  -5.322  0.00  0.00     0.070 H 
ENDROOT
BRANCH   1   4
ATOM      4  C   LIG d   1       3.079   0.614  -3.734  0.00  0.00    -0.018 C 
ATOM      5  H   LIG d   1       2.478   1.326  -3.168  0.00  0.00     0.030 H 
ATOM      6  H   LIG d   1       4.091   1.003  -3.849  0.00  0.00     0.030 H 
BRANCH   4   7
ATOM      7  C   LIG d   1       3.128  -0.719  -2.985  0.00  0.00    -0.050 C 
ATOM      8  H   LIG d   1       3.327  -1.525  -3.691  0.00  0.00     0.027 H 
ATOM      9  H   LIG d   1       2.172  -0.896  -2.492  0.00  0.00     0.027 H 
BRANCH   7  10
ATOM     10  C   LIG d   1       4.241  -0.674  -1.935  0.00  0.00    -0.056 C 
ATOM     11  H   LIG d   1       5.110  -1.218  -2.304  0.00  0.00     0.026 H 
ATOM     12  H   LIG d   1       3.889  -1.134  -1.012  0.00  0.00     0.026 H 
BRANCH  10  13
ATOM     13  C   LIG d   1       4.628   0.781  -1.664  0.00  0.00    -0.065 C 
ATOM     14  H   LIG d   1       5.609   0.813  -1.189  0.00  0.00     0.023 H 
ATOM     15  H   LIG d   1       4.663   1.330  -2.606  0.00  0.00     0.023 H 
ATOM     16  H   LIG d   1       3.890   1.237  -1.005  0.00  0.00     0.023 H 
ENDBRANCH  10  13
ENDBRANCH   7  10
ENDBRANCH   4   7
ENDBRANCH   1   4
BRANCH   1  17
ATOM     17  O   LIG d   1       3.480   0.396  -6.106  0.00  0.00    -0.461 OA
BRANCH  17  18
ATOM     18  C   LIG d   1       3.108   0.667  -7.372  0.00  0.00     0.339 C 
ATOM     19  O   LIG d   1       3.015   1.819  -7.744  0.00  0.00    -0.245 OA
BRANCH  18  20
ATOM     20  C   LIG d   1       2.811  -0.436  -8.309  0.00  0.00     0.061 A 
ATOM     21  C   LIG d   1       1.850  -0.271  -9.306  0.00  0.00    -0.027 A 
ATOM     22  C   LIG d   1       1.582  -1.310 -10.184  0.00  0.00     0.025 A 
ATOM     23  H   LIG d   1       1.318   0.665  -9.394  0.00  0.00     0.064 H 
ATOM     24  C   LIG d   1       2.264  -2.515 -10.063  0.00  0.00    -0.041 A 
ATOM     25  C   LIG d   1       3.213  -2.681  -9.072  0.00  0.00    -0.059 A 
ATOM     26  H   LIG d   1       2.051  -3.324 -10.745  0.00  0.00     0.064 H 
ATOM     27  C   LIG d   1       3.490  -1.652  -8.196  0.00  0.00    -0.048 A 
ATOM     28  H   LIG d   1       3.740  -3.620  -8.983  0.00  0.00     0.062 H 
ATOM     29  H   LIG d   1       4.233  -1.787  -7.424  0.00  0.00     0.063 H 
BRANCH  22  30
ATOM     30  N   LIG d   1       0.623  -1.147 -11.187  0.00  0.00    -0.358 N 
ATOM     31  H   LIG d   1       0.734  -1.592 -12.041  0.00  0.00     0.142 HD
ATOM     32  H   LIG d   1      -0.154  -0.588 -11.030  0.00  0.00     0.142 HD
ENDBRANCH  22  30
ENDBRANCH  18  20
ENDBRANCH  17  18
ENDBRANCH   1  17
TORSDOF 8
ENDMDL
MODEL 5
REMARK VINA RESULT:      -5.4      1.114      1.526
REMARK  8 active torsions:
REMARK  status: ('A' for Active; 'I' for Inactive)
REMARK    1  A    between atoms: C_1  and  C_2 
REMARK    2  A    between atoms: C_2  and  C_3 
REMARK    3  A    between atoms: C_3  and  C_4 
REMARK    4  A    between atoms: C_4  and  C_5 
REMARK    5  A    between atoms: C_5  and  O_6 
REMARK    6  A    between atoms: O_6  and  C_7 
REMARK    7  A    between atoms: C_7  and  C_9 
REMARK    8  A    between atoms: C_13  and  N_15 
ROOT
ATOM      1  C   LIG d   1       3.404   0.567  -7.357  0.00  0.00     0.093 C 
ATOM      2  H   LIG d   1       3.867  -0.367  -7.676  0.00  0.00     0.070 H 
ATOM      3  H   LIG d   1       4.176   1.260  -7.027  0.00  0.00     0.070 H 
ENDROOT
BRANCH   1   4
ATOM      4  C   LIG d   1       2.636   1.180  -8.530  0.00  0.00    -0.018 C 
ATOM      5  H   LIG d   1       3.073   2.145  -8.786  0.00  0.00     0.030 H 
ATOM      6  H   LIG d   1       1.591   1.317  -8.249  0.00  0.00     0.030 H 
BRANCH   4   7
ATOM      7  C   LIG d   1       2.720   0.246  -9.739  0.00  0.00    -0.050 C 
ATOM      8  H   LIG d   1       3.588  -0.405  -9.635  0.00  0.00     0.027 H 
ATOM      9  H   LIG d   1       2.815   0.837 -10.649  0.00  0.00     0.027 H 
BRANCH   7  10
ATOM     10  C   LIG d   1       1.450  -0.605  -9.814  0.00  0.00    -0.056 C 
ATOM     11  H   LIG d   1       0.831  -0.260 -10.641  0.00  0.00     0.026 H 
ATOM     12  H   LIG d   1       0.895  -0.514  -8.881  0.00  0.00     0.026 H 
BRANCH  10  13
ATOM     13  C   LIG d   1       1.831  -2.070 -10.040  0.00  0.00    -0.065 C 
ATOM     14  H   LIG d   1       0.942  -2.694  -9.949  0.00  0.00     0.023 H 
ATOM     15  H   LIG d   1       2.256  -2.186 -11.037  0.00  0.00     0.023 H 
ATOM     16  H   LIG d   1       2.565  -2.373  -9.294  0.00  0.00     0.023 H 
ENDBRANCH  10  13
ENDBRANCH   7  10
ENDBRANCH   4   7
ENDBRANCH   1   4
BRANCH   1  17
ATOM     17  O   LIG d   1       2.502   0.309  -6.280  0.00  0.00    -0.461 OA
BRANCH  17  18
ATOM     18  C   LIG d   1       2.637   1.068  -5.175  0.00  0.00     0.339 C 
ATOM     19  O   LIG d   1       2.265   2.224  -5.184  0.00  0.00    -0.245 OA
BRANCH  18  20
ATOM     20  C   LIG d   1       3.236   0.495  -3.953  0.00  0.00     0.061 A 
ATOM     21  C   LIG d   1       3.205  -0.882  -3.735  0.00  0.00    -0.027 A 
ATOM     22  C   LIG d   1       3.775  -1.412  -2.588  0.00  0.00     0.025 A 
ATOM     23  H   LIG d   1       2.741  -1.534  -4.461  0.00  0.00     0.064 H 
ATOM     24  C   LIG d   1       4.367  -0.570  -1.653  0.00  0.00    -0.041 A 
ATOM     25  C   LIG d   1       4.394   0.796  -1.866  0.00  0.00    -0.059 A 
ATOM     26  H   LIG d   1       4.807  -0.984  -0.759  0.00  0.00     0.064 H 
ATOM     27  C   LIG d   1       3.833   1.332  -3.007  0.00  0.00    -0.048 A 
ATOM     28  H   LIG d   1       4.855   1.445  -1.137  0.00  0.00     0.062 H 
ATOM     29  H   LIG d   1       3.857   2.400  -3.169  0.00  0.00     0.063 H 
BRANCH  22  30
ATOM     30  N   LIG d   1       3.751  -2.791  -2.369  0.00  0.00    -0.358 N 
ATOM     31  H   LIG d   1       4.582  -3.283  -2.278  0.00  0.00     0.142 HD
ATOM     32  H   LIG d   1       2.903  -3.259  -2.307  0.00  0.00     0.142 HD
ENDBRANCH  22  30
ENDBRANCH  18  20
ENDBRANCH  17  18
ENDBRANCH   1  17
TORSDOF 8
ENDMDL
MODEL 6
REMARK VINA RESULT:      -5.1      2.341      3.065
REMARK  8 active torsions:
REMARK  status: ('A' for Active; 'I' for Inactive)
REMARK    1  A    between atoms: C_1  and  C_2 
REMARK    2  A    between atoms: C_2  and  C_3 
REMARK    3  A    between atoms: C_3  and  C_4 
REMARK    4  A    between atoms: C_4  and  C_5 
REMARK    5  A    between atoms: C_5  and  O_6 
REMARK    6  A    between atoms: O_6  and  C_7 
REMARK    7  A    between atoms: C_7  and  C_9 
REMARK    8  A    between atoms: C_13  and  N_15 
ROOT
ATOM      1  C   LIG d   1       4.136  -1.140  -7.896  0.00  0.00     0.093 C 
ATOM      2  H   LIG d   1       4.074  -1.556  -8.901  0.00  0.00     0.070 H 
ATOM      3  H   LIG d   1       5.046  -0.548  -7.803  0.00  0.00     0.070 H 
ENDROOT
BRANCH   1   4
ATOM      4  C   LIG d   1       2.919  -0.248  -7.639  0.00  0.00    -0.018 C 
ATOM      5  H   LIG d   1       3.116   0.397  -6.782  0.00  0.00     0.030 H 
ATOM      6  H   LIG d   1       2.048  -0.870  -7.433  0.00  0.00     0.030 H 
BRANCH   4   7
ATOM      7  C   LIG d   1       2.650   0.615  -8.873  0.00  0.00    -0.050 C 
ATOM      8  H   LIG d   1       1.621   0.464  -9.204  0.00  0.00     0.027 H 
ATOM      9  H   LIG d   1       3.333   0.330  -9.673  0.00  0.00     0.027 H 
BRANCH   7  10
ATOM     10  C   LIG d   1       2.862   2.089  -8.522  0.00  0.00    -0.056 C 
ATOM     11  H   LIG d   1       3.061   2.182  -7.455  0.00  0.00     0.026 H 
ATOM     12  H   LIG d   1       1.966   2.656  -8.775  0.00  0.00     0.026 H 
BRANCH  10  13
ATOM     13  C   LIG d   1       4.052   2.636  -9.312  0.00  0.00    -0.065 C 
ATOM     14  H   LIG d   1       4.933   2.024  -9.112  0.00  0.00     0.023 H 
ATOM     15  H   LIG d   1       3.825   2.609 -10.378  0.00  0.00     0.023 H 
ATOM     16  H   LIG d   1       4.248   3.664  -9.008  0.00  0.00     0.023 H 
ENDBRANCH  10  13
ENDBRANCH   7  10
ENDBRANCH   4   7
ENDBRANCH   1   4
BRANCH   1  17
ATOM     17  O   LIG d   1       4.158  -2.201  -6.940  0.00  0.00    -0.461 OA
BRANCH  17  18
ATOM     18  C   LIG d   1       5.101  -2.140  -5.980  0.00  0.00     0.339 C 
ATOM     19  O   LIG d   1       6.227  -2.533  -6.209  0.00  0.00    -0.245 OA
BRANCH  18  20
ATOM     20  C   LIG d   1       4.767  -1.595  -4.648  0.00  0.00     0.061 A 
ATOM     21  C   LIG d   1       4.859  -0.223  -4.408  0.00  0.00    -0.027 A 
ATOM     22  C   LIG d   1       4.538   0.280  -3.157  0.00  0.00     0.025 A 
ATOM     23  H   LIG d   1       5.177   0.444  -5.196  0.00  0.00     0.064 H 
ATOM     24  C   LIG d   1       4.136  -0.582  -2.143  0.00  0.00    -0.041 A 
ATOM     25  C   LIG d   1       4.049  -1.941  -2.380  0.00  0.00    -0.059 A 
ATOM     26  H   LIG d   1       3.890  -0.188  -1.169  0.00  0.00     0.064 H 
ATOM     27  C   LIG d   1       4.362  -2.452  -3.622  0.00  0.00    -0.048 A 
ATOM     28  H   LIG d   1       3.735  -2.606  -1.588  0.00  0.00     0.062 H 
ATOM     29  H   LIG d   1       4.292  -3.515  -3.802  0.00  0.00     0.063 H 
BRANCH  22  30
ATOM     30  N   LIG d   1       4.624   1.653  -2.913  0.00  0.00    -0.358 N 
ATOM     31  H   LIG d   1       4.046   2.267  -3.391  0.00  0.00     0.142 HD
ATOM     32  H   LIG d   1       5.262   1.992  -2.266  0.00  0.00     0.142 HD
ENDBRANCH  22  30
ENDBRANCH  18  20
ENDBRANCH  17  18
ENDBRANCH   1  17
TORSDOF 8
ENDMDL
MODEL 7
REMARK VINA RESULT:      -5.1      5.591      7.370
REMARK  8 active torsions:
REMARK  status: ('A' for Active; 'I' for Inactive)
REMARK    1  A    between atoms: C_1  and  C_2 
REMARK    2  A    between atoms: C_2  and  C_3 
REMARK    3  A    between atoms: C_3  and  C_4 
REMARK    4  A    between atoms: C_4  and  C_5 
REMARK    5  A    between atoms: C_5  and  O_6 
REMARK    6  A    between atoms: O_6  and  C_7 
REMARK    7  A    between atoms: C_7  and  C_9 
REMARK    8  A    between atoms: C_13  and  N_15 
ROOT
ATOM      1  C   LIG d   1       6.418   0.771  -3.312  0.00  0.00     0.093 C 
ATOM      2  H   LIG d   1       7.141   0.602  -2.515  0.00  0.00     0.070 H 
ATOM      3  H   LIG d   1       6.221  -0.168  -3.829  0.00  0.00     0.070 H 
ENDROOT
BRANCH   1   4
ATOM      4  C   LIG d   1       5.115   1.306  -2.713  0.00  0.00    -0.018 C 
ATOM      5  H   LIG d   1       4.404   1.512  -3.514  0.00  0.00     0.030 H 
ATOM      6  H   LIG d   1       5.318   2.224  -2.162  0.00  0.00     0.030 H 
BRANCH   4   7
ATOM      7  C   LIG d   1       4.524   0.261  -1.764  0.00  0.00    -0.050 C 
ATOM      8  H   LIG d   1       4.033   0.764  -0.931  0.00  0.00     0.027 H 
ATOM      9  H   LIG d   1       5.321  -0.378  -1.384  0.00  0.00     0.027 H 
BRANCH   7  10
ATOM     10  C   LIG d   1       3.502  -0.593  -2.518  0.00  0.00    -0.056 C 
ATOM     11  H   LIG d   1       3.494  -0.305  -3.569  0.00  0.00     0.026 H 
ATOM     12  H   LIG d   1       2.512  -0.436  -2.091  0.00  0.00     0.026 H 
BRANCH  10  13
ATOM     13  C   LIG d   1       3.882  -2.070  -2.397  0.00  0.00    -0.065 C 
ATOM     14  H   LIG d   1       3.048  -2.625  -1.967  0.00  0.00     0.023 H 
ATOM     15  H   LIG d   1       4.114  -2.468  -3.385  0.00  0.00     0.023 H 
ATOM     16  H   LIG d   1       4.755  -2.168  -1.751  0.00  0.00     0.023 H 
ENDBRANCH  10  13
ENDBRANCH   7  10
ENDBRANCH   4   7
ENDBRANCH   1   4
BRANCH   1  17
ATOM     17  O   LIG d   1       6.942   1.724  -4.238  0.00  0.00    -0.461 OA
BRANCH  17  18
ATOM     18  C   LIG d   1       8.276   1.728  -4.422  0.00  0.00     0.339 C 
ATOM     19  O   LIG d   1       8.831   0.742  -4.862  0.00  0.00    -0.245 OA
BRANCH  18  20
ATOM     20  C   LIG d   1       9.065   2.932  -4.089  0.00  0.00     0.061 A 
ATOM     21  C   LIG d   1       9.812   2.976  -2.911  0.00  0.00    -0.027 A 
ATOM     22  C   LIG d   1      10.554   4.108  -2.609  0.00  0.00     0.025 A 
ATOM     23  H   LIG d   1       9.814   2.131  -2.239  0.00  0.00     0.064 H 
ATOM     24  C   LIG d   1      10.545   5.197  -3.473  0.00  0.00    -0.041 A 
ATOM     25  C   LIG d   1       9.800   5.155  -4.637  0.00  0.00    -0.059 A 
ATOM     26  H   LIG d   1      11.120   6.078  -3.234  0.00  0.00     0.064 H 
ATOM     27  C   LIG d   1       9.062   4.032  -4.950  0.00  0.00    -0.048 A 
ATOM     28  H   LIG d   1       9.797   6.004  -5.304  0.00  0.00     0.062 H 
ATOM     29  H   LIG d   1       8.483   4.004  -5.861  0.00  0.00     0.063 H 
BRANCH  22  30
ATOM     30  N   LIG d   1      11.308   4.155  -1.434  0.00  0.00    -0.358 N 
ATOM     31  H   LIG d   1      11.145   4.853  -0.781  0.00  0.00     0.142 HD
ATOM     32  H   LIG d   1      11.996   3.490  -1.271  0.00  0.00     0.142 HD
ENDBRANCH  22  30
ENDBRANCH  18  20
ENDBRANCH  17  18
ENDBRANCH   1  17
TORSDOF 8
ENDMDL
MODEL 8
REMARK VINA RESULT:      -4.9      2.972      5.174
REMARK  8 active torsions:
REMARK  status: ('A' for Active; 'I' for Inactive)
REMARK    1  A    between atoms: C_1  and  C_2 
REMARK    2  A    between atoms: C_2  and  C_3 
REMARK    3  A    between atoms: C_3  and  C_4 
REMARK    4  A    between atoms: C_4  and  C_5 
REMARK    5  A    between atoms: C_5  and  O_6 
REMARK    6  A    between atoms: O_6  and  C_7 
REMARK    7  A    between atoms: C_7  and  C_9 
REMARK    8  A    between atoms: C_13  and  N_15 
ROOT
ATOM      1  C   LIG d   1       5.368   0.492  -2.517  0.00  0.00     0.093 C 
ATOM      2  H   LIG d   1       4.858   1.176  -3.195  0.00  0.00     0.070 H 
ATOM      3  H   LIG d   1       5.822   1.058  -1.704  0.00  0.00     0.070 H 
ENDROOT
BRANCH   1   4
ATOM      4  C   LIG d   1       4.358  -0.505  -1.943  0.00  0.00    -0.018 C 
ATOM      5  H   LIG d   1       4.180  -0.276  -0.892  0.00  0.00     0.030 H 
ATOM      6  H   LIG d   1       4.754  -1.516  -2.033  0.00  0.00     0.030 H 
BRANCH   4   7
ATOM      7  C   LIG d   1       3.043  -0.400  -2.718  0.00  0.00    -0.050 C 
ATOM      8  H   LIG d   1       2.215  -0.295  -2.016  0.00  0.00     0.027 H 
ATOM      9  H   LIG d   1       2.900  -1.300  -3.316  0.00  0.00     0.027 H 
BRANCH   7  10
ATOM     10  C   LIG d   1       3.089   0.821  -3.639  0.00  0.00    -0.056 C 
ATOM     11  H   LIG d   1       4.126   1.094  -3.829  0.00  0.00     0.026 H 
ATOM     12  H   LIG d   1       2.576   1.656  -3.160  0.00  0.00     0.026 H 
BRANCH  10  13
ATOM     13  C   LIG d   1       2.398   0.489  -4.963  0.00  0.00    -0.065 C 
ATOM     14  H   LIG d   1       1.833  -0.437  -4.855  0.00  0.00     0.023 H 
ATOM     15  H   LIG d   1       1.721   1.299  -5.233  0.00  0.00     0.023 H 
ATOM     16  H   LIG d   1       3.149   0.367  -5.743  0.00  0.00     0.023 H 
ENDBRANCH  10  13
ENDBRANCH   7  10
ENDBRANCH   4   7
ENDBRANCH   1   4
BRANCH   1  17
ATOM     17  O   LIG d   1       6.383  -0.217  -3.230  0.00  0.00    -0.461 OA
BRANCH  17  18
ATOM     18  C   LIG d   1       6.511   0.054  -4.543  0.00  0.00     0.339 C 
ATOM     19  O   LIG d   1       7.209   0.978  -4.907  0.00  0.00    -0.245 OA
BRANCH  18  20
ATOM     20  C   LIG d   1       5.802  -0.773  -5.541  0.00  0.00     0.061 A 
ATOM     21  C   LIG d   1       5.299  -2.025  -5.185  0.00  0.00    -0.027 A 
ATOM     22  C   LIG d   1       4.630  -2.792  -6.127  0.00  0.00     0.025 A 
ATOM     23  H   LIG d   1       5.428  -2.393  -4.177  0.00  0.00     0.064 H 
ATOM     24  C   LIG d   1       4.471  -2.317  -7.423  0.00  0.00    -0.041 A 
ATOM     25  C   LIG d   1       4.974  -1.079  -7.778  0.00  0.00    -0.059 A 
ATOM     26  H   LIG d   1       3.953  -2.917  -8.156  0.00  0.00     0.064 H 
ATOM     27  C   LIG d   1       5.637  -0.306  -6.847  0.00  0.00    -0.048 A 
ATOM     28  H   LIG d   1       4.847  -0.716  -8.787  0.00  0.00     0.062 H 
ATOM     29  H   LIG d   1       6.028   0.661  -7.129  0.00  0.00     0.063 H 
BRANCH  22  30
ATOM     30  N   LIG d   1       4.120  -4.043  -5.773  0.00  0.00    -0.358 N 
ATOM     31  H   LIG d   1       4.629  -4.628  -5.192  0.00  0.00     0.142 HD
ATOM     32  H   LIG d   1       3.255  -4.327  -6.109  0.00  0.00     0.142 HD
ENDBRANCH  22  30
ENDBRANCH  18  20
ENDBRANCH  17  18
ENDBRANCH   1  17
TORSDOF 8
ENDMDL
MODEL 9
REMARK VINA RESULT:      -4.9      3.060      6.589
REMARK  8 active torsions:
REMARK  status: ('A' for Active; 'I' for Inactive)
REMARK    1  A    between atoms: C_1  and  C_2 
REMARK    2  A    between atoms: C_2  and  C_3 
REMARK    3  A    between atoms: C_3  and  C_4 
REMARK    4  A    between atoms: C_4  and  C_5 
REMARK    5  A    between atoms: C_5  and  O_6 
REMARK    6  A    between atoms: O_6  and  C_7 
REMARK    7  A    between atoms: C_7  and  C_9 
REMARK    8  A    between atoms: C_13  and  N_15 
ROOT
ATOM      1  C   LIG d   1       3.898  -1.248  -4.672  0.00  0.00     0.093 C 
ATOM      2  H   LIG d   1       3.064  -1.847  -5.035  0.00  0.00     0.070 H 
ATOM      3  H   LIG d   1       3.516  -0.370  -4.154  0.00  0.00     0.070 H 
ENDROOT
BRANCH   1   4
ATOM      4  C   LIG d   1       4.743  -2.083  -3.707  0.00  0.00    -0.018 C 
ATOM      5  H   LIG d   1       5.794  -2.006  -3.984  0.00  0.00     0.030 H 
ATOM      6  H   LIG d   1       4.429  -3.125  -3.757  0.00  0.00     0.030 H 
BRANCH   4   7
ATOM      7  C   LIG d   1       4.552  -1.561  -2.281  0.00  0.00    -0.050 C 
ATOM      8  H   LIG d   1       5.527  -1.375  -1.829  0.00  0.00     0.027 H 
ATOM      9  H   LIG d   1       4.013  -2.301  -1.691  0.00  0.00     0.027 H 
BRANCH   7  10
ATOM     10  C   LIG d   1       3.751  -0.257  -2.318  0.00  0.00    -0.056 C 
ATOM     11  H   LIG d   1       2.823  -0.386  -1.762  0.00  0.00     0.026 H 
ATOM     12  H   LIG d   1       3.521  -0.001  -3.353  0.00  0.00     0.026 H 
BRANCH  10  13
ATOM     13  C   LIG d   1       4.574   0.866  -1.685  0.00  0.00    -0.065 C 
ATOM     14  H   LIG d   1       4.436   0.852  -0.603  0.00  0.00     0.023 H 
ATOM     15  H   LIG d   1       5.628   0.721  -1.919  0.00  0.00     0.023 H 
ATOM     16  H   LIG d   1       4.242   1.826  -2.080  0.00  0.00     0.023 H 
ENDBRANCH  10  13
ENDBRANCH   7  10
ENDBRANCH   4   7
ENDBRANCH   1   4
BRANCH   1  17
ATOM     17  O   LIG d   1       4.706  -0.836  -5.776  0.00  0.00    -0.461 OA
BRANCH  17  18
ATOM     18  C   LIG d   1       4.267  -1.157  -7.008  0.00  0.00     0.339 C 
ATOM     19  O   LIG d   1       4.159  -2.323  -7.330  0.00  0.00    -0.245 OA
BRANCH  18  20
ATOM     20  C   LIG d   1       3.916  -0.091  -7.969  0.00  0.00     0.061 A 
ATOM     21  C   LIG d   1       4.310  -0.192  -9.304  0.00  0.00    -0.027 A 
ATOM     22  C   LIG d   1       3.973   0.811 -10.200  0.00  0.00     0.025 A 
ATOM     23  H   LIG d   1       4.875  -1.051  -9.638  0.00  0.00     0.064 H 
ATOM     24  C   LIG d   1       3.252   1.917  -9.766  0.00  0.00    -0.041 A 
ATOM     25  C   LIG d   1       2.865   2.020  -8.443  0.00  0.00    -0.059 A 
ATOM     26  H   LIG d   1       2.993   2.698 -10.465  0.00  0.00     0.064 H 
ATOM     27  C   LIG d   1       3.193   1.026  -7.544  0.00  0.00    -0.048 A 
ATOM     28  H   LIG d   1       2.305   2.882  -8.112  0.00  0.00     0.062 H 
ATOM     29  H   LIG d   1       2.888   1.111  -6.511  0.00  0.00     0.063 H 
BRANCH  22  30
ATOM     30  N   LIG d   1       4.361   0.711 -11.538  0.00  0.00    -0.358 N 
ATOM     31  H   LIG d   1       4.003   0.003 -12.096  0.00  0.00     0.142 HD
ATOM     32  H   LIG d   1       4.989   1.350 -11.911  0.00  0.00     0.142 HD
ENDBRANCH  22  30
ENDBRANCH  18  20
ENDBRANCH  17  18
ENDBRANCH   1  17
TORSDOF 8
ENDMDL
MODEL 10
REMARK VINA RESULT:      -4.9      2.701      3.092
REMARK  8 active torsions:
REMARK  status: ('A' for Active; 'I' for Inactive)
REMARK    1  A    between atoms: C_1  and  C_2 
REMARK    2  A    between atoms: C_2  and  C_3 
REMARK    3  A    between atoms: C_3  and  C_4 
REMARK    4  A    between atoms: C_4  and  C_5 
REMARK    5  A    between atoms: C_5  and  O_6 
REMARK    6  A    between atoms: O_6  and  C_7 
REMARK    7  A    between atoms: C_7  and  C_9 
REMARK    8  A    between atoms: C_13  and  N_15 
ROOT
ATOM      1  C   LIG d   1       6.527  -0.060  -7.308  0.00  0.00     0.093 C 
ATOM      2  H   LIG d   1       6.104  -1.021  -7.016  0.00  0.00     0.070 H 
ATOM      3  H   LIG d   1       7.456  -0.223  -7.853  0.00  0.00     0.070 H 
ENDROOT
BRANCH   1   4
ATOM      4  C   LIG d   1       5.533   0.682  -8.205  0.00  0.00    -0.018 C 
ATOM      5  H   LIG d   1       5.947   0.771  -9.209  0.00  0.00     0.030 H 
ATOM      6  H   LIG d   1       5.347   1.676  -7.798  0.00  0.00     0.030 H 
BRANCH   4   7
ATOM      7  C   LIG d   1       4.218  -0.099  -8.264  0.00  0.00    -0.050 C 
ATOM      8  H   LIG d   1       4.291  -0.981  -7.627  0.00  0.00     0.027 H 
ATOM      9  H   LIG d   1       4.024  -0.407  -9.291  0.00  0.00     0.027 H 
BRANCH   7  10
ATOM     10  C   LIG d   1       3.074   0.791  -7.774  0.00  0.00    -0.056 C 
ATOM     11  H   LIG d   1       3.240   1.053  -6.729  0.00  0.00     0.026 H 
ATOM     12  H   LIG d   1       2.130   0.254  -7.868  0.00  0.00     0.026 H 
BRANCH  10  13
ATOM     13  C   LIG d   1       3.022   2.067  -8.617  0.00  0.00    -0.065 C 
ATOM     14  H   LIG d   1       1.982   2.332  -8.809  0.00  0.00     0.023 H 
ATOM     15  H   LIG d   1       3.512   2.878  -8.079  0.00  0.00     0.023 H 
ATOM     16  H   LIG d   1       3.534   1.897  -9.564  0.00  0.00     0.023 H 
ENDBRANCH  10  13
ENDBRANCH   7  10
ENDBRANCH   4   7
ENDBRANCH   1   4
BRANCH   1  17
ATOM     17  O   LIG d   1       6.788   0.720  -6.141  0.00  0.00    -0.461 OA
BRANCH  17  18
ATOM     18  C   LIG d   1       6.760   0.078  -4.957  0.00  0.00     0.339 C 
ATOM     19  O   LIG d   1       7.700  -0.612  -4.618  0.00  0.00    -0.245 OA
BRANCH  18  20
ATOM     20  C   LIG d   1       5.585   0.212  -4.071  0.00  0.00     0.061 A 
ATOM     21  C   LIG d   1       4.341  -0.271  -4.478  0.00  0.00    -0.027 A 
ATOM     22  C   LIG d   1       3.245  -0.146  -3.638  0.00  0.00     0.025 A 
ATOM     23  H   LIG d   1       4.233  -0.742  -5.444  0.00  0.00     0.064 H 
ATOM     24  C   LIG d   1       3.386   0.467  -2.399  0.00  0.00    -0.041 A 
ATOM     25  C   LIG d   1       4.618   0.949  -1.997  0.00  0.00    -0.059 A 
ATOM     26  H   LIG d   1       2.530   0.567  -1.748  0.00  0.00     0.064 H 
ATOM     27  C   LIG d   1       5.715   0.826  -2.823  0.00  0.00    -0.048 A 
ATOM     28  H   LIG d   1       4.721   1.424  -1.032  0.00  0.00     0.062 H 
ATOM     29  H   LIG d   1       6.675   1.204  -2.505  0.00  0.00     0.063 H 
BRANCH  22  30
ATOM     30  N   LIG d   1       1.998  -0.632  -4.040  0.00  0.00    -0.358 N 
ATOM     31  H   LIG d   1       1.442  -1.119  -3.412  0.00  0.00     0.142 HD
ATOM     32  H   LIG d   1       1.688  -0.482  -4.947  0.00  0.00     0.142 HD
ENDBRANCH  22  30
ENDBRANCH  18  20
ENDBRANCH  17  18
ENDBRANCH   1  17
TORSDOF 8
ENDMDL
