MODEL 1
REMARK VINA RESULT:      -5.3      0.000      0.000
REMARK  11 active torsions:
REMARK  status: ('A' for Active; 'I' for Inactive)
REMARK    1  A    between atoms: C_1  and  C_2 
REMARK    2  A    between atoms: C_4  and  C_23 
REMARK    3  A    between atoms: C_6  and  C_20 
REMARK    4  A    between atoms: C_9  and  C_11 
REMARK    5  A    between atoms: C_11  and  C_12 
REMARK       I    between atoms: C_12  and  N_14 
REMARK    6  A    between atoms: N_14  and  C_15 
REMARK    7  A    between atoms: N_14  and  C_16 
REMARK    8  A    between atoms: C_16  and  C_17 
REMARK    9  A    between atoms: C_20  and  C_21 
REMARK   10  A    between atoms: C_20  and  C_22 
REMARK   11  A    between atoms: C_23  and  O_24 
ROOT
ATOM      1  C   LIG d   1       4.689  -0.762  -3.125  0.00  0.00     0.051 C 
ATOM      2  C   LIG d   1       5.475   0.482  -3.106  0.00  0.00     0.064 C 
ATOM      3  N   LIG d   1       6.083   1.442  -3.090  0.00  0.00    -0.197 NA
ATOM      4  H   LIG d   1       4.363  -1.005  -2.102  0.00  0.00     0.043 H 
ATOM      5  H   LIG d   1       5.309  -1.582  -3.517  0.00  0.00     0.043 H 
ENDROOT
BRANCH   1   6
ATOM      6  C   LIG d   1       3.463  -0.576  -4.020  0.00  0.00     0.027 C 
ATOM      7  H   LIG d   1       3.059   0.437  -3.884  0.00  0.00     0.047 H 
ATOM      8  H   LIG d   1       2.695  -1.316  -3.749  0.00  0.00     0.047 H 
BRANCH   6   9
ATOM      9  N   LIG d   1       3.848  -0.764  -5.422  0.00  0.00    -0.304 N 
ATOM     10  C   LIG d   1       3.438   0.114  -6.356  0.00  0.00     0.216 C 
ATOM     11  O   LIG d   1       2.749   1.060  -6.040  0.00  0.00    -0.276 OA
BRANCH  10  12
ATOM     12  C   LIG d   1       3.835  -0.079  -7.798  0.00  0.00     0.031 C 
ATOM     13  H   LIG d   1       3.807  -1.151  -8.046  0.00  0.00     0.036 H 
ATOM     14  H   LIG d   1       4.853   0.307  -7.952  0.00  0.00     0.036 H 
BRANCH  12  15
ATOM     15  C   LIG d   1       2.860   0.678  -8.702  0.00  0.00    -0.012 C 
ATOM     16  C   LIG d   1       3.632   1.561  -9.637  0.00  0.00    -0.073 C 
ATOM     17  C   LIG d   1       3.842   1.290 -10.884  0.00  0.00    -0.079 C 
ATOM     18  C   LIG d   1       3.333   0.057 -11.573  0.00  0.00     0.004 C 
ATOM     19  H   LIG d   1       4.424   1.983 -11.508  0.00  0.00     0.058 H 
ATOM     20  H   LIG d   1       2.457   0.341 -12.175  0.00  0.00     0.037 H 
ATOM     21  C   LIG d   1       2.927  -0.995 -10.540  0.00  0.00    -0.030 C 
ATOM     22  H   LIG d   1       3.822  -1.413 -10.055  0.00  0.00     0.031 H 
ATOM     23  C   LIG d   1       2.022  -0.326  -9.497  0.00  0.00    -0.042 C 
ATOM     24  H   LIG d   1       1.196   0.193 -10.006  0.00  0.00     0.027 H 
ATOM     25  H   LIG d   1       1.612  -1.092  -8.822  0.00  0.00     0.027 H 
ATOM     26  H   LIG d   1       2.197   1.316  -8.100  0.00  0.00     0.035 H 
BRANCH  16  27
ATOM     27  C   LIG d   1       4.198   2.846  -9.089  0.00  0.00    -0.043 C 
ATOM     28  H   LIG d   1       4.941   3.249  -9.793  0.00  0.00     0.027 H 
ATOM     29  H   LIG d   1       4.680   2.650  -8.120  0.00  0.00     0.027 H 
ATOM     30  H   LIG d   1       3.387   3.576  -8.954  0.00  0.00     0.027 H 
ENDBRANCH  16  27
BRANCH  18  31
ATOM     31  C   LIG d   1       4.434  -0.512 -12.471  0.00  0.00     0.051 C 
ATOM     32  H   LIG d   1       4.048  -1.390 -13.011  0.00  0.00     0.056 H 
ATOM     33  H   LIG d   1       4.750   0.254 -13.195  0.00  0.00     0.056 H 
BRANCH  31  34
ATOM     34  O   LIG d   1       5.551  -0.899 -11.669  0.00  0.00    -0.394 OA
ATOM     35  H   LIG d   1       5.443  -1.705 -10.928  0.00  0.00     0.209 HD
ENDBRANCH  31  34
ENDBRANCH  18  31
BRANCH  21  36
ATOM     36  C   LIG d   1       2.165  -2.128 -11.230  0.00  0.00    -0.043 C 
ATOM     37  H   LIG d   1       2.826  -2.624 -11.957  0.00  0.00     0.030 H 
BRANCH  36  38
ATOM     38  C   LIG d   1       0.947  -1.554 -11.957  0.00  0.00    -0.062 C 
ATOM     39  H   LIG d   1       0.579  -2.286 -12.691  0.00  0.00     0.023 H 
ATOM     40  H   LIG d   1       1.233  -0.627 -12.476  0.00  0.00     0.023 H 
ATOM     41  H   LIG d   1       0.153  -1.337 -11.227  0.00  0.00     0.023 H 
ENDBRANCH  36  38
BRANCH  36  42
ATOM     42  C   LIG d   1       1.704  -3.145 -10.184  0.00  0.00    -0.062 C 
ATOM     43  H   LIG d   1       1.637  -4.141 -10.646  0.00  0.00     0.023 H 
ATOM     44  H   LIG d   1       0.715  -2.851  -9.800  0.00  0.00     0.023 H 
ATOM     45  H   LIG d   1       2.426  -3.171  -9.356  0.00  0.00     0.023 H 
ENDBRANCH  36  42
ENDBRANCH  21  36
ENDBRANCH  12  15
ENDBRANCH  10  12
BRANCH   9  46
ATOM     46  C   LIG d   1       4.681  -1.908  -5.805  0.00  0.00     0.003 C 
ATOM     47  H   LIG d   1       5.445  -2.079  -5.033  0.00  0.00     0.043 H 
ATOM     48  H   LIG d   1       5.171  -1.697  -6.766  0.00  0.00     0.043 H 
ATOM     49  H   LIG d   1       4.051  -2.803  -5.902  0.00  0.00     0.043 H 
ENDBRANCH   9  46
ENDBRANCH   6   9
ENDBRANCH   1   6
TORSDOF 11
ENDMDL
MODEL 2
REMARK VINA RESULT:      -5.3      5.474      7.765
REMARK  11 active torsions:
REMARK  status: ('A' for Active; 'I' for Inactive)
REMARK    1  A    between atoms: C_1  and  C_2 
REMARK    2  A    between atoms: C_4  and  C_23 
REMARK    3  A    between atoms: C_6  and  C_20 
REMARK    4  A    between atoms: C_9  and  C_11 
REMARK    5  A    between atoms: C_11  and  C_12 
REMARK       I    between atoms: C_12  and  N_14 
REMARK    6  A    between atoms: N_14  and  C_15 
REMARK    7  A    between atoms: N_14  and  C_16 
REMARK    8  A    between atoms: C_16  and  C_17 
REMARK    9  A    between atoms: C_20  and  C_21 
REMARK   10  A    between atoms: C_20  and  C_22 
REMARK   11  A    between atoms: C_23  and  O_24 
ROOT
ATOM      1  C   LIG d   1       5.300  -7.879  -7.505  0.00  0.00     0.051 C 
ATOM      2  C   LIG d   1       4.779  -8.469  -6.260  0.00  0.00     0.064 C 
ATOM      3  N   LIG d   1       4.378  -8.924  -5.300  0.00  0.00    -0.197 NA
ATOM      4  H   LIG d   1       5.352  -8.655  -8.283  0.00  0.00     0.043 H 
ATOM      5  H   LIG d   1       6.306  -7.472  -7.325  0.00  0.00     0.043 H 
ENDROOT
BRANCH   1   6
ATOM      6  C   LIG d   1       4.369  -6.756  -7.965  0.00  0.00     0.027 C 
ATOM      7  H   LIG d   1       3.367  -6.914  -7.541  0.00  0.00     0.047 H 
ATOM      8  H   LIG d   1       4.308  -6.757  -9.063  0.00  0.00     0.047 H 
BRANCH   6   9
ATOM      9  N   LIG d   1       4.896  -5.467  -7.506  0.00  0.00    -0.304 N 
ATOM     10  C   LIG d   1       4.296  -4.818  -6.489  0.00  0.00     0.216 C 
ATOM     11  O   LIG d   1       3.320  -5.299  -5.954  0.00  0.00    -0.276 OA
BRANCH  10  12
ATOM     12  C   LIG d   1       4.837  -3.493  -6.018  0.00  0.00     0.031 C 
ATOM     13  H   LIG d   1       4.045  -2.731  -6.075  0.00  0.00     0.036 H 
ATOM     14  H   LIG d   1       5.681  -3.193  -6.658  0.00  0.00     0.036 H 
BRANCH  12  15
ATOM     15  C   LIG d   1       5.317  -3.622  -4.571  0.00  0.00    -0.012 C 
ATOM     16  C   LIG d   1       6.781  -3.299  -4.501  0.00  0.00    -0.073 C 
ATOM     17  C   LIG d   1       7.256  -2.179  -4.063  0.00  0.00    -0.079 C 
ATOM     18  C   LIG d   1       6.411  -1.049  -3.553  0.00  0.00     0.004 C 
ATOM     19  H   LIG d   1       8.343  -2.010  -4.048  0.00  0.00     0.058 H 
ATOM     20  H   LIG d   1       6.454  -1.061  -2.454  0.00  0.00     0.037 H 
ATOM     21  C   LIG d   1       4.962  -1.226  -4.011  0.00  0.00    -0.030 C 
ATOM     22  H   LIG d   1       4.883  -1.040  -5.092  0.00  0.00     0.031 H 
ATOM     23  C   LIG d   1       4.523  -2.660  -3.686  0.00  0.00    -0.042 C 
ATOM     24  H   LIG d   1       4.723  -2.873  -2.625  0.00  0.00     0.027 H 
ATOM     25  H   LIG d   1       3.446  -2.767  -3.884  0.00  0.00     0.027 H 
ATOM     26  H   LIG d   1       5.178  -4.653  -4.213  0.00  0.00     0.035 H 
BRANCH  16  27
ATOM     27  C   LIG d   1       7.758  -4.346  -4.971  0.00  0.00    -0.043 C 
ATOM     28  H   LIG d   1       7.457  -5.330  -4.582  0.00  0.00     0.027 H 
ATOM     29  H   LIG d   1       8.765  -4.099  -4.602  0.00  0.00     0.027 H 
ATOM     30  H   LIG d   1       7.767  -4.373  -6.071  0.00  0.00     0.027 H 
ENDBRANCH  16  27
BRANCH  18  31
ATOM     31  C   LIG d   1       6.955   0.275  -4.093  0.00  0.00     0.051 C 
ATOM     32  H   LIG d   1       6.875   0.284  -5.190  0.00  0.00     0.056 H 
ATOM     33  H   LIG d   1       6.370   1.109  -3.676  0.00  0.00     0.056 H 
BRANCH  31  34
ATOM     34  O   LIG d   1       8.325   0.418  -3.713  0.00  0.00    -0.394 OA
ATOM     35  H   LIG d   1       8.823  -0.379  -3.142  0.00  0.00     0.209 HD
ENDBRANCH  31  34
ENDBRANCH  18  31
BRANCH  21  36
ATOM     36  C   LIG d   1       4.063  -0.233  -3.272  0.00  0.00    -0.043 C 
ATOM     37  H   LIG d   1       4.244   0.781  -3.657  0.00  0.00     0.030 H 
BRANCH  36  38
ATOM     38  C   LIG d   1       4.380  -0.275  -1.775  0.00  0.00    -0.062 C 
ATOM     39  H   LIG d   1       5.079  -1.100  -1.572  0.00  0.00     0.023 H 
ATOM     40  H   LIG d   1       3.451  -0.435  -1.208  0.00  0.00     0.023 H 
ATOM     41  H   LIG d   1       4.837   0.677  -1.470  0.00  0.00     0.023 H 
ENDBRANCH  36  38
BRANCH  36  42
ATOM     42  C   LIG d   1       2.596  -0.608  -3.494  0.00  0.00    -0.062 C 
ATOM     43  H   LIG d   1       2.521  -1.686  -3.697  0.00  0.00     0.023 H 
ATOM     44  H   LIG d   1       2.200  -0.044  -4.352  0.00  0.00     0.023 H 
ATOM     45  H   LIG d   1       2.015  -0.362  -2.594  0.00  0.00     0.023 H 
ENDBRANCH  36  42
ENDBRANCH  21  36
ENDBRANCH  12  15
ENDBRANCH  10  12
BRANCH   9  46
ATOM     46  C   LIG d   1       6.074  -4.885  -8.154  0.00  0.00     0.003 C 
ATOM     47  H   LIG d   1       5.756  -4.111  -8.867  0.00  0.00     0.043 H 
ATOM     48  H   LIG d   1       6.624  -5.673  -8.689  0.00  0.00     0.043 H 
ATOM     49  H   LIG d   1       6.727  -4.436  -7.392  0.00  0.00     0.043 H 
ENDBRANCH   9  46
ENDBRANCH   6   9
ENDBRANCH   1   6
TORSDOF 11
ENDMDL
MODEL 3
REMARK VINA RESULT:      -5.0      4.810      7.759
REMARK  11 active torsions:
REMARK  status: ('A' for Active; 'I' for Inactive)
REMARK    1  A    between atoms: C_1  and  C_2 
REMARK    2  A    between atoms: C_4  and  C_23 
REMARK    3  A    between atoms: C_6  and  C_20 
REMARK    4  A    between atoms: C_9  and  C_11 
REMARK    5  A    between atoms: C_11  and  C_12 
REMARK       I    between atoms: C_12  and  N_14 
REMARK    6  A    between atoms: N_14  and  C_15 
REMARK    7  A    between atoms: N_14  and  C_16 
REMARK    8  A    between atoms: C_16  and  C_17 
REMARK    9  A    between atoms: C_20  and  C_21 
REMARK   10  A    between atoms: C_20  and  C_22 
REMARK   11  A    between atoms: C_23  and  O_24 
ROOT
ATOM      1  C   LIG d   1       3.737  -6.032  -9.811  0.00  0.00     0.051 C 
ATOM      2  C   LIG d   1       2.276  -6.209  -9.851  0.00  0.00     0.064 C 
ATOM      3  N   LIG d   1       1.149  -6.346  -9.883  0.00  0.00    -0.197 NA
ATOM      4  H   LIG d   1       3.991  -5.011 -10.133  0.00  0.00     0.043 H 
ATOM      5  H   LIG d   1       4.213  -6.759 -10.485  0.00  0.00     0.043 H 
ENDROOT
BRANCH   1   6
ATOM      6  C   LIG d   1       4.238  -6.256  -8.383  0.00  0.00     0.027 C 
ATOM      7  H   LIG d   1       5.091  -6.949  -8.398  0.00  0.00     0.047 H 
ATOM      8  H   LIG d   1       3.429  -6.685  -7.773  0.00  0.00     0.047 H 
BRANCH   6   9
ATOM      9  N   LIG d   1       4.658  -4.976  -7.806  0.00  0.00    -0.304 N 
ATOM     10  C   LIG d   1       4.209  -4.605  -6.592  0.00  0.00     0.216 C 
ATOM     11  O   LIG d   1       3.456  -5.329  -5.976  0.00  0.00    -0.276 OA
BRANCH  10  12
ATOM     12  C   LIG d   1       4.641  -3.288  -5.999  0.00  0.00     0.031 C 
ATOM     13  H   LIG d   1       3.786  -2.595  -5.981  0.00  0.00     0.036 H 
ATOM     14  H   LIG d   1       5.448  -2.858  -6.611  0.00  0.00     0.036 H 
BRANCH  12  15
ATOM     15  C   LIG d   1       5.146  -3.511  -4.572  0.00  0.00    -0.012 C 
ATOM     16  C   LIG d   1       6.621  -3.242  -4.518  0.00  0.00    -0.073 C 
ATOM     17  C   LIG d   1       7.144  -2.164  -4.032  0.00  0.00    -0.079 C 
ATOM     18  C   LIG d   1       6.349  -1.035  -3.444  0.00  0.00     0.004 C 
ATOM     19  H   LIG d   1       8.236  -2.033  -4.033  0.00  0.00     0.058 H 
ATOM     20  H   LIG d   1       6.415  -1.107  -2.348  0.00  0.00     0.037 H 
ATOM     21  C   LIG d   1       4.886  -1.138  -3.878  0.00  0.00    -0.030 C 
ATOM     22  H   LIG d   1       4.791  -0.892  -4.946  0.00  0.00     0.031 H 
ATOM     23  C   LIG d   1       4.404  -2.571  -3.620  0.00  0.00    -0.042 C 
ATOM     24  H   LIG d   1       4.617  -2.848  -2.576  0.00  0.00     0.027 H 
ATOM     25  H   LIG d   1       3.320  -2.631  -3.799  0.00  0.00     0.027 H 
ATOM     26  H   LIG d   1       4.978  -4.554  -4.266  0.00  0.00     0.035 H 
BRANCH  16  27
ATOM     27  C   LIG d   1       7.551  -4.295  -5.064  0.00  0.00    -0.043 C 
ATOM     28  H   LIG d   1       7.602  -4.206  -6.159  0.00  0.00     0.027 H 
ATOM     29  H   LIG d   1       7.174  -5.292  -4.794  0.00  0.00     0.027 H 
ATOM     30  H   LIG d   1       8.555  -4.154  -4.637  0.00  0.00     0.027 H 
ENDBRANCH  16  27
BRANCH  18  31
ATOM     31  C   LIG d   1       6.928   0.298  -3.926  0.00  0.00     0.051 C 
ATOM     32  H   LIG d   1       6.535   1.114  -3.302  0.00  0.00     0.056 H 
ATOM     33  H   LIG d   1       8.025   0.271  -3.847  0.00  0.00     0.056 H 
BRANCH  31  34
ATOM     34  O   LIG d   1       6.554   0.516  -5.287  0.00  0.00    -0.394 OA
ATOM     35  H   LIG d   1       5.516   0.778  -5.537  0.00  0.00     0.209 HD
ENDBRANCH  31  34
ENDBRANCH  18  31
BRANCH  21  36
ATOM     36  C   LIG d   1       4.037  -0.155  -3.068  0.00  0.00    -0.043 C 
ATOM     37  H   LIG d   1       4.191   0.864  -3.451  0.00  0.00     0.030 H 
BRANCH  36  38
ATOM     38  C   LIG d   1       4.455  -0.216  -1.596  0.00  0.00    -0.062 C 
ATOM     39  H   LIG d   1       4.360  -1.249  -1.231  0.00  0.00     0.023 H 
ATOM     40  H   LIG d   1       3.804   0.444  -1.004  0.00  0.00     0.023 H 
ATOM     41  H   LIG d   1       5.500   0.113  -1.498  0.00  0.00     0.023 H 
ENDBRANCH  36  38
BRANCH  36  42
ATOM     42  C   LIG d   1       2.560  -0.531  -3.195  0.00  0.00    -0.062 C 
ATOM     43  H   LIG d   1       2.105  -0.572  -2.195  0.00  0.00     0.023 H 
ATOM     44  H   LIG d   1       2.473  -1.515  -3.680  0.00  0.00     0.023 H 
ATOM     45  H   LIG d   1       2.041   0.224  -3.804  0.00  0.00     0.023 H 
ENDBRANCH  36  42
ENDBRANCH  21  36
ENDBRANCH  12  15
ENDBRANCH  10  12
BRANCH   9  46
ATOM     46  C   LIG d   1       5.567  -4.100  -8.551  0.00  0.00     0.003 C 
ATOM     47  H   LIG d   1       6.566  -4.136  -8.093  0.00  0.00     0.043 H 
ATOM     48  H   LIG d   1       5.186  -3.069  -8.523  0.00  0.00     0.043 H 
ATOM     49  H   LIG d   1       5.629  -4.440  -9.595  0.00  0.00     0.043 H 
ENDBRANCH   9  46
ENDBRANCH   6   9
ENDBRANCH   1   6
TORSDOF 11
ENDMDL
MODEL 4
REMARK VINA RESULT:      -5.0      1.782      3.478
REMARK  11 active torsions:
REMARK  status: ('A' for Active; 'I' for Inactive)
REMARK    1  A    between atoms: C_1  and  C_2 
REMARK    2  A    between atoms: C_4  and  C_23 
REMARK    3  A    between atoms: C_6  and  C_20 
REMARK    4  A    between atoms: C_9  and  C_11 
REMARK    5  A    between atoms: C_11  and  C_12 
REMARK       I    between atoms: C_12  and  N_14 
REMARK    6  A    between atoms: N_14  and  C_15 
REMARK    7  A    between atoms: N_14  and  C_16 
REMARK    8  A    between atoms: C_16  and  C_17 
REMARK    9  A    between atoms: C_20  and  C_21 
REMARK   10  A    between atoms: C_20  and  C_22 
REMARK   11  A    between atoms: C_23  and  O_24 
ROOT
ATOM      1  C   LIG d   1       4.624   0.098  -1.667  0.00  0.00     0.051 C 
ATOM      2  C   LIG d   1       5.408   1.038  -2.485  0.00  0.00     0.064 C 
ATOM      3  N   LIG d   1       6.013   1.763  -3.116  0.00  0.00    -0.197 NA
ATOM      4  H   LIG d   1       3.638   0.536  -1.450  0.00  0.00     0.043 H 
ATOM      5  H   LIG d   1       5.155  -0.098  -0.724  0.00  0.00     0.043 H 
ENDROOT
BRANCH   1   6
ATOM      6  C   LIG d   1       4.441  -1.214  -2.433  0.00  0.00     0.027 C 
ATOM      7  H   LIG d   1       3.869  -1.921  -1.816  0.00  0.00     0.047 H 
ATOM      8  H   LIG d   1       5.427  -1.643  -2.665  0.00  0.00     0.047 H 
BRANCH   6   9
ATOM      9  N   LIG d   1       3.715  -0.954  -3.680  0.00  0.00    -0.304 N 
ATOM     10  C   LIG d   1       4.325  -1.144  -4.866  0.00  0.00     0.216 C 
ATOM     11  O   LIG d   1       5.475  -1.529  -4.903  0.00  0.00    -0.276 OA
BRANCH  10  12
ATOM     12  C   LIG d   1       3.579  -0.877  -6.148  0.00  0.00     0.031 C 
ATOM     13  H   LIG d   1       3.328   0.192  -6.211  0.00  0.00     0.036 H 
ATOM     14  H   LIG d   1       2.654  -1.473  -6.164  0.00  0.00     0.036 H 
BRANCH  12  15
ATOM     15  C   LIG d   1       4.456  -1.265  -7.340  0.00  0.00    -0.012 C 
ATOM     16  C   LIG d   1       3.877  -2.475  -8.011  0.00  0.00    -0.073 C 
ATOM     17  C   LIG d   1       3.207  -2.440  -9.118  0.00  0.00    -0.079 C 
ATOM     18  C   LIG d   1       2.925  -1.184  -9.890  0.00  0.00     0.004 C 
ATOM     19  H   LIG d   1       2.805  -3.369  -9.548  0.00  0.00     0.058 H 
ATOM     20  H   LIG d   1       3.613  -1.151 -10.747  0.00  0.00     0.037 H 
ATOM     21  C   LIG d   1       3.151   0.042  -9.003  0.00  0.00    -0.030 C 
ATOM     22  H   LIG d   1       2.356   0.111  -8.245  0.00  0.00     0.031 H 
ATOM     23  C   LIG d   1       4.520  -0.096  -8.324  0.00  0.00    -0.042 C 
ATOM     24  H   LIG d   1       5.290  -0.288  -9.087  0.00  0.00     0.027 H 
ATOM     25  H   LIG d   1       4.759   0.835  -7.789  0.00  0.00     0.027 H 
ATOM     26  H   LIG d   1       5.472  -1.517  -7.001  0.00  0.00     0.035 H 
BRANCH  16  27
ATOM     27  C   LIG d   1       4.088  -3.816  -7.356  0.00  0.00    -0.043 C 
ATOM     28  H   LIG d   1       4.670  -4.465  -8.028  0.00  0.00     0.027 H 
ATOM     29  H   LIG d   1       3.112  -4.282  -7.151  0.00  0.00     0.027 H 
ATOM     30  H   LIG d   1       4.635  -3.681  -6.412  0.00  0.00     0.027 H 
ENDBRANCH  16  27
BRANCH  18  31
ATOM     31  C   LIG d   1       1.473  -1.201 -10.372  0.00  0.00     0.051 C 
ATOM     32  H   LIG d   1       0.986  -2.128 -10.035  0.00  0.00     0.056 H 
ATOM     33  H   LIG d   1       0.939  -0.334  -9.957  0.00  0.00     0.056 H 
BRANCH  31  34
ATOM     34  O   LIG d   1       1.445  -1.140 -11.800  0.00  0.00    -0.394 OA
ATOM     35  H   LIG d   1       1.307  -2.059 -12.387  0.00  0.00     0.209 HD
ENDBRANCH  31  34
ENDBRANCH  18  31
BRANCH  21  36
ATOM     36  C   LIG d   1       3.127   1.309  -9.860  0.00  0.00    -0.043 C 
ATOM     37  H   LIG d   1       2.107   1.478 -10.236  0.00  0.00     0.030 H 
BRANCH  36  38
ATOM     38  C   LIG d   1       4.085   1.142 -11.042  0.00  0.00    -0.062 C 
ATOM     39  H   LIG d   1       3.692   0.376 -11.727  0.00  0.00     0.023 H 
ATOM     40  H   LIG d   1       5.073   0.831 -10.672  0.00  0.00     0.023 H 
ATOM     41  H   LIG d   1       4.178   2.099 -11.576  0.00  0.00     0.023 H 
ENDBRANCH  36  38
BRANCH  36  42
ATOM     42  C   LIG d   1       3.563   2.507  -9.014  0.00  0.00    -0.062 C 
ATOM     43  H   LIG d   1       2.772   2.753  -8.292  0.00  0.00     0.023 H 
ATOM     44  H   LIG d   1       3.744   3.372  -9.670  0.00  0.00     0.023 H 
ATOM     45  H   LIG d   1       4.488   2.256  -8.474  0.00  0.00     0.023 H 
ENDBRANCH  36  42
ENDBRANCH  21  36
ENDBRANCH  12  15
ENDBRANCH  10  12
BRANCH   9  46
ATOM     46  C   LIG d   1       2.327  -0.489  -3.635  0.00  0.00     0.003 C 
ATOM     47  H   LIG d   1       2.179   0.296  -4.391  0.00  0.00     0.043 H 
ATOM     48  H   LIG d   1       2.108  -0.083  -2.637  0.00  0.00     0.043 H 
ATOM     49  H   LIG d   1       1.652  -1.331  -3.845  0.00  0.00     0.043 H 
ENDBRANCH   9  46
ENDBRANCH   6   9
ENDBRANCH   1   6
TORSDOF 11
ENDMDL
MODEL 5
REMARK VINA RESULT:      -4.9      1.952      2.826
REMARK  11 active torsions:
REMARK  status: ('A' for Active; 'I' for Inactive)
REMARK    1  A    between atoms: C_1  and  C_2 
REMARK    2  A    between atoms: C_4  and  C_23 
REMARK    3  A    between atoms: C_6  and  C_20 
REMARK    4  A    between atoms: C_9  and  C_11 
REMARK    5  A    between atoms: C_11  and  C_12 
REMARK       I    between atoms: C_12  and  N_14 
REMARK    6  A    between atoms: N_14  and  C_15 
REMARK    7  A    between atoms: N_14  and  C_16 
REMARK    8  A    between atoms: C_16  and  C_17 
REMARK    9  A    between atoms: C_20  and  C_21 
REMARK   10  A    between atoms: C_20  and  C_22 
REMARK   11  A    between atoms: C_23  and  O_24 
ROOT
ATOM      1  C   LIG d   1       4.532  -1.425  -2.432  0.00  0.00     0.051 C 
ATOM      2  C   LIG d   1       4.609  -0.039  -1.941  0.00  0.00     0.064 C 
ATOM      3  N   LIG d   1       4.668   1.030  -1.562  0.00  0.00    -0.197 NA
ATOM      4  H   LIG d   1       3.655  -1.533  -3.088  0.00  0.00     0.043 H 
ATOM      5  H   LIG d   1       4.438  -2.112  -1.578  0.00  0.00     0.043 H 
ENDROOT
BRANCH   1   6
ATOM      6  C   LIG d   1       5.801  -1.758  -3.219  0.00  0.00     0.027 C 
ATOM      7  H   LIG d   1       5.917  -2.849  -3.282  0.00  0.00     0.047 H 
ATOM      8  H   LIG d   1       6.673  -1.325  -2.708  0.00  0.00     0.047 H 
BRANCH   6   9
ATOM      9  N   LIG d   1       5.698  -1.199  -4.570  0.00  0.00    -0.304 N 
ATOM     10  C   LIG d   1       4.978  -1.839  -5.511  0.00  0.00     0.216 C 
ATOM     11  O   LIG d   1       4.415  -2.879  -5.242  0.00  0.00    -0.276 OA
BRANCH  10  12
ATOM     12  C   LIG d   1       4.873  -1.264  -6.900  0.00  0.00     0.031 C 
ATOM     13  H   LIG d   1       5.369  -1.938  -7.615  0.00  0.00     0.036 H 
ATOM     14  H   LIG d   1       5.361  -0.278  -6.927  0.00  0.00     0.036 H 
BRANCH  12  15
ATOM     15  C   LIG d   1       3.399  -1.114  -7.281  0.00  0.00    -0.012 C 
ATOM     16  C   LIG d   1       2.953   0.291  -7.000  0.00  0.00    -0.073 C 
ATOM     17  C   LIG d   1       2.793   1.197  -7.910  0.00  0.00    -0.079 C 
ATOM     18  C   LIG d   1       3.022   0.966  -9.375  0.00  0.00     0.004 C 
ATOM     19  H   LIG d   1       2.470   2.210  -7.627  0.00  0.00     0.058 H 
ATOM     20  H   LIG d   1       2.041   0.849  -9.858  0.00  0.00     0.037 H 
ATOM     21  C   LIG d   1       3.853  -0.301  -9.586  0.00  0.00    -0.030 C 
ATOM     22  H   LIG d   1       4.891  -0.129  -9.263  0.00  0.00     0.031 H 
ATOM     23  C   LIG d   1       3.224  -1.435  -8.766  0.00  0.00    -0.042 C 
ATOM     24  H   LIG d   1       2.154  -1.514  -9.011  0.00  0.00     0.027 H 
ATOM     25  H   LIG d   1       3.726  -2.384  -9.009  0.00  0.00     0.027 H 
ATOM     26  H   LIG d   1       2.778  -1.795  -6.681  0.00  0.00     0.035 H 
BRANCH  16  27
ATOM     27  C   LIG d   1       2.673   0.670  -5.569  0.00  0.00    -0.043 C 
ATOM     28  H   LIG d   1       1.802   1.341  -5.530  0.00  0.00     0.027 H 
ATOM     29  H   LIG d   1       3.550   1.184  -5.147  0.00  0.00     0.027 H 
ATOM     30  H   LIG d   1       2.463  -0.237  -4.983  0.00  0.00     0.027 H 
ENDBRANCH  16  27
BRANCH  18  31
ATOM     31  C   LIG d   1       3.766   2.165  -9.967  0.00  0.00     0.051 C 
ATOM     32  H   LIG d   1       4.542   1.809 -10.660  0.00  0.00     0.056 H 
ATOM     33  H   LIG d   1       3.056   2.807 -10.509  0.00  0.00     0.056 H 
BRANCH  31  34
ATOM     34  O   LIG d   1       4.377   2.915  -8.914  0.00  0.00    -0.394 OA
ATOM     35  H   LIG d   1       3.751   3.410  -8.157  0.00  0.00     0.209 HD
ENDBRANCH  31  34
ENDBRANCH  18  31
BRANCH  21  36
ATOM     36  C   LIG d   1       3.853  -0.676 -11.069  0.00  0.00    -0.043 C 
ATOM     37  H   LIG d   1       4.337   0.123 -11.650  0.00  0.00     0.030 H 
BRANCH  36  38
ATOM     38  C   LIG d   1       2.410  -0.852 -11.549  0.00  0.00    -0.062 C 
ATOM     39  H   LIG d   1       2.302  -1.836 -12.031  0.00  0.00     0.023 H 
ATOM     40  H   LIG d   1       2.165  -0.061 -12.274  0.00  0.00     0.023 H 
ATOM     41  H   LIG d   1       1.727  -0.787 -10.690  0.00  0.00     0.023 H 
ENDBRANCH  36  38
BRANCH  36  42
ATOM     42  C   LIG d   1       4.619  -1.985 -11.265  0.00  0.00    -0.062 C 
ATOM     43  H   LIG d   1       4.666  -2.529 -10.311  0.00  0.00     0.023 H 
ATOM     44  H   LIG d   1       5.640  -1.764 -11.612  0.00  0.00     0.023 H 
ATOM     45  H   LIG d   1       4.104  -2.603 -12.015  0.00  0.00     0.023 H 
ENDBRANCH  36  42
ENDBRANCH  21  36
ENDBRANCH  12  15
ENDBRANCH  10  12
BRANCH   9  46
ATOM     46  C   LIG d   1       6.379   0.057  -4.896  0.00  0.00     0.003 C 
ATOM     47  H   LIG d   1       5.834   0.898  -4.441  0.00  0.00     0.043 H 
ATOM     48  H   LIG d   1       6.407   0.186  -5.988  0.00  0.00     0.043 H 
ATOM     49  H   LIG d   1       7.405   0.030  -4.504  0.00  0.00     0.043 H 
ENDBRANCH   9  46
ENDBRANCH   6   9
ENDBRANCH   1   6
TORSDOF 11
ENDMDL
MODEL 6
REMARK VINA RESULT:      -4.9      5.279      6.846
REMARK  11 active torsions:
REMARK  status: ('A' for Active; 'I' for Inactive)
REMARK    1  A    between atoms: C_1  and  C_2 
REMARK    2  A    between atoms: C_4  and  C_23 
REMARK    3  A    between atoms: C_6  and  C_20 
REMARK    4  A    between atoms: C_9  and  C_11 
REMARK    5  A    between atoms: C_11  and  C_12 
REMARK       I    between atoms: C_12  and  N_14 
REMARK    6  A    between atoms: N_14  and  C_15 
REMARK    7  A    between atoms: N_14  and  C_16 
REMARK    8  A    between atoms: C_16  and  C_17 
REMARK    9  A    between atoms: C_20  and  C_21 
REMARK   10  A    between atoms: C_20  and  C_22 
REMARK   11  A    between atoms: C_23  and  O_24 
ROOT
ATOM      1  C   LIG d   1       9.895   2.157  -3.771  0.00  0.00     0.051 C 
ATOM      2  C   LIG d   1      10.592   3.147  -2.934  0.00  0.00     0.064 C 
ATOM      3  N   LIG d   1      11.130   3.910  -2.288  0.00  0.00    -0.197 NA
ATOM      4  H   LIG d   1      10.056   1.150  -3.358  0.00  0.00     0.043 H 
ATOM      5  H   LIG d   1      10.291   2.201  -4.797  0.00  0.00     0.043 H 
ENDROOT
BRANCH   1   6
ATOM      6  C   LIG d   1       8.397   2.467  -3.788  0.00  0.00     0.027 C 
ATOM      7  H   LIG d   1       8.217   3.371  -4.388  0.00  0.00     0.047 H 
ATOM      8  H   LIG d   1       8.046   2.635  -2.759  0.00  0.00     0.047 H 
BRANCH   6   9
ATOM      9  N   LIG d   1       7.671   1.338  -4.375  0.00  0.00    -0.304 N 
ATOM     10  C   LIG d   1       6.565   0.861  -3.770  0.00  0.00     0.216 C 
ATOM     11  O   LIG d   1       6.171   1.366  -2.741  0.00  0.00    -0.276 OA
BRANCH  10  12
ATOM     12  C   LIG d   1       5.818  -0.301  -4.374  0.00  0.00     0.031 C 
ATOM     13  H   LIG d   1       6.268  -0.563  -5.343  0.00  0.00     0.036 H 
ATOM     14  H   LIG d   1       4.764  -0.022  -4.521  0.00  0.00     0.036 H 
BRANCH  12  15
ATOM     15  C   LIG d   1       5.900  -1.504  -3.432  0.00  0.00    -0.012 C 
ATOM     16  C   LIG d   1       4.577  -2.212  -3.415  0.00  0.00    -0.073 C 
ATOM     17  C   LIG d   1       4.338  -3.317  -4.044  0.00  0.00    -0.079 C 
ATOM     18  C   LIG d   1       5.353  -4.050  -4.872  0.00  0.00     0.004 C 
ATOM     19  H   LIG d   1       3.339  -3.776  -3.991  0.00  0.00     0.058 H 
ATOM     20  H   LIG d   1       5.716  -4.906  -4.284  0.00  0.00     0.037 H 
ATOM     21  C   LIG d   1       6.524  -3.126  -5.209  0.00  0.00    -0.030 C 
ATOM     22  H   LIG d   1       6.207  -2.367  -5.940  0.00  0.00     0.031 H 
ATOM     23  C   LIG d   1       6.999  -2.452  -3.916  0.00  0.00    -0.042 C 
ATOM     24  H   LIG d   1       7.195  -3.220  -3.153  0.00  0.00     0.027 H 
ATOM     25  H   LIG d   1       7.923  -1.888  -4.114  0.00  0.00     0.027 H 
ATOM     26  H   LIG d   1       6.123  -1.174  -2.407  0.00  0.00     0.035 H 
BRANCH  16  27
ATOM     27  C   LIG d   1       3.458  -1.599  -2.614  0.00  0.00    -0.043 C 
ATOM     28  H   LIG d   1       3.542  -1.915  -1.564  0.00  0.00     0.027 H 
ATOM     29  H   LIG d   1       2.491  -1.932  -3.020  0.00  0.00     0.027 H 
ATOM     30  H   LIG d   1       3.522  -0.503  -2.673  0.00  0.00     0.027 H 
ENDBRANCH  16  27
BRANCH  18  31
ATOM     31  C   LIG d   1       4.697  -4.533  -6.168  0.00  0.00     0.051 C 
ATOM     32  H   LIG d   1       4.391  -3.664  -6.769  0.00  0.00     0.056 H 
ATOM     33  H   LIG d   1       5.416  -5.139  -6.738  0.00  0.00     0.056 H 
BRANCH  31  34
ATOM     34  O   LIG d   1       3.549  -5.324  -5.855  0.00  0.00    -0.394 OA
ATOM     35  H   LIG d   1       3.307  -6.206  -6.465  0.00  0.00     0.209 HD
ENDBRANCH  31  34
ENDBRANCH  18  31
BRANCH  21  36
ATOM     36  C   LIG d   1       7.668  -3.944  -5.813  0.00  0.00    -0.043 C 
ATOM     37  H   LIG d   1       7.261  -4.663  -6.539  0.00  0.00     0.030 H 
BRANCH  36  38
ATOM     38  C   LIG d   1       8.396  -4.700  -4.699  0.00  0.00    -0.062 C 
ATOM     39  H   LIG d   1       8.155  -5.772  -4.766  0.00  0.00     0.023 H 
ATOM     40  H   LIG d   1       8.075  -4.312  -3.722  0.00  0.00     0.023 H 
ATOM     41  H   LIG d   1       9.482  -4.561  -4.811  0.00  0.00     0.023 H 
ENDBRANCH  36  38
BRANCH  36  42
ATOM     42  C   LIG d   1       8.649  -3.006  -6.520  0.00  0.00    -0.062 C 
ATOM     43  H   LIG d   1       8.243  -1.985  -6.521  0.00  0.00     0.023 H 
ATOM     44  H   LIG d   1       8.796  -3.344  -7.557  0.00  0.00     0.023 H 
ATOM     45  H   LIG d   1       9.612  -3.018  -5.990  0.00  0.00     0.023 H 
ENDBRANCH  36  42
ENDBRANCH  21  36
ENDBRANCH  12  15
ENDBRANCH  10  12
BRANCH   9  46
ATOM     46  C   LIG d   1       8.147   0.728  -5.619  0.00  0.00     0.003 C 
ATOM     47  H   LIG d   1       7.429  -0.037  -5.950  0.00  0.00     0.043 H 
ATOM     48  H   LIG d   1       9.128   0.260  -5.445  0.00  0.00     0.043 H 
ATOM     49  H   LIG d   1       8.242   1.502  -6.393  0.00  0.00     0.043 H 
ENDBRANCH   9  46
ENDBRANCH   6   9
ENDBRANCH   1   6
TORSDOF 11
ENDMDL
MODEL 7
REMARK VINA RESULT:      -4.8      2.869      7.235
REMARK  11 active torsions:
REMARK  status: ('A' for Active; 'I' for Inactive)
REMARK    1  A    between atoms: C_1  and  C_2 
REMARK    2  A    between atoms: C_4  and  C_23 
REMARK    3  A    between atoms: C_6  and  C_20 
REMARK    4  A    between atoms: C_9  and  C_11 
REMARK    5  A    between atoms: C_11  and  C_12 
REMARK       I    between atoms: C_12  and  N_14 
REMARK    6  A    between atoms: N_14  and  C_15 
REMARK    7  A    between atoms: N_14  and  C_16 
REMARK    8  A    between atoms: C_16  and  C_17 
REMARK    9  A    between atoms: C_20  and  C_21 
REMARK   10  A    between atoms: C_20  and  C_22 
REMARK   11  A    between atoms: C_23  and  O_24 
ROOT
ATOM      1  C   LIG d   1       2.730  -0.399 -11.084  0.00  0.00     0.051 C 
ATOM      2  C   LIG d   1       2.088  -1.272 -12.080  0.00  0.00     0.064 C 
ATOM      3  N   LIG d   1       1.594  -1.945 -12.850  0.00  0.00    -0.197 NA
ATOM      4  H   LIG d   1       2.771   0.630 -11.470  0.00  0.00     0.043 H 
ATOM      5  H   LIG d   1       3.751  -0.757 -10.886  0.00  0.00     0.043 H 
ENDROOT
BRANCH   1   6
ATOM      6  C   LIG d   1       1.920  -0.425  -9.786  0.00  0.00     0.027 C 
ATOM      7  H   LIG d   1       1.644  -1.462  -9.547  0.00  0.00     0.047 H 
ATOM      8  H   LIG d   1       1.008   0.177  -9.911  0.00  0.00     0.047 H 
BRANCH   6   9
ATOM      9  N   LIG d   1       2.726   0.130  -8.696  0.00  0.00    -0.304 N 
ATOM     10  C   LIG d   1       3.400  -0.694  -7.870  0.00  0.00     0.216 C 
ATOM     11  O   LIG d   1       3.339  -1.894  -8.027  0.00  0.00    -0.276 OA
BRANCH  10  12
ATOM     12  C   LIG d   1       4.229  -0.123  -6.748  0.00  0.00     0.031 C 
ATOM     13  H   LIG d   1       3.574   0.408  -6.041  0.00  0.00     0.036 H 
ATOM     14  H   LIG d   1       4.969   0.579  -7.160  0.00  0.00     0.036 H 
BRANCH  12  15
ATOM     15  C   LIG d   1       4.953  -1.257  -6.019  0.00  0.00    -0.012 C 
ATOM     16  C   LIG d   1       6.433  -1.105  -6.209  0.00  0.00    -0.073 C 
ATOM     17  C   LIG d   1       7.237  -0.645  -5.305  0.00  0.00    -0.079 C 
ATOM     18  C   LIG d   1       6.801  -0.208  -3.937  0.00  0.00     0.004 C 
ATOM     19  H   LIG d   1       8.312  -0.555  -5.518  0.00  0.00     0.058 H 
ATOM     20  H   LIG d   1       7.066  -1.004  -3.225  0.00  0.00     0.037 H 
ATOM     21  C   LIG d   1       5.289   0.020  -3.913  0.00  0.00    -0.030 C 
ATOM     22  H   LIG d   1       5.034   0.925  -4.484  0.00  0.00     0.031 H 
ATOM     23  C   LIG d   1       4.604  -1.206  -4.531  0.00  0.00    -0.042 C 
ATOM     24  H   LIG d   1       4.962  -2.118  -4.029  0.00  0.00     0.027 H 
ATOM     25  H   LIG d   1       3.515  -1.122  -4.401  0.00  0.00     0.027 H 
ATOM     26  H   LIG d   1       4.654  -2.230  -6.435  0.00  0.00     0.035 H 
BRANCH  16  27
ATOM     27  C   LIG d   1       7.022  -1.516  -7.534  0.00  0.00    -0.043 C 
ATOM     28  H   LIG d   1       6.484  -2.395  -7.918  0.00  0.00     0.027 H 
ATOM     29  H   LIG d   1       8.085  -1.765  -7.401  0.00  0.00     0.027 H 
ATOM     30  H   LIG d   1       6.926  -0.686  -8.250  0.00  0.00     0.027 H 
ENDBRANCH  16  27
BRANCH  18  31
ATOM     31  C   LIG d   1       7.516   1.095  -3.570  0.00  0.00     0.051 C 
ATOM     32  H   LIG d   1       7.046   1.933  -4.104  0.00  0.00     0.056 H 
ATOM     33  H   LIG d   1       7.439   1.261  -2.485  0.00  0.00     0.056 H 
BRANCH  31  34
ATOM     34  O   LIG d   1       8.893   1.004  -3.941  0.00  0.00    -0.394 OA
ATOM     35  H   LIG d   1       9.512   1.911  -3.981  0.00  0.00     0.209 HD
ENDBRANCH  31  34
ENDBRANCH  18  31
BRANCH  21  36
ATOM     36  C   LIG d   1       4.818   0.199  -2.468  0.00  0.00    -0.043 C 
ATOM     37  H   LIG d   1       5.657   0.550  -1.850  0.00  0.00     0.030 H 
BRANCH  36  38
ATOM     38  C   LIG d   1       4.311  -1.141  -1.928  0.00  0.00    -0.062 C 
ATOM     39  H   LIG d   1       3.983  -1.015  -0.885  0.00  0.00     0.023 H 
ATOM     40  H   LIG d   1       5.122  -1.883  -1.970  0.00  0.00     0.023 H 
ATOM     41  H   LIG d   1       3.464  -1.486  -2.539  0.00  0.00     0.023 H 
ENDBRANCH  36  38
BRANCH  36  42
ATOM     42  C   LIG d   1       3.686   1.228  -2.424  0.00  0.00    -0.062 C 
ATOM     43  H   LIG d   1       2.948   0.994  -3.204  0.00  0.00     0.023 H 
ATOM     44  H   LIG d   1       4.099   2.234  -2.597  0.00  0.00     0.023 H 
ATOM     45  H   LIG d   1       3.201   1.196  -1.437  0.00  0.00     0.023 H 
ENDBRANCH  36  42
ENDBRANCH  21  36
ENDBRANCH  12  15
ENDBRANCH  10  12
BRANCH   9  46
ATOM     46  C   LIG d   1       2.800   1.581  -8.504  0.00  0.00     0.003 C 
ATOM     47  H   LIG d   1       3.610   1.991  -9.125  0.00  0.00     0.043 H 
ATOM     48  H   LIG d   1       3.001   1.801  -7.446  0.00  0.00     0.043 H 
ATOM     49  H   LIG d   1       1.844   2.038  -8.799  0.00  0.00     0.043 H 
ENDBRANCH   9  46
ENDBRANCH   6   9
ENDBRANCH   1   6
TORSDOF 11
ENDMDL
MODEL 8
REMARK VINA RESULT:      -4.7      2.949      6.746
REMARK  11 active torsions:
REMARK  status: ('A' for Active; 'I' for Inactive)
REMARK    1  A    between atoms: C_1  and  C_2 
REMARK    2  A    between atoms: C_4  and  C_23 
REMARK    3  A    between atoms: C_6  and  C_20 
REMARK    4  A    between atoms: C_9  and  C_11 
REMARK    5  A    between atoms: C_11  and  C_12 
REMARK       I    between atoms: C_12  and  N_14 
REMARK    6  A    between atoms: N_14  and  C_15 
REMARK    7  A    between atoms: N_14  and  C_16 
REMARK    8  A    between atoms: C_16  and  C_17 
REMARK    9  A    between atoms: C_20  and  C_21 
REMARK   10  A    between atoms: C_20  and  C_22 
REMARK   11  A    between atoms: C_23  and  O_24 
ROOT
ATOM      1  C   LIG d   1       3.943   1.707  -8.905  0.00  0.00     0.051 C 
ATOM      2  C   LIG d   1       4.012   1.271 -10.309  0.00  0.00     0.064 C 
ATOM      3  N   LIG d   1       4.066   0.935 -11.392  0.00  0.00    -0.197 NA
ATOM      4  H   LIG d   1       3.747   2.789  -8.866  0.00  0.00     0.043 H 
ATOM      5  H   LIG d   1       4.898   1.488  -8.405  0.00  0.00     0.043 H 
ENDROOT
BRANCH   1   6
ATOM      6  C   LIG d   1       2.813   0.958  -8.194  0.00  0.00     0.027 C 
ATOM      7  H   LIG d   1       2.163   0.481  -8.941  0.00  0.00     0.047 H 
ATOM      8  H   LIG d   1       2.224   1.667  -7.594  0.00  0.00     0.047 H 
BRANCH   6   9
ATOM      9  N   LIG d   1       3.384  -0.068  -7.316  0.00  0.00    -0.304 N 
ATOM     10  C   LIG d   1       3.346   0.094  -5.979  0.00  0.00     0.216 C 
ATOM     11  O   LIG d   1       2.841   1.087  -5.502  0.00  0.00    -0.276 OA
BRANCH  10  12
ATOM     12  C   LIG d   1       3.932  -0.961  -5.077  0.00  0.00     0.031 C 
ATOM     13  H   LIG d   1       4.405  -1.746  -5.687  0.00  0.00     0.036 H 
ATOM     14  H   LIG d   1       3.133  -1.405  -4.464  0.00  0.00     0.036 H 
BRANCH  12  15
ATOM     15  C   LIG d   1       4.982  -0.326  -4.163  0.00  0.00    -0.012 C 
ATOM     16  C   LIG d   1       5.331  -1.285  -3.063  0.00  0.00    -0.073 C 
ATOM     17  C   LIG d   1       6.416  -1.989  -3.033  0.00  0.00    -0.079 C 
ATOM     18  C   LIG d   1       7.481  -1.938  -4.088  0.00  0.00     0.004 C 
ATOM     19  H   LIG d   1       6.601  -2.679  -2.196  0.00  0.00     0.058 H 
ATOM     20  H   LIG d   1       8.315  -1.333  -3.701  0.00  0.00     0.037 H 
ATOM     21  C   LIG d   1       6.930  -1.296  -5.363  0.00  0.00    -0.030 C 
ATOM     22  H   LIG d   1       6.220  -1.979  -5.853  0.00  0.00     0.031 H 
ATOM     23  C   LIG d   1       6.229   0.014  -4.982  0.00  0.00    -0.042 C 
ATOM     24  H   LIG d   1       6.913   0.636  -4.386  0.00  0.00     0.027 H 
ATOM     25  H   LIG d   1       5.943   0.556  -5.896  0.00  0.00     0.027 H 
ATOM     26  H   LIG d   1       4.583   0.590  -3.702  0.00  0.00     0.035 H 
BRANCH  16  27
ATOM     27  C   LIG d   1       4.358  -1.436  -1.922  0.00  0.00    -0.043 C 
ATOM     28  H   LIG d   1       3.338  -1.232  -2.280  0.00  0.00     0.027 H 
ATOM     29  H   LIG d   1       4.616  -0.724  -1.124  0.00  0.00     0.027 H 
ATOM     30  H   LIG d   1       4.411  -2.462  -1.529  0.00  0.00     0.027 H 
ENDBRANCH  16  27
BRANCH  18  31
ATOM     31  C   LIG d   1       7.955  -3.360  -4.400  0.00  0.00     0.051 C 
ATOM     32  H   LIG d   1       8.771  -3.320  -5.137  0.00  0.00     0.056 H 
ATOM     33  H   LIG d   1       8.317  -3.836  -3.477  0.00  0.00     0.056 H 
BRANCH  31  34
ATOM     34  O   LIG d   1       6.867  -4.118  -4.933  0.00  0.00    -0.394 OA
ATOM     35  H   LIG d   1       6.180  -3.659  -5.658  0.00  0.00     0.209 HD
ENDBRANCH  31  34
ENDBRANCH  18  31
BRANCH  21  36
ATOM     36  C   LIG d   1       8.079  -1.002  -6.330  0.00  0.00    -0.043 C 
ATOM     37  H   LIG d   1       8.531  -1.949  -6.661  0.00  0.00     0.030 H 
BRANCH  36  38
ATOM     38  C   LIG d   1       9.137  -0.153  -5.620  0.00  0.00    -0.062 C 
ATOM     39  H   LIG d   1       9.409  -0.630  -4.666  0.00  0.00     0.023 H 
ATOM     40  H   LIG d   1       8.732   0.850  -5.426  0.00  0.00     0.023 H 
ATOM     41  H   LIG d   1      10.030  -0.072  -6.257  0.00  0.00     0.023 H 
ENDBRANCH  36  38
BRANCH  36  42
ATOM     42  C   LIG d   1       7.543  -0.240  -7.543  0.00  0.00    -0.062 C 
ATOM     43  H   LIG d   1       7.743  -0.819  -8.457  0.00  0.00     0.023 H 
ATOM     44  H   LIG d   1       8.043   0.738  -7.612  0.00  0.00     0.023 H 
ATOM     45  H   LIG d   1       6.460  -0.091  -7.433  0.00  0.00     0.023 H 
ENDBRANCH  36  42
ENDBRANCH  21  36
ENDBRANCH  12  15
ENDBRANCH  10  12
BRANCH   9  46
ATOM     46  C   LIG d   1       3.994  -1.268  -7.893  0.00  0.00     0.003 C 
ATOM     47  H   LIG d   1       3.284  -2.106  -7.832  0.00  0.00     0.043 H 
ATOM     48  H   LIG d   1       4.907  -1.519  -7.334  0.00  0.00     0.043 H 
ATOM     49  H   LIG d   1       4.249  -1.079  -8.946  0.00  0.00     0.043 H 
ENDBRANCH   9  46
ENDBRANCH   6   9
ENDBRANCH   1   6
TORSDOF 11
ENDMDL
MODEL 9
REMARK VINA RESULT:      -4.6      3.284      7.271
REMARK  11 active torsions:
REMARK  status: ('A' for Active; 'I' for Inactive)
REMARK    1  A    between atoms: C_1  and  C_2 
REMARK    2  A    between atoms: C_4  and  C_23 
REMARK    3  A    between atoms: C_6  and  C_20 
REMARK    4  A    between atoms: C_9  and  C_11 
REMARK    5  A    between atoms: C_11  and  C_12 
REMARK       I    between atoms: C_12  and  N_14 
REMARK    6  A    between atoms: N_14  and  C_15 
REMARK    7  A    between atoms: N_14  and  C_16 
REMARK    8  A    between atoms: C_16  and  C_17 
REMARK    9  A    between atoms: C_20  and  C_21 
REMARK   10  A    between atoms: C_20  and  C_22 
REMARK   11  A    between atoms: C_23  and  O_24 
ROOT
ATOM      1  C   LIG d   1       3.188  -3.641  -9.427  0.00  0.00     0.051 C 
ATOM      2  C   LIG d   1       3.162  -5.040  -8.971  0.00  0.00     0.064 C 
ATOM      3  N   LIG d   1       3.141  -6.120  -8.620  0.00  0.00    -0.197 NA
ATOM      4  H   LIG d   1       2.725  -2.998  -8.664  0.00  0.00     0.043 H 
ATOM      5  H   LIG d   1       2.630  -3.552 -10.370  0.00  0.00     0.043 H 
ENDROOT
BRANCH   1   6
ATOM      6  C   LIG d   1       4.638  -3.205  -9.648  0.00  0.00     0.027 C 
ATOM      7  H   LIG d   1       4.710  -2.632 -10.584  0.00  0.00     0.047 H 
ATOM      8  H   LIG d   1       5.283  -4.093  -9.712  0.00  0.00     0.047 H 
BRANCH   6   9
ATOM      9  N   LIG d   1       5.072  -2.366  -8.528  0.00  0.00    -0.304 N 
ATOM     10  C   LIG d   1       5.896  -2.870  -7.589  0.00  0.00     0.216 C 
ATOM     11  O   LIG d   1       6.278  -4.018  -7.669  0.00  0.00    -0.276 OA
BRANCH  10  12
ATOM     12  C   LIG d   1       6.342  -2.007  -6.436  0.00  0.00     0.031 C 
ATOM     13  H   LIG d   1       5.925  -0.995  -6.552  0.00  0.00     0.036 H 
ATOM     14  H   LIG d   1       7.441  -1.953  -6.423  0.00  0.00     0.036 H 
BRANCH  12  15
ATOM     15  C   LIG d   1       5.847  -2.614  -5.122  0.00  0.00    -0.012 C 
ATOM     16  C   LIG d   1       6.825  -2.301  -4.029  0.00  0.00    -0.073 C 
ATOM     17  C   LIG d   1       6.641  -1.389  -3.130  0.00  0.00    -0.079 C 
ATOM     18  C   LIG d   1       5.418  -0.523  -3.050  0.00  0.00     0.004 C 
ATOM     19  H   LIG d   1       7.408  -1.209  -2.362  0.00  0.00     0.058 H 
ATOM     20  H   LIG d   1       4.779  -0.910  -2.242  0.00  0.00     0.037 H 
ATOM     21  C   LIG d   1       4.653  -0.566  -4.374  0.00  0.00    -0.030 C 
ATOM     22  H   LIG d   1       5.212  -0.022  -5.150  0.00  0.00     0.031 H 
ATOM     23  C   LIG d   1       4.473  -2.034  -4.781  0.00  0.00    -0.042 C 
ATOM     24  H   LIG d   1       4.024  -2.594  -3.947  0.00  0.00     0.027 H 
ATOM     25  H   LIG d   1       3.811  -2.092  -5.659  0.00  0.00     0.027 H 
ATOM     26  H   LIG d   1       5.773  -3.708  -5.210  0.00  0.00     0.035 H 
BRANCH  16  27
ATOM     27  C   LIG d   1       8.102  -3.099  -3.973  0.00  0.00    -0.043 C 
ATOM     28  H   LIG d   1       8.687  -2.796  -3.092  0.00  0.00     0.027 H 
ATOM     29  H   LIG d   1       8.690  -2.914  -4.885  0.00  0.00     0.027 H 
ATOM     30  H   LIG d   1       7.862  -4.171  -3.903  0.00  0.00     0.027 H 
ENDBRANCH  16  27
BRANCH  18  31
ATOM     31  C   LIG d   1       5.836   0.919  -2.752  0.00  0.00     0.051 C 
ATOM     32  H   LIG d   1       6.912   0.949  -2.524  0.00  0.00     0.056 H 
ATOM     33  H   LIG d   1       5.629   1.549  -3.630  0.00  0.00     0.056 H 
BRANCH  31  34
ATOM     34  O   LIG d   1       5.097   1.408  -1.631  0.00  0.00    -0.394 OA
ATOM     35  H   LIG d   1       5.567   1.445  -0.637  0.00  0.00     0.209 HD
ENDBRANCH  31  34
ENDBRANCH  18  31
BRANCH  21  36
ATOM     36  C   LIG d   1       3.283   0.092  -4.199  0.00  0.00    -0.043 C 
ATOM     37  H   LIG d   1       3.408   1.086  -3.747  0.00  0.00     0.030 H 
BRANCH  36  38
ATOM     38  C   LIG d   1       2.413  -0.778  -3.287  0.00  0.00    -0.062 C 
ATOM     39  H   LIG d   1       1.516  -1.101  -3.837  0.00  0.00     0.023 H 
ATOM     40  H   LIG d   1       2.112  -0.195  -2.404  0.00  0.00     0.023 H 
ATOM     41  H   LIG d   1       2.986  -1.660  -2.968  0.00  0.00     0.023 H 
ENDBRANCH  36  38
BRANCH  36  42
ATOM     42  C   LIG d   1       2.607   0.234  -5.564  0.00  0.00    -0.062 C 
ATOM     43  H   LIG d   1       2.304   1.280  -5.716  0.00  0.00     0.023 H 
ATOM     44  H   LIG d   1       1.718  -0.414  -5.603  0.00  0.00     0.023 H 
ATOM     45  H   LIG d   1       3.311  -0.062  -6.354  0.00  0.00     0.023 H 
ENDBRANCH  36  42
ENDBRANCH  21  36
ENDBRANCH  12  15
ENDBRANCH  10  12
BRANCH   9  46
ATOM     46  C   LIG d   1       4.610  -0.979  -8.429  0.00  0.00     0.003 C 
ATOM     47  H   LIG d   1       3.877  -0.780  -9.225  0.00  0.00     0.043 H 
ATOM     48  H   LIG d   1       5.467  -0.299  -8.542  0.00  0.00     0.043 H 
ATOM     49  H   LIG d   1       4.140  -0.818  -7.449  0.00  0.00     0.043 H 
ENDBRANCH   9  46
ENDBRANCH   6   9
ENDBRANCH   1   6
TORSDOF 11
ENDMDL
