MODEL 1
REMARK VINA RESULT:      -6.1      0.000      0.000
REMARK  11 active torsions:
REMARK  status: ('A' for Active; 'I' for Inactive)
REMARK    1  A    between atoms: C_1  and  C_2 
REMARK    2  A    between atoms: C_2  and  C_3 
REMARK    3  A    between atoms: C_2  and  C_4 
REMARK    4  A    between atoms: C_7  and  C_11 
REMARK    5  A    between atoms: C_7  and  C_20 
REMARK    6  A    between atoms: C_11  and  C_12 
REMARK    7  A    between atoms: C_12  and  N_59 
REMARK    8  A    between atoms: C_13  and  C_14 
REMARK    9  A    between atoms: C_13  and  N_59 
REMARK   10  A    between atoms: C_25  and  O_26 
REMARK   11  A    between atoms: O_26  and  C_27 
ROOT
ATOM      1  C   LIG d   1       6.818  -2.707  -5.671  0.00  0.00     0.062 C 
ATOM      2  H   LIG d   1       7.377  -2.065  -4.991  0.00  0.00     0.060 H 
ATOM      3  C   LIG d   1       5.622  -1.936  -6.233  0.00  0.00    -0.016 C 
ATOM      4  C   LIG d   1       6.130  -0.736  -7.038  0.00  0.00     0.008 C 
ATOM      5  C   LIG d   1       7.069  -1.236  -8.140  0.00  0.00    -0.019 C 
ATOM      6  C   LIG d   1       8.210  -2.034  -7.505  0.00  0.00     0.049 C 
ATOM      7  O   LIG d   1       7.667  -3.116  -6.746  0.00  0.00    -0.376 OA
ATOM      8  H   LIG d   1       4.996  -1.585  -5.413  0.00  0.00     0.030 H 
ATOM      9  H   LIG d   1       5.039  -2.590  -6.882  0.00  0.00     0.030 H 
ATOM     10  H   LIG d   1       6.516  -1.875  -8.829  0.00  0.00     0.030 H 
ATOM     11  H   LIG d   1       7.478  -0.384  -8.685  0.00  0.00     0.030 H 
ATOM     12  H   LIG d   1       8.858  -2.429  -8.288  0.00  0.00     0.056 H 
ATOM     13  H   LIG d   1       8.787  -1.383  -6.848  0.00  0.00     0.056 H 
ENDROOT
BRANCH   4  14
ATOM     14  C   LIG d   1       4.945  -0.001  -7.670  0.00  0.00    -0.003 C 
ATOM     15  H   LIG d   1       5.114   1.074  -7.616  0.00  0.00     0.033 H 
ATOM     16  H   LIG d   1       4.847  -0.302  -8.713  0.00  0.00     0.033 H 
BRANCH  14  17
ATOM     17  C   LIG d   1       3.663  -0.356  -6.914  0.00  0.00    -0.033 C 
ATOM     18  H   LIG d   1       2.889  -0.642  -7.625  0.00  0.00     0.081 H 
ATOM     19  H   LIG d   1       3.860  -1.187  -6.236  0.00  0.00     0.081 H 
BRANCH  17  20
ATOM     20  N   LIG d   1       3.217   0.819  -6.141  0.00  0.00     0.230 N 
ATOM     21  H   LIG d   1       2.733   1.472  -6.768  0.00  0.00     0.202 HD
ATOM     22  H   LIG d   1       4.035   1.283  -5.728  0.00  0.00     0.202 HD
BRANCH  20  23
ATOM     23  C   LIG d   1       2.297   0.404  -5.065  0.00  0.00    -0.008 C 
ATOM     24  H   LIG d   1       1.588   1.205  -4.860  0.00  0.00     0.087 H 
ATOM     25  H   LIG d   1       1.757  -0.491  -5.371  0.00  0.00     0.087 H 
BRANCH  23  26
ATOM     26  C   LIG d   1       3.095   0.109  -3.821  0.00  0.00    -0.003 A 
ATOM     27  C   LIG d   1       3.603   1.148  -3.062  0.00  0.00    -0.053 A 
ATOM     28  C   LIG d   1       4.334   0.877  -1.921  0.00  0.00    -0.061 A 
ATOM     29  H   LIG d   1       3.427   2.171  -3.361  0.00  0.00     0.062 H 
ATOM     30  C   LIG d   1       4.558  -0.432  -1.537  0.00  0.00    -0.062 A 
ATOM     31  H   LIG d   1       4.730   1.690  -1.329  0.00  0.00     0.062 H 
ATOM     32  C   LIG d   1       4.052  -1.470  -2.296  0.00  0.00    -0.061 A 
ATOM     33  H   LIG d   1       5.129  -0.643  -0.645  0.00  0.00     0.062 H 
ATOM     34  C   LIG d   1       3.315  -1.200  -3.434  0.00  0.00    -0.053 A 
ATOM     35  H   LIG d   1       4.226  -2.493  -1.997  0.00  0.00     0.062 H 
ATOM     36  H   LIG d   1       2.915  -2.011  -4.024  0.00  0.00     0.062 H 
ENDBRANCH  23  26
ENDBRANCH  20  23
ENDBRANCH  17  20
ENDBRANCH  14  17
ENDBRANCH   4  14
BRANCH   4  37
ATOM     37  C   LIG d   1       6.876   0.203  -6.127  0.00  0.00     0.001 A 
ATOM     38  C   LIG d   1       7.715   1.170  -6.662  0.00  0.00     0.124 A 
ATOM     39  C   LIG d   1       8.406   2.030  -5.820  0.00  0.00    -0.020 A 
ATOM     40  C   LIG d   1       8.252   1.924  -4.451  0.00  0.00    -0.058 A 
ATOM     41  H   LIG d   1       9.062   2.780  -6.235  0.00  0.00     0.065 H 
ATOM     42  C   LIG d   1       7.411   0.963  -3.920  0.00  0.00    -0.061 A 
ATOM     43  H   LIG d   1       8.790   2.593  -3.796  0.00  0.00     0.062 H 
ATOM     44  C   LIG d   1       6.722   0.105  -4.756  0.00  0.00    -0.055 A 
ATOM     45  H   LIG d   1       7.293   0.883  -2.849  0.00  0.00     0.062 H 
ATOM     46  H   LIG d   1       6.066  -0.644  -4.340  0.00  0.00     0.062 H 
BRANCH  38  47
ATOM     47  O   LIG d   1       7.863   1.272  -8.009  0.00  0.00    -0.495 OA
BRANCH  47  48
ATOM     48  C   LIG d   1       7.897   2.590  -8.560  0.00  0.00     0.079 C 
ATOM     49  H   LIG d   1       7.563   3.306  -7.810  0.00  0.00     0.066 H 
ATOM     50  H   LIG d   1       8.915   2.830  -8.865  0.00  0.00     0.066 H 
ATOM     51  H   LIG d   1       7.237   2.637  -9.428  0.00  0.00     0.066 H 
ENDBRANCH  47  48
ENDBRANCH  38  47
ENDBRANCH   4  37
BRANCH   1  52
ATOM     52  C   LIG d   1       6.321  -3.941  -4.916  0.00  0.00    -0.020 C 
ATOM     53  H   LIG d   1       6.519  -3.820  -3.851  0.00  0.00     0.032 H 
BRANCH  52  54
ATOM     54  C   LIG d   1       4.815  -4.102  -5.139  0.00  0.00    -0.060 C 
ATOM     55  H   LIG d   1       4.595  -5.139  -5.395  0.00  0.00     0.023 H 
ATOM     56  H   LIG d   1       4.282  -3.831  -4.228  0.00  0.00     0.023 H 
ATOM     57  H   LIG d   1       4.497  -3.452  -5.954  0.00  0.00     0.023 H 
ENDBRANCH  52  54
BRANCH  52  58
ATOM     58  C   LIG d   1       7.048  -5.183  -5.433  0.00  0.00    -0.060 C 
ATOM     59  H   LIG d   1       8.010  -5.279  -4.927  0.00  0.00     0.023 H 
ATOM     60  H   LIG d   1       6.444  -6.068  -5.234  0.00  0.00     0.023 H 
ATOM     61  H   LIG d   1       7.212  -5.089  -6.507  0.00  0.00     0.023 H 
ENDBRANCH  52  58
ENDBRANCH   1  52
TORSDOF 11
ENDMDL
MODEL 2
REMARK VINA RESULT:      -5.9      2.655      5.417
REMARK  11 active torsions:
REMARK  status: ('A' for Active; 'I' for Inactive)
REMARK    1  A    between atoms: C_1  and  C_2 
REMARK    2  A    between atoms: C_2  and  C_3 
REMARK    3  A    between atoms: C_2  and  C_4 
REMARK    4  A    between atoms: C_7  and  C_11 
REMARK    5  A    between atoms: C_7  and  C_20 
REMARK    6  A    between atoms: C_11  and  C_12 
REMARK    7  A    between atoms: C_12  and  N_59 
REMARK    8  A    between atoms: C_13  and  C_14 
REMARK    9  A    between atoms: C_13  and  N_59 
REMARK   10  A    between atoms: C_25  and  O_26 
REMARK   11  A    between atoms: O_26  and  C_27 
ROOT
ATOM      1  C   LIG d   1       4.598  -0.396  -4.157  0.00  0.00     0.062 C 
ATOM      2  H   LIG d   1       4.104   0.381  -4.741  0.00  0.00     0.060 H 
ATOM      3  C   LIG d   1       4.638  -1.695  -4.966  0.00  0.00    -0.016 C 
ATOM      4  C   LIG d   1       5.464  -1.471  -6.236  0.00  0.00     0.008 C 
ATOM      5  C   LIG d   1       6.863  -0.988  -5.842  0.00  0.00    -0.019 C 
ATOM      6  C   LIG d   1       6.738   0.284  -5.000  0.00  0.00     0.049 C 
ATOM      7  O   LIG d   1       5.932   0.014  -3.851  0.00  0.00    -0.376 OA
ATOM      8  H   LIG d   1       3.623  -1.986  -5.238  0.00  0.00     0.030 H 
ATOM      9  H   LIG d   1       5.095  -2.483  -4.367  0.00  0.00     0.030 H 
ATOM     10  H   LIG d   1       7.367  -1.762  -5.262  0.00  0.00     0.030 H 
ATOM     11  H   LIG d   1       7.442  -0.775  -6.742  0.00  0.00     0.030 H 
ATOM     12  H   LIG d   1       7.728   0.608  -4.681  0.00  0.00     0.056 H 
ATOM     13  H   LIG d   1       6.272   1.069  -5.595  0.00  0.00     0.056 H 
ENDROOT
BRANCH   4  14
ATOM     14  C   LIG d   1       5.576  -2.785  -7.014  0.00  0.00    -0.003 C 
ATOM     15  H   LIG d   1       5.560  -2.575  -8.084  0.00  0.00     0.033 H 
ATOM     16  H   LIG d   1       6.512  -3.280  -6.755  0.00  0.00     0.033 H 
BRANCH  14  17
ATOM     17  C   LIG d   1       4.401  -3.693  -6.654  0.00  0.00    -0.033 C 
ATOM     18  H   LIG d   1       4.772  -4.685  -6.398  0.00  0.00     0.081 H 
ATOM     19  H   LIG d   1       3.865  -3.274  -5.802  0.00  0.00     0.081 H 
BRANCH  17  20
ATOM     20  N   LIG d   1       3.490  -3.789  -7.812  0.00  0.00     0.230 N 
ATOM     21  H   LIG d   1       2.754  -3.079  -7.722  0.00  0.00     0.202 HD
ATOM     22  H   LIG d   1       3.065  -4.723  -7.831  0.00  0.00     0.202 HD
BRANCH  20  23
ATOM     23  C   LIG d   1       4.233  -3.564  -9.066  0.00  0.00    -0.008 C 
ATOM     24  H   LIG d   1       5.235  -3.203  -8.839  0.00  0.00     0.087 H 
ATOM     25  H   LIG d   1       4.299  -4.497  -9.624  0.00  0.00     0.087 H 
BRANCH  23  26
ATOM     26  C   LIG d   1       3.504  -2.536  -9.893  0.00  0.00    -0.003 A 
ATOM     27  C   LIG d   1       2.202  -2.191  -9.577  0.00  0.00    -0.053 A 
ATOM     28  C   LIG d   1       1.535  -1.247 -10.335  0.00  0.00    -0.061 A 
ATOM     29  H   LIG d   1       1.709  -2.658  -8.738  0.00  0.00     0.062 H 
ATOM     30  C   LIG d   1       2.167  -0.649 -11.409  0.00  0.00    -0.062 A 
ATOM     31  H   LIG d   1       0.518  -0.978 -10.088  0.00  0.00     0.062 H 
ATOM     32  C   LIG d   1       3.467  -0.994 -11.725  0.00  0.00    -0.061 A 
ATOM     33  H   LIG d   1       1.645   0.089 -12.000  0.00  0.00     0.062 H 
ATOM     34  C   LIG d   1       4.138  -1.933 -10.963  0.00  0.00    -0.053 A 
ATOM     35  H   LIG d   1       3.962  -0.527 -12.563  0.00  0.00     0.062 H 
ATOM     36  H   LIG d   1       5.156  -2.200 -11.208  0.00  0.00     0.062 H 
ENDBRANCH  23  26
ENDBRANCH  20  23
ENDBRANCH  17  20
ENDBRANCH  14  17
ENDBRANCH   4  14
BRANCH   4  37
ATOM     37  C   LIG d   1       4.795  -0.431  -7.096  0.00  0.00     0.001 A 
ATOM     38  C   LIG d   1       5.482   0.137  -8.159  0.00  0.00     0.124 A 
ATOM     39  C   LIG d   1       4.865   1.099  -8.947  0.00  0.00    -0.020 A 
ATOM     40  C   LIG d   1       3.567   1.484  -8.674  0.00  0.00    -0.058 A 
ATOM     41  H   LIG d   1       5.400   1.545  -9.772  0.00  0.00     0.065 H 
ATOM     42  C   LIG d   1       2.882   0.911  -7.618  0.00  0.00    -0.061 A 
ATOM     43  H   LIG d   1       3.087   2.232  -9.287  0.00  0.00     0.062 H 
ATOM     44  C   LIG d   1       3.494  -0.047  -6.831  0.00  0.00    -0.055 A 
ATOM     45  H   LIG d   1       1.867   1.214  -7.406  0.00  0.00     0.062 H 
ATOM     46  H   LIG d   1       2.958  -0.493  -6.007  0.00  0.00     0.062 H 
BRANCH  38  47
ATOM     47  O   LIG d   1       6.759  -0.244  -8.425  0.00  0.00    -0.495 OA
BRANCH  47  48
ATOM     48  C   LIG d   1       7.211  -0.100  -9.773  0.00  0.00     0.079 C 
ATOM     49  H   LIG d   1       7.423  -1.082 -10.194  0.00  0.00     0.066 H 
ATOM     50  H   LIG d   1       6.438   0.390 -10.365  0.00  0.00     0.066 H 
ATOM     51  H   LIG d   1       8.118   0.506  -9.789  0.00  0.00     0.066 H 
ENDBRANCH  47  48
ENDBRANCH  38  47
ENDBRANCH   4  37
BRANCH   1  52
ATOM     52  C   LIG d   1       3.824  -0.628  -2.858  0.00  0.00    -0.020 C 
ATOM     53  H   LIG d   1       2.782  -0.341  -2.999  0.00  0.00     0.032 H 
BRANCH  52  54
ATOM     54  C   LIG d   1       3.899  -2.109  -2.477  0.00  0.00    -0.060 C 
ATOM     55  H   LIG d   1       2.890  -2.503  -2.357  0.00  0.00     0.023 H 
ATOM     56  H   LIG d   1       4.414  -2.660  -3.264  0.00  0.00     0.023 H 
ATOM     57  H   LIG d   1       4.446  -2.215  -1.541  0.00  0.00     0.023 H 
ENDBRANCH  52  54
BRANCH  52  58
ATOM     58  C   LIG d   1       4.439   0.217  -1.741  0.00  0.00    -0.060 C 
ATOM     59  H   LIG d   1       5.211  -0.359  -1.231  0.00  0.00     0.023 H 
ATOM     60  H   LIG d   1       4.880   1.118  -2.166  0.00  0.00     0.023 H 
ATOM     61  H   LIG d   1       3.663   0.495  -1.026  0.00  0.00     0.023 H 
ENDBRANCH  52  58
ENDBRANCH   1  52
TORSDOF 11
ENDMDL
MODEL 3
REMARK VINA RESULT:      -5.8      1.765      2.521
REMARK  11 active torsions:
REMARK  status: ('A' for Active; 'I' for Inactive)
REMARK    1  A    between atoms: C_1  and  C_2 
REMARK    2  A    between atoms: C_2  and  C_3 
REMARK    3  A    between atoms: C_2  and  C_4 
REMARK    4  A    between atoms: C_7  and  C_11 
REMARK    5  A    between atoms: C_7  and  C_20 
REMARK    6  A    between atoms: C_11  and  C_12 
REMARK    7  A    between atoms: C_12  and  N_59 
REMARK    8  A    between atoms: C_13  and  C_14 
REMARK    9  A    between atoms: C_13  and  N_59 
REMARK   10  A    between atoms: C_25  and  O_26 
REMARK   11  A    between atoms: O_26  and  C_27 
ROOT
ATOM      1  C   LIG d   1       4.773  -3.421  -8.012  0.00  0.00     0.062 C 
ATOM      2  H   LIG d   1       5.276  -3.602  -7.062  0.00  0.00     0.060 H 
ATOM      3  C   LIG d   1       4.046  -2.076  -7.956  0.00  0.00    -0.016 C 
ATOM      4  C   LIG d   1       5.072  -0.957  -7.752  0.00  0.00     0.008 C 
ATOM      5  C   LIG d   1       6.103  -1.014  -8.883  0.00  0.00    -0.019 C 
ATOM      6  C   LIG d   1       6.752  -2.400  -8.903  0.00  0.00     0.049 C 
ATOM      7  O   LIG d   1       5.739  -3.395  -9.065  0.00  0.00    -0.376 OA
ATOM      8  H   LIG d   1       3.339  -2.077  -7.125  0.00  0.00     0.030 H 
ATOM      9  H   LIG d   1       3.509  -1.912  -8.890  0.00  0.00     0.030 H 
ATOM     10  H   LIG d   1       5.609  -0.828  -9.837  0.00  0.00     0.030 H 
ATOM     11  H   LIG d   1       6.869  -0.255  -8.717  0.00  0.00     0.030 H 
ATOM     12  H   LIG d   1       7.455  -2.460  -9.734  0.00  0.00     0.056 H 
ATOM     13  H   LIG d   1       7.280  -2.568  -7.965  0.00  0.00     0.056 H 
ENDROOT
BRANCH   4  14
ATOM     14  C   LIG d   1       4.365   0.400  -7.771  0.00  0.00    -0.003 C 
ATOM     15  H   LIG d   1       4.952   1.124  -7.205  0.00  0.00     0.033 H 
ATOM     16  H   LIG d   1       4.263   0.741  -8.802  0.00  0.00     0.033 H 
BRANCH  14  17
ATOM     17  C   LIG d   1       2.978   0.262  -7.141  0.00  0.00    -0.033 C 
ATOM     18  H   LIG d   1       2.225   0.637  -7.833  0.00  0.00     0.081 H 
ATOM     19  H   LIG d   1       2.782  -0.788  -6.922  0.00  0.00     0.081 H 
BRANCH  17  20
ATOM     20  N   LIG d   1       2.936   1.044  -5.890  0.00  0.00     0.230 N 
ATOM     21  H   LIG d   1       2.520   1.964  -6.080  0.00  0.00     0.202 HD
ATOM     22  H   LIG d   1       3.892   1.167  -5.535  0.00  0.00     0.202 HD
BRANCH  20  23
ATOM     23  C   LIG d   1       2.125   0.344  -4.876  0.00  0.00    -0.008 C 
ATOM     24  H   LIG d   1       1.309   0.988  -4.552  0.00  0.00     0.087 H 
ATOM     25  H   LIG d   1       1.719  -0.573  -5.301  0.00  0.00     0.087 H 
BRANCH  23  26
ATOM     26  C   LIG d   1       2.998   0.006  -3.694  0.00  0.00    -0.003 A 
ATOM     27  C   LIG d   1       3.006  -1.279  -3.185  0.00  0.00    -0.053 A 
ATOM     28  C   LIG d   1       3.807  -1.589  -2.102  0.00  0.00    -0.061 A 
ATOM     29  H   LIG d   1       2.387  -2.041  -3.635  0.00  0.00     0.062 H 
ATOM     30  C   LIG d   1       4.600  -0.613  -1.527  0.00  0.00    -0.062 A 
ATOM     31  H   LIG d   1       3.813  -2.594  -1.705  0.00  0.00     0.062 H 
ATOM     32  C   LIG d   1       4.591   0.672  -2.035  0.00  0.00    -0.061 A 
ATOM     33  H   LIG d   1       5.226  -0.856  -0.681  0.00  0.00     0.062 H 
ATOM     34  C   LIG d   1       3.795   0.981  -3.122  0.00  0.00    -0.053 A 
ATOM     35  H   LIG d   1       5.210   1.434  -1.587  0.00  0.00     0.062 H 
ATOM     36  H   LIG d   1       3.792   1.984  -3.522  0.00  0.00     0.062 H 
ENDBRANCH  23  26
ENDBRANCH  20  23
ENDBRANCH  17  20
ENDBRANCH  14  17
ENDBRANCH   4  14
BRANCH   4  37
ATOM     37  C   LIG d   1       5.765  -1.144  -6.427  0.00  0.00     0.001 A 
ATOM     38  C   LIG d   1       6.613  -0.159  -5.942  0.00  0.00     0.124 A 
ATOM     39  C   LIG d   1       7.255  -0.337  -4.724  0.00  0.00    -0.020 A 
ATOM     40  C   LIG d   1       7.043  -1.492  -3.996  0.00  0.00    -0.058 A 
ATOM     41  H   LIG d   1       7.918   0.426  -4.347  0.00  0.00     0.065 H 
ATOM     42  C   LIG d   1       6.193  -2.470  -4.479  0.00  0.00    -0.061 A 
ATOM     43  H   LIG d   1       7.543  -1.631  -3.049  0.00  0.00     0.062 H 
ATOM     44  C   LIG d   1       5.553  -2.296  -5.692  0.00  0.00    -0.055 A 
ATOM     45  H   LIG d   1       6.030  -3.372  -3.908  0.00  0.00     0.062 H 
ATOM     46  H   LIG d   1       4.890  -3.060  -6.067  0.00  0.00     0.062 H 
BRANCH  38  47
ATOM     47  O   LIG d   1       6.818   0.976  -6.660  0.00  0.00    -0.495 OA
BRANCH  47  48
ATOM     48  C   LIG d   1       8.121   1.560  -6.592  0.00  0.00     0.079 C 
ATOM     49  H   LIG d   1       8.335   2.080  -7.525  0.00  0.00     0.066 H 
ATOM     50  H   LIG d   1       8.159   2.267  -5.764  0.00  0.00     0.066 H 
ATOM     51  H   LIG d   1       8.862   0.775  -6.434  0.00  0.00     0.066 H 
ENDBRANCH  47  48
ENDBRANCH  38  47
ENDBRANCH   4  37
BRANCH   1  52
ATOM     52  C   LIG d   1       3.761  -4.537  -8.275  0.00  0.00    -0.020 C 
ATOM     53  H   LIG d   1       3.099  -4.639  -7.415  0.00  0.00     0.032 H 
BRANCH  52  54
ATOM     54  C   LIG d   1       2.933  -4.193  -9.516  0.00  0.00    -0.060 C 
ATOM     55  H   LIG d   1       1.873  -4.281  -9.281  0.00  0.00     0.023 H 
ATOM     56  H   LIG d   1       3.154  -3.171  -9.827  0.00  0.00     0.023 H 
ATOM     57  H   LIG d   1       3.185  -4.881 -10.323  0.00  0.00     0.023 H 
ENDBRANCH  52  54
BRANCH  52  58
ATOM     58  C   LIG d   1       4.503  -5.855  -8.507  0.00  0.00    -0.060 C 
ATOM     59  H   LIG d   1       5.578  -5.677  -8.482  0.00  0.00     0.023 H 
ATOM     60  H   LIG d   1       4.234  -6.566  -7.727  0.00  0.00     0.023 H 
ATOM     61  H   LIG d   1       4.226  -6.262  -9.480  0.00  0.00     0.023 H 
ENDBRANCH  52  58
ENDBRANCH   1  52
TORSDOF 11
ENDMDL
MODEL 4
REMARK VINA RESULT:      -5.7      2.277      5.257
REMARK  11 active torsions:
REMARK  status: ('A' for Active; 'I' for Inactive)
REMARK    1  A    between atoms: C_1  and  C_2 
REMARK    2  A    between atoms: C_2  and  C_3 
REMARK    3  A    between atoms: C_2  and  C_4 
REMARK    4  A    between atoms: C_7  and  C_11 
REMARK    5  A    between atoms: C_7  and  C_20 
REMARK    6  A    between atoms: C_11  and  C_12 
REMARK    7  A    between atoms: C_12  and  N_59 
REMARK    8  A    between atoms: C_13  and  C_14 
REMARK    9  A    between atoms: C_13  and  N_59 
REMARK   10  A    between atoms: C_25  and  O_26 
REMARK   11  A    between atoms: O_26  and  C_27 
ROOT
ATOM      1  C   LIG d   1       4.676  -3.133  -6.989  0.00  0.00     0.062 C 
ATOM      2  H   LIG d   1       3.815  -2.997  -6.335  0.00  0.00     0.060 H 
ATOM      3  C   LIG d   1       5.570  -1.892  -6.918  0.00  0.00    -0.016 C 
ATOM      4  C   LIG d   1       6.093  -1.730  -5.487  0.00  0.00     0.008 C 
ATOM      5  C   LIG d   1       6.836  -3.007  -5.080  0.00  0.00    -0.019 C 
ATOM      6  C   LIG d   1       5.893  -4.204  -5.221  0.00  0.00     0.049 C 
ATOM      7  O   LIG d   1       5.419  -4.278  -6.567  0.00  0.00    -0.376 OA
ATOM      8  H   LIG d   1       4.993  -1.010  -7.196  0.00  0.00     0.030 H 
ATOM      9  H   LIG d   1       6.411  -2.009  -7.602  0.00  0.00     0.030 H 
ATOM     10  H   LIG d   1       7.703  -3.146  -5.726  0.00  0.00     0.030 H 
ATOM     11  H   LIG d   1       7.165  -2.921  -4.043  0.00  0.00     0.030 H 
ATOM     12  H   LIG d   1       6.429  -5.120  -4.974  0.00  0.00     0.056 H 
ATOM     13  H   LIG d   1       5.047  -4.083  -4.544  0.00  0.00     0.056 H 
ENDROOT
BRANCH   4  14
ATOM     14  C   LIG d   1       7.050  -0.538  -5.421  0.00  0.00    -0.003 C 
ATOM     15  H   LIG d   1       6.574   0.280  -4.880  0.00  0.00     0.033 H 
ATOM     16  H   LIG d   1       7.962  -0.834  -4.903  0.00  0.00     0.033 H 
BRANCH  14  17
ATOM     17  C   LIG d   1       7.394  -0.081  -6.839  0.00  0.00    -0.033 C 
ATOM     18  H   LIG d   1       8.476  -0.071  -6.966  0.00  0.00     0.081 H 
ATOM     19  H   LIG d   1       6.948  -0.767  -7.560  0.00  0.00     0.081 H 
BRANCH  17  20
ATOM     20  N   LIG d   1       6.858   1.278  -7.053  0.00  0.00     0.230 N 
ATOM     21  H   LIG d   1       7.295   1.923  -6.384  0.00  0.00     0.202 HD
ATOM     22  H   LIG d   1       5.842   1.268  -6.904  0.00  0.00     0.202 HD
BRANCH  20  23
ATOM     23  C   LIG d   1       7.146   1.732  -8.426  0.00  0.00    -0.008 C 
ATOM     24  H   LIG d   1       7.391   2.793  -8.418  0.00  0.00     0.087 H 
ATOM     25  H   LIG d   1       7.986   1.167  -8.829  0.00  0.00     0.087 H 
BRANCH  23  26
ATOM     26  C   LIG d   1       5.929   1.504  -9.286  0.00  0.00    -0.003 A 
ATOM     27  C   LIG d   1       4.841   2.351  -9.183  0.00  0.00    -0.053 A 
ATOM     28  C   LIG d   1       3.726   2.143  -9.972  0.00  0.00    -0.061 A 
ATOM     29  H   LIG d   1       4.864   3.176  -8.487  0.00  0.00     0.062 H 
ATOM     30  C   LIG d   1       3.697   1.087 -10.864  0.00  0.00    -0.062 A 
ATOM     31  H   LIG d   1       2.876   2.805  -9.891  0.00  0.00     0.062 H 
ATOM     32  C   LIG d   1       4.784   0.239 -10.966  0.00  0.00    -0.061 A 
ATOM     33  H   LIG d   1       2.825   0.925 -11.481  0.00  0.00     0.062 H 
ATOM     34  C   LIG d   1       5.902   0.451 -10.182  0.00  0.00    -0.053 A 
ATOM     35  H   LIG d   1       4.762  -0.586 -11.663  0.00  0.00     0.062 H 
ATOM     36  H   LIG d   1       6.753  -0.209 -10.265  0.00  0.00     0.062 H 
ENDBRANCH  23  26
ENDBRANCH  20  23
ENDBRANCH  17  20
ENDBRANCH  14  17
ENDBRANCH   4  14
BRANCH   4  37
ATOM     37  C   LIG d   1       4.936  -1.500  -4.551  0.00  0.00     0.001 A 
ATOM     38  C   LIG d   1       3.976  -0.545  -4.854  0.00  0.00     0.124 A 
ATOM     39  C   LIG d   1       2.914  -0.331  -3.986  0.00  0.00    -0.020 A 
ATOM     40  C   LIG d   1       2.812  -1.074  -2.826  0.00  0.00    -0.058 A 
ATOM     41  H   LIG d   1       2.169   0.415  -4.219  0.00  0.00     0.065 H 
ATOM     42  C   LIG d   1       3.767  -2.029  -2.529  0.00  0.00    -0.061 A 
ATOM     43  H   LIG d   1       1.986  -0.907  -2.151  0.00  0.00     0.062 H 
ATOM     44  C   LIG d   1       4.826  -2.244  -3.390  0.00  0.00    -0.055 A 
ATOM     45  H   LIG d   1       3.685  -2.608  -1.620  0.00  0.00     0.062 H 
ATOM     46  H   LIG d   1       5.570  -2.990  -3.157  0.00  0.00     0.062 H 
BRANCH  38  47
ATOM     47  O   LIG d   1       4.078   0.183  -5.997  0.00  0.00    -0.495 OA
BRANCH  47  48
ATOM     48  C   LIG d   1       2.860   0.512  -6.667  0.00  0.00     0.079 C 
ATOM     49  H   LIG d   1       2.060  -0.132  -6.305  0.00  0.00     0.066 H 
ATOM     50  H   LIG d   1       2.607   1.553  -6.469  0.00  0.00     0.066 H 
ATOM     51  H   LIG d   1       2.987   0.367  -7.741  0.00  0.00     0.066 H 
ENDBRANCH  47  48
ENDBRANCH  38  47
ENDBRANCH   4  37
BRANCH   1  52
ATOM     52  C   LIG d   1       4.199  -3.335  -8.428  0.00  0.00    -0.020 C 
ATOM     53  H   LIG d   1       3.705  -4.303  -8.515  0.00  0.00     0.032 H 
BRANCH  52  54
ATOM     54  C   LIG d   1       3.212  -2.225  -8.799  0.00  0.00    -0.060 C 
ATOM     55  H   LIG d   1       3.360  -1.372  -8.136  0.00  0.00     0.023 H 
ATOM     56  H   LIG d   1       3.382  -1.919  -9.831  0.00  0.00     0.023 H 
ATOM     57  H   LIG d   1       2.193  -2.595  -8.692  0.00  0.00     0.023 H 
ENDBRANCH  52  54
BRANCH  52  58
ATOM     58  C   LIG d   1       5.399  -3.287  -9.375  0.00  0.00    -0.060 C 
ATOM     59  H   LIG d   1       6.239  -3.819  -8.927  0.00  0.00     0.023 H 
ATOM     60  H   LIG d   1       5.134  -3.759 -10.321  0.00  0.00     0.023 H 
ATOM     61  H   LIG d   1       5.680  -2.249  -9.553  0.00  0.00     0.023 H 
ENDBRANCH  52  58
ENDBRANCH   1  52
TORSDOF 11
ENDMDL
MODEL 5
REMARK VINA RESULT:      -5.7      1.812      3.743
REMARK  11 active torsions:
REMARK  status: ('A' for Active; 'I' for Inactive)
REMARK    1  A    between atoms: C_1  and  C_2 
REMARK    2  A    between atoms: C_2  and  C_3 
REMARK    3  A    between atoms: C_2  and  C_4 
REMARK    4  A    between atoms: C_7  and  C_11 
REMARK    5  A    between atoms: C_7  and  C_20 
REMARK    6  A    between atoms: C_11  and  C_12 
REMARK    7  A    between atoms: C_12  and  N_59 
REMARK    8  A    between atoms: C_13  and  C_14 
REMARK    9  A    between atoms: C_13  and  N_59 
REMARK   10  A    between atoms: C_25  and  O_26 
REMARK   11  A    between atoms: O_26  and  C_27 
ROOT
ATOM      1  C   LIG d   1       6.089  -2.210  -9.103  0.00  0.00     0.062 C 
ATOM      2  H   LIG d   1       6.650  -2.604  -8.256  0.00  0.00     0.060 H 
ATOM      3  C   LIG d   1       4.631  -1.989  -8.691  0.00  0.00    -0.016 C 
ATOM      4  C   LIG d   1       4.578  -0.944  -7.572  0.00  0.00     0.008 C 
ATOM      5  C   LIG d   1       5.247   0.345  -8.060  0.00  0.00    -0.019 C 
ATOM      6  C   LIG d   1       6.681   0.033  -8.496  0.00  0.00     0.049 C 
ATOM      7  O   LIG d   1       6.660  -0.967  -9.517  0.00  0.00    -0.376 OA
ATOM      8  H   LIG d   1       4.206  -2.927  -8.334  0.00  0.00     0.030 H 
ATOM      9  H   LIG d   1       4.060  -1.633  -9.549  0.00  0.00     0.030 H 
ATOM     10  H   LIG d   1       4.688   0.748  -8.905  0.00  0.00     0.030 H 
ATOM     11  H   LIG d   1       5.262   1.076  -7.252  0.00  0.00     0.030 H 
ATOM     12  H   LIG d   1       7.147   0.938  -8.885  0.00  0.00     0.056 H 
ATOM     13  H   LIG d   1       7.250  -0.332  -7.641  0.00  0.00     0.056 H 
ENDROOT
BRANCH   4  14
ATOM     14  C   LIG d   1       3.120  -0.657  -7.205  0.00  0.00    -0.003 C 
ATOM     15  H   LIG d   1       2.463  -1.098  -7.956  0.00  0.00     0.033 H 
ATOM     16  H   LIG d   1       2.900  -1.090  -6.230  0.00  0.00     0.033 H 
BRANCH  14  17
ATOM     17  C   LIG d   1       2.896   0.855  -7.155  0.00  0.00    -0.033 C 
ATOM     18  H   LIG d   1       3.726   1.363  -7.643  0.00  0.00     0.081 H 
ATOM     19  H   LIG d   1       1.966   1.101  -7.667  0.00  0.00     0.081 H 
BRANCH  17  20
ATOM     20  N   LIG d   1       2.813   1.284  -5.745  0.00  0.00     0.230 N 
ATOM     21  H   LIG d   1       2.268   2.153  -5.688  0.00  0.00     0.202 HD
ATOM     22  H   LIG d   1       3.761   1.450  -5.385  0.00  0.00     0.202 HD
BRANCH  20  23
ATOM     23  C   LIG d   1       2.157   0.244  -4.931  0.00  0.00    -0.008 C 
ATOM     24  H   LIG d   1       1.180   0.596  -4.603  0.00  0.00     0.087 H 
ATOM     25  H   LIG d   1       2.038  -0.663  -5.523  0.00  0.00     0.087 H 
BRANCH  23  26
ATOM     26  C   LIG d   1       3.014  -0.052  -3.726  0.00  0.00    -0.003 A 
ATOM     27  C   LIG d   1       3.094  -1.342  -3.234  0.00  0.00    -0.053 A 
ATOM     28  C   LIG d   1       3.880  -1.613  -2.130  0.00  0.00    -0.061 A 
ATOM     29  H   LIG d   1       2.543  -2.137  -3.713  0.00  0.00     0.062 H 
ATOM     30  C   LIG d   1       4.586  -0.595  -1.517  0.00  0.00    -0.062 A 
ATOM     31  H   LIG d   1       3.942  -2.621  -1.746  0.00  0.00     0.062 H 
ATOM     32  C   LIG d   1       4.506   0.695  -2.008  0.00  0.00    -0.061 A 
ATOM     33  H   LIG d   1       5.201  -0.807  -0.655  0.00  0.00     0.062 H 
ATOM     34  C   LIG d   1       3.724   0.965  -3.116  0.00  0.00    -0.053 A 
ATOM     35  H   LIG d   1       5.057   1.490  -1.530  0.00  0.00     0.062 H 
ATOM     36  H   LIG d   1       3.665   1.972  -3.502  0.00  0.00     0.062 H 
ENDBRANCH  23  26
ENDBRANCH  20  23
ENDBRANCH  17  20
ENDBRANCH  14  17
ENDBRANCH   4  14
BRANCH   4  37
ATOM     37  C   LIG d   1       5.309  -1.464  -6.362  0.00  0.00     0.001 A 
ATOM     38  C   LIG d   1       5.119  -2.774  -5.945  0.00  0.00     0.124 A 
ATOM     39  C   LIG d   1       5.790  -3.249  -4.827  0.00  0.00    -0.020 A 
ATOM     40  C   LIG d   1       6.650  -2.417  -4.135  0.00  0.00    -0.058 A 
ATOM     41  H   LIG d   1       5.640  -4.266  -4.499  0.00  0.00     0.065 H 
ATOM     42  C   LIG d   1       6.842  -1.114  -4.556  0.00  0.00    -0.061 A 
ATOM     43  H   LIG d   1       7.171  -2.786  -3.265  0.00  0.00     0.062 H 
ATOM     44  C   LIG d   1       6.175  -0.639  -5.669  0.00  0.00    -0.055 A 
ATOM     45  H   LIG d   1       7.514  -0.466  -4.013  0.00  0.00     0.062 H 
ATOM     46  H   LIG d   1       6.326   0.379  -5.996  0.00  0.00     0.062 H 
BRANCH  38  47
ATOM     47  O   LIG d   1       4.274  -3.589  -6.629  0.00  0.00    -0.495 OA
BRANCH  47  48
ATOM     48  C   LIG d   1       4.322  -4.983  -6.316  0.00  0.00     0.079 C 
ATOM     49  H   LIG d   1       5.335  -5.354  -6.465  0.00  0.00     0.066 H 
ATOM     50  H   LIG d   1       4.030  -5.131  -5.276  0.00  0.00     0.066 H 
ATOM     51  H   LIG d   1       3.635  -5.525  -6.967  0.00  0.00     0.066 H 
ENDBRANCH  47  48
ENDBRANCH  38  47
ENDBRANCH   4  37
BRANCH   1  52
ATOM     52  C   LIG d   1       6.145  -3.208 -10.262  0.00  0.00    -0.020 C 
ATOM     53  H   LIG d   1       7.045  -3.031 -10.850  0.00  0.00     0.032 H 
BRANCH  52  54
ATOM     54  C   LIG d   1       6.172  -4.634  -9.705  0.00  0.00    -0.060 C 
ATOM     55  H   LIG d   1       7.204  -4.976  -9.634  0.00  0.00     0.023 H 
ATOM     56  H   LIG d   1       5.715  -4.646  -8.716  0.00  0.00     0.023 H 
ATOM     57  H   LIG d   1       5.615  -5.293 -10.371  0.00  0.00     0.023 H 
ENDBRANCH  52  54
BRANCH  52  58
ATOM     58  C   LIG d   1       4.912  -3.030 -11.149  0.00  0.00    -0.060 C 
ATOM     59  H   LIG d   1       5.025  -2.131 -11.755  0.00  0.00     0.023 H 
ATOM     60  H   LIG d   1       4.805  -3.896 -11.801  0.00  0.00     0.023 H 
ATOM     61  H   LIG d   1       4.024  -2.935 -10.522  0.00  0.00     0.023 H 
ENDBRANCH  52  58
ENDBRANCH   1  52
TORSDOF 11
ENDMDL
MODEL 6
REMARK VINA RESULT:      -5.7      2.098      4.585
REMARK  11 active torsions:
REMARK  status: ('A' for Active; 'I' for Inactive)
REMARK    1  A    between atoms: C_1  and  C_2 
REMARK    2  A    between atoms: C_2  and  C_3 
REMARK    3  A    between atoms: C_2  and  C_4 
REMARK    4  A    between atoms: C_7  and  C_11 
REMARK    5  A    between atoms: C_7  and  C_20 
REMARK    6  A    between atoms: C_11  and  C_12 
REMARK    7  A    between atoms: C_12  and  N_59 
REMARK    8  A    between atoms: C_13  and  C_14 
REMARK    9  A    between atoms: C_13  and  N_59 
REMARK   10  A    between atoms: C_25  and  O_26 
REMARK   11  A    between atoms: O_26  and  C_27 
ROOT
ATOM      1  C   LIG d   1       5.621  -0.677  -2.944  0.00  0.00     0.062 C 
ATOM      2  H   LIG d   1       6.456  -0.032  -2.669  0.00  0.00     0.060 H 
ATOM      3  C   LIG d   1       5.212  -0.391  -4.391  0.00  0.00    -0.016 C 
ATOM      4  C   LIG d   1       6.383  -0.725  -5.320  0.00  0.00     0.008 C 
ATOM      5  C   LIG d   1       6.787  -2.187  -5.108  0.00  0.00    -0.019 C 
ATOM      6  C   LIG d   1       7.137  -2.403  -3.633  0.00  0.00     0.049 C 
ATOM      7  O   LIG d   1       6.015  -2.045  -2.823  0.00  0.00    -0.376 OA
ATOM      8  H   LIG d   1       4.953   0.663  -4.496  0.00  0.00     0.030 H 
ATOM      9  H   LIG d   1       4.351  -1.006  -4.654  0.00  0.00     0.030 H 
ATOM     10  H   LIG d   1       5.959  -2.839  -5.386  0.00  0.00     0.030 H 
ATOM     11  H   LIG d   1       7.655  -2.419  -5.726  0.00  0.00     0.030 H 
ATOM     12  H   LIG d   1       7.383  -3.452  -3.468  0.00  0.00     0.056 H 
ATOM     13  H   LIG d   1       7.991  -1.781  -3.367  0.00  0.00     0.056 H 
ENDROOT
BRANCH   4  14
ATOM     14  C   LIG d   1       5.959  -0.517  -6.776  0.00  0.00    -0.003 C 
ATOM     15  H   LIG d   1       5.222   0.284  -6.829  0.00  0.00     0.033 H 
ATOM     16  H   LIG d   1       6.831  -0.248  -7.372  0.00  0.00     0.033 H 
BRANCH  14  17
ATOM     17  C   LIG d   1       5.349  -1.810  -7.319  0.00  0.00    -0.033 C 
ATOM     18  H   LIG d   1       5.652  -1.948  -8.356  0.00  0.00     0.081 H 
ATOM     19  H   LIG d   1       5.697  -2.654  -6.723  0.00  0.00     0.081 H 
BRANCH  17  20
ATOM     20  N   LIG d   1       3.878  -1.721  -7.240  0.00  0.00     0.230 N 
ATOM     21  H   LIG d   1       3.619  -0.895  -6.688  0.00  0.00     0.202 HD
ATOM     22  H   LIG d   1       3.512  -2.566  -6.784  0.00  0.00     0.202 HD
BRANCH  20  23
ATOM     23  C   LIG d   1       3.299  -1.605  -8.591  0.00  0.00    -0.008 C 
ATOM     24  H   LIG d   1       3.867  -2.220  -9.287  0.00  0.00     0.087 H 
ATOM     25  H   LIG d   1       2.262  -1.938  -8.574  0.00  0.00     0.087 H 
BRANCH  23  26
ATOM     26  C   LIG d   1       3.358  -0.165  -9.031  0.00  0.00    -0.003 A 
ATOM     27  C   LIG d   1       2.867   0.831  -8.206  0.00  0.00    -0.053 A 
ATOM     28  C   LIG d   1       2.921   2.152  -8.609  0.00  0.00    -0.061 A 
ATOM     29  H   LIG d   1       2.441   0.576  -7.247  0.00  0.00     0.062 H 
ATOM     30  C   LIG d   1       3.467   2.478  -9.837  0.00  0.00    -0.062 A 
ATOM     31  H   LIG d   1       2.537   2.929  -7.964  0.00  0.00     0.062 H 
ATOM     32  C   LIG d   1       3.957   1.484 -10.662  0.00  0.00    -0.061 A 
ATOM     33  H   LIG d   1       3.510   3.511 -10.151  0.00  0.00     0.062 H 
ATOM     34  C   LIG d   1       3.908   0.163 -10.256  0.00  0.00    -0.053 A 
ATOM     35  H   LIG d   1       4.383   1.738 -11.620  0.00  0.00     0.062 H 
ATOM     36  H   LIG d   1       4.295  -0.614 -10.899  0.00  0.00     0.062 H 
ENDBRANCH  23  26
ENDBRANCH  20  23
ENDBRANCH  17  20
ENDBRANCH  14  17
ENDBRANCH   4  14
BRANCH   4  37
ATOM     37  C   LIG d   1       7.550   0.173  -5.002  0.00  0.00     0.001 A 
ATOM     38  C   LIG d   1       8.779  -0.046  -5.607  0.00  0.00     0.124 A 
ATOM     39  C   LIG d   1       9.855   0.779  -5.308  0.00  0.00    -0.020 A 
ATOM     40  C   LIG d   1       9.697   1.820  -4.413  0.00  0.00    -0.058 A 
ATOM     41  H   LIG d   1      10.813   0.607  -5.775  0.00  0.00     0.065 H 
ATOM     42  C   LIG d   1       8.469   2.039  -3.816  0.00  0.00    -0.061 A 
ATOM     43  H   LIG d   1      10.533   2.461  -4.180  0.00  0.00     0.062 H 
ATOM     44  C   LIG d   1       7.397   1.219  -4.111  0.00  0.00    -0.055 A 
ATOM     45  H   LIG d   1       8.348   2.853  -3.116  0.00  0.00     0.062 H 
ATOM     46  H   LIG d   1       6.439   1.392  -3.644  0.00  0.00     0.062 H 
BRANCH  38  47
ATOM     47  O   LIG d   1       8.931  -1.070  -6.488  0.00  0.00    -0.495 OA
BRANCH  47  48
ATOM     48  C   LIG d   1      10.210  -1.706  -6.529  0.00  0.00     0.079 C 
ATOM     49  H   LIG d   1      10.797  -1.291  -7.347  0.00  0.00     0.066 H 
ATOM     50  H   LIG d   1      10.729  -1.537  -5.585  0.00  0.00     0.066 H 
ATOM     51  H   LIG d   1      10.077  -2.778  -6.683  0.00  0.00     0.066 H 
ENDBRANCH  47  48
ENDBRANCH  38  47
ENDBRANCH   4  37
BRANCH   1  52
ATOM     52  C   LIG d   1       4.437  -0.403  -2.015  0.00  0.00    -0.020 C 
ATOM     53  H   LIG d   1       4.543  -0.994  -1.106  0.00  0.00     0.032 H 
BRANCH  52  54
ATOM     54  C   LIG d   1       4.405   1.085  -1.654  0.00  0.00    -0.060 C 
ATOM     55  H   LIG d   1       4.102   1.199  -0.614  0.00  0.00     0.023 H 
ATOM     56  H   LIG d   1       5.398   1.513  -1.794  0.00  0.00     0.023 H 
ATOM     57  H   LIG d   1       3.694   1.600  -2.300  0.00  0.00     0.023 H 
ENDBRANCH  52  54
BRANCH  52  58
ATOM     58  C   LIG d   1       3.135  -0.783  -2.723  0.00  0.00    -0.060 C 
ATOM     59  H   LIG d   1       2.315  -0.777  -2.005  0.00  0.00     0.023 H 
ATOM     60  H   LIG d   1       2.929  -0.064  -3.515  0.00  0.00     0.023 H 
ATOM     61  H   LIG d   1       3.233  -1.780  -3.154  0.00  0.00     0.023 H 
ENDBRANCH  52  58
ENDBRANCH   1  52
TORSDOF 11
ENDMDL
MODEL 7
REMARK VINA RESULT:      -5.6      2.844      4.519
REMARK  11 active torsions:
REMARK  status: ('A' for Active; 'I' for Inactive)
REMARK    1  A    between atoms: C_1  and  C_2 
REMARK    2  A    between atoms: C_2  and  C_3 
REMARK    3  A    between atoms: C_2  and  C_4 
REMARK    4  A    between atoms: C_7  and  C_11 
REMARK    5  A    between atoms: C_7  and  C_20 
REMARK    6  A    between atoms: C_11  and  C_12 
REMARK    7  A    between atoms: C_12  and  N_59 
REMARK    8  A    between atoms: C_13  and  C_14 
REMARK    9  A    between atoms: C_13  and  N_59 
REMARK   10  A    between atoms: C_25  and  O_26 
REMARK   11  A    between atoms: O_26  and  C_27 
ROOT
ATOM      1  C   LIG d   1       2.855  -1.401 -11.023  0.00  0.00     0.062 C 
ATOM      2  H   LIG d   1       3.712  -2.020 -10.758  0.00  0.00     0.060 H 
ATOM      3  C   LIG d   1       2.399  -0.610  -9.795  0.00  0.00    -0.016 C 
ATOM      4  C   LIG d   1       3.528   0.325  -9.351  0.00  0.00     0.008 C 
ATOM      5  C   LIG d   1       3.910   1.237 -10.522  0.00  0.00    -0.019 C 
ATOM      6  C   LIG d   1       4.308   0.374 -11.722  0.00  0.00     0.049 C 
ATOM      7  O   LIG d   1       3.224  -0.494 -12.063  0.00  0.00    -0.376 OA
ATOM      8  H   LIG d   1       2.158  -1.299  -8.985  0.00  0.00     0.030 H 
ATOM      9  H   LIG d   1       1.516  -0.022 -10.047  0.00  0.00     0.030 H 
ATOM     10  H   LIG d   1       3.058   1.863 -10.789  0.00  0.00     0.030 H 
ATOM     11  H   LIG d   1       4.750   1.869 -10.232  0.00  0.00     0.030 H 
ATOM     12  H   LIG d   1       4.539   1.017 -12.571  0.00  0.00     0.056 H 
ATOM     13  H   LIG d   1       5.184  -0.222 -11.467  0.00  0.00     0.056 H 
ENDROOT
BRANCH   4  14
ATOM     14  C   LIG d   1       3.056   1.178  -8.171  0.00  0.00    -0.003 C 
ATOM     15  H   LIG d   1       3.851   1.864  -7.878  0.00  0.00     0.033 H 
ATOM     16  H   LIG d   1       2.175   1.748  -8.466  0.00  0.00     0.033 H 
BRANCH  14  17
ATOM     17  C   LIG d   1       2.706   0.269  -6.993  0.00  0.00    -0.033 C 
ATOM     18  H   LIG d   1       1.654  -0.010  -7.048  0.00  0.00     0.081 H 
ATOM     19  H   LIG d   1       3.323  -0.629  -7.030  0.00  0.00     0.081 H 
BRANCH  17  20
ATOM     20  N   LIG d   1       2.962   0.992  -5.731  0.00  0.00     0.230 N 
ATOM     21  H   LIG d   1       2.736   1.985  -5.860  0.00  0.00     0.202 HD
ATOM     22  H   LIG d   1       3.953   0.895  -5.481  0.00  0.00     0.202 HD
BRANCH  20  23
ATOM     23  C   LIG d   1       2.128   0.439  -4.647  0.00  0.00    -0.008 C 
ATOM     24  H   LIG d   1       1.461   1.211  -4.268  0.00  0.00     0.087 H 
ATOM     25  H   LIG d   1       1.541  -0.396  -5.027  0.00  0.00     0.087 H 
BRANCH  23  26
ATOM     26  C   LIG d   1       3.023  -0.042  -3.533  0.00  0.00    -0.003 A 
ATOM     27  C   LIG d   1       3.656   0.872  -2.711  0.00  0.00    -0.053 A 
ATOM     28  C   LIG d   1       4.476   0.432  -1.690  0.00  0.00    -0.061 A 
ATOM     29  H   LIG d   1       3.508   1.931  -2.866  0.00  0.00     0.062 H 
ATOM     30  C   LIG d   1       4.665  -0.923  -1.490  0.00  0.00    -0.062 A 
ATOM     31  H   LIG d   1       4.969   1.147  -1.047  0.00  0.00     0.062 H 
ATOM     32  C   LIG d   1       4.034  -1.837  -2.313  0.00  0.00    -0.061 A 
ATOM     33  H   LIG d   1       5.306  -1.267  -0.692  0.00  0.00     0.062 H 
ATOM     34  C   LIG d   1       3.208  -1.397  -3.331  0.00  0.00    -0.053 A 
ATOM     35  H   LIG d   1       4.181  -2.896  -2.158  0.00  0.00     0.062 H 
ATOM     36  H   LIG d   1       2.712  -2.111  -3.971  0.00  0.00     0.062 H 
ENDBRANCH  23  26
ENDBRANCH  20  23
ENDBRANCH  17  20
ENDBRANCH  14  17
ENDBRANCH   4  14
BRANCH   4  37
ATOM     37  C   LIG d   1       4.725  -0.491  -8.937  0.00  0.00     0.001 A 
ATOM     38  C   LIG d   1       5.863   0.141  -8.456  0.00  0.00     0.124 A 
ATOM     39  C   LIG d   1       6.966  -0.613  -8.080  0.00  0.00    -0.020 A 
ATOM     40  C   LIG d   1       6.925  -1.991  -8.179  0.00  0.00    -0.058 A 
ATOM     41  H   LIG d   1       7.854  -0.124  -7.710  0.00  0.00     0.065 H 
ATOM     42  C   LIG d   1       5.787  -2.618  -8.653  0.00  0.00    -0.061 A 
ATOM     43  H   LIG d   1       7.783  -2.577  -7.887  0.00  0.00     0.062 H 
ATOM     44  C   LIG d   1       4.688  -1.870  -9.028  0.00  0.00    -0.055 A 
ATOM     45  H   LIG d   1       5.758  -3.695  -8.730  0.00  0.00     0.062 H 
ATOM     46  H   LIG d   1       3.800  -2.361  -9.398  0.00  0.00     0.062 H 
BRANCH  38  47
ATOM     47  O   LIG d   1       5.899   1.495  -8.359  0.00  0.00    -0.495 OA
BRANCH  47  48
ATOM     48  C   LIG d   1       7.071   2.150  -8.850  0.00  0.00     0.079 C 
ATOM     49  H   LIG d   1       6.785   3.053  -9.388  0.00  0.00     0.066 H 
ATOM     50  H   LIG d   1       7.717   2.414  -8.012  0.00  0.00     0.066 H 
ATOM     51  H   LIG d   1       7.606   1.478  -9.523  0.00  0.00     0.066 H 
ENDBRANCH  47  48
ENDBRANCH  38  47
ENDBRANCH   4  37
BRANCH   1  52
ATOM     52  C   LIG d   1       1.711  -2.294 -11.507  0.00  0.00    -0.020 C 
ATOM     53  H   LIG d   1       2.079  -2.970 -12.280  0.00  0.00     0.032 H 
BRANCH  52  54
ATOM     54  C   LIG d   1       1.168  -3.111 -10.332  0.00  0.00    -0.060 C 
ATOM     55  H   LIG d   1       1.937  -3.196  -9.564  0.00  0.00     0.023 H 
ATOM     56  H   LIG d   1       0.292  -2.612  -9.917  0.00  0.00     0.023 H 
ATOM     57  H   LIG d   1       0.890  -4.106 -10.680  0.00  0.00     0.023 H 
ENDBRANCH  52  54
BRANCH  52  58
ATOM     58  C   LIG d   1       0.593  -1.423 -12.082  0.00  0.00    -0.060 C 
ATOM     59  H   LIG d   1       1.025  -0.551 -12.573  0.00  0.00     0.023 H 
ATOM     60  H   LIG d   1       0.018  -2.000 -12.806  0.00  0.00     0.023 H 
ATOM     61  H   LIG d   1      -0.064  -1.096 -11.275  0.00  0.00     0.023 H 
ENDBRANCH  52  58
ENDBRANCH   1  52
TORSDOF 11
ENDMDL
MODEL 8
REMARK VINA RESULT:      -5.6      4.009      6.858
REMARK  11 active torsions:
REMARK  status: ('A' for Active; 'I' for Inactive)
REMARK    1  A    between atoms: C_1  and  C_2 
REMARK    2  A    between atoms: C_2  and  C_3 
REMARK    3  A    between atoms: C_2  and  C_4 
REMARK    4  A    between atoms: C_7  and  C_11 
REMARK    5  A    between atoms: C_7  and  C_20 
REMARK    6  A    between atoms: C_11  and  C_12 
REMARK    7  A    between atoms: C_12  and  N_59 
REMARK    8  A    between atoms: C_13  and  C_14 
REMARK    9  A    between atoms: C_13  and  N_59 
REMARK   10  A    between atoms: C_25  and  O_26 
REMARK   11  A    between atoms: O_26  and  C_27 
ROOT
ATOM      1  C   LIG d   1      10.858   5.261  -2.601  0.00  0.00     0.062 C 
ATOM      2  H   LIG d   1      10.779   6.188  -3.170  0.00  0.00     0.060 H 
ATOM      3  C   LIG d   1       9.735   4.309  -3.020  0.00  0.00    -0.016 C 
ATOM      4  C   LIG d   1       9.899   3.960  -4.503  0.00  0.00     0.008 C 
ATOM      5  C   LIG d   1      11.288   3.354  -4.723  0.00  0.00    -0.019 C 
ATOM      6  C   LIG d   1      12.351   4.343  -4.238  0.00  0.00     0.049 C 
ATOM      7  O   LIG d   1      12.122   4.648  -2.861  0.00  0.00    -0.376 OA
ATOM      8  H   LIG d   1       8.770   4.791  -2.864  0.00  0.00     0.030 H 
ATOM      9  H   LIG d   1       9.788   3.398  -2.423  0.00  0.00     0.030 H 
ATOM     10  H   LIG d   1      11.373   2.423  -4.161  0.00  0.00     0.030 H 
ATOM     11  H   LIG d   1      11.434   3.152  -5.785  0.00  0.00     0.030 H 
ATOM     12  H   LIG d   1      13.340   3.899  -4.352  0.00  0.00     0.056 H 
ATOM     13  H   LIG d   1      12.292   5.257  -4.828  0.00  0.00     0.056 H 
ENDROOT
BRANCH   4  14
ATOM     14  C   LIG d   1       8.827   2.948  -4.914  0.00  0.00    -0.003 C 
ATOM     15  H   LIG d   1       7.949   3.070  -4.281  0.00  0.00     0.033 H 
ATOM     16  H   LIG d   1       8.551   3.116  -5.955  0.00  0.00     0.033 H 
BRANCH  14  17
ATOM     17  C   LIG d   1       9.378   1.530  -4.755  0.00  0.00    -0.033 C 
ATOM     18  H   LIG d   1       9.496   1.073  -5.737  0.00  0.00     0.081 H 
ATOM     19  H   LIG d   1      10.345   1.570  -4.253  0.00  0.00     0.081 H 
BRANCH  17  20
ATOM     20  N   LIG d   1       8.434   0.732  -3.947  0.00  0.00     0.230 N 
ATOM     21  H   LIG d   1       8.872   0.500  -3.048  0.00  0.00     0.202 HD
ATOM     22  H   LIG d   1       8.205  -0.133  -4.451  0.00  0.00     0.202 HD
BRANCH  20  23
ATOM     23  C   LIG d   1       7.197   1.497  -3.703  0.00  0.00    -0.008 C 
ATOM     24  H   LIG d   1       7.399   2.309  -3.007  0.00  0.00     0.087 H 
ATOM     25  H   LIG d   1       6.828   1.906  -4.643  0.00  0.00     0.087 H 
BRANCH  23  26
ATOM     26  C   LIG d   1       6.157   0.577  -3.115  0.00  0.00    -0.003 A 
ATOM     27  C   LIG d   1       5.093   1.101  -2.404  0.00  0.00    -0.053 A 
ATOM     28  C   LIG d   1       4.140   0.258  -1.865  0.00  0.00    -0.061 A 
ATOM     29  H   LIG d   1       5.007   2.169  -2.271  0.00  0.00     0.062 H 
ATOM     30  C   LIG d   1       4.251  -1.109  -2.035  0.00  0.00    -0.062 A 
ATOM     31  H   LIG d   1       3.309   0.668  -1.310  0.00  0.00     0.062 H 
ATOM     32  C   LIG d   1       5.315  -1.634  -2.744  0.00  0.00    -0.061 A 
ATOM     33  H   LIG d   1       3.505  -1.768  -1.614  0.00  0.00     0.062 H 
ATOM     34  C   LIG d   1       6.265  -0.790  -3.289  0.00  0.00    -0.053 A 
ATOM     35  H   LIG d   1       5.401  -2.701  -2.878  0.00  0.00     0.062 H 
ATOM     36  H   LIG d   1       7.094  -1.199  -3.848  0.00  0.00     0.062 H 
ENDBRANCH  23  26
ENDBRANCH  20  23
ENDBRANCH  17  20
ENDBRANCH  14  17
ENDBRANCH   4  14
BRANCH   4  37
ATOM     37  C   LIG d   1       9.757   5.209  -5.333  0.00  0.00     0.001 A 
ATOM     38  C   LIG d   1      10.048   5.178  -6.689  0.00  0.00     0.124 A 
ATOM     39  C   LIG d   1       9.921   6.332  -7.450  0.00  0.00    -0.020 A 
ATOM     40  C   LIG d   1       9.500   7.507  -6.857  0.00  0.00    -0.058 A 
ATOM     41  H   LIG d   1      10.152   6.311  -8.505  0.00  0.00     0.065 H 
ATOM     42  C   LIG d   1       9.205   7.533  -5.506  0.00  0.00    -0.061 A 
ATOM     43  H   LIG d   1       9.402   8.404  -7.449  0.00  0.00     0.062 H 
ATOM     44  C   LIG d   1       9.330   6.386  -4.746  0.00  0.00    -0.055 A 
ATOM     45  H   LIG d   1       8.876   8.453  -5.044  0.00  0.00     0.062 H 
ATOM     46  H   LIG d   1       9.099   6.408  -3.691  0.00  0.00     0.062 H 
BRANCH  38  47
ATOM     47  O   LIG d   1      10.461   4.022  -7.270  0.00  0.00    -0.495 OA
BRANCH  47  48
ATOM     48  C   LIG d   1       9.721   3.565  -8.404  0.00  0.00     0.079 C 
ATOM     49  H   LIG d   1       8.698   3.936  -8.344  0.00  0.00     0.066 H 
ATOM     50  H   LIG d   1      10.189   3.935  -9.316  0.00  0.00     0.066 H 
ATOM     51  H   LIG d   1       9.712   2.474  -8.416  0.00  0.00     0.066 H 
ENDBRANCH  47  48
ENDBRANCH  38  47
ENDBRANCH   4  37
BRANCH   1  52
ATOM     52  C   LIG d   1      10.736   5.566  -1.107  0.00  0.00    -0.020 C 
ATOM     53  H   LIG d   1      10.088   4.827  -0.636  0.00  0.00     0.032 H 
BRANCH  52  54
ATOM     54  C   LIG d   1      12.123   5.513  -0.461  0.00  0.00    -0.060 C 
ATOM     55  H   LIG d   1      12.016   5.400   0.618  0.00  0.00     0.023 H 
ATOM     56  H   LIG d   1      12.677   4.664  -0.863  0.00  0.00     0.023 H 
ATOM     57  H   LIG d   1      12.661   6.435  -0.679  0.00  0.00     0.023 H 
ENDBRANCH  52  54
BRANCH  52  58
ATOM     58  C   LIG d   1      10.140   6.962  -0.919  0.00  0.00    -0.060 C 
ATOM     59  H   LIG d   1      10.515   7.397   0.008  0.00  0.00     0.023 H 
ATOM     60  H   LIG d   1      10.424   7.595  -1.758  0.00  0.00     0.023 H 
ATOM     61  H   LIG d   1       9.053   6.890  -0.870  0.00  0.00     0.023 H 
ENDBRANCH  52  58
ENDBRANCH   1  52
TORSDOF 11
ENDMDL
MODEL 9
REMARK VINA RESULT:      -5.5      2.142      4.538
REMARK  11 active torsions:
REMARK  status: ('A' for Active; 'I' for Inactive)
REMARK    1  A    between atoms: C_1  and  C_2 
REMARK    2  A    between atoms: C_2  and  C_3 
REMARK    3  A    between atoms: C_2  and  C_4 
REMARK    4  A    between atoms: C_7  and  C_11 
REMARK    5  A    between atoms: C_7  and  C_20 
REMARK    6  A    between atoms: C_11  and  C_12 
REMARK    7  A    between atoms: C_12  and  N_59 
REMARK    8  A    between atoms: C_13  and  C_14 
REMARK    9  A    between atoms: C_13  and  N_59 
REMARK   10  A    between atoms: C_25  and  O_26 
REMARK   11  A    between atoms: O_26  and  C_27 
ROOT
ATOM      1  C   LIG d   1       6.820  -0.351  -7.372  0.00  0.00     0.062 C 
ATOM      2  H   LIG d   1       6.109   0.383  -7.751  0.00  0.00     0.060 H 
ATOM      3  C   LIG d   1       6.066  -1.451  -6.622  0.00  0.00    -0.016 C 
ATOM      4  C   LIG d   1       5.129  -2.172  -7.596  0.00  0.00     0.008 C 
ATOM      5  C   LIG d   1       5.952  -2.723  -8.765  0.00  0.00    -0.019 C 
ATOM      6  C   LIG d   1       6.711  -1.573  -9.432  0.00  0.00     0.049 C 
ATOM      7  O   LIG d   1       7.539  -0.926  -8.464  0.00  0.00    -0.376 OA
ATOM      8  H   LIG d   1       5.481  -1.009  -5.815  0.00  0.00     0.030 H 
ATOM      9  H   LIG d   1       6.779  -2.164  -6.207  0.00  0.00     0.030 H 
ATOM     10  H   LIG d   1       6.663  -3.462  -8.394  0.00  0.00     0.030 H 
ATOM     11  H   LIG d   1       5.286  -3.192  -9.491  0.00  0.00     0.030 H 
ATOM     12  H   LIG d   1       7.331  -1.966 -10.237  0.00  0.00     0.056 H 
ATOM     13  H   LIG d   1       5.998  -0.855  -9.838  0.00  0.00     0.056 H 
ENDROOT
BRANCH   4  14
ATOM     14  C   LIG d   1       4.427  -3.326  -6.876  0.00  0.00    -0.003 C 
ATOM     15  H   LIG d   1       3.359  -3.116  -6.809  0.00  0.00     0.033 H 
ATOM     16  H   LIG d   1       4.581  -4.249  -7.435  0.00  0.00     0.033 H 
BRANCH  14  17
ATOM     17  C   LIG d   1       5.006  -3.477  -5.469  0.00  0.00    -0.033 C 
ATOM     18  H   LIG d   1       5.299  -4.514  -5.306  0.00  0.00     0.081 H 
ATOM     19  H   LIG d   1       5.878  -2.831  -5.364  0.00  0.00     0.081 H 
BRANCH  17  20
ATOM     20  N   LIG d   1       3.982  -3.090  -4.480  0.00  0.00     0.230 N 
ATOM     21  H   LIG d   1       3.409  -3.910  -4.248  0.00  0.00     0.202 HD
ATOM     22  H   LIG d   1       3.385  -2.357  -4.880  0.00  0.00     0.202 HD
BRANCH  20  23
ATOM     23  C   LIG d   1       4.622  -2.581  -3.252  0.00  0.00    -0.008 C 
ATOM     24  H   LIG d   1       4.276  -3.154  -2.394  0.00  0.00     0.087 H 
ATOM     25  H   LIG d   1       5.704  -2.674  -3.339  0.00  0.00     0.087 H 
BRANCH  23  26
ATOM     26  C   LIG d   1       4.256  -1.130  -3.070  0.00  0.00    -0.003 A 
ATOM     27  C   LIG d   1       3.470  -0.492  -4.012  0.00  0.00    -0.053 A 
ATOM     28  C   LIG d   1       3.133   0.838  -3.844  0.00  0.00    -0.061 A 
ATOM     29  H   LIG d   1       3.118  -1.033  -4.877  0.00  0.00     0.062 H 
ATOM     30  C   LIG d   1       3.582   1.530  -2.735  0.00  0.00    -0.062 A 
ATOM     31  H   LIG d   1       2.518   1.336  -4.580  0.00  0.00     0.062 H 
ATOM     32  C   LIG d   1       4.369   0.893  -1.794  0.00  0.00    -0.061 A 
ATOM     33  H   LIG d   1       3.318   2.570  -2.604  0.00  0.00     0.062 H 
ATOM     34  C   LIG d   1       4.700  -0.439  -1.958  0.00  0.00    -0.053 A 
ATOM     35  H   LIG d   1       4.719   1.433  -0.928  0.00  0.00     0.062 H 
ATOM     36  H   LIG d   1       5.311  -0.939  -1.221  0.00  0.00     0.062 H 
ENDBRANCH  23  26
ENDBRANCH  20  23
ENDBRANCH  17  20
ENDBRANCH  14  17
ENDBRANCH   4  14
BRANCH   4  37
ATOM     37  C   LIG d   1       4.100  -1.203  -8.117  0.00  0.00     0.001 A 
ATOM     38  C   LIG d   1       3.181  -1.612  -9.072  0.00  0.00     0.124 A 
ATOM     39  C   LIG d   1       2.238  -0.715  -9.554  0.00  0.00    -0.020 A 
ATOM     40  C   LIG d   1       2.213   0.582  -9.077  0.00  0.00    -0.058 A 
ATOM     41  H   LIG d   1       1.525  -1.030 -10.301  0.00  0.00     0.065 H 
ATOM     42  C   LIG d   1       3.127   0.985  -8.120  0.00  0.00    -0.061 A 
ATOM     43  H   LIG d   1       1.480   1.279  -9.452  0.00  0.00     0.062 H 
ATOM     44  C   LIG d   1       4.067   0.094  -7.639  0.00  0.00    -0.055 A 
ATOM     45  H   LIG d   1       3.105   1.999  -7.749  0.00  0.00     0.062 H 
ATOM     46  H   LIG d   1       4.779   0.411  -6.892  0.00  0.00     0.062 H 
BRANCH  38  47
ATOM     47  O   LIG d   1       3.208  -2.888  -9.539  0.00  0.00    -0.495 OA
BRANCH  47  48
ATOM     48  C   LIG d   1       2.022  -3.371 -10.174  0.00  0.00     0.079 C 
ATOM     49  H   LIG d   1       1.160  -2.817  -9.804  0.00  0.00     0.066 H 
ATOM     50  H   LIG d   1       2.107  -3.234 -11.252  0.00  0.00     0.066 H 
ATOM     51  H   LIG d   1       1.897  -4.431  -9.951  0.00  0.00     0.066 H 
ENDBRANCH  47  48
ENDBRANCH  38  47
ENDBRANCH   4  37
BRANCH   1  52
ATOM     52  C   LIG d   1       7.801   0.335  -6.419  0.00  0.00    -0.020 C 
ATOM     53  H   LIG d   1       8.720  -0.250  -6.361  0.00  0.00     0.032 H 
BRANCH  52  54
ATOM     54  C   LIG d   1       8.123   1.738  -6.940  0.00  0.00    -0.060 C 
ATOM     55  H   LIG d   1       8.632   1.660  -7.901  0.00  0.00     0.023 H 
ATOM     56  H   LIG d   1       7.197   2.300  -7.063  0.00  0.00     0.023 H 
ATOM     57  H   LIG d   1       8.767   2.251  -6.227  0.00  0.00     0.023 H 
ENDBRANCH  52  54
BRANCH  52  58
ATOM     58  C   LIG d   1       7.174   0.439  -5.028  0.00  0.00    -0.060 C 
ATOM     59  H   LIG d   1       6.160   0.832  -5.114  0.00  0.00     0.023 H 
ATOM     60  H   LIG d   1       7.143  -0.548  -4.568  0.00  0.00     0.023 H 
ATOM     61  H   LIG d   1       7.770   1.110  -4.409  0.00  0.00     0.023 H 
ENDBRANCH  52  58
ENDBRANCH   1  52
TORSDOF 11
ENDMDL
MODEL 10
REMARK VINA RESULT:      -5.5      2.402      4.828
REMARK  11 active torsions:
REMARK  status: ('A' for Active; 'I' for Inactive)
REMARK    1  A    between atoms: C_1  and  C_2 
REMARK    2  A    between atoms: C_2  and  C_3 
REMARK    3  A    between atoms: C_2  and  C_4 
REMARK    4  A    between atoms: C_7  and  C_11 
REMARK    5  A    between atoms: C_7  and  C_20 
REMARK    6  A    between atoms: C_11  and  C_12 
REMARK    7  A    between atoms: C_12  and  N_59 
REMARK    8  A    between atoms: C_13  and  C_14 
REMARK    9  A    between atoms: C_13  and  N_59 
REMARK   10  A    between atoms: C_25  and  O_26 
REMARK   11  A    between atoms: O_26  and  C_27 
ROOT
ATOM      1  C   LIG d   1       4.088  -0.996  -4.242  0.00  0.00     0.062 C 
ATOM      2  H   LIG d   1       5.067  -0.655  -3.906  0.00  0.00     0.060 H 
ATOM      3  C   LIG d   1       4.049  -1.006  -5.772  0.00  0.00    -0.016 C 
ATOM      4  C   LIG d   1       5.092  -1.998  -6.295  0.00  0.00     0.008 C 
ATOM      5  C   LIG d   1       4.810  -3.380  -5.697  0.00  0.00    -0.019 C 
ATOM      6  C   LIG d   1       4.820  -3.278  -4.170  0.00  0.00     0.049 C 
ATOM      7  O   LIG d   1       3.849  -2.316  -3.752  0.00  0.00    -0.376 OA
ATOM      8  H   LIG d   1       4.274  -0.008  -6.150  0.00  0.00     0.030 H 
ATOM      9  H   LIG d   1       3.057  -1.308  -6.109  0.00  0.00     0.030 H 
ATOM     10  H   LIG d   1       3.834  -3.731  -6.033  0.00  0.00     0.030 H 
ATOM     11  H   LIG d   1       5.580  -4.081  -6.022  0.00  0.00     0.030 H 
ATOM     12  H   LIG d   1       4.578  -4.250  -3.739  0.00  0.00     0.056 H 
ATOM     13  H   LIG d   1       5.809  -2.967  -3.833  0.00  0.00     0.056 H 
ENDROOT
BRANCH   4  14
ATOM     14  C   LIG d   1       5.009  -2.075  -7.822  0.00  0.00    -0.003 C 
ATOM     15  H   LIG d   1       4.908  -1.069  -8.231  0.00  0.00     0.033 H 
ATOM     16  H   LIG d   1       5.916  -2.537  -8.211  0.00  0.00     0.033 H 
BRANCH  14  17
ATOM     17  C   LIG d   1       3.795  -2.914  -8.225  0.00  0.00    -0.033 C 
ATOM     18  H   LIG d   1       4.063  -3.970  -8.213  0.00  0.00     0.081 H 
ATOM     19  H   LIG d   1       2.982  -2.737  -7.521  0.00  0.00     0.081 H 
BRANCH  17  20
ATOM     20  N   LIG d   1       3.368  -2.525  -9.583  0.00  0.00     0.230 N 
ATOM     21  H   LIG d   1       3.094  -3.367 -10.105  0.00  0.00     0.202 HD
ATOM     22  H   LIG d   1       4.149  -2.064 -10.064  0.00  0.00     0.202 HD
BRANCH  20  23
ATOM     23  C   LIG d   1       2.222  -1.600  -9.514  0.00  0.00    -0.008 C 
ATOM     24  H   LIG d   1       1.545  -1.792 -10.346  0.00  0.00     0.087 H 
ATOM     25  H   LIG d   1       1.692  -1.744  -8.573  0.00  0.00     0.087 H 
BRANCH  23  26
ATOM     26  C   LIG d   1       2.727  -0.182  -9.595  0.00  0.00    -0.003 A 
ATOM     27  C   LIG d   1       2.499   0.694  -8.550  0.00  0.00    -0.053 A 
ATOM     28  C   LIG d   1       2.963   1.994  -8.624  0.00  0.00    -0.061 A 
ATOM     29  H   LIG d   1       1.959   0.363  -7.676  0.00  0.00     0.062 H 
ATOM     30  C   LIG d   1       3.656   2.418  -9.743  0.00  0.00    -0.062 A 
ATOM     31  H   LIG d   1       2.785   2.678  -7.807  0.00  0.00     0.062 H 
ATOM     32  C   LIG d   1       3.883   1.543 -10.788  0.00  0.00    -0.061 A 
ATOM     33  H   LIG d   1       4.019   3.434  -9.800  0.00  0.00     0.062 H 
ATOM     34  C   LIG d   1       3.425   0.241 -10.712  0.00  0.00    -0.053 A 
ATOM     35  H   LIG d   1       4.424   1.873 -11.662  0.00  0.00     0.062 H 
ATOM     36  H   LIG d   1       3.606  -0.445 -11.526  0.00  0.00     0.062 H 
ENDBRANCH  23  26
ENDBRANCH  20  23
ENDBRANCH  17  20
ENDBRANCH  14  17
ENDBRANCH   4  14
BRANCH   4  37
ATOM     37  C   LIG d   1       6.469  -1.544  -5.888  0.00  0.00     0.001 A 
ATOM     38  C   LIG d   1       6.907  -0.270  -6.222  0.00  0.00     0.124 A 
ATOM     39  C   LIG d   1       8.179   0.144  -5.849  0.00  0.00    -0.020 A 
ATOM     40  C   LIG d   1       9.003  -0.712  -5.143  0.00  0.00    -0.058 A 
ATOM     41  H   LIG d   1       8.523   1.133  -6.112  0.00  0.00     0.065 H 
ATOM     42  C   LIG d   1       8.561  -1.978  -4.807  0.00  0.00    -0.061 A 
ATOM     43  H   LIG d   1       9.992  -0.390  -4.854  0.00  0.00     0.062 H 
ATOM     44  C   LIG d   1       7.296  -2.393  -5.176  0.00  0.00    -0.055 A 
ATOM     45  H   LIG d   1       9.207  -2.645  -4.255  0.00  0.00     0.062 H 
ATOM     46  H   LIG d   1       6.953  -3.382  -4.913  0.00  0.00     0.062 H 
BRANCH  38  47
ATOM     47  O   LIG d   1       6.094   0.569  -6.915  0.00  0.00    -0.495 OA
BRANCH  47  48
ATOM     48  C   LIG d   1       6.646   1.194  -8.076  0.00  0.00     0.079 C 
ATOM     49  H   LIG d   1       6.348   0.638  -8.965  0.00  0.00     0.066 H 
ATOM     50  H   LIG d   1       6.278   2.217  -8.147  0.00  0.00     0.066 H 
ATOM     51  H   LIG d   1       7.734   1.204  -8.000  0.00  0.00     0.066 H 
ENDBRANCH  47  48
ENDBRANCH  38  47
ENDBRANCH   4  37
BRANCH   1  52
ATOM     52  C   LIG d   1       3.008  -0.051  -3.711  0.00  0.00    -0.020 C 
ATOM     53  H   LIG d   1       2.210  -0.634  -3.251  0.00  0.00     0.032 H 
BRANCH  52  54
ATOM     54  C   LIG d   1       3.620   0.887  -2.668  0.00  0.00    -0.060 C 
ATOM     55  H   LIG d   1       3.646   0.386  -1.700  0.00  0.00     0.023 H 
ATOM     56  H   LIG d   1       4.634   1.152  -2.968  0.00  0.00     0.023 H 
ATOM     57  H   LIG d   1       3.015   1.791  -2.593  0.00  0.00     0.023 H 
ENDBRANCH  52  54
BRANCH  52  58
ATOM     58  C   LIG d   1       2.438   0.774  -4.866  0.00  0.00    -0.060 C 
ATOM     59  H   LIG d   1       1.612   1.386  -4.504  0.00  0.00     0.023 H 
ATOM     60  H   LIG d   1       3.217   1.419  -5.271  0.00  0.00     0.023 H 
ATOM     61  H   LIG d   1       2.078   0.104  -5.648  0.00  0.00     0.023 H 
ENDBRANCH  52  58
ENDBRANCH   1  52
TORSDOF 11
ENDMDL
