MODEL 1
REMARK VINA RESULT:      -6.0      0.000      0.000
REMARK  6 active torsions:
REMARK  status: ('A' for Active; 'I' for Inactive)
REMARK    1  A    between atoms: C_1  and  C_2 
REMARK    2  A    between atoms: C_2  and  C_4 
REMARK    3  A    between atoms: C_2  and  N_6 
REMARK    4  A    between atoms: N_6  and  O_7 
REMARK    5  A    between atoms: O_7  and  C_8 
REMARK    6  A    between atoms: C_8  and  C_9 
ROOT
ATOM      1  C   LIG d   1       2.146   0.424  -4.876  0.00  0.00     0.094 C 
ATOM      2  H   LIG d   1       1.332   1.066  -4.537  0.00  0.00     0.063 H 
ATOM      3  H   LIG d   1       1.734  -0.476  -5.332  0.00  0.00     0.063 H 
ENDROOT
BRANCH   1   4
ATOM      4  O   LIG d   1       2.938   1.125  -5.838  0.00  0.00    -0.294 OA
BRANCH   4   5
ATOM      5  N   LIG d   1       3.868   0.273  -6.577  0.00  0.00    -0.193 NA
ATOM      6  H   LIG d   1       4.823   0.466  -6.315  0.00  0.00     0.154 HD
BRANCH   5   7
ATOM      7  C   LIG d   1       3.680   0.422  -8.027  0.00  0.00     0.069 C 
ATOM      8  H   LIG d   1       4.652   0.446  -8.519  0.00  0.00     0.054 H 
BRANCH   7   9
ATOM      9  C   LIG d   1       2.930   1.724  -8.313  0.00  0.00    -0.042 C 
ATOM     10  H   LIG d   1       3.644   2.546  -8.385  0.00  0.00     0.025 H 
ATOM     11  H   LIG d   1       2.387   1.633  -9.253  0.00  0.00     0.025 H 
ATOM     12  H   LIG d   1       2.227   1.924  -7.504  0.00  0.00     0.025 H 
ENDBRANCH   7   9
BRANCH   7  13
ATOM     13  C   LIG d   1       2.881  -0.743  -8.552  0.00  0.00     0.061 C 
ATOM     14  O   LIG d   1       3.265  -1.873  -8.362  0.00  0.00    -0.548 OA
ATOM     15  O   LIG d   1       1.739  -0.526  -9.223  0.00  0.00    -0.548 OA
ENDBRANCH   7  13
ENDBRANCH   5   7
ENDBRANCH   4   5
ENDBRANCH   1   4
BRANCH   1  16
ATOM     16  C   LIG d   1       3.007   0.041  -3.699  0.00  0.00    -0.020 A 
ATOM     17  C   LIG d   1       3.183  -1.292  -3.377  0.00  0.00    -0.056 A 
ATOM     18  C   LIG d   1       3.973  -1.642  -2.298  0.00  0.00    -0.061 A 
ATOM     19  H   LIG d   1       2.705  -2.059  -3.968  0.00  0.00     0.062 H 
ATOM     20  C   LIG d   1       4.586  -0.661  -1.541  0.00  0.00    -0.062 A 
ATOM     21  H   LIG d   1       4.111  -2.685  -2.046  0.00  0.00     0.062 H 
ATOM     22  C   LIG d   1       4.408   0.671  -1.863  0.00  0.00    -0.061 A 
ATOM     23  H   LIG d   1       5.202  -0.936  -0.698  0.00  0.00     0.062 H 
ATOM     24  C   LIG d   1       3.623   1.023  -2.946  0.00  0.00    -0.056 A 
ATOM     25  H   LIG d   1       4.886   1.438  -1.272  0.00  0.00     0.062 H 
ATOM     26  H   LIG d   1       3.488   2.063  -3.200  0.00  0.00     0.062 H 
ENDBRANCH   1  16
TORSDOF 6
ENDMDL
MODEL 2
REMARK VINA RESULT:      -6.0      1.488      1.828
REMARK  6 active torsions:
REMARK  status: ('A' for Active; 'I' for Inactive)
REMARK    1  A    between atoms: C_1  and  C_2 
REMARK    2  A    between atoms: C_2  and  C_4 
REMARK    3  A    between atoms: C_2  and  N_6 
REMARK    4  A    between atoms: N_6  and  O_7 
REMARK    5  A    between atoms: O_7  and  C_8 
REMARK    6  A    between atoms: C_8  and  C_9 
ROOT
ATOM      1  C   LIG d   1       2.334   0.645  -4.958  0.00  0.00     0.094 C 
ATOM      2  H   LIG d   1       2.037   1.683  -4.800  0.00  0.00     0.063 H 
ATOM      3  H   LIG d   1       1.446   0.028  -5.089  0.00  0.00     0.063 H 
ENDROOT
BRANCH   1   4
ATOM      4  O   LIG d   1       3.152   0.557  -6.127  0.00  0.00    -0.294 OA
BRANCH   4   5
ATOM      5  N   LIG d   1       2.903   1.612  -7.109  0.00  0.00    -0.193 NA
ATOM      6  H   LIG d   1       2.057   2.117  -6.891  0.00  0.00     0.154 HD
BRANCH   5   7
ATOM      7  C   LIG d   1       2.854   1.063  -8.471  0.00  0.00     0.069 C 
ATOM      8  H   LIG d   1       1.914   1.349  -8.944  0.00  0.00     0.054 H 
BRANCH   7   9
ATOM      9  C   LIG d   1       2.952  -0.462  -8.409  0.00  0.00    -0.042 C 
ATOM     10  H   LIG d   1       1.970  -0.881  -8.187  0.00  0.00     0.025 H 
ATOM     11  H   LIG d   1       3.299  -0.843  -9.370  0.00  0.00     0.025 H 
ATOM     12  H   LIG d   1       3.655  -0.750  -7.628  0.00  0.00     0.025 H 
ENDBRANCH   7   9
BRANCH   7  13
ATOM     13  C   LIG d   1       4.006   1.609  -9.274  0.00  0.00     0.061 C 
ATOM     14  O   LIG d   1       4.990   2.027  -8.712  0.00  0.00    -0.548 OA
ATOM     15  O   LIG d   1       3.941   1.624 -10.615  0.00  0.00    -0.548 OA
ENDBRANCH   7  13
ENDBRANCH   5   7
ENDBRANCH   4   5
ENDBRANCH   1   4
BRANCH   1  16
ATOM     16  C   LIG d   1       3.112   0.159  -3.762  0.00  0.00    -0.020 A 
ATOM     17  C   LIG d   1       3.200  -1.196  -3.499  0.00  0.00    -0.056 A 
ATOM     18  C   LIG d   1       3.913  -1.642  -2.404  0.00  0.00    -0.061 A 
ATOM     19  H   LIG d   1       2.712  -1.905  -4.152  0.00  0.00     0.062 H 
ATOM     20  C   LIG d   1       4.539  -0.735  -1.569  0.00  0.00    -0.062 A 
ATOM     21  H   LIG d   1       3.982  -2.701  -2.198  0.00  0.00     0.062 H 
ATOM     22  C   LIG d   1       4.450   0.620  -1.831  0.00  0.00    -0.061 A 
ATOM     23  H   LIG d   1       5.095  -1.084  -0.712  0.00  0.00     0.062 H 
ATOM     24  C   LIG d   1       3.742   1.066  -2.931  0.00  0.00    -0.056 A 
ATOM     25  H   LIG d   1       4.938   1.329  -1.179  0.00  0.00     0.062 H 
ATOM     26  H   LIG d   1       3.676   2.124  -3.138  0.00  0.00     0.062 H 
ENDBRANCH   1  16
TORSDOF 6
ENDMDL
MODEL 3
REMARK VINA RESULT:      -5.9      0.684      1.664
REMARK  6 active torsions:
REMARK  status: ('A' for Active; 'I' for Inactive)
REMARK    1  A    between atoms: C_1  and  C_2 
REMARK    2  A    between atoms: C_2  and  C_4 
REMARK    3  A    between atoms: C_2  and  N_6 
REMARK    4  A    between atoms: N_6  and  O_7 
REMARK    5  A    between atoms: O_7  and  C_8 
REMARK    6  A    between atoms: C_8  and  C_9 
ROOT
ATOM      1  C   LIG d   1       2.311   0.741  -4.838  0.00  0.00     0.094 C 
ATOM      2  H   LIG d   1       2.044   1.778  -4.634  0.00  0.00     0.063 H 
ATOM      3  H   LIG d   1       1.405   0.151  -4.971  0.00  0.00     0.063 H 
ENDROOT
BRANCH   1   4
ATOM      4  O   LIG d   1       3.100   0.678  -6.028  0.00  0.00    -0.294 OA
BRANCH   4   5
ATOM      5  N   LIG d   1       2.725  -0.409  -6.932  0.00  0.00    -0.193 NA
ATOM      6  H   LIG d   1       3.150  -1.279  -6.648  0.00  0.00     0.154 HD
BRANCH   5   7
ATOM      7  C   LIG d   1       3.074  -0.082  -8.322  0.00  0.00     0.069 C 
ATOM      8  H   LIG d   1       4.130  -0.294  -8.492  0.00  0.00     0.054 H 
BRANCH   7   9
ATOM      9  C   LIG d   1       2.804   1.402  -8.579  0.00  0.00    -0.042 C 
ATOM     10  H   LIG d   1       3.051   1.977  -7.686  0.00  0.00     0.025 H 
ATOM     11  H   LIG d   1       3.417   1.744  -9.412  0.00  0.00     0.025 H 
ATOM     12  H   LIG d   1       1.750   1.543  -8.822  0.00  0.00     0.025 H 
ENDBRANCH   7   9
BRANCH   7  13
ATOM     13  C   LIG d   1       2.237  -0.915  -9.259  0.00  0.00     0.061 C 
ATOM     14  O   LIG d   1       1.345  -0.400  -9.891  0.00  0.00    -0.548 OA
ATOM     15  O   LIG d   1       2.488  -2.226  -9.396  0.00  0.00    -0.548 OA
ENDBRANCH   7  13
ENDBRANCH   5   7
ENDBRANCH   4   5
ENDBRANCH   1   4
BRANCH   1  16
ATOM     16  C   LIG d   1       3.104   0.189  -3.680  0.00  0.00    -0.020 A 
ATOM     17  C   LIG d   1       3.794   1.047  -2.844  0.00  0.00    -0.056 A 
ATOM     18  C   LIG d   1       4.520   0.541  -1.782  0.00  0.00    -0.061 A 
ATOM     19  H   LIG d   1       3.764   2.113  -3.019  0.00  0.00     0.062 H 
ATOM     20  C   LIG d   1       4.557  -0.822  -1.557  0.00  0.00    -0.062 A 
ATOM     21  H   LIG d   1       5.059   1.212  -1.128  0.00  0.00     0.062 H 
ATOM     22  C   LIG d   1       3.868  -1.680  -2.394  0.00  0.00    -0.061 A 
ATOM     23  H   LIG d   1       5.125  -1.217  -0.728  0.00  0.00     0.062 H 
ATOM     24  C   LIG d   1       3.136  -1.174  -3.452  0.00  0.00    -0.056 A 
ATOM     25  H   LIG d   1       3.897  -2.744  -2.219  0.00  0.00     0.062 H 
ATOM     26  H   LIG d   1       2.595  -1.844  -4.104  0.00  0.00     0.062 H 
ENDBRANCH   1  16
TORSDOF 6
ENDMDL
MODEL 4
REMARK VINA RESULT:      -5.4      2.206      6.206
REMARK  6 active torsions:
REMARK  status: ('A' for Active; 'I' for Inactive)
REMARK    1  A    between atoms: C_1  and  C_2 
REMARK    2  A    between atoms: C_2  and  C_4 
REMARK    3  A    between atoms: C_2  and  N_6 
REMARK    4  A    between atoms: N_6  and  O_7 
REMARK    5  A    between atoms: O_7  and  C_8 
REMARK    6  A    between atoms: C_8  and  C_9 
ROOT
ATOM      1  C   LIG d   1       2.695   0.312  -6.736  0.00  0.00     0.094 C 
ATOM      2  H   LIG d   1       2.277  -0.695  -6.750  0.00  0.00     0.063 H 
ATOM      3  H   LIG d   1       1.948   1.011  -6.360  0.00  0.00     0.063 H 
ENDROOT
BRANCH   1   4
ATOM      4  O   LIG d   1       3.844   0.339  -5.886  0.00  0.00    -0.294 OA
BRANCH   4   5
ATOM      5  N   LIG d   1       3.578   0.852  -4.543  0.00  0.00    -0.193 NA
ATOM      6  H   LIG d   1       3.818   1.830  -4.474  0.00  0.00     0.154 HD
BRANCH   5   7
ATOM      7  C   LIG d   1       4.288   0.063  -3.527  0.00  0.00     0.069 C 
ATOM      8  H   LIG d   1       4.957  -0.644  -4.019  0.00  0.00     0.054 H 
BRANCH   7   9
ATOM      9  C   LIG d   1       3.274  -0.703  -2.676  0.00  0.00    -0.042 C 
ATOM     10  H   LIG d   1       3.670  -0.836  -1.668  0.00  0.00     0.025 H 
ATOM     11  H   LIG d   1       2.341  -0.141  -2.627  0.00  0.00     0.025 H 
ATOM     12  H   LIG d   1       3.087  -1.680  -3.123  0.00  0.00     0.025 H 
ENDBRANCH   7   9
BRANCH   7  13
ATOM     13  C   LIG d   1       5.090   0.984  -2.645  0.00  0.00     0.061 C 
ATOM     14  O   LIG d   1       4.797   1.113  -1.480  0.00  0.00    -0.548 OA
ATOM     15  O   LIG d   1       6.135   1.657  -3.152  0.00  0.00    -0.548 OA
ENDBRANCH   7  13
ENDBRANCH   5   7
ENDBRANCH   4   5
ENDBRANCH   1   4
BRANCH   1  16
ATOM     16  C   LIG d   1       3.094   0.709  -8.134  0.00  0.00    -0.020 A 
ATOM     17  C   LIG d   1       3.380  -0.263  -9.074  0.00  0.00    -0.056 A 
ATOM     18  C   LIG d   1       3.746   0.101 -10.356  0.00  0.00    -0.061 A 
ATOM     19  H   LIG d   1       3.317  -1.308  -8.807  0.00  0.00     0.062 H 
ATOM     20  C   LIG d   1       3.826   1.438 -10.698  0.00  0.00    -0.062 A 
ATOM     21  H   LIG d   1       3.969  -0.659 -11.091  0.00  0.00     0.062 H 
ATOM     22  C   LIG d   1       3.541   2.411  -9.758  0.00  0.00    -0.061 A 
ATOM     23  H   LIG d   1       4.113   1.723 -11.699  0.00  0.00     0.062 H 
ATOM     24  C   LIG d   1       3.169   2.046  -8.477  0.00  0.00    -0.056 A 
ATOM     25  H   LIG d   1       3.605   3.455 -10.025  0.00  0.00     0.062 H 
ATOM     26  H   LIG d   1       2.942   2.806  -7.744  0.00  0.00     0.062 H 
ENDBRANCH   1  16
TORSDOF 6
ENDMDL
MODEL 5
REMARK VINA RESULT:      -5.4      2.295      5.758
REMARK  6 active torsions:
REMARK  status: ('A' for Active; 'I' for Inactive)
REMARK    1  A    between atoms: C_1  and  C_2 
REMARK    2  A    between atoms: C_2  and  C_4 
REMARK    3  A    between atoms: C_2  and  N_6 
REMARK    4  A    between atoms: N_6  and  O_7 
REMARK    5  A    between atoms: O_7  and  C_8 
REMARK    6  A    between atoms: C_8  and  C_9 
ROOT
ATOM      1  C   LIG d   1       4.126  -0.548  -6.499  0.00  0.00     0.094 C 
ATOM      2  H   LIG d   1       5.135  -0.960  -6.463  0.00  0.00     0.063 H 
ATOM      3  H   LIG d   1       3.414  -1.346  -6.708  0.00  0.00     0.063 H 
ENDROOT
BRANCH   1   4
ATOM      4  O   LIG d   1       3.812   0.054  -5.241  0.00  0.00    -0.294 OA
BRANCH   4   5
ATOM      5  N   LIG d   1       2.680  -0.564  -4.552  0.00  0.00    -0.193 NA
ATOM      6  H   LIG d   1       1.811  -0.124  -4.816  0.00  0.00     0.154 HD
BRANCH   5   7
ATOM      7  C   LIG d   1       2.867  -0.530  -3.095  0.00  0.00     0.069 C 
ATOM      8  H   LIG d   1       1.904  -0.661  -2.602  0.00  0.00     0.054 H 
BRANCH   7   9
ATOM      9  C   LIG d   1       3.469   0.817  -2.690  0.00  0.00    -0.042 C 
ATOM     10  H   LIG d   1       3.457   1.493  -3.546  0.00  0.00     0.025 H 
ATOM     11  H   LIG d   1       2.882   1.248  -1.879  0.00  0.00     0.025 H 
ATOM     12  H   LIG d   1       4.497   0.671  -2.357  0.00  0.00     0.025 H 
ENDBRANCH   7   9
BRANCH   7  13
ATOM     13  C   LIG d   1       3.798  -1.641  -2.682  0.00  0.00     0.061 C 
ATOM     14  O   LIG d   1       4.428  -1.551  -1.655  0.00  0.00    -0.548 OA
ATOM     15  O   LIG d   1       3.923  -2.733  -3.453  0.00  0.00    -0.548 OA
ENDBRANCH   7  13
ENDBRANCH   5   7
ENDBRANCH   4   5
ENDBRANCH   1   4
BRANCH   1  16
ATOM     16  C   LIG d   1       4.047   0.492  -7.587  0.00  0.00    -0.020 A 
ATOM     17  C   LIG d   1       5.175   0.815  -8.318  0.00  0.00    -0.056 A 
ATOM     18  C   LIG d   1       5.102   1.768  -9.316  0.00  0.00    -0.061 A 
ATOM     19  H   LIG d   1       6.113   0.322  -8.110  0.00  0.00     0.062 H 
ATOM     20  C   LIG d   1       3.902   2.400  -9.583  0.00  0.00    -0.062 A 
ATOM     21  H   LIG d   1       5.985   2.021  -9.887  0.00  0.00     0.062 H 
ATOM     22  C   LIG d   1       2.774   2.078  -8.851  0.00  0.00    -0.061 A 
ATOM     23  H   LIG d   1       3.846   3.146 -10.362  0.00  0.00     0.062 H 
ATOM     24  C   LIG d   1       2.845   1.120  -7.857  0.00  0.00    -0.056 A 
ATOM     25  H   LIG d   1       1.837   2.571  -9.059  0.00  0.00     0.062 H 
ATOM     26  H   LIG d   1       1.963   0.865  -7.289  0.00  0.00     0.062 H 
ENDBRANCH   1  16
TORSDOF 6
ENDMDL
MODEL 6
REMARK VINA RESULT:      -5.0      1.880      5.705
REMARK  6 active torsions:
REMARK  status: ('A' for Active; 'I' for Inactive)
REMARK    1  A    between atoms: C_1  and  C_2 
REMARK    2  A    between atoms: C_2  and  C_4 
REMARK    3  A    between atoms: C_2  and  N_6 
REMARK    4  A    between atoms: N_6  and  O_7 
REMARK    5  A    between atoms: O_7  and  C_8 
REMARK    6  A    between atoms: C_8  and  C_9 
ROOT
ATOM      1  C   LIG d   1       3.975  -1.245  -7.621  0.00  0.00     0.094 C 
ATOM      2  H   LIG d   1       4.624  -1.935  -8.160  0.00  0.00     0.063 H 
ATOM      3  H   LIG d   1       2.999  -1.706  -7.470  0.00  0.00     0.063 H 
ENDROOT
BRANCH   1   4
ATOM      4  O   LIG d   1       4.557  -0.937  -6.352  0.00  0.00    -0.294 OA
BRANCH   4   5
ATOM      5  N   LIG d   1       3.941  -1.642  -5.228  0.00  0.00    -0.193 NA
ATOM      6  H   LIG d   1       2.992  -1.909  -5.444  0.00  0.00     0.154 HD
BRANCH   5   7
ATOM      7  C   LIG d   1       3.995  -0.830  -4.004  0.00  0.00     0.069 C 
ATOM      8  H   LIG d   1       5.018  -0.492  -3.837  0.00  0.00     0.054 H 
BRANCH   7   9
ATOM      9  C   LIG d   1       3.534  -1.672  -2.813  0.00  0.00    -0.042 C 
ATOM     10  H   LIG d   1       3.909  -1.231  -1.889  0.00  0.00     0.025 H 
ATOM     11  H   LIG d   1       2.445  -1.699  -2.787  0.00  0.00     0.025 H 
ATOM     12  H   LIG d   1       3.920  -2.687  -2.914  0.00  0.00     0.025 H 
ENDBRANCH   7   9
BRANCH   7  13
ATOM     13  C   LIG d   1       3.090   0.366  -4.155  0.00  0.00     0.061 C 
ATOM     14  O   LIG d   1       3.455   1.452  -3.773  0.00  0.00    -0.548 OA
ATOM     15  O   LIG d   1       1.880   0.224  -4.719  0.00  0.00    -0.548 OA
ENDBRANCH   7  13
ENDBRANCH   5   7
ENDBRANCH   4   5
ENDBRANCH   1   4
BRANCH   1  16
ATOM     16  C   LIG d   1       3.813   0.022  -8.421  0.00  0.00    -0.020 A 
ATOM     17  C   LIG d   1       4.388   0.126  -9.674  0.00  0.00    -0.056 A 
ATOM     18  C   LIG d   1       4.239   1.287 -10.408  0.00  0.00    -0.061 A 
ATOM     19  H   LIG d   1       4.951  -0.701 -10.080  0.00  0.00     0.062 H 
ATOM     20  C   LIG d   1       3.517   2.346  -9.889  0.00  0.00    -0.062 A 
ATOM     21  H   LIG d   1       4.688   1.368 -11.388  0.00  0.00     0.062 H 
ATOM     22  C   LIG d   1       2.943   2.242  -8.635  0.00  0.00    -0.061 A 
ATOM     23  H   LIG d   1       3.401   3.253 -10.462  0.00  0.00     0.062 H 
ATOM     24  C   LIG d   1       3.086   1.078  -7.904  0.00  0.00    -0.056 A 
ATOM     25  H   LIG d   1       2.379   3.068  -8.230  0.00  0.00     0.062 H 
ATOM     26  H   LIG d   1       2.635   0.996  -6.926  0.00  0.00     0.062 H 
ENDBRANCH   1  16
TORSDOF 6
ENDMDL
MODEL 7
REMARK VINA RESULT:      -4.9      3.122      4.105
REMARK  6 active torsions:
REMARK  status: ('A' for Active; 'I' for Inactive)
REMARK    1  A    between atoms: C_1  and  C_2 
REMARK    2  A    between atoms: C_2  and  C_4 
REMARK    3  A    between atoms: C_2  and  N_6 
REMARK    4  A    between atoms: N_6  and  O_7 
REMARK    5  A    between atoms: O_7  and  C_8 
REMARK    6  A    between atoms: C_8  and  C_9 
ROOT
ATOM      1  C   LIG d   1       3.996  -0.520  -5.827  0.00  0.00     0.094 C 
ATOM      2  H   LIG d   1       4.365   0.216  -6.542  0.00  0.00     0.063 H 
ATOM      3  H   LIG d   1       2.931  -0.684  -5.990  0.00  0.00     0.063 H 
ENDROOT
BRANCH   1   4
ATOM      4  O   LIG d   1       4.699  -1.752  -6.005  0.00  0.00    -0.294 OA
BRANCH   4   5
ATOM      5  N   LIG d   1       4.065  -2.898  -5.355  0.00  0.00    -0.193 NA
ATOM      6  H   LIG d   1       3.401  -2.597  -4.658  0.00  0.00     0.154 HD
BRANCH   5   7
ATOM      7  C   LIG d   1       5.072  -3.796  -4.771  0.00  0.00     0.069 C 
ATOM      8  H   LIG d   1       4.878  -3.914  -3.705  0.00  0.00     0.054 H 
BRANCH   7   9
ATOM      9  C   LIG d   1       6.466  -3.198  -4.973  0.00  0.00    -0.042 C 
ATOM     10  H   LIG d   1       6.742  -3.267  -6.026  0.00  0.00     0.025 H 
ATOM     11  H   LIG d   1       6.461  -2.152  -4.667  0.00  0.00     0.025 H 
ATOM     12  H   LIG d   1       7.188  -3.750  -4.371  0.00  0.00     0.025 H 
ENDBRANCH   7   9
BRANCH   7  13
ATOM     13  C   LIG d   1       4.998  -5.140  -5.448  0.00  0.00     0.061 C 
ATOM     14  O   LIG d   1       5.849  -5.464  -6.242  0.00  0.00    -0.548 OA
ATOM     15  O   LIG d   1       3.991  -5.981  -5.162  0.00  0.00    -0.548 OA
ENDBRANCH   7  13
ENDBRANCH   5   7
ENDBRANCH   4   5
ENDBRANCH   1   4
BRANCH   1  16
ATOM     16  C   LIG d   1       4.216  -0.014  -4.425  0.00  0.00    -0.020 A 
ATOM     17  C   LIG d   1       3.133   0.256  -3.609  0.00  0.00    -0.056 A 
ATOM     18  C   LIG d   1       3.335   0.720  -2.323  0.00  0.00    -0.061 A 
ATOM     19  H   LIG d   1       2.129   0.103  -3.976  0.00  0.00     0.062 H 
ATOM     20  C   LIG d   1       4.620   0.916  -1.852  0.00  0.00    -0.062 A 
ATOM     21  H   LIG d   1       2.488   0.931  -1.685  0.00  0.00     0.062 H 
ATOM     22  C   LIG d   1       5.703   0.647  -2.669  0.00  0.00    -0.061 A 
ATOM     23  H   LIG d   1       4.778   1.279  -0.848  0.00  0.00     0.062 H 
ATOM     24  C   LIG d   1       5.502   0.177  -3.953  0.00  0.00    -0.056 A 
ATOM     25  H   LIG d   1       6.707   0.800  -2.302  0.00  0.00     0.062 H 
ATOM     26  H   LIG d   1       6.348  -0.037  -4.589  0.00  0.00     0.062 H 
ENDBRANCH   1  16
TORSDOF 6
ENDMDL
MODEL 8
REMARK VINA RESULT:      -4.9      2.118      2.821
REMARK  6 active torsions:
REMARK  status: ('A' for Active; 'I' for Inactive)
REMARK    1  A    between atoms: C_1  and  C_2 
REMARK    2  A    between atoms: C_2  and  C_4 
REMARK    3  A    between atoms: C_2  and  N_6 
REMARK    4  A    between atoms: N_6  and  O_7 
REMARK    5  A    between atoms: O_7  and  C_8 
REMARK    6  A    between atoms: C_8  and  C_9 
ROOT
ATOM      1  C   LIG d   1       5.895  -0.843  -5.647  0.00  0.00     0.094 C 
ATOM      2  H   LIG d   1       5.369  -1.667  -6.129  0.00  0.00     0.063 H 
ATOM      3  H   LIG d   1       6.960  -1.069  -5.598  0.00  0.00     0.063 H 
ENDROOT
BRANCH   1   4
ATOM      4  O   LIG d   1       5.697   0.355  -6.401  0.00  0.00    -0.294 OA
BRANCH   4   5
ATOM      5  N   LIG d   1       4.422   0.403  -7.116  0.00  0.00    -0.193 NA
ATOM      6  H   LIG d   1       3.953  -0.490  -7.082  0.00  0.00     0.154 HD
BRANCH   5   7
ATOM      7  C   LIG d   1       4.613   0.845  -8.505  0.00  0.00     0.069 C 
ATOM      8  H   LIG d   1       4.463   0.001  -9.179  0.00  0.00     0.054 H 
BRANCH   7   9
ATOM      9  C   LIG d   1       6.034   1.387  -8.676  0.00  0.00    -0.042 C 
ATOM     10  H   LIG d   1       5.990   2.444  -8.943  0.00  0.00     0.025 H 
ATOM     11  H   LIG d   1       6.582   1.272  -7.741  0.00  0.00     0.025 H 
ATOM     12  H   LIG d   1       6.542   0.834  -9.466  0.00  0.00     0.025 H 
ENDBRANCH   7   9
BRANCH   7  13
ATOM     13  C   LIG d   1       3.619   1.930  -8.829  0.00  0.00     0.061 C 
ATOM     14  O   LIG d   1       2.865   2.333  -7.975  0.00  0.00    -0.548 OA
ATOM     15  O   LIG d   1       3.575   2.452 -10.064  0.00  0.00    -0.548 OA
ENDBRANCH   7  13
ENDBRANCH   5   7
ENDBRANCH   4   5
ENDBRANCH   1   4
BRANCH   1  16
ATOM     16  C   LIG d   1       5.359  -0.652  -4.251  0.00  0.00    -0.020 A 
ATOM     17  C   LIG d   1       5.607   0.525  -3.570  0.00  0.00    -0.056 A 
ATOM     18  C   LIG d   1       5.115   0.699  -2.290  0.00  0.00    -0.061 A 
ATOM     19  H   LIG d   1       6.184   1.308  -4.038  0.00  0.00     0.062 H 
ATOM     20  C   LIG d   1       4.376  -0.303  -1.691  0.00  0.00    -0.062 A 
ATOM     21  H   LIG d   1       5.309   1.620  -1.758  0.00  0.00     0.062 H 
ATOM     22  C   LIG d   1       4.128  -1.481  -2.371  0.00  0.00    -0.061 A 
ATOM     23  H   LIG d   1       3.992  -0.167  -0.691  0.00  0.00     0.062 H 
ATOM     24  C   LIG d   1       4.615  -1.653  -3.654  0.00  0.00    -0.056 A 
ATOM     25  H   LIG d   1       3.551  -2.264  -1.904  0.00  0.00     0.062 H 
ATOM     26  H   LIG d   1       4.418  -2.571  -4.187  0.00  0.00     0.062 H 
ENDBRANCH   1  16
TORSDOF 6
ENDMDL
MODEL 9
REMARK VINA RESULT:      -4.9      4.670      6.046
REMARK  6 active torsions:
REMARK  status: ('A' for Active; 'I' for Inactive)
REMARK    1  A    between atoms: C_1  and  C_2 
REMARK    2  A    between atoms: C_2  and  C_4 
REMARK    3  A    between atoms: C_2  and  N_6 
REMARK    4  A    between atoms: N_6  and  O_7 
REMARK    5  A    between atoms: O_7  and  C_8 
REMARK    6  A    between atoms: C_8  and  C_9 
ROOT
ATOM      1  C   LIG d   1       6.940   0.180  -3.392  0.00  0.00     0.094 C 
ATOM      2  H   LIG d   1       7.241  -0.167  -4.380  0.00  0.00     0.063 H 
ATOM      3  H   LIG d   1       7.618  -0.225  -2.641  0.00  0.00     0.063 H 
ENDROOT
BRANCH   1   4
ATOM      4  O   LIG d   1       6.987   1.608  -3.354  0.00  0.00    -0.294 OA
BRANCH   4   5
ATOM      5  N   LIG d   1       7.770   2.206  -4.435  0.00  0.00    -0.193 NA
ATOM      6  H   LIG d   1       8.173   1.495  -5.027  0.00  0.00     0.154 HD
BRANCH   5   7
ATOM      7  C   LIG d   1       8.809   3.098  -3.901  0.00  0.00     0.069 C 
ATOM      8  H   LIG d   1       8.444   3.578  -2.993  0.00  0.00     0.054 H 
BRANCH   7   9
ATOM      9  C   LIG d   1       9.148   4.167  -4.942  0.00  0.00    -0.042 C 
ATOM     10  H   LIG d   1       8.429   4.118  -5.761  0.00  0.00     0.025 H 
ATOM     11  H   LIG d   1       9.103   5.152  -4.479  0.00  0.00     0.025 H 
ATOM     12  H   LIG d   1      10.151   3.992  -5.330  0.00  0.00     0.025 H 
ENDBRANCH   7   9
BRANCH   7  13
ATOM     13  C   LIG d   1      10.045   2.296  -3.584  0.00  0.00     0.061 C 
ATOM     14  O   LIG d   1      10.709   2.568  -2.612  0.00  0.00    -0.548 OA
ATOM     15  O   LIG d   1      10.404   1.275  -4.378  0.00  0.00    -0.548 OA
ENDBRANCH   7  13
ENDBRANCH   5   7
ENDBRANCH   4   5
ENDBRANCH   1   4
BRANCH   1  16
ATOM     16  C   LIG d   1       5.536  -0.285  -3.101  0.00  0.00    -0.020 A 
ATOM     17  C   LIG d   1       4.499   0.629  -3.067  0.00  0.00    -0.056 A 
ATOM     18  C   LIG d   1       3.212   0.203  -2.801  0.00  0.00    -0.061 A 
ATOM     19  H   LIG d   1       4.695   1.676  -3.250  0.00  0.00     0.062 H 
ATOM     20  C   LIG d   1       2.960  -1.136  -2.568  0.00  0.00    -0.062 A 
ATOM     21  H   LIG d   1       2.401   0.918  -2.775  0.00  0.00     0.062 H 
ATOM     22  C   LIG d   1       3.997  -2.049  -2.601  0.00  0.00    -0.061 A 
ATOM     23  H   LIG d   1       1.954  -1.468  -2.359  0.00  0.00     0.062 H 
ATOM     24  C   LIG d   1       5.285  -1.624  -2.873  0.00  0.00    -0.056 A 
ATOM     25  H   LIG d   1       3.802  -3.095  -2.418  0.00  0.00     0.062 H 
ATOM     26  H   LIG d   1       6.094  -2.339  -2.903  0.00  0.00     0.062 H 
ENDBRANCH   1  16
TORSDOF 6
ENDMDL
