MODEL 1
REMARK VINA RESULT:      -6.8      0.000      0.000
REMARK  6 active torsions:
REMARK  status: ('A' for Active; 'I' for Inactive)
REMARK    1  A    between atoms: C_1  and  C_2 
REMARK    2  A    between atoms: C_8  and  C_13 
REMARK    3  A    between atoms: C_13  and  S_14 
REMARK    4  A    between atoms: S_14  and  C_15 
REMARK    5  A    between atoms: C_17  and  C_22 
REMARK    6  A    between atoms: C_19  and  C_21 
ROOT
ATOM      1  C   LIG d   1       4.928  -0.679  -8.776  0.00  0.00     0.115 A 
ATOM      2  C   LIG d   1       3.714  -1.308  -9.105  0.00  0.00     0.086 A 
ATOM      3  C   LIG d   1       2.624  -0.513  -9.480  0.00  0.00    -0.029 A 
ATOM      4  C   LIG d   1       2.794   0.860  -9.520  0.00  0.00    -0.036 A 
ATOM      5  C   LIG d   1       4.021   1.405  -9.188  0.00  0.00     0.040 A 
ATOM      6  N   LIG d   1       5.035   0.640  -8.831  0.00  0.00    -0.244 NA
ATOM      7  C   LIG d   1       3.593  -2.734  -9.052  0.00  0.00     0.102 C 
ATOM      8  N   LIG d   1       3.497  -3.865  -9.011  0.00  0.00    -0.191 NA
ATOM      9  H   LIG d   1       1.975   1.500  -9.810  0.00  0.00     0.064 H 
ENDROOT
BRANCH   1  10
ATOM     10  S   LIG d   1       6.317  -1.651  -8.293  0.00  0.00    -0.100 SA
BRANCH  10  11
ATOM     11  C   LIG d   1       6.473  -1.139  -6.564  0.00  0.00     0.026 C 
ATOM     12  H   LIG d   1       6.059  -0.138  -6.443  0.00  0.00     0.043 H 
ATOM     13  H   LIG d   1       7.526  -1.134  -6.282  0.00  0.00     0.043 H 
BRANCH  11  14
ATOM     14  C   LIG d   1       5.722  -2.105  -5.685  0.00  0.00    -0.020 A 
ATOM     15  C   LIG d   1       5.138  -1.668  -4.413  0.00  0.00     0.022 A 
ATOM     16  C   LIG d   1       4.446  -2.603  -3.624  0.00  0.00     0.139 A 
ATOM     17  C   LIG d   1       5.259  -0.344  -3.981  0.00  0.00    -0.048 A 
ATOM     18  C   LIG d   1       3.889  -2.197  -2.418  0.00  0.00    -0.018 A 
ATOM     19  O   LIG d   1       4.329  -3.881  -4.042  0.00  0.00    -0.422 OA
ATOM     20  C   LIG d   1       4.020  -0.886  -2.010  0.00  0.00    -0.055 A 
ATOM     21  H   LIG d   1       3.355  -2.904  -1.802  0.00  0.00     0.065 H 
ATOM     22  C   LIG d   1       4.704   0.035  -2.791  0.00  0.00    -0.050 A 
ATOM     23  H   LIG d   1       3.586  -0.573  -1.072  0.00  0.00     0.062 H 
ATOM     24  C   LIG d   1       4.862  -4.289  -5.205  0.00  0.00     0.338 A 
ATOM     25  C   LIG d   1       5.568  -3.404  -6.048  0.00  0.00     0.028 A 
ATOM     26  O   LIG d   1       4.731  -5.451  -5.542  0.00  0.00    -0.245 OA
ATOM     27  H   LIG d   1       5.983  -3.759  -6.980  0.00  0.00     0.069 H 
ATOM     28  H   LIG d   1       5.789   0.378  -4.586  0.00  0.00     0.063 H 
BRANCH  22  29
ATOM     29  C   LIG d   1       4.835   1.461  -2.325  0.00  0.00    -0.040 C 
ATOM     30  H   LIG d   1       3.875   1.966  -2.427  0.00  0.00     0.028 H 
ATOM     31  H   LIG d   1       5.143   1.474  -1.279  0.00  0.00     0.028 H 
ATOM     32  H   LIG d   1       5.582   1.975  -2.931  0.00  0.00     0.028 H 
ENDBRANCH  22  29
ENDBRANCH  11  14
ENDBRANCH  10  11
ENDBRANCH   1  10
BRANCH   3  33
ATOM     33  C   LIG d   1       1.301  -1.138  -9.836  0.00  0.00    -0.038 C 
ATOM     34  H   LIG d   1       0.501  -0.416  -9.671  0.00  0.00     0.028 H 
ATOM     35  H   LIG d   1       1.310  -1.437 -10.884  0.00  0.00     0.028 H 
ATOM     36  H   LIG d   1       1.133  -2.015  -9.211  0.00  0.00     0.028 H 
ENDBRANCH   3  33
BRANCH   5  37
ATOM     37  C   LIG d   1       4.203   2.901  -9.232  0.00  0.00    -0.022 C 
ATOM     38  H   LIG d   1       4.401   3.211 -10.257  0.00  0.00     0.029 H 
ATOM     39  H   LIG d   1       3.296   3.387  -8.873  0.00  0.00     0.029 H 
ATOM     40  H   LIG d   1       5.042   3.183  -8.597  0.00  0.00     0.029 H 
ENDBRANCH   5  37
TORSDOF 6
ENDMDL
MODEL 2
REMARK VINA RESULT:      -6.6      1.774      3.035
REMARK  6 active torsions:
REMARK  status: ('A' for Active; 'I' for Inactive)
REMARK    1  A    between atoms: C_1  and  C_2 
REMARK    2  A    between atoms: C_8  and  C_13 
REMARK    3  A    between atoms: C_13  and  S_14 
REMARK    4  A    between atoms: S_14  and  C_15 
REMARK    5  A    between atoms: C_17  and  C_22 
REMARK    6  A    between atoms: C_19  and  C_21 
ROOT
ATOM      1  C   LIG d   1       2.883  -0.903  -9.262  0.00  0.00     0.115 A 
ATOM      2  C   LIG d   1       3.420  -0.276 -10.401  0.00  0.00     0.086 A 
ATOM      3  C   LIG d   1       3.432  -0.978 -11.613  0.00  0.00    -0.029 A 
ATOM      4  C   LIG d   1       2.905  -2.258 -11.637  0.00  0.00    -0.036 A 
ATOM      5  C   LIG d   1       2.389  -2.805 -10.477  0.00  0.00     0.040 A 
ATOM      6  N   LIG d   1       2.391  -2.130  -9.343  0.00  0.00    -0.244 NA
ATOM      7  C   LIG d   1       3.949   1.052 -10.322  0.00  0.00     0.102 C 
ATOM      8  N   LIG d   1       4.367   2.107 -10.260  0.00  0.00    -0.191 NA
ATOM      9  H   LIG d   1       2.895  -2.823 -12.557  0.00  0.00     0.064 H 
ENDROOT
BRANCH   1  10
ATOM     10  S   LIG d   1       2.859  -0.049  -7.721  0.00  0.00    -0.100 SA
BRANCH  10  11
ATOM     11  C   LIG d   1       4.542  -0.387  -7.148  0.00  0.00     0.026 C 
ATOM     12  H   LIG d   1       4.932   0.490  -6.631  0.00  0.00     0.043 H 
ATOM     13  H   LIG d   1       5.178  -0.618  -8.003  0.00  0.00     0.043 H 
BRANCH  11  14
ATOM     14  C   LIG d   1       4.524  -1.561  -6.204  0.00  0.00    -0.020 A 
ATOM     15  C   LIG d   1       4.329  -1.366  -4.763  0.00  0.00     0.022 A 
ATOM     16  C   LIG d   1       4.320  -2.489  -3.919  0.00  0.00     0.139 A 
ATOM     17  C   LIG d   1       4.152  -0.088  -4.226  0.00  0.00    -0.048 A 
ATOM     18  C   LIG d   1       4.135  -2.314  -2.553  0.00  0.00    -0.018 A 
ATOM     19  O   LIG d   1       4.490  -3.723  -4.439  0.00  0.00    -0.422 OA
ATOM     20  C   LIG d   1       3.963  -1.044  -2.043  0.00  0.00    -0.055 A 
ATOM     21  H   LIG d   1       4.126  -3.168  -1.893  0.00  0.00     0.065 H 
ATOM     22  C   LIG d   1       3.972   0.063  -2.880  0.00  0.00    -0.050 A 
ATOM     23  H   LIG d   1       3.818  -0.911  -0.981  0.00  0.00     0.062 H 
ATOM     24  C   LIG d   1       4.670  -3.910  -5.756  0.00  0.00     0.338 A 
ATOM     25  C   LIG d   1       4.689  -2.828  -6.662  0.00  0.00     0.028 A 
ATOM     26  O   LIG d   1       4.819  -5.041  -6.181  0.00  0.00    -0.245 OA
ATOM     27  H   LIG d   1       4.832  -3.007  -7.718  0.00  0.00     0.069 H 
ATOM     28  H   LIG d   1       4.157   0.778  -4.872  0.00  0.00     0.063 H 
BRANCH  22  29
ATOM     29  C   LIG d   1       3.782   1.440  -2.300  0.00  0.00    -0.040 C 
ATOM     30  H   LIG d   1       3.000   1.410  -1.542  0.00  0.00     0.028 H 
ATOM     31  H   LIG d   1       4.715   1.775  -1.846  0.00  0.00     0.028 H 
ATOM     32  H   LIG d   1       3.495   2.132  -3.093  0.00  0.00     0.028 H 
ENDBRANCH  22  29
ENDBRANCH  11  14
ENDBRANCH  10  11
ENDBRANCH   1  10
BRANCH   3  33
ATOM     33  C   LIG d   1       4.001  -0.352 -12.860  0.00  0.00    -0.038 C 
ATOM     34  H   LIG d   1       4.134  -1.119 -13.624  0.00  0.00     0.028 H 
ATOM     35  H   LIG d   1       3.318   0.412 -13.228  0.00  0.00     0.028 H 
ATOM     36  H   LIG d   1       4.965   0.102 -12.631  0.00  0.00     0.028 H 
ENDBRANCH   3  33
BRANCH   5  37
ATOM     37  C   LIG d   1       1.817  -4.198 -10.507  0.00  0.00    -0.022 C 
ATOM     38  H   LIG d   1       2.413  -4.820 -11.175  0.00  0.00     0.029 H 
ATOM     39  H   LIG d   1       1.835  -4.621  -9.503  0.00  0.00     0.029 H 
ATOM     40  H   LIG d   1       0.789  -4.160 -10.867  0.00  0.00     0.029 H 
ENDBRANCH   5  37
TORSDOF 6
ENDMDL
MODEL 3
REMARK VINA RESULT:      -6.5      2.782      4.553
REMARK  6 active torsions:
REMARK  status: ('A' for Active; 'I' for Inactive)
REMARK    1  A    between atoms: C_1  and  C_2 
REMARK    2  A    between atoms: C_8  and  C_13 
REMARK    3  A    between atoms: C_13  and  S_14 
REMARK    4  A    between atoms: S_14  and  C_15 
REMARK    5  A    between atoms: C_17  and  C_22 
REMARK    6  A    between atoms: C_19  and  C_21 
ROOT
ATOM      1  C   LIG d   1       6.472  -2.412  -7.193  0.00  0.00     0.115 A 
ATOM      2  C   LIG d   1       5.495  -1.462  -7.541  0.00  0.00     0.086 A 
ATOM      3  C   LIG d   1       4.208  -1.907  -7.866  0.00  0.00    -0.029 A 
ATOM      4  C   LIG d   1       3.951  -3.266  -7.820  0.00  0.00    -0.036 A 
ATOM      5  C   LIG d   1       4.962  -4.140  -7.462  0.00  0.00     0.040 A 
ATOM      6  N   LIG d   1       6.171  -3.701  -7.165  0.00  0.00    -0.244 NA
ATOM      7  C   LIG d   1       5.813  -0.065  -7.568  0.00  0.00     0.102 C 
ATOM      8  N   LIG d   1       6.064   1.042  -7.589  0.00  0.00    -0.191 NA
ATOM      9  H   LIG d   1       2.967  -3.641  -8.059  0.00  0.00     0.064 H 
ENDROOT
BRANCH   1  10
ATOM     10  S   LIG d   1       8.103  -1.885  -6.786  0.00  0.00    -0.100 SA
BRANCH  10  11
ATOM     11  C   LIG d   1       8.004  -1.924  -4.979  0.00  0.00     0.026 C 
ATOM     12  H   LIG d   1       8.972  -2.213  -4.569  0.00  0.00     0.043 H 
ATOM     13  H   LIG d   1       7.249  -2.648  -4.672  0.00  0.00     0.043 H 
BRANCH  11  14
ATOM     14  C   LIG d   1       7.628  -0.557  -4.467  0.00  0.00    -0.020 A 
ATOM     15  C   LIG d   1       6.442  -0.369  -3.625  0.00  0.00     0.022 A 
ATOM     16  C   LIG d   1       6.128   0.923  -3.170  0.00  0.00     0.139 A 
ATOM     17  C   LIG d   1       5.629  -1.450  -3.272  0.00  0.00    -0.048 A 
ATOM     18  C   LIG d   1       5.006   1.111  -2.372  0.00  0.00    -0.018 A 
ATOM     19  O   LIG d   1       6.914   1.966  -3.511  0.00  0.00    -0.422 OA
ATOM     20  C   LIG d   1       4.217   0.030  -2.036  0.00  0.00    -0.055 A 
ATOM     21  H   LIG d   1       4.753   2.097  -2.015  0.00  0.00     0.065 H 
ATOM     22  C   LIG d   1       4.530  -1.244  -2.486  0.00  0.00    -0.050 A 
ATOM     23  H   LIG d   1       3.346   0.179  -1.414  0.00  0.00     0.062 H 
ATOM     24  C   LIG d   1       8.001   1.802  -4.282  0.00  0.00     0.338 A 
ATOM     25  C   LIG d   1       8.376   0.533  -4.773  0.00  0.00     0.028 A 
ATOM     26  O   LIG d   1       8.681   2.771  -4.563  0.00  0.00    -0.245 OA
ATOM     27  H   LIG d   1       9.258   0.429  -5.388  0.00  0.00     0.069 H 
ATOM     28  H   LIG d   1       5.868  -2.445  -3.619  0.00  0.00     0.063 H 
BRANCH  22  29
ATOM     29  C   LIG d   1       3.653  -2.408  -2.106  0.00  0.00    -0.040 C 
ATOM     30  H   LIG d   1       3.400  -2.979  -2.999  0.00  0.00     0.028 H 
ATOM     31  H   LIG d   1       4.186  -3.050  -1.403  0.00  0.00     0.028 H 
ATOM     32  H   LIG d   1       2.739  -2.038  -1.639  0.00  0.00     0.028 H 
ENDBRANCH  22  29
ENDBRANCH  11  14
ENDBRANCH  10  11
ENDBRANCH   1  10
BRANCH   3  33
ATOM     33  C   LIG d   1       3.129  -0.929  -8.251  0.00  0.00    -0.038 C 
ATOM     34  H   LIG d   1       3.581   0.028  -8.512  0.00  0.00     0.028 H 
ATOM     35  H   LIG d   1       2.575  -1.316  -9.106  0.00  0.00     0.028 H 
ATOM     36  H   LIG d   1       2.448  -0.791  -7.410  0.00  0.00     0.028 H 
ENDBRANCH   3  33
BRANCH   5  37
ATOM     37  C   LIG d   1       4.679  -5.619  -7.414  0.00  0.00    -0.022 C 
ATOM     38  H   LIG d   1       3.692  -5.785  -6.983  0.00  0.00     0.029 H 
ATOM     39  H   LIG d   1       4.708  -6.028  -8.423  0.00  0.00     0.029 H 
ATOM     40  H   LIG d   1       5.431  -6.113  -6.799  0.00  0.00     0.029 H 
ENDBRANCH   5  37
TORSDOF 6
ENDMDL
MODEL 4
REMARK VINA RESULT:      -6.3      2.520      4.065
REMARK  6 active torsions:
REMARK  status: ('A' for Active; 'I' for Inactive)
REMARK    1  A    between atoms: C_1  and  C_2 
REMARK    2  A    between atoms: C_8  and  C_13 
REMARK    3  A    between atoms: C_13  and  S_14 
REMARK    4  A    between atoms: S_14  and  C_15 
REMARK    5  A    between atoms: C_17  and  C_22 
REMARK    6  A    between atoms: C_19  and  C_21 
ROOT
ATOM      1  C   LIG d   1       5.597  -0.756  -8.757  0.00  0.00     0.115 A 
ATOM      2  C   LIG d   1       5.271   0.547  -9.172  0.00  0.00     0.086 A 
ATOM      3  C   LIG d   1       3.997   0.787  -9.701  0.00  0.00    -0.029 A 
ATOM      4  C   LIG d   1       3.109  -0.272  -9.782  0.00  0.00    -0.036 A 
ATOM      5  C   LIG d   1       3.500  -1.525  -9.347  0.00  0.00     0.040 A 
ATOM      6  N   LIG d   1       4.707  -1.732  -8.857  0.00  0.00    -0.244 NA
ATOM      7  C   LIG d   1       6.227   1.608  -9.062  0.00  0.00     0.102 C 
ATOM      8  N   LIG d   1       6.984   2.450  -8.974  0.00  0.00    -0.191 NA
ATOM      9  H   LIG d   1       2.117  -0.119 -10.180  0.00  0.00     0.064 H 
ENDROOT
BRANCH   1  10
ATOM     10  S   LIG d   1       7.194  -1.092  -8.093  0.00  0.00    -0.100 SA
BRANCH  10  11
ATOM     11  C   LIG d   1       6.741  -1.565  -6.406  0.00  0.00     0.026 C 
ATOM     12  H   LIG d   1       7.423  -2.338  -6.051  0.00  0.00     0.043 H 
ATOM     13  H   LIG d   1       5.721  -1.948  -6.398  0.00  0.00     0.043 H 
BRANCH  11  14
ATOM     14  C   LIG d   1       6.833  -0.360  -5.506  0.00  0.00    -0.020 A 
ATOM     15  C   LIG d   1       6.045  -0.281  -4.271  0.00  0.00     0.022 A 
ATOM     16  C   LIG d   1       6.161   0.862  -3.462  0.00  0.00     0.139 A 
ATOM     17  C   LIG d   1       5.189  -1.319  -3.894  0.00  0.00    -0.048 A 
ATOM     18  C   LIG d   1       5.418   0.946  -2.291  0.00  0.00    -0.018 A 
ATOM     19  O   LIG d   1       6.989   1.864  -3.826  0.00  0.00    -0.422 OA
ATOM     20  C   LIG d   1       4.578  -0.090  -1.937  0.00  0.00    -0.055 A 
ATOM     21  H   LIG d   1       5.497   1.818  -1.659  0.00  0.00     0.065 H 
ATOM     22  C   LIG d   1       4.466  -1.217  -2.739  0.00  0.00    -0.050 A 
ATOM     23  H   LIG d   1       4.003  -0.023  -1.026  0.00  0.00     0.062 H 
ATOM     24  C   LIG d   1       7.713   1.799  -4.955  0.00  0.00     0.338 A 
ATOM     25  C   LIG d   1       7.647   0.682  -5.814  0.00  0.00     0.028 A 
ATOM     26  O   LIG d   1       8.447   2.727  -5.243  0.00  0.00    -0.245 OA
ATOM     27  H   LIG d   1       8.244   0.654  -6.714  0.00  0.00     0.069 H 
ATOM     28  H   LIG d   1       5.098  -2.199  -4.514  0.00  0.00     0.063 H 
BRANCH  22  29
ATOM     29  C   LIG d   1       3.543  -2.335  -2.332  0.00  0.00    -0.040 C 
ATOM     30  H   LIG d   1       3.572  -3.122  -3.085  0.00  0.00     0.028 H 
ATOM     31  H   LIG d   1       3.863  -2.739  -1.372  0.00  0.00     0.028 H 
ATOM     32  H   LIG d   1       2.525  -1.953  -2.245  0.00  0.00     0.028 H 
ENDBRANCH  22  29
ENDBRANCH  11  14
ENDBRANCH  10  11
ENDBRANCH   1  10
BRANCH   3  33
ATOM     33  C   LIG d   1       3.602   2.165 -10.165  0.00  0.00    -0.038 C 
ATOM     34  H   LIG d   1       4.490   2.793 -10.237  0.00  0.00     0.028 H 
ATOM     35  H   LIG d   1       3.125   2.097 -11.143  0.00  0.00     0.028 H 
ATOM     36  H   LIG d   1       2.904   2.602  -9.451  0.00  0.00     0.028 H 
ENDBRANCH   3  33
BRANCH   5  37
ATOM     37  C   LIG d   1       2.530  -2.675  -9.437  0.00  0.00    -0.022 C 
ATOM     38  H   LIG d   1       1.962  -2.597 -10.363  0.00  0.00     0.029 H 
ATOM     39  H   LIG d   1       3.080  -3.616  -9.425  0.00  0.00     0.029 H 
ATOM     40  H   LIG d   1       1.848  -2.641  -8.588  0.00  0.00     0.029 H 
ENDBRANCH   5  37
TORSDOF 6
ENDMDL
MODEL 5
REMARK VINA RESULT:      -6.2      2.510      5.656
REMARK  6 active torsions:
REMARK  status: ('A' for Active; 'I' for Inactive)
REMARK    1  A    between atoms: C_1  and  C_2 
REMARK    2  A    between atoms: C_8  and  C_13 
REMARK    3  A    between atoms: C_13  and  S_14 
REMARK    4  A    between atoms: S_14  and  C_15 
REMARK    5  A    between atoms: C_17  and  C_22 
REMARK    6  A    between atoms: C_19  and  C_21 
ROOT
ATOM      1  C   LIG d   1       6.183  -0.985  -4.523  0.00  0.00     0.115 A 
ATOM      2  C   LIG d   1       5.332  -0.723  -3.435  0.00  0.00     0.086 A 
ATOM      3  C   LIG d   1       5.459   0.497  -2.759  0.00  0.00    -0.029 A 
ATOM      4  C   LIG d   1       6.413   1.397  -3.201  0.00  0.00    -0.036 A 
ATOM      5  C   LIG d   1       7.209   1.071  -4.284  0.00  0.00     0.040 A 
ATOM      6  N   LIG d   1       7.078  -0.086  -4.904  0.00  0.00    -0.244 NA
ATOM      7  C   LIG d   1       4.358  -1.688  -3.021  0.00  0.00     0.102 C 
ATOM      8  N   LIG d   1       3.585  -2.453  -2.693  0.00  0.00    -0.191 NA
ATOM      9  H   LIG d   1       6.532   2.349  -2.705  0.00  0.00     0.064 H 
ENDROOT
BRANCH   1  10
ATOM     10  S   LIG d   1       6.053  -2.513  -5.390  0.00  0.00    -0.100 SA
BRANCH  10  11
ATOM     11  C   LIG d   1       6.094  -1.912  -7.096  0.00  0.00     0.026 C 
ATOM     12  H   LIG d   1       7.028  -2.219  -7.567  0.00  0.00     0.043 H 
ATOM     13  H   LIG d   1       6.025  -0.824  -7.100  0.00  0.00     0.043 H 
BRANCH  11  14
ATOM     14  C   LIG d   1       4.932  -2.492  -7.861  0.00  0.00    -0.020 A 
ATOM     15  C   LIG d   1       3.900  -1.622  -8.436  0.00  0.00     0.022 A 
ATOM     16  C   LIG d   1       2.833  -2.205  -9.140  0.00  0.00     0.139 A 
ATOM     17  C   LIG d   1       3.967  -0.233  -8.294  0.00  0.00    -0.048 A 
ATOM     18  C   LIG d   1       1.852  -1.389  -9.689  0.00  0.00    -0.018 A 
ATOM     19  O   LIG d   1       2.771  -3.547  -9.277  0.00  0.00    -0.422 OA
ATOM     20  C   LIG d   1       1.935  -0.021  -9.536  0.00  0.00    -0.055 A 
ATOM     21  H   LIG d   1       1.027  -1.823 -10.232  0.00  0.00     0.065 H 
ATOM     22  C   LIG d   1       2.991   0.552  -8.840  0.00  0.00    -0.050 A 
ATOM     23  H   LIG d   1       1.172   0.612  -9.964  0.00  0.00     0.062 H 
ATOM     24  C   LIG d   1       3.710  -4.349  -8.753  0.00  0.00     0.338 A 
ATOM     25  C   LIG d   1       4.810  -3.832  -8.035  0.00  0.00     0.028 A 
ATOM     26  O   LIG d   1       3.613  -5.553  -8.903  0.00  0.00    -0.245 OA
ATOM     27  H   LIG d   1       5.554  -4.501  -7.627  0.00  0.00     0.069 H 
ATOM     28  H   LIG d   1       4.786   0.218  -7.753  0.00  0.00     0.063 H 
BRANCH  22  29
ATOM     29  C   LIG d   1       3.061   2.048  -8.687  0.00  0.00    -0.040 C 
ATOM     30  H   LIG d   1       4.098   2.351  -8.548  0.00  0.00     0.028 H 
ATOM     31  H   LIG d   1       2.661   2.524  -9.582  0.00  0.00     0.028 H 
ATOM     32  H   LIG d   1       2.473   2.354  -7.820  0.00  0.00     0.028 H 
ENDBRANCH  22  29
ENDBRANCH  11  14
ENDBRANCH  10  11
ENDBRANCH   1  10
BRANCH   3  33
ATOM     33  C   LIG d   1       4.575   0.823  -1.583  0.00  0.00    -0.038 C 
ATOM     34  H   LIG d   1       3.629   0.290  -1.681  0.00  0.00     0.028 H 
ATOM     35  H   LIG d   1       5.069   0.519  -0.661  0.00  0.00     0.028 H 
ATOM     36  H   LIG d   1       4.385   1.896  -1.558  0.00  0.00     0.028 H 
ENDBRANCH   3  33
BRANCH   5  37
ATOM     37  C   LIG d   1       8.247   2.053  -4.761  0.00  0.00    -0.022 C 
ATOM     38  H   LIG d   1       7.943   3.063  -4.487  0.00  0.00     0.029 H 
ATOM     39  H   LIG d   1       9.206   1.823  -4.298  0.00  0.00     0.029 H 
ATOM     40  H   LIG d   1       8.340   1.984  -5.845  0.00  0.00     0.029 H 
ENDBRANCH   5  37
TORSDOF 6
ENDMDL
MODEL 6
REMARK VINA RESULT:      -6.2      1.795      3.083
REMARK  6 active torsions:
REMARK  status: ('A' for Active; 'I' for Inactive)
REMARK    1  A    between atoms: C_1  and  C_2 
REMARK    2  A    between atoms: C_8  and  C_13 
REMARK    3  A    between atoms: C_13  and  S_14 
REMARK    4  A    between atoms: S_14  and  C_15 
REMARK    5  A    between atoms: C_17  and  C_22 
REMARK    6  A    between atoms: C_19  and  C_21 
ROOT
ATOM      1  C   LIG d   1       4.170  -1.918  -8.682  0.00  0.00     0.115 A 
ATOM      2  C   LIG d   1       4.064  -0.521  -8.563  0.00  0.00     0.086 A 
ATOM      3  C   LIG d   1       2.915   0.112  -9.053  0.00  0.00    -0.029 A 
ATOM      4  C   LIG d   1       1.928  -0.671  -9.626  0.00  0.00    -0.036 A 
ATOM      5  C   LIG d   1       2.101  -2.041  -9.702  0.00  0.00     0.040 A 
ATOM      6  N   LIG d   1       3.194  -2.618  -9.240  0.00  0.00    -0.244 NA
ATOM      7  C   LIG d   1       5.114   0.242  -7.956  0.00  0.00     0.102 C 
ATOM      8  N   LIG d   1       5.946   0.846  -7.474  0.00  0.00    -0.191 NA
ATOM      9  H   LIG d   1       1.027  -0.214 -10.009  0.00  0.00     0.064 H 
ENDROOT
BRANCH   1  10
ATOM     10  S   LIG d   1       5.606  -2.743  -8.081  0.00  0.00    -0.100 SA
BRANCH  10  11
ATOM     11  C   LIG d   1       4.946  -3.449  -6.551  0.00  0.00     0.026 C 
ATOM     12  H   LIG d   1       5.042  -4.534  -6.581  0.00  0.00     0.043 H 
ATOM     13  H   LIG d   1       3.895  -3.179  -6.450  0.00  0.00     0.043 H 
BRANCH  11  14
ATOM     14  C   LIG d   1       5.718  -2.908  -5.375  0.00  0.00    -0.020 A 
ATOM     15  C   LIG d   1       5.242  -1.731  -4.639  0.00  0.00     0.022 A 
ATOM     16  C   LIG d   1       5.994  -1.260  -3.550  0.00  0.00     0.139 A 
ATOM     17  C   LIG d   1       4.061  -1.081  -5.006  0.00  0.00    -0.048 A 
ATOM     18  C   LIG d   1       5.551  -0.146  -2.847  0.00  0.00    -0.018 A 
ATOM     19  O   LIG d   1       7.134  -1.890  -3.196  0.00  0.00    -0.422 OA
ATOM     20  C   LIG d   1       4.382   0.482  -3.225  0.00  0.00    -0.055 A 
ATOM     21  H   LIG d   1       6.118   0.226  -2.007  0.00  0.00     0.065 H 
ATOM     22  C   LIG d   1       3.643   0.013  -4.302  0.00  0.00    -0.050 A 
ATOM     23  H   LIG d   1       4.040   1.346  -2.677  0.00  0.00     0.062 H 
ATOM     24  C   LIG d   1       7.576  -2.967  -3.864  0.00  0.00     0.338 A 
ATOM     25  C   LIG d   1       6.872  -3.494  -4.968  0.00  0.00     0.028 A 
ATOM     26  O   LIG d   1       8.610  -3.503  -3.509  0.00  0.00    -0.245 OA
ATOM     27  H   LIG d   1       7.249  -4.365  -5.485  0.00  0.00     0.069 H 
ATOM     28  H   LIG d   1       3.480  -1.441  -5.843  0.00  0.00     0.063 H 
BRANCH  22  29
ATOM     29  C   LIG d   1       2.370   0.716  -4.697  0.00  0.00    -0.040 C 
ATOM     30  H   LIG d   1       2.432   1.020  -5.741  0.00  0.00     0.028 H 
ATOM     31  H   LIG d   1       1.526   0.039  -4.565  0.00  0.00     0.028 H 
ATOM     32  H   LIG d   1       2.231   1.597  -4.069  0.00  0.00     0.028 H 
ENDBRANCH  22  29
ENDBRANCH  11  14
ENDBRANCH  10  11
ENDBRANCH   1  10
BRANCH   3  33
ATOM     33  C   LIG d   1       2.757   1.607  -8.954  0.00  0.00    -0.038 C 
ATOM     34  H   LIG d   1       2.038   1.845  -8.169  0.00  0.00     0.028 H 
ATOM     35  H   LIG d   1       3.718   2.060  -8.716  0.00  0.00     0.028 H 
ATOM     36  H   LIG d   1       2.397   1.998  -9.906  0.00  0.00     0.028 H 
ENDBRANCH   3  33
BRANCH   5  37
ATOM     37  C   LIG d   1       1.024  -2.889 -10.328  0.00  0.00    -0.022 C 
ATOM     38  H   LIG d   1       0.055  -2.604  -9.918  0.00  0.00     0.029 H 
ATOM     39  H   LIG d   1       1.023  -2.737 -11.407  0.00  0.00     0.029 H 
ATOM     40  H   LIG d   1       1.216  -3.939 -10.109  0.00  0.00     0.029 H 
ENDBRANCH   5  37
TORSDOF 6
ENDMDL
MODEL 7
REMARK VINA RESULT:      -6.2      2.642      4.317
REMARK  6 active torsions:
REMARK  status: ('A' for Active; 'I' for Inactive)
REMARK    1  A    between atoms: C_1  and  C_2 
REMARK    2  A    between atoms: C_8  and  C_13 
REMARK    3  A    between atoms: C_13  and  S_14 
REMARK    4  A    between atoms: S_14  and  C_15 
REMARK    5  A    between atoms: C_17  and  C_22 
REMARK    6  A    between atoms: C_19  and  C_21 
ROOT
ATOM      1  C   LIG d   1       7.286   0.718  -7.113  0.00  0.00     0.115 A 
ATOM      2  C   LIG d   1       8.206   1.537  -7.791  0.00  0.00     0.086 A 
ATOM      3  C   LIG d   1       8.978   2.440  -7.050  0.00  0.00    -0.029 A 
ATOM      4  C   LIG d   1       8.807   2.480  -5.677  0.00  0.00    -0.036 A 
ATOM      5  C   LIG d   1       7.886   1.638  -5.080  0.00  0.00     0.040 A 
ATOM      6  N   LIG d   1       7.164   0.798  -5.796  0.00  0.00    -0.244 NA
ATOM      7  C   LIG d   1       8.347   1.453  -9.214  0.00  0.00     0.102 C 
ATOM      8  N   LIG d   1       8.460   1.385 -10.342  0.00  0.00    -0.191 NA
ATOM      9  H   LIG d   1       9.391   3.161  -5.077  0.00  0.00     0.064 H 
ENDROOT
BRANCH   1  10
ATOM     10  S   LIG d   1       6.295  -0.424  -8.017  0.00  0.00    -0.100 SA
BRANCH  10  11
ATOM     11  C   LIG d   1       4.756  -0.324  -7.069  0.00  0.00     0.026 C 
ATOM     12  H   LIG d   1       3.909  -0.310  -7.754  0.00  0.00     0.043 H 
ATOM     13  H   LIG d   1       4.756   0.588  -6.472  0.00  0.00     0.043 H 
BRANCH  11  14
ATOM     14  C   LIG d   1       4.649  -1.521  -6.160  0.00  0.00    -0.020 A 
ATOM     15  C   LIG d   1       4.408  -1.355  -4.722  0.00  0.00     0.022 A 
ATOM     16  C   LIG d   1       4.316  -2.499  -3.911  0.00  0.00     0.139 A 
ATOM     17  C   LIG d   1       4.270  -0.084  -4.156  0.00  0.00    -0.048 A 
ATOM     18  C   LIG d   1       4.088  -2.351  -2.548  0.00  0.00    -0.018 A 
ATOM     19  O   LIG d   1       4.449  -3.725  -4.459  0.00  0.00    -0.422 OA
ATOM     20  C   LIG d   1       3.955  -1.088  -2.009  0.00  0.00    -0.055 A 
ATOM     21  H   LIG d   1       4.015  -3.220  -1.913  0.00  0.00     0.065 H 
ATOM     22  C   LIG d   1       4.047   0.039  -2.814  0.00  0.00    -0.050 A 
ATOM     23  H   LIG d   1       3.777  -0.976  -0.950  0.00  0.00     0.062 H 
ATOM     24  C   LIG d   1       4.670  -3.885  -5.773  0.00  0.00     0.338 A 
ATOM     25  C   LIG d   1       4.773  -2.781  -6.647  0.00  0.00     0.028 A 
ATOM     26  O   LIG d   1       4.783  -5.010  -6.223  0.00  0.00    -0.245 OA
ATOM     27  H   LIG d   1       4.947  -2.939  -7.701  0.00  0.00     0.069 H 
ATOM     28  H   LIG d   1       4.340   0.797  -4.778  0.00  0.00     0.063 H 
BRANCH  22  29
ATOM     29  C   LIG d   1       3.899   1.408  -2.203  0.00  0.00    -0.040 C 
ATOM     30  H   LIG d   1       2.843   1.673  -2.158  0.00  0.00     0.028 H 
ATOM     31  H   LIG d   1       4.315   1.403  -1.195  0.00  0.00     0.028 H 
ATOM     32  H   LIG d   1       4.432   2.138  -2.813  0.00  0.00     0.028 H 
ENDBRANCH  22  29
ENDBRANCH  11  14
ENDBRANCH  10  11
ENDBRANCH   1  10
BRANCH   3  33
ATOM     33  C   LIG d   1       9.974   3.343  -7.732  0.00  0.00    -0.038 C 
ATOM     34  H   LIG d   1       9.443   4.126  -8.274  0.00  0.00     0.028 H 
ATOM     35  H   LIG d   1      10.626   3.796  -6.985  0.00  0.00     0.028 H 
ATOM     36  H   LIG d   1      10.573   2.760  -8.431  0.00  0.00     0.028 H 
ENDBRANCH   3  33
BRANCH   5  37
ATOM     37  C   LIG d   1       7.703   1.685  -3.585  0.00  0.00    -0.022 C 
ATOM     38  H   LIG d   1       8.151   0.798  -3.138  0.00  0.00     0.029 H 
ATOM     39  H   LIG d   1       8.186   2.577  -3.187  0.00  0.00     0.029 H 
ATOM     40  H   LIG d   1       6.640   1.712  -3.351  0.00  0.00     0.029 H 
ENDBRANCH   5  37
TORSDOF 6
ENDMDL
MODEL 8
REMARK VINA RESULT:      -6.1      3.058      6.564
REMARK  6 active torsions:
REMARK  status: ('A' for Active; 'I' for Inactive)
REMARK    1  A    between atoms: C_1  and  C_2 
REMARK    2  A    between atoms: C_8  and  C_13 
REMARK    3  A    between atoms: C_13  and  S_14 
REMARK    4  A    between atoms: S_14  and  C_15 
REMARK    5  A    between atoms: C_17  and  C_22 
REMARK    6  A    between atoms: C_19  and  C_21 
ROOT
ATOM      1  C   LIG d   1       5.610  -0.858  -4.815  0.00  0.00     0.115 A 
ATOM      2  C   LIG d   1       4.903  -0.435  -3.675  0.00  0.00     0.086 A 
ATOM      3  C   LIG d   1       5.417   0.626  -2.919  0.00  0.00    -0.029 A 
ATOM      4  C   LIG d   1       6.597   1.219  -3.335  0.00  0.00    -0.036 A 
ATOM      5  C   LIG d   1       7.232   0.751  -4.471  0.00  0.00     0.040 A 
ATOM      6  N   LIG d   1       6.735  -0.253  -5.167  0.00  0.00    -0.244 NA
ATOM      7  C   LIG d   1       3.684  -1.081  -3.292  0.00  0.00     0.102 C 
ATOM      8  N   LIG d   1       2.716  -1.592  -2.988  0.00  0.00    -0.191 NA
ATOM      9  H   LIG d   1       7.016   2.042  -2.777  0.00  0.00     0.064 H 
ENDROOT
BRANCH   1  10
ATOM     10  S   LIG d   1       4.994  -2.194  -5.784  0.00  0.00    -0.100 SA
BRANCH  10  11
ATOM     11  C   LIG d   1       5.450  -1.620  -7.439  0.00  0.00     0.026 C 
ATOM     12  H   LIG d   1       5.658  -2.479  -8.076  0.00  0.00     0.043 H 
ATOM     13  H   LIG d   1       6.339  -0.993  -7.373  0.00  0.00     0.043 H 
BRANCH  11  14
ATOM     14  C   LIG d   1       4.314  -0.822  -8.024  0.00  0.00    -0.020 A 
ATOM     15  C   LIG d   1       3.286  -1.467  -8.848  0.00  0.00     0.022 A 
ATOM     16  C   LIG d   1       2.245  -0.684  -9.374  0.00  0.00     0.139 A 
ATOM     17  C   LIG d   1       3.330  -2.839  -9.112  0.00  0.00    -0.048 A 
ATOM     18  C   LIG d   1       1.267  -1.286 -10.156  0.00  0.00    -0.018 A 
ATOM     19  O   LIG d   1       2.203   0.641  -9.118  0.00  0.00    -0.422 OA
ATOM     20  C   LIG d   1       1.329  -2.642 -10.405  0.00  0.00    -0.055 A 
ATOM     21  H   LIG d   1       0.461  -0.697 -10.566  0.00  0.00     0.065 H 
ATOM     22  C   LIG d   1       2.359  -3.412  -9.884  0.00  0.00    -0.050 A 
ATOM     23  H   LIG d   1       0.567  -3.108 -11.012  0.00  0.00     0.062 H 
ATOM     24  C   LIG d   1       3.140   1.239  -8.365  0.00  0.00     0.338 A 
ATOM     25  C   LIG d   1       4.213   0.514  -7.804  0.00  0.00     0.028 A 
ATOM     26  O   LIG d   1       3.062   2.436  -8.160  0.00  0.00    -0.245 OA
ATOM     27  H   LIG d   1       4.951   1.020  -7.198  0.00  0.00     0.069 H 
ATOM     28  H   LIG d   1       4.129  -3.444  -8.708  0.00  0.00     0.063 H 
BRANCH  22  29
ATOM     29  C   LIG d   1       2.406  -4.890 -10.169  0.00  0.00    -0.040 C 
ATOM     30  H   LIG d   1       3.441  -5.230 -10.156  0.00  0.00     0.028 H 
ATOM     31  H   LIG d   1       1.838  -5.425  -9.408  0.00  0.00     0.028 H 
ATOM     32  H   LIG d   1       1.971  -5.085 -11.151  0.00  0.00     0.028 H 
ENDBRANCH  22  29
ENDBRANCH  11  14
ENDBRANCH  10  11
ENDBRANCH   1  10
BRANCH   3  33
ATOM     33  C   LIG d   1       4.700   1.112  -1.686  0.00  0.00    -0.038 C 
ATOM     34  H   LIG d   1       5.142   0.650  -0.803  0.00  0.00     0.028 H 
ATOM     35  H   LIG d   1       4.792   2.195  -1.615  0.00  0.00     0.028 H 
ATOM     36  H   LIG d   1       3.646   0.841  -1.749  0.00  0.00     0.028 H 
ENDBRANCH   3  33
BRANCH   5  37
ATOM     37  C   LIG d   1       8.516   1.399  -4.920  0.00  0.00    -0.022 C 
ATOM     38  H   LIG d   1       8.466   2.471  -4.729  0.00  0.00     0.029 H 
ATOM     39  H   LIG d   1       9.352   0.970  -4.369  0.00  0.00     0.029 H 
ATOM     40  H   LIG d   1       8.656   1.226  -5.986  0.00  0.00     0.029 H 
ENDBRANCH   5  37
TORSDOF 6
ENDMDL
MODEL 9
REMARK VINA RESULT:      -5.9      5.472      7.420
REMARK  6 active torsions:
REMARK  status: ('A' for Active; 'I' for Inactive)
REMARK    1  A    between atoms: C_1  and  C_2 
REMARK    2  A    between atoms: C_8  and  C_13 
REMARK    3  A    between atoms: C_13  and  S_14 
REMARK    4  A    between atoms: S_14  and  C_15 
REMARK    5  A    between atoms: C_17  and  C_22 
REMARK    6  A    between atoms: C_19  and  C_21 
ROOT
ATOM      1  C   LIG d   1       9.885   4.769  -4.539  0.00  0.00     0.115 A 
ATOM      2  C   LIG d   1       9.746   5.712  -5.573  0.00  0.00     0.086 A 
ATOM      3  C   LIG d   1       9.621   7.066  -5.238  0.00  0.00    -0.029 A 
ATOM      4  C   LIG d   1       9.651   7.417  -3.899  0.00  0.00    -0.036 A 
ATOM      5  C   LIG d   1       9.797   6.432  -2.939  0.00  0.00     0.040 A 
ATOM      6  N   LIG d   1       9.907   5.161  -3.275  0.00  0.00    -0.244 NA
ATOM      7  C   LIG d   1       9.727   5.295  -6.943  0.00  0.00     0.102 C 
ATOM      8  N   LIG d   1       9.713   4.965  -8.030  0.00  0.00    -0.191 NA
ATOM      9  H   LIG d   1       9.562   8.453  -3.608  0.00  0.00     0.064 H 
ENDROOT
BRANCH   1  10
ATOM     10  S   LIG d   1      10.038   3.058  -4.928  0.00  0.00    -0.100 SA
BRANCH  10  11
ATOM     11  C   LIG d   1       8.358   2.498  -4.551  0.00  0.00     0.026 C 
ATOM     12  H   LIG d   1       7.672   2.871  -5.312  0.00  0.00     0.043 H 
ATOM     13  H   LIG d   1       8.060   2.879  -3.574  0.00  0.00     0.043 H 
BRANCH  11  14
ATOM     14  C   LIG d   1       8.323   0.992  -4.536  0.00  0.00    -0.020 A 
ATOM     15  C   LIG d   1       7.243   0.271  -3.853  0.00  0.00     0.022 A 
ATOM     16  C   LIG d   1       7.251  -1.134  -3.863  0.00  0.00     0.139 A 
ATOM     17  C   LIG d   1       6.218   0.959  -3.199  0.00  0.00    -0.048 A 
ATOM     18  C   LIG d   1       6.232  -1.826  -3.219  0.00  0.00    -0.018 A 
ATOM     19  O   LIG d   1       8.241  -1.798  -4.496  0.00  0.00    -0.422 OA
ATOM     20  C   LIG d   1       5.229  -1.127  -2.578  0.00  0.00    -0.055 A 
ATOM     21  H   LIG d   1       6.224  -2.905  -3.219  0.00  0.00     0.065 H 
ATOM     22  C   LIG d   1       5.226   0.260  -2.570  0.00  0.00    -0.050 A 
ATOM     23  H   LIG d   1       4.438  -1.667  -2.079  0.00  0.00     0.062 H 
ATOM     24  C   LIG d   1       9.233  -1.145  -5.123  0.00  0.00     0.338 A 
ATOM     25  C   LIG d   1       9.288   0.265  -5.153  0.00  0.00     0.028 A 
ATOM     26  O   LIG d   1      10.105  -1.786  -5.681  0.00  0.00    -0.245 OA
ATOM     27  H   LIG d   1      10.096   0.764  -5.669  0.00  0.00     0.069 H 
ATOM     28  H   LIG d   1       6.209   2.040  -3.190  0.00  0.00     0.063 H 
BRANCH  22  29
ATOM     29  C   LIG d   1       4.120   1.001  -1.865  0.00  0.00    -0.040 C 
ATOM     30  H   LIG d   1       3.831   1.870  -2.455  0.00  0.00     0.028 H 
ATOM     31  H   LIG d   1       3.261   0.341  -1.743  0.00  0.00     0.028 H 
ATOM     32  H   LIG d   1       4.469   1.327  -0.884  0.00  0.00     0.028 H 
ENDBRANCH  22  29
ENDBRANCH  11  14
ENDBRANCH  10  11
ENDBRANCH   1  10
BRANCH   3  33
ATOM     33  C   LIG d   1       9.464   8.114  -6.309  0.00  0.00    -0.038 C 
ATOM     34  H   LIG d   1       8.716   7.787  -7.031  0.00  0.00     0.028 H 
ATOM     35  H   LIG d   1       9.146   9.053  -5.855  0.00  0.00     0.028 H 
ATOM     36  H   LIG d   1      10.418   8.261  -6.815  0.00  0.00     0.028 H 
ENDBRANCH   3  33
BRANCH   5  37
ATOM     37  C   LIG d   1       9.828   6.819  -1.483  0.00  0.00    -0.022 C 
ATOM     38  H   LIG d   1      10.071   5.943  -0.881  0.00  0.00     0.029 H 
ATOM     39  H   LIG d   1      10.583   7.589  -1.327  0.00  0.00     0.029 H 
ATOM     40  H   LIG d   1       8.852   7.203  -1.188  0.00  0.00     0.029 H 
ENDBRANCH   5  37
TORSDOF 6
ENDMDL
MODEL 10
REMARK VINA RESULT:      -5.8      4.622      6.800
REMARK  6 active torsions:
REMARK  status: ('A' for Active; 'I' for Inactive)
REMARK    1  A    between atoms: C_1  and  C_2 
REMARK    2  A    between atoms: C_8  and  C_13 
REMARK    3  A    between atoms: C_13  and  S_14 
REMARK    4  A    between atoms: S_14  and  C_15 
REMARK    5  A    between atoms: C_17  and  C_22 
REMARK    6  A    between atoms: C_19  and  C_21 
ROOT
ATOM      1  C   LIG d   1       8.168  -4.551  -4.696  0.00  0.00     0.115 A 
ATOM      2  C   LIG d   1       8.917  -5.684  -4.329  0.00  0.00     0.086 A 
ATOM      3  C   LIG d   1       8.405  -6.954  -4.625  0.00  0.00    -0.029 A 
ATOM      4  C   LIG d   1       7.187  -7.037  -5.276  0.00  0.00    -0.036 A 
ATOM      5  C   LIG d   1       6.512  -5.877  -5.610  0.00  0.00     0.040 A 
ATOM      6  N   LIG d   1       7.007  -4.690  -5.318  0.00  0.00    -0.244 NA
ATOM      7  C   LIG d   1      10.176  -5.542  -3.661  0.00  0.00     0.102 C 
ATOM      8  N   LIG d   1      11.174  -5.430  -3.132  0.00  0.00    -0.191 NA
ATOM      9  H   LIG d   1       6.768  -8.001  -5.523  0.00  0.00     0.064 H 
ENDROOT
BRANCH   1  10
ATOM     10  S   LIG d   1       8.781  -2.940  -4.332  0.00  0.00    -0.100 SA
BRANCH  10  11
ATOM     11  C   LIG d   1       7.669  -1.942  -5.353  0.00  0.00     0.026 C 
ATOM     12  H   LIG d   1       6.719  -2.463  -5.471  0.00  0.00     0.043 H 
ATOM     13  H   LIG d   1       8.121  -1.784  -6.333  0.00  0.00     0.043 H 
BRANCH  11  14
ATOM     14  C   LIG d   1       7.435  -0.611  -4.687  0.00  0.00    -0.020 A 
ATOM     15  C   LIG d   1       6.344  -0.433  -3.723  0.00  0.00     0.022 A 
ATOM     16  C   LIG d   1       6.162   0.826  -3.126  0.00  0.00     0.139 A 
ATOM     17  C   LIG d   1       5.493  -1.492  -3.393  0.00  0.00    -0.048 A 
ATOM     18  C   LIG d   1       5.131   1.003  -2.211  0.00  0.00    -0.018 A 
ATOM     19  O   LIG d   1       6.984   1.847  -3.445  0.00  0.00    -0.422 OA
ATOM     20  C   LIG d   1       4.302  -0.054  -1.900  0.00  0.00    -0.055 A 
ATOM     21  H   LIG d   1       4.979   1.965  -1.745  0.00  0.00     0.065 H 
ATOM     22  C   LIG d   1       4.485  -1.297  -2.492  0.00  0.00    -0.050 A 
ATOM     23  H   LIG d   1       3.502   0.086  -1.188  0.00  0.00     0.062 H 
ATOM     24  C   LIG d   1       7.985   1.692  -4.327  0.00  0.00     0.338 A 
ATOM     25  C   LIG d   1       8.226   0.456  -4.963  0.00  0.00     0.028 A 
ATOM     26  O   LIG d   1       8.702   2.642  -4.583  0.00  0.00    -0.245 OA
ATOM     27  H   LIG d   1       9.041   0.359  -5.666  0.00  0.00     0.069 H 
ATOM     28  H   LIG d   1       5.631  -2.462  -3.850  0.00  0.00     0.063 H 
BRANCH  22  29
ATOM     29  C   LIG d   1       3.567  -2.437  -2.136  0.00  0.00    -0.040 C 
ATOM     30  H   LIG d   1       3.146  -2.268  -1.146  0.00  0.00     0.028 H 
ATOM     31  H   LIG d   1       2.762  -2.496  -2.869  0.00  0.00     0.028 H 
ATOM     32  H   LIG d   1       4.130  -3.371  -2.138  0.00  0.00     0.028 H 
ENDBRANCH  22  29
ENDBRANCH  11  14
ENDBRANCH  10  11
ENDBRANCH   1  10
BRANCH   3  33
ATOM     33  C   LIG d   1       9.167  -8.198  -4.248  0.00  0.00    -0.038 C 
ATOM     34  H   LIG d   1       9.911  -8.415  -5.014  0.00  0.00     0.028 H 
ATOM     35  H   LIG d   1       9.664  -8.045  -3.291  0.00  0.00     0.028 H 
ATOM     36  H   LIG d   1       8.475  -9.036  -4.166  0.00  0.00     0.028 H 
ENDBRANCH   3  33
BRANCH   5  37
ATOM     37  C   LIG d   1       5.185  -5.971  -6.318  0.00  0.00    -0.022 C 
ATOM     38  H   LIG d   1       4.395  -5.619  -5.656  0.00  0.00     0.029 H 
ATOM     39  H   LIG d   1       5.208  -5.356  -7.217  0.00  0.00     0.029 H 
ATOM     40  H   LIG d   1       4.994  -7.008  -6.593  0.00  0.00     0.029 H 
ENDBRANCH   5  37
TORSDOF 6
ENDMDL
