MODEL 1
REMARK VINA RESULT:      -6.3      0.000      0.000
REMARK  5 active torsions:
REMARK  status: ('A' for Active; 'I' for Inactive)
REMARK    1  A    between atoms: C_1  and  C_2 
REMARK       I    between atoms: C_2  and  N_4 
REMARK    2  A    between atoms: N_4  and  C_5 
REMARK    3  A    between atoms: C_5  and  C_7 
REMARK    4  A    between atoms: C_5  and  C_18 
REMARK    5  A    between atoms: C_7  and  C_8 
REMARK       I    between atoms: C_18  and  N_20 
ROOT
ATOM      1  C   LIG d   1       4.986  -3.646  -4.530  0.00  0.00     0.001 C 
ATOM      2  H   LIG d   1       3.990  -3.816  -4.119  0.00  0.00     0.034 H 
ATOM      3  H   LIG d   1       5.630  -4.489  -4.280  0.00  0.00     0.034 H 
ENDROOT
BRANCH   1   4
ATOM      4  C   LIG d   1       4.894  -3.508  -6.051  0.00  0.00     0.103 C 
ATOM      5  H   LIG d   1       5.884  -3.300  -6.456  0.00  0.00     0.060 H 
BRANCH   4   6
ATOM      6  N   LIG d   1       3.987  -2.407  -6.387  0.00  0.00    -0.304 N 
ATOM      7  C   LIG d   1       4.435  -1.362  -7.111  0.00  0.00     0.210 C 
ATOM      8  O   LIG d   1       5.589  -1.333  -7.483  0.00  0.00    -0.276 OA
ATOM      9  H   LIG d   1       3.065  -2.429  -6.089  0.00  0.00     0.149 HD
BRANCH   7  10
ATOM     10  C   LIG d   1       3.503  -0.229  -7.457  0.00  0.00     0.012 C 
ATOM     11  H   LIG d   1       2.723  -0.156  -6.700  0.00  0.00     0.032 H 
ATOM     12  H   LIG d   1       4.064   0.705  -7.493  0.00  0.00     0.032 H 
ATOM     13  H   LIG d   1       3.049  -0.418  -8.430  0.00  0.00     0.032 H 
ENDBRANCH   7  10
ENDBRANCH   4   6
BRANCH   4  14
ATOM     14  C   LIG d   1       4.367  -4.790  -6.641  0.00  0.00     0.231 C 
ATOM     15  O   LIG d   1       3.432  -5.360  -6.117  0.00  0.00    -0.274 OA
ATOM     16  N   LIG d   1       4.934  -5.304  -7.750  0.00  0.00    -0.328 N 
ATOM     17  H   LIG d   1       5.681  -4.848  -8.169  0.00  0.00     0.145 HD
ATOM     18  H   LIG d   1       4.595  -6.129  -8.130  0.00  0.00     0.145 HD
ENDBRANCH   4  14
ENDBRANCH   1   4
BRANCH   1  19
ATOM     19  C   LIG d   1       5.561  -2.382  -3.944  0.00  0.00    -0.020 A 
ATOM     20  C   LIG d   1       4.805  -1.268  -3.364  0.00  0.00     0.003 A 
ATOM     21  C   LIG d   1       5.763  -0.325  -2.949  0.00  0.00     0.047 A 
ATOM     22  C   LIG d   1       3.447  -1.012  -3.172  0.00  0.00    -0.052 A 
ATOM     23  N   LIG d   1       7.002  -0.835  -3.267  0.00  0.00    -0.360 N 
ATOM     24  C   LIG d   1       5.340   0.856  -2.347  0.00  0.00    -0.038 A 
ATOM     25  C   LIG d   1       6.861  -2.061  -3.860  0.00  0.00     0.006 A 
ATOM     26  H   LIG d   1       7.848  -0.392  -3.098  0.00  0.00     0.165 HD
ATOM     27  H   LIG d   1       7.676  -2.679  -4.206  0.00  0.00     0.081 H 
ATOM     28  C   LIG d   1       3.993   1.092  -2.175  0.00  0.00    -0.060 A 
ATOM     29  H   LIG d   1       6.064   1.591  -2.028  0.00  0.00     0.064 H 
ATOM     30  C   LIG d   1       3.053   0.156  -2.583  0.00  0.00    -0.061 A 
ATOM     31  H   LIG d   1       3.667   2.011  -1.712  0.00  0.00     0.062 H 
ATOM     32  H   LIG d   1       2.002   0.352  -2.434  0.00  0.00     0.062 H 
ATOM     33  H   LIG d   1       2.709  -1.736  -3.487  0.00  0.00     0.062 H 
ENDBRANCH   1  19
TORSDOF 5
ENDMDL
MODEL 2
REMARK VINA RESULT:      -5.7      2.635      3.659
REMARK  5 active torsions:
REMARK  status: ('A' for Active; 'I' for Inactive)
REMARK    1  A    between atoms: C_1  and  C_2 
REMARK       I    between atoms: C_2  and  N_4 
REMARK    2  A    between atoms: N_4  and  C_5 
REMARK    3  A    between atoms: C_5  and  C_7 
REMARK    4  A    between atoms: C_5  and  C_18 
REMARK    5  A    between atoms: C_7  and  C_8 
REMARK       I    between atoms: C_18  and  N_20 
ROOT
ATOM      1  C   LIG d   1       7.368  -2.445  -4.044  0.00  0.00     0.001 C 
ATOM      2  H   LIG d   1       7.518  -3.428  -4.492  0.00  0.00     0.034 H 
ATOM      3  H   LIG d   1       7.850  -2.414  -3.067  0.00  0.00     0.034 H 
ENDROOT
BRANCH   1   4
ATOM      4  C   LIG d   1       7.981  -1.374  -4.948  0.00  0.00     0.103 C 
ATOM      5  H   LIG d   1       7.941  -0.408  -4.445  0.00  0.00     0.060 H 
BRANCH   4   6
ATOM      6  N   LIG d   1       7.227  -1.304  -6.202  0.00  0.00    -0.304 N 
ATOM      7  C   LIG d   1       6.739  -0.122  -6.630  0.00  0.00     0.210 C 
ATOM      8  O   LIG d   1       6.925   0.882  -5.976  0.00  0.00    -0.276 OA
ATOM      9  H   LIG d   1       7.078  -2.107  -6.725  0.00  0.00     0.149 HD
BRANCH   7  10
ATOM     10  C   LIG d   1       5.963  -0.049  -7.920  0.00  0.00     0.012 C 
ATOM     11  H   LIG d   1       6.387  -0.748  -8.639  0.00  0.00     0.032 H 
ATOM     12  H   LIG d   1       4.921  -0.307  -7.732  0.00  0.00     0.032 H 
ATOM     13  H   LIG d   1       6.020   0.964  -8.320  0.00  0.00     0.032 H 
ENDBRANCH   7  10
ENDBRANCH   4   6
BRANCH   4  14
ATOM     14  C   LIG d   1       9.416  -1.727  -5.244  0.00  0.00     0.231 C 
ATOM     15  O   LIG d   1       9.894  -1.464  -6.328  0.00  0.00    -0.274 OA
ATOM     16  N   LIG d   1      10.168  -2.336  -4.306  0.00  0.00    -0.328 N 
ATOM     17  H   LIG d   1       9.785  -2.545  -3.439  0.00  0.00     0.145 HD
ATOM     18  H   LIG d   1      11.091  -2.562  -4.496  0.00  0.00     0.145 HD
ENDBRANCH   4  14
ENDBRANCH   1   4
BRANCH   1  19
ATOM     19  C   LIG d   1       5.893  -2.185  -3.885  0.00  0.00    -0.020 A 
ATOM     20  C   LIG d   1       5.276  -0.996  -3.289  0.00  0.00     0.003 A 
ATOM     21  C   LIG d   1       3.886  -1.200  -3.365  0.00  0.00     0.047 A 
ATOM     22  C   LIG d   1       5.778   0.177  -2.723  0.00  0.00    -0.052 A 
ATOM     23  N   LIG d   1       3.687  -2.428  -3.956  0.00  0.00    -0.360 N 
ATOM     24  C   LIG d   1       3.026  -0.224  -2.873  0.00  0.00    -0.038 A 
ATOM     25  C   LIG d   1       4.894  -2.999  -4.258  0.00  0.00     0.006 A 
ATOM     26  H   LIG d   1       2.821  -2.829  -4.131  0.00  0.00     0.165 HD
ATOM     27  H   LIG d   1       5.023  -3.963  -4.730  0.00  0.00     0.081 H 
ATOM     28  C   LIG d   1       3.544   0.923  -2.310  0.00  0.00    -0.060 A 
ATOM     29  H   LIG d   1       1.957  -0.370  -2.921  0.00  0.00     0.064 H 
ATOM     30  C   LIG d   1       4.915   1.121  -2.241  0.00  0.00    -0.061 A 
ATOM     31  H   LIG d   1       2.874   1.677  -1.926  0.00  0.00     0.062 H 
ATOM     32  H   LIG d   1       5.305   2.028  -1.805  0.00  0.00     0.062 H 
ATOM     33  H   LIG d   1       6.845   0.338  -2.666  0.00  0.00     0.062 H 
ENDBRANCH   1  19
TORSDOF 5
ENDMDL
MODEL 3
REMARK VINA RESULT:      -5.6      2.520      3.698
REMARK  5 active torsions:
REMARK  status: ('A' for Active; 'I' for Inactive)
REMARK    1  A    between atoms: C_1  and  C_2 
REMARK       I    between atoms: C_2  and  N_4 
REMARK    2  A    between atoms: N_4  and  C_5 
REMARK    3  A    between atoms: C_5  and  C_7 
REMARK    4  A    between atoms: C_5  and  C_18 
REMARK    5  A    between atoms: C_7  and  C_8 
REMARK       I    between atoms: C_18  and  N_20 
ROOT
ATOM      1  C   LIG d   1       3.059   0.256  -6.842  0.00  0.00     0.001 C 
ATOM      2  H   LIG d   1       3.011   1.323  -6.618  0.00  0.00     0.034 H 
ATOM      3  H   LIG d   1       2.049  -0.142  -6.932  0.00  0.00     0.034 H 
ENDROOT
BRANCH   1   4
ATOM      4  C   LIG d   1       3.809   0.045  -8.158  0.00  0.00     0.103 C 
ATOM      5  H   LIG d   1       4.378  -0.883  -8.107  0.00  0.00     0.060 H 
BRANCH   4   6
ATOM      6  N   LIG d   1       4.725   1.167  -8.384  0.00  0.00    -0.304 N 
ATOM      7  C   LIG d   1       6.050   0.945  -8.489  0.00  0.00     0.210 C 
ATOM      8  O   LIG d   1       6.484  -0.183  -8.397  0.00  0.00    -0.276 OA
ATOM      9  H   LIG d   1       4.378   2.070  -8.457  0.00  0.00     0.149 HD
BRANCH   7  10
ATOM     10  C   LIG d   1       6.992   2.098  -8.721  0.00  0.00     0.012 C 
ATOM     11  H   LIG d   1       6.509   3.028  -8.422  0.00  0.00     0.032 H 
ATOM     12  H   LIG d   1       7.897   1.952  -8.132  0.00  0.00     0.032 H 
ATOM     13  H   LIG d   1       7.251   2.147  -9.779  0.00  0.00     0.032 H 
ENDBRANCH   7  10
ENDBRANCH   4   6
BRANCH   4  14
ATOM     14  C   LIG d   1       2.821  -0.032  -9.293  0.00  0.00     0.231 C 
ATOM     15  O   LIG d   1       1.737  -0.550  -9.119  0.00  0.00    -0.274 OA
ATOM     16  N   LIG d   1       3.140   0.473 -10.501  0.00  0.00    -0.328 N 
ATOM     17  H   LIG d   1       4.007   0.887 -10.639  0.00  0.00     0.145 HD
ATOM     18  H   LIG d   1       2.504   0.424 -11.231  0.00  0.00     0.145 HD
ENDBRANCH   4  14
ENDBRANCH   1   4
BRANCH   1  19
ATOM     19  C   LIG d   1       3.784  -0.458  -5.730  0.00  0.00    -0.020 A 
ATOM     20  C   LIG d   1       3.889  -0.020  -4.336  0.00  0.00     0.003 A 
ATOM     21  C   LIG d   1       4.651  -1.002  -3.677  0.00  0.00     0.047 A 
ATOM     22  C   LIG d   1       3.410   1.083  -3.626  0.00  0.00    -0.052 A 
ATOM     23  N   LIG d   1       4.987  -1.953  -4.614  0.00  0.00    -0.360 N 
ATOM     24  C   LIG d   1       4.918  -0.860  -2.318  0.00  0.00    -0.038 A 
ATOM     25  C   LIG d   1       4.462  -1.611  -5.831  0.00  0.00     0.006 A 
ATOM     26  H   LIG d   1       5.516  -2.747  -4.438  0.00  0.00     0.165 HD
ATOM     27  H   LIG d   1       4.574  -2.187  -6.738  0.00  0.00     0.081 H 
ATOM     28  C   LIG d   1       4.443   0.242  -1.640  0.00  0.00    -0.060 A 
ATOM     29  H   LIG d   1       5.506  -1.603  -1.802  0.00  0.00     0.064 H 
ATOM     30  C   LIG d   1       3.688   1.205  -2.294  0.00  0.00    -0.061 A 
ATOM     31  H   LIG d   1       4.655   0.352  -0.587  0.00  0.00     0.062 H 
ATOM     32  H   LIG d   1       3.317   2.058  -1.746  0.00  0.00     0.062 H 
ATOM     33  H   LIG d   1       2.822   1.837  -4.128  0.00  0.00     0.062 H 
ENDBRANCH   1  19
TORSDOF 5
ENDMDL
MODEL 4
REMARK VINA RESULT:      -5.6      1.958      3.531
REMARK  5 active torsions:
REMARK  status: ('A' for Active; 'I' for Inactive)
REMARK    1  A    between atoms: C_1  and  C_2 
REMARK       I    between atoms: C_2  and  N_4 
REMARK    2  A    between atoms: N_4  and  C_5 
REMARK    3  A    between atoms: C_5  and  C_7 
REMARK    4  A    between atoms: C_5  and  C_18 
REMARK    5  A    between atoms: C_7  and  C_8 
REMARK       I    between atoms: C_18  and  N_20 
ROOT
ATOM      1  C   LIG d   1       5.437  -2.931  -6.777  0.00  0.00     0.001 C 
ATOM      2  H   LIG d   1       6.218  -3.280  -6.102  0.00  0.00     0.034 H 
ATOM      3  H   LIG d   1       5.884  -2.629  -7.724  0.00  0.00     0.034 H 
ENDROOT
BRANCH   1   4
ATOM      4  C   LIG d   1       4.434  -4.060  -7.024  0.00  0.00     0.103 C 
ATOM      5  H   LIG d   1       3.586  -3.946  -6.348  0.00  0.00     0.060 H 
BRANCH   4   6
ATOM      6  N   LIG d   1       5.083  -5.351  -6.781  0.00  0.00    -0.304 N 
ATOM      7  C   LIG d   1       4.740  -6.085  -5.704  0.00  0.00     0.210 C 
ATOM      8  O   LIG d   1       3.894  -5.678  -4.937  0.00  0.00    -0.276 OA
ATOM      9  H   LIG d   1       5.760  -5.677  -7.394  0.00  0.00     0.149 HD
BRANCH   7  10
ATOM     10  C   LIG d   1       5.407  -7.413  -5.453  0.00  0.00     0.012 C 
ATOM     11  H   LIG d   1       6.419  -7.393  -5.855  0.00  0.00     0.032 H 
ATOM     12  H   LIG d   1       5.445  -7.604  -4.381  0.00  0.00     0.032 H 
ATOM     13  H   LIG d   1       4.837  -8.204  -5.943  0.00  0.00     0.032 H 
ENDBRANCH   7  10
ENDBRANCH   4   6
BRANCH   4  14
ATOM     14  C   LIG d   1       3.951  -4.001  -8.450  0.00  0.00     0.231 C 
ATOM     15  O   LIG d   1       4.578  -3.371  -9.277  0.00  0.00    -0.274 OA
ATOM     16  N   LIG d   1       2.824  -4.647  -8.807  0.00  0.00    -0.328 N 
ATOM     17  H   LIG d   1       2.324  -5.151  -8.146  0.00  0.00     0.145 HD
ATOM     18  H   LIG d   1       2.514  -4.610  -9.725  0.00  0.00     0.145 HD
ENDBRANCH   4  14
ENDBRANCH   1   4
BRANCH   1  19
ATOM     19  C   LIG d   1       4.727  -1.755  -6.158  0.00  0.00    -0.020 A 
ATOM     20  C   LIG d   1       4.342  -1.611  -4.752  0.00  0.00     0.003 A 
ATOM     21  C   LIG d   1       3.714  -0.356  -4.648  0.00  0.00     0.047 A 
ATOM     22  C   LIG d   1       4.479  -2.417  -3.620  0.00  0.00    -0.052 A 
ATOM     23  N   LIG d   1       3.715   0.205  -5.905  0.00  0.00    -0.360 N 
ATOM     24  C   LIG d   1       3.238   0.068  -3.411  0.00  0.00    -0.038 A 
ATOM     25  C   LIG d   1       4.323  -0.643  -6.792  0.00  0.00     0.006 A 
ATOM     26  H   LIG d   1       3.342   1.072  -6.130  0.00  0.00     0.165 HD
ATOM     27  H   LIG d   1       4.458  -0.445  -7.845  0.00  0.00     0.081 H 
ATOM     28  C   LIG d   1       3.376  -0.749  -2.309  0.00  0.00    -0.060 A 
ATOM     29  H   LIG d   1       2.749   1.026  -3.318  0.00  0.00     0.064 H 
ATOM     30  C   LIG d   1       3.999  -1.984  -2.416  0.00  0.00    -0.061 A 
ATOM     31  H   LIG d   1       3.001  -0.420  -1.351  0.00  0.00     0.062 H 
ATOM     32  H   LIG d   1       4.107  -2.608  -1.542  0.00  0.00     0.062 H 
ATOM     33  H   LIG d   1       4.964  -3.379  -3.697  0.00  0.00     0.062 H 
ENDBRANCH   1  19
TORSDOF 5
ENDMDL
MODEL 5
REMARK VINA RESULT:      -5.5      2.491      3.762
REMARK  5 active torsions:
REMARK  status: ('A' for Active; 'I' for Inactive)
REMARK    1  A    between atoms: C_1  and  C_2 
REMARK       I    between atoms: C_2  and  N_4 
REMARK    2  A    between atoms: N_4  and  C_5 
REMARK    3  A    between atoms: C_5  and  C_7 
REMARK    4  A    between atoms: C_5  and  C_18 
REMARK    5  A    between atoms: C_7  and  C_8 
REMARK       I    between atoms: C_18  and  N_20 
ROOT
ATOM      1  C   LIG d   1       6.368  -1.294  -6.739  0.00  0.00     0.001 C 
ATOM      2  H   LIG d   1       6.541  -2.016  -7.539  0.00  0.00     0.034 H 
ATOM      3  H   LIG d   1       7.323  -0.994  -6.309  0.00  0.00     0.034 H 
ENDROOT
BRANCH   1   4
ATOM      4  C   LIG d   1       5.657  -0.064  -7.308  0.00  0.00     0.103 C 
ATOM      5  H   LIG d   1       5.302   0.560  -6.488  0.00  0.00     0.060 H 
BRANCH   4   6
ATOM      6  N   LIG d   1       4.518  -0.493  -8.124  0.00  0.00    -0.304 N 
ATOM      7  C   LIG d   1       3.315   0.095  -7.965  0.00  0.00     0.210 C 
ATOM      8  O   LIG d   1       3.177   0.979  -7.147  0.00  0.00    -0.276 OA
ATOM      9  H   LIG d   1       4.628  -1.200  -8.778  0.00  0.00     0.149 HD
BRANCH   7  10
ATOM     10  C   LIG d   1       2.144  -0.345  -8.805  0.00  0.00     0.012 C 
ATOM     11  H   LIG d   1       1.684   0.525  -9.272  0.00  0.00     0.032 H 
ATOM     12  H   LIG d   1       2.488  -1.033  -9.577  0.00  0.00     0.032 H 
ATOM     13  H   LIG d   1       1.412  -0.847  -8.171  0.00  0.00     0.032 H 
ENDBRANCH   7  10
ENDBRANCH   4   6
BRANCH   4  14
ATOM     14  C   LIG d   1       6.617   0.723  -8.160  0.00  0.00     0.231 C 
ATOM     15  O   LIG d   1       6.494   1.927  -8.259  0.00  0.00    -0.274 OA
ATOM     16  N   LIG d   1       7.613   0.092  -8.813  0.00  0.00    -0.328 N 
ATOM     17  H   LIG d   1       7.711  -0.870  -8.733  0.00  0.00     0.145 HD
ATOM     18  H   LIG d   1       8.232   0.599  -9.361  0.00  0.00     0.145 HD
ENDBRANCH   4  14
ENDBRANCH   1   4
BRANCH   1  19
ATOM     19  C   LIG d   1       5.510  -1.923  -5.672  0.00  0.00    -0.020 A 
ATOM     20  C   LIG d   1       5.232  -1.374  -4.342  0.00  0.00     0.003 A 
ATOM     21  C   LIG d   1       4.387  -2.304  -3.708  0.00  0.00     0.047 A 
ATOM     22  C   LIG d   1       5.617  -0.212  -3.672  0.00  0.00    -0.052 A 
ATOM     23  N   LIG d   1       4.184  -3.339  -4.593  0.00  0.00    -0.360 N 
ATOM     24  C   LIG d   1       3.943  -2.049  -2.414  0.00  0.00    -0.038 A 
ATOM     25  C   LIG d   1       4.862  -3.094  -5.757  0.00  0.00     0.006 A 
ATOM     26  H   LIG d   1       3.643  -4.124  -4.418  0.00  0.00     0.165 HD
ATOM     27  H   LIG d   1       4.870  -3.747  -6.618  0.00  0.00     0.081 H 
ATOM     28  C   LIG d   1       4.343  -0.900  -1.768  0.00  0.00    -0.060 A 
ATOM     29  H   LIG d   1       3.299  -2.757  -1.914  0.00  0.00     0.064 H 
ATOM     30  C   LIG d   1       5.173   0.016  -2.399  0.00  0.00    -0.061 A 
ATOM     31  H   LIG d   1       4.001  -0.707  -0.762  0.00  0.00     0.062 H 
ATOM     32  H   LIG d   1       5.471   0.916  -1.882  0.00  0.00     0.062 H 
ATOM     33  H   LIG d   1       6.262   0.505  -4.157  0.00  0.00     0.062 H 
ENDBRANCH   1  19
TORSDOF 5
ENDMDL
MODEL 6
REMARK VINA RESULT:      -5.5      2.761      5.892
REMARK  5 active torsions:
REMARK  status: ('A' for Active; 'I' for Inactive)
REMARK    1  A    between atoms: C_1  and  C_2 
REMARK       I    between atoms: C_2  and  N_4 
REMARK    2  A    between atoms: N_4  and  C_5 
REMARK    3  A    between atoms: C_5  and  C_7 
REMARK    4  A    between atoms: C_5  and  C_18 
REMARK    5  A    between atoms: C_7  and  C_8 
REMARK       I    between atoms: C_18  and  N_20 
ROOT
ATOM      1  C   LIG d   1       4.875  -0.392  -6.800  0.00  0.00     0.001 C 
ATOM      2  H   LIG d   1       5.489   0.488  -6.599  0.00  0.00     0.034 H 
ATOM      3  H   LIG d   1       5.506  -1.192  -7.188  0.00  0.00     0.034 H 
ENDROOT
BRANCH   1   4
ATOM      4  C   LIG d   1       4.206  -0.854  -5.505  0.00  0.00     0.103 C 
ATOM      5  H   LIG d   1       3.143  -1.017  -5.684  0.00  0.00     0.060 H 
BRANCH   4   6
ATOM      6  N   LIG d   1       4.374   0.174  -4.474  0.00  0.00    -0.304 N 
ATOM      7  C   LIG d   1       3.517   0.235  -3.436  0.00  0.00     0.210 C 
ATOM      8  O   LIG d   1       2.606  -0.561  -3.355  0.00  0.00    -0.276 OA
ATOM      9  H   LIG d   1       5.102   0.812  -4.539  0.00  0.00     0.149 HD
BRANCH   7  10
ATOM     10  C   LIG d   1       3.690   1.292  -2.376  0.00  0.00     0.012 C 
ATOM     11  H   LIG d   1       4.137   0.847  -1.488  0.00  0.00     0.032 H 
ATOM     12  H   LIG d   1       4.339   2.082  -2.753  0.00  0.00     0.032 H 
ATOM     13  H   LIG d   1       2.717   1.713  -2.121  0.00  0.00     0.032 H 
ENDBRANCH   7  10
ENDBRANCH   4   6
BRANCH   4  14
ATOM     14  C   LIG d   1       4.841  -2.139  -5.041  0.00  0.00     0.231 C 
ATOM     15  O   LIG d   1       6.050  -2.239  -5.004  0.00  0.00    -0.274 OA
ATOM     16  N   LIG d   1       4.067  -3.176  -4.667  0.00  0.00    -0.328 N 
ATOM     17  H   LIG d   1       3.100  -3.095  -4.696  0.00  0.00     0.145 HD
ATOM     18  H   LIG d   1       4.475  -4.003  -4.368  0.00  0.00     0.145 HD
ENDBRANCH   4  14
ENDBRANCH   1   4
BRANCH   1  19
ATOM     19  C   LIG d   1       3.819  -0.045  -7.817  0.00  0.00    -0.020 A 
ATOM     20  C   LIG d   1       3.114  -0.982  -8.696  0.00  0.00     0.003 A 
ATOM     21  C   LIG d   1       2.226  -0.204  -9.460  0.00  0.00     0.047 A 
ATOM     22  C   LIG d   1       3.166  -2.365  -8.881  0.00  0.00    -0.052 A 
ATOM     23  N   LIG d   1       2.396   1.106  -9.073  0.00  0.00    -0.360 N 
ATOM     24  C   LIG d   1       1.405  -0.827 -10.396  0.00  0.00    -0.038 A 
ATOM     25  C   LIG d   1       3.349   1.181  -8.093  0.00  0.00     0.006 A 
ATOM     26  H   LIG d   1       1.913   1.863  -9.439  0.00  0.00     0.165 HD
ATOM     27  H   LIG d   1       3.673   2.092  -7.613  0.00  0.00     0.081 H 
ATOM     28  C   LIG d   1       1.480  -2.192 -10.568  0.00  0.00    -0.060 A 
ATOM     29  H   LIG d   1       0.723  -0.241 -10.993  0.00  0.00     0.064 H 
ATOM     30  C   LIG d   1       2.355  -2.956  -9.808  0.00  0.00    -0.061 A 
ATOM     31  H   LIG d   1       0.845  -2.673 -11.297  0.00  0.00     0.062 H 
ATOM     32  H   LIG d   1       2.394  -4.026  -9.950  0.00  0.00     0.062 H 
ATOM     33  H   LIG d   1       3.844  -2.965  -8.293  0.00  0.00     0.062 H 
ENDBRANCH   1  19
TORSDOF 5
ENDMDL
MODEL 7
REMARK VINA RESULT:      -5.5      2.588      4.102
REMARK  5 active torsions:
REMARK  status: ('A' for Active; 'I' for Inactive)
REMARK    1  A    between atoms: C_1  and  C_2 
REMARK       I    between atoms: C_2  and  N_4 
REMARK    2  A    between atoms: N_4  and  C_5 
REMARK    3  A    between atoms: C_5  and  C_7 
REMARK    4  A    between atoms: C_5  and  C_18 
REMARK    5  A    between atoms: C_7  and  C_8 
REMARK       I    between atoms: C_18  and  N_20 
ROOT
ATOM      1  C   LIG d   1       4.881  -0.496  -7.180  0.00  0.00     0.001 C 
ATOM      2  H   LIG d   1       5.557  -0.967  -7.896  0.00  0.00     0.034 H 
ATOM      3  H   LIG d   1       5.331   0.425  -6.809  0.00  0.00     0.034 H 
ENDROOT
BRANCH   1   4
ATOM      4  C   LIG d   1       3.554  -0.172  -7.870  0.00  0.00     0.103 C 
ATOM      5  H   LIG d   1       2.793  -0.881  -7.542  0.00  0.00     0.060 H 
BRANCH   4   6
ATOM      6  N   LIG d   1       3.721  -0.271  -9.322  0.00  0.00    -0.304 N 
ATOM      7  C   LIG d   1       2.782  -0.887 -10.068  0.00  0.00     0.210 C 
ATOM      8  O   LIG d   1       1.800  -1.358  -9.537  0.00  0.00    -0.276 OA
ATOM      9  H   LIG d   1       4.507   0.105  -9.747  0.00  0.00     0.149 HD
BRANCH   7  10
ATOM     10  C   LIG d   1       2.953  -0.989 -11.562  0.00  0.00     0.012 C 
ATOM     11  H   LIG d   1       2.624  -0.062 -12.029  0.00  0.00     0.032 H 
ATOM     12  H   LIG d   1       4.004  -1.161 -11.796  0.00  0.00     0.032 H 
ATOM     13  H   LIG d   1       2.356  -1.819 -11.939  0.00  0.00     0.032 H 
ENDBRANCH   7  10
ENDBRANCH   4   6
BRANCH   4  14
ATOM     14  C   LIG d   1       3.128   1.227  -7.507  0.00  0.00     0.231 C 
ATOM     15  O   LIG d   1       2.692   1.460  -6.399  0.00  0.00    -0.274 OA
ATOM     16  N   LIG d   1       3.230   2.219  -8.414  0.00  0.00    -0.328 N 
ATOM     17  H   LIG d   1       3.580   2.032  -9.299  0.00  0.00     0.145 HD
ATOM     18  H   LIG d   1       2.957   3.119  -8.180  0.00  0.00     0.145 HD
ENDBRANCH   4  14
ENDBRANCH   1   4
BRANCH   1  19
ATOM     19  C   LIG d   1       4.634  -1.436  -6.029  0.00  0.00    -0.020 A 
ATOM     20  C   LIG d   1       4.531  -1.072  -4.613  0.00  0.00     0.003 A 
ATOM     21  C   LIG d   1       4.293  -2.273  -3.920  0.00  0.00     0.047 A 
ATOM     22  C   LIG d   1       4.614   0.133  -3.913  0.00  0.00    -0.052 A 
ATOM     23  N   LIG d   1       4.268  -3.284  -4.855  0.00  0.00    -0.360 N 
ATOM     24  C   LIG d   1       4.144  -2.243  -2.537  0.00  0.00    -0.038 A 
ATOM     25  C   LIG d   1       4.473  -2.766  -6.105  0.00  0.00     0.006 A 
ATOM     26  H   LIG d   1       4.126  -4.222  -4.657  0.00  0.00     0.165 HD
ATOM     27  H   LIG d   1       4.499  -3.342  -7.018  0.00  0.00     0.081 H 
ATOM     28  C   LIG d   1       4.239  -1.044  -1.865  0.00  0.00    -0.060 A 
ATOM     29  H   LIG d   1       3.967  -3.158  -1.992  0.00  0.00     0.064 H 
ATOM     30  C   LIG d   1       4.469   0.138  -2.554  0.00  0.00    -0.061 A 
ATOM     31  H   LIG d   1       4.127  -1.024  -0.791  0.00  0.00     0.062 H 
ATOM     32  H   LIG d   1       4.533   1.071  -2.013  0.00  0.00     0.062 H 
ATOM     33  H   LIG d   1       4.793   1.057  -4.442  0.00  0.00     0.062 H 
ENDBRANCH   1  19
TORSDOF 5
ENDMDL
MODEL 8
REMARK VINA RESULT:      -5.4      2.620      3.513
REMARK  5 active torsions:
REMARK  status: ('A' for Active; 'I' for Inactive)
REMARK    1  A    between atoms: C_1  and  C_2 
REMARK       I    between atoms: C_2  and  N_4 
REMARK    2  A    between atoms: N_4  and  C_5 
REMARK    3  A    between atoms: C_5  and  C_7 
REMARK    4  A    between atoms: C_5  and  C_18 
REMARK    5  A    between atoms: C_7  and  C_8 
REMARK       I    between atoms: C_18  and  N_20 
ROOT
ATOM      1  C   LIG d   1       4.310  -1.453  -7.051  0.00  0.00     0.001 C 
ATOM      2  H   LIG d   1       3.488  -1.764  -7.698  0.00  0.00     0.034 H 
ATOM      3  H   LIG d   1       4.785  -2.334  -6.619  0.00  0.00     0.034 H 
ENDROOT
BRANCH   1   4
ATOM      4  C   LIG d   1       5.337  -0.671  -7.871  0.00  0.00     0.103 C 
ATOM      5  H   LIG d   1       5.636   0.221  -7.321  0.00  0.00     0.060 H 
BRANCH   4   6
ATOM      6  N   LIG d   1       4.743  -0.280  -9.152  0.00  0.00    -0.304 N 
ATOM      7  C   LIG d   1       4.541   1.024  -9.431  0.00  0.00     0.210 C 
ATOM      8  O   LIG d   1       4.850   1.872  -8.621  0.00  0.00    -0.276 OA
ATOM      9  H   LIG d   1       4.495  -0.957  -9.800  0.00  0.00     0.149 HD
BRANCH   7  10
ATOM     10  C   LIG d   1       3.930   1.427 -10.749  0.00  0.00     0.012 C 
ATOM     11  H   LIG d   1       2.878   1.143 -10.764  0.00  0.00     0.032 H 
ATOM     12  H   LIG d   1       4.018   2.506 -10.874  0.00  0.00     0.032 H 
ATOM     13  H   LIG d   1       4.454   0.923 -11.561  0.00  0.00     0.032 H 
ENDBRANCH   7  10
ENDBRANCH   4   6
BRANCH   4  14
ATOM     14  C   LIG d   1       6.545  -1.536  -8.121  0.00  0.00     0.231 C 
ATOM     15  O   LIG d   1       6.667  -2.592  -7.535  0.00  0.00    -0.274 OA
ATOM     16  N   LIG d   1       7.490  -1.138  -8.996  0.00  0.00    -0.328 N 
ATOM     17  H   LIG d   1       7.392  -0.295  -9.465  0.00  0.00     0.145 HD
ATOM     18  H   LIG d   1       8.267  -1.695  -9.157  0.00  0.00     0.145 HD
ENDBRANCH   4  14
ENDBRANCH   1   4
BRANCH   1  19
ATOM     19  C   LIG d   1       3.775  -0.578  -5.947  0.00  0.00    -0.020 A 
ATOM     20  C   LIG d   1       4.118  -0.662  -4.525  0.00  0.00     0.003 A 
ATOM     21  C   LIG d   1       3.381   0.354  -3.888  0.00  0.00     0.047 A 
ATOM     22  C   LIG d   1       4.961  -1.485  -3.777  0.00  0.00    -0.052 A 
ATOM     23  N   LIG d   1       2.643   0.991  -4.859  0.00  0.00    -0.360 N 
ATOM     24  C   LIG d   1       3.505   0.525  -2.512  0.00  0.00    -0.038 A 
ATOM     25  C   LIG d   1       2.891   0.422  -6.079  0.00  0.00     0.006 A 
ATOM     26  H   LIG d   1       2.038   1.733  -4.703  0.00  0.00     0.165 HD
ATOM     27  H   LIG d   1       2.442   0.734  -7.011  0.00  0.00     0.081 H 
ATOM     28  C   LIG d   1       4.337  -0.305  -1.792  0.00  0.00    -0.060 A 
ATOM     29  H   LIG d   1       2.942   1.297  -2.010  0.00  0.00     0.064 H 
ATOM     30  C   LIG d   1       5.064  -1.302  -2.426  0.00  0.00    -0.061 A 
ATOM     31  H   LIG d   1       4.428  -0.173  -0.724  0.00  0.00     0.062 H 
ATOM     32  H   LIG d   1       5.718  -1.939  -1.849  0.00  0.00     0.062 H 
ATOM     33  H   LIG d   1       5.531  -2.263  -4.264  0.00  0.00     0.062 H 
ENDBRANCH   1  19
TORSDOF 5
ENDMDL
MODEL 9
REMARK VINA RESULT:      -5.4      2.033      2.818
REMARK  5 active torsions:
REMARK  status: ('A' for Active; 'I' for Inactive)
REMARK    1  A    between atoms: C_1  and  C_2 
REMARK       I    between atoms: C_2  and  N_4 
REMARK    2  A    between atoms: N_4  and  C_5 
REMARK    3  A    between atoms: C_5  and  C_7 
REMARK    4  A    between atoms: C_5  and  C_18 
REMARK    5  A    between atoms: C_7  and  C_8 
REMARK       I    between atoms: C_18  and  N_20 
ROOT
ATOM      1  C   LIG d   1       5.337  -2.755  -5.843  0.00  0.00     0.001 C 
ATOM      2  H   LIG d   1       5.902  -2.482  -6.735  0.00  0.00     0.034 H 
ATOM      3  H   LIG d   1       4.272  -2.633  -6.037  0.00  0.00     0.034 H 
ENDROOT
BRANCH   1   4
ATOM      4  C   LIG d   1       5.626  -4.214  -5.483  0.00  0.00     0.103 C 
ATOM      5  H   LIG d   1       5.928  -4.276  -4.438  0.00  0.00     0.060 H 
BRANCH   4   6
ATOM      6  N   LIG d   1       6.705  -4.722  -6.334  0.00  0.00    -0.304 N 
ATOM      7  C   LIG d   1       7.864  -5.132  -5.781  0.00  0.00     0.210 C 
ATOM      8  O   LIG d   1       8.013  -5.080  -4.579  0.00  0.00    -0.276 OA
ATOM      9  H   LIG d   1       6.586  -4.763  -7.296  0.00  0.00     0.149 HD
BRANCH   7  10
ATOM     10  C   LIG d   1       8.974  -5.655  -6.656  0.00  0.00     0.012 C 
ATOM     11  H   LIG d   1       9.604  -6.330  -6.079  0.00  0.00     0.032 H 
ATOM     12  H   LIG d   1       8.547  -6.191  -7.503  0.00  0.00     0.032 H 
ATOM     13  H   LIG d   1       9.573  -4.819  -7.020  0.00  0.00     0.032 H 
ENDBRANCH   7  10
ENDBRANCH   4   6
BRANCH   4  14
ATOM     14  C   LIG d   1       4.385  -5.040  -5.698  0.00  0.00     0.231 C 
ATOM     15  O   LIG d   1       4.207  -6.048  -5.046  0.00  0.00    -0.274 OA
ATOM     16  N   LIG d   1       3.473  -4.660  -6.615  0.00  0.00    -0.328 N 
ATOM     17  H   LIG d   1       3.615  -3.854  -7.135  0.00  0.00     0.145 HD
ATOM     18  H   LIG d   1       2.674  -5.192  -6.752  0.00  0.00     0.145 HD
ENDBRANCH   4  14
ENDBRANCH   1   4
BRANCH   1  19
ATOM     19  C   LIG d   1       5.745  -1.865  -4.698  0.00  0.00    -0.020 A 
ATOM     20  C   LIG d   1       4.880  -0.939  -3.962  0.00  0.00     0.003 A 
ATOM     21  C   LIG d   1       5.696  -0.335  -2.989  0.00  0.00     0.047 A 
ATOM     22  C   LIG d   1       3.529  -0.596  -4.049  0.00  0.00    -0.052 A 
ATOM     23  N   LIG d   1       6.962  -0.854  -3.140  0.00  0.00    -0.360 N 
ATOM     24  C   LIG d   1       5.143   0.602  -2.121  0.00  0.00    -0.038 A 
ATOM     25  C   LIG d   1       6.972  -1.764  -4.164  0.00  0.00     0.006 A 
ATOM     26  H   LIG d   1       7.733  -0.612  -2.603  0.00  0.00     0.165 HD
ATOM     27  H   LIG d   1       7.838  -2.319  -4.491  0.00  0.00     0.081 H 
ATOM     28  C   LIG d   1       3.810   0.933  -2.232  0.00  0.00    -0.060 A 
ATOM     29  H   LIG d   1       5.760   1.078  -1.373  0.00  0.00     0.064 H 
ATOM     30  C   LIG d   1       3.008   0.331  -3.190  0.00  0.00    -0.061 A 
ATOM     31  H   LIG d   1       3.384   1.663  -1.560  0.00  0.00     0.062 H 
ATOM     32  H   LIG d   1       1.963   0.595  -3.258  0.00  0.00     0.062 H 
ATOM     33  H   LIG d   1       2.899  -1.061  -4.793  0.00  0.00     0.062 H 
ENDBRANCH   1  19
TORSDOF 5
ENDMDL
MODEL 10
REMARK VINA RESULT:      -5.3      2.860      6.164
REMARK  5 active torsions:
REMARK  status: ('A' for Active; 'I' for Inactive)
REMARK    1  A    between atoms: C_1  and  C_2 
REMARK       I    between atoms: C_2  and  N_4 
REMARK    2  A    between atoms: N_4  and  C_5 
REMARK    3  A    between atoms: C_5  and  C_7 
REMARK    4  A    between atoms: C_5  and  C_18 
REMARK    5  A    between atoms: C_7  and  C_8 
REMARK       I    between atoms: C_18  and  N_20 
ROOT
ATOM      1  C   LIG d   1       2.790   0.147  -6.415  0.00  0.00     0.001 C 
ATOM      2  H   LIG d   1       1.945  -0.542  -6.432  0.00  0.00     0.034 H 
ATOM      3  H   LIG d   1       2.428   1.160  -6.237  0.00  0.00     0.034 H 
ENDROOT
BRANCH   1   4
ATOM      4  C   LIG d   1       3.753  -0.254  -5.296  0.00  0.00     0.103 C 
ATOM      5  H   LIG d   1       4.752   0.120  -5.526  0.00  0.00     0.060 H 
BRANCH   4   6
ATOM      6  N   LIG d   1       3.792  -1.714  -5.185  0.00  0.00    -0.304 N 
ATOM      7  C   LIG d   1       4.976  -2.357  -5.158  0.00  0.00     0.210 C 
ATOM      8  O   LIG d   1       6.009  -1.727  -5.227  0.00  0.00    -0.276 OA
ATOM      9  H   LIG d   1       2.965  -2.219  -5.131  0.00  0.00     0.149 HD
BRANCH   7  10
ATOM     10  C   LIG d   1       5.016  -3.860  -5.043  0.00  0.00     0.012 C 
ATOM     11  H   LIG d   1       5.107  -4.141  -3.995  0.00  0.00     0.032 H 
ATOM     12  H   LIG d   1       4.098  -4.280  -5.454  0.00  0.00     0.032 H 
ATOM     13  H   LIG d   1       5.872  -4.243  -5.599  0.00  0.00     0.032 H 
ENDBRANCH   7  10
ENDBRANCH   4   6
BRANCH   4  14
ATOM     14  C   LIG d   1       3.284   0.338  -3.993  0.00  0.00     0.231 C 
ATOM     15  O   LIG d   1       3.442   1.520  -3.771  0.00  0.00    -0.274 OA
ATOM     16  N   LIG d   1       2.688  -0.446  -3.073  0.00  0.00    -0.328 N 
ATOM     17  H   LIG d   1       2.560  -1.391  -3.251  0.00  0.00     0.145 HD
ATOM     18  H   LIG d   1       2.385  -0.065  -2.234  0.00  0.00     0.145 HD
ENDBRANCH   4  14
ENDBRANCH   1   4
BRANCH   1  19
ATOM     19  C   LIG d   1       3.507   0.095  -7.739  0.00  0.00    -0.020 A 
ATOM     20  C   LIG d   1       2.919  -0.252  -9.036  0.00  0.00     0.003 A 
ATOM     21  C   LIG d   1       3.965  -0.161  -9.973  0.00  0.00     0.047 A 
ATOM     22  C   LIG d   1       1.637  -0.613  -9.455  0.00  0.00    -0.052 A 
ATOM     23  N   LIG d   1       5.099   0.203  -9.283  0.00  0.00    -0.360 N 
ATOM     24  C   LIG d   1       3.705  -0.434 -11.313  0.00  0.00    -0.038 A 
ATOM     25  C   LIG d   1       4.807   0.350  -7.953  0.00  0.00     0.006 A 
ATOM     26  H   LIG d   1       5.975   0.335  -9.679  0.00  0.00     0.165 HD
ATOM     27  H   LIG d   1       5.517   0.633  -7.191  0.00  0.00     0.081 H 
ATOM     28  C   LIG d   1       2.434  -0.797 -11.702  0.00  0.00    -0.060 A 
ATOM     29  H   LIG d   1       4.500  -0.374 -12.041  0.00  0.00     0.064 H 
ATOM     30  C   LIG d   1       1.406  -0.881 -10.775  0.00  0.00    -0.061 A 
ATOM     31  H   LIG d   1       2.236  -1.013 -12.742  0.00  0.00     0.062 H 
ATOM     32  H   LIG d   1       0.414  -1.159 -11.098  0.00  0.00     0.062 H 
ATOM     33  H   LIG d   1       0.832  -0.679  -8.739  0.00  0.00     0.062 H 
ENDBRANCH   1  19
TORSDOF 5
ENDMDL
