MODEL 1
REMARK VINA RESULT:      -5.2      0.000      0.000
REMARK  3 active torsions:
REMARK  status: ('A' for Active; 'I' for Inactive)
REMARK    1  A    between atoms: C3_3  and  C5_6 
REMARK    2  A    between atoms: C7_8  and  O3_17 
REMARK    3  A    between atoms: C8_9  and  C11_14 
ROOT
ATOM      1  C5  <1> d           6.665  -1.769  -4.025  0.00  0.00     0.028 A 
ATOM      2  C6  <1> d           7.037  -0.490  -3.602  0.00  0.00    -0.007 A 
ATOM      3  C7  <1> d           6.035   0.431  -3.329  0.00  0.00     0.144 A 
ATOM      4  C8  <1> d           4.689   0.052  -3.485  0.00  0.00     0.129 A 
ATOM      5  N1  <1> d           4.368  -1.170  -3.888  0.00  0.00    -0.231 NA
ATOM      6  C9  <1> d           5.290  -2.075  -4.165  0.00  0.00     0.149 A 
ATOM      7  C10 <1> d           4.894  -3.380  -4.602  0.00  0.00     0.120 C 
ATOM      8  N2  <1> d           4.581  -4.415  -4.949  0.00  0.00    -0.189 NA
ATOM      9  H4  <1> d           8.077  -0.225  -3.490  0.00  0.00     0.066 H 
ENDROOT
BRANCH   1  10
ATOM     10  C3  <1> d           7.690  -2.782  -4.328  0.00  0.00     0.022 A 
ATOM     11  C2  <1> d           8.441  -3.550  -3.457  0.00  0.00    -0.047 A 
ATOM     12  C1  <1> d           9.346  -4.440  -3.984  0.00  0.00    -0.054 A 
ATOM     13  H2  <1> d           8.319  -3.452  -2.388  0.00  0.00     0.063 H 
ATOM     14  C4  <1> d           9.475  -4.538  -5.333  0.00  0.00    -0.024 A 
ATOM     15  H1  <1> d           9.953  -5.052  -3.332  0.00  0.00     0.062 H 
ATOM     16  S1  <1> d           8.285  -3.341  -5.916  0.00  0.00    -0.097 SA
ATOM     17  H3  <1> d          10.130  -5.177  -5.907  0.00  0.00     0.069 H 
ENDBRANCH   1  10
BRANCH   4  18
ATOM     18  C11 <1> d           3.622   1.026  -3.195  0.00  0.00     0.093 C 
ATOM     19  O1  <1> d           2.957   1.494  -4.109  0.00  0.00    -0.543 OA
ATOM     20  O2  <1> d           3.401   1.365  -2.041  0.00  0.00    -0.543 OA
ENDBRANCH   4  18
BRANCH   3  21
ATOM     21  O3  <1> d           6.351   1.683  -2.915  0.00  0.00    -0.505 OA
ATOM     22  H5  <1> d           6.357   1.790  -1.953  0.00  0.00     0.292 HD
ENDBRANCH   3  21
TORSDOF 3
ENDMDL
MODEL 2
REMARK VINA RESULT:      -5.1      4.341      5.725
REMARK  3 active torsions:
REMARK  status: ('A' for Active; 'I' for Inactive)
REMARK    1  A    between atoms: C3_3  and  C5_6 
REMARK    2  A    between atoms: C7_8  and  O3_17 
REMARK    3  A    between atoms: C8_9  and  C11_14 
ROOT
ATOM      1  C5  <1> d           4.016   0.108  -6.998  0.00  0.00     0.028 A 
ATOM      2  C6  <1> d           2.882   0.101  -6.182  0.00  0.00    -0.007 A 
ATOM      3  C7  <1> d           2.995  -0.417  -4.899  0.00  0.00     0.144 A 
ATOM      4  C8  <1> d           4.237  -0.915  -4.465  0.00  0.00     0.129 A 
ATOM      5  N1  <1> d           5.295  -0.896  -5.264  0.00  0.00    -0.231 NA
ATOM      6  C9  <1> d           5.229  -0.417  -6.493  0.00  0.00     0.149 A 
ATOM      7  C10 <1> d           6.399  -0.421  -7.320  0.00  0.00     0.120 C 
ATOM      8  N2  <1> d           7.326  -0.426  -7.976  0.00  0.00    -0.189 NA
ATOM      9  H4  <1> d           1.940   0.491  -6.540  0.00  0.00     0.066 H 
ENDROOT
BRANCH   1  10
ATOM     10  C3  <1> d           3.947   0.646  -8.367  0.00  0.00     0.022 A 
ATOM     11  C2  <1> d           3.863   1.962  -8.783  0.00  0.00    -0.047 A 
ATOM     12  C1  <1> d           3.811   2.220 -10.132  0.00  0.00    -0.054 A 
ATOM     13  H2  <1> d           3.839   2.769  -8.065  0.00  0.00     0.063 H 
ATOM     14  C4  <1> d           3.844   1.182 -11.009  0.00  0.00    -0.024 A 
ATOM     15  H1  <1> d           3.740   3.236 -10.492  0.00  0.00     0.062 H 
ATOM     16  S1  <1> d           3.952  -0.230  -9.923  0.00  0.00    -0.097 SA
ATOM     17  H3  <1> d           3.811   1.206 -12.089  0.00  0.00     0.069 H 
ENDBRANCH   1  10
BRANCH   4  18
ATOM     18  C11 <1> d           4.363  -1.465  -3.104  0.00  0.00     0.093 C 
ATOM     19  O1  <1> d           5.017  -0.868  -2.261  0.00  0.00    -0.543 OA
ATOM     20  O2  <1> d           3.811  -2.519  -2.818  0.00  0.00    -0.543 OA
ENDBRANCH   4  18
BRANCH   3  21
ATOM     21  O3  <1> d           1.920  -0.441  -4.073  0.00  0.00    -0.505 OA
ATOM     22  H5  <1> d           1.084  -0.224  -4.508  0.00  0.00     0.292 HD
ENDBRANCH   3  21
TORSDOF 3
ENDMDL
MODEL 3
REMARK VINA RESULT:      -5.0      1.670      2.599
REMARK  3 active torsions:
REMARK  status: ('A' for Active; 'I' for Inactive)
REMARK    1  A    between atoms: C3_3  and  C5_6 
REMARK    2  A    between atoms: C7_8  and  O3_17 
REMARK    3  A    between atoms: C8_9  and  C11_14 
ROOT
ATOM      1  C5  <1> d           6.519  -1.821  -3.985  0.00  0.00     0.028 A 
ATOM      2  C6  <1> d           5.283  -2.205  -3.460  0.00  0.00    -0.007 A 
ATOM      3  C7  <1> d           4.351  -1.216  -3.175  0.00  0.00     0.144 A 
ATOM      4  C8  <1> d           4.678   0.130  -3.421  0.00  0.00     0.129 A 
ATOM      5  N1  <1> d           5.861   0.462  -3.920  0.00  0.00    -0.231 NA
ATOM      6  C9  <1> d           6.778  -0.447  -4.200  0.00  0.00     0.149 A 
ATOM      7  C10 <1> d           8.043  -0.038  -4.733  0.00  0.00     0.120 C 
ATOM      8  N2  <1> d           9.047   0.286  -5.155  0.00  0.00    -0.189 NA
ATOM      9  H4  <1> d           5.057  -3.246  -3.280  0.00  0.00     0.066 H 
ENDROOT
BRANCH   1  10
ATOM     10  C3  <1> d           7.542  -2.833  -4.303  0.00  0.00     0.022 A 
ATOM     11  C2  <1> d           8.487  -3.407  -3.473  0.00  0.00    -0.047 A 
ATOM     12  C1  <1> d           9.343  -4.341  -4.005  0.00  0.00    -0.054 A 
ATOM     13  H2  <1> d           8.550  -3.129  -2.431  0.00  0.00     0.063 H 
ATOM     14  C4  <1> d           9.237  -4.668  -5.320  0.00  0.00    -0.024 A 
ATOM     15  H1  <1> d          10.097  -4.806  -3.387  0.00  0.00     0.062 H 
ATOM     16  S1  <1> d           7.883  -3.638  -5.859  0.00  0.00    -0.097 SA
ATOM     17  H3  <1> d           9.823  -5.373  -5.893  0.00  0.00     0.069 H 
ENDBRANCH   1  10
BRANCH   4  18
ATOM     18  C11 <1> d           3.693   1.183  -3.121  0.00  0.00     0.093 C 
ATOM     19  O1  <1> d           3.398   1.433  -1.961  0.00  0.00    -0.543 OA
ATOM     20  O2  <1> d           3.172   1.810  -4.034  0.00  0.00    -0.543 OA
ENDBRANCH   4  18
BRANCH   3  21
ATOM     21  O3  <1> d           3.138  -1.544  -2.665  0.00  0.00    -0.505 OA
ATOM     22  H5  <1> d           3.064  -1.410  -1.710  0.00  0.00     0.292 HD
ENDBRANCH   3  21
TORSDOF 3
ENDMDL
MODEL 4
REMARK VINA RESULT:      -4.9      3.701      5.855
REMARK  3 active torsions:
REMARK  status: ('A' for Active; 'I' for Inactive)
REMARK    1  A    between atoms: C3_3  and  C5_6 
REMARK    2  A    between atoms: C7_8  and  O3_17 
REMARK    3  A    between atoms: C8_9  and  C11_14 
ROOT
ATOM      1  C5  <1> d           6.203  -2.904  -4.255  0.00  0.00     0.028 A 
ATOM      2  C6  <1> d           7.460  -2.446  -3.852  0.00  0.00    -0.007 A 
ATOM      3  C7  <1> d           8.575  -3.205  -4.180  0.00  0.00     0.144 A 
ATOM      4  C8  <1> d           8.405  -4.402  -4.900  0.00  0.00     0.129 A 
ATOM      5  N1  <1> d           7.198  -4.810  -5.268  0.00  0.00    -0.231 NA
ATOM      6  C9  <1> d           6.111  -4.121  -4.971  0.00  0.00     0.149 A 
ATOM      7  C10 <1> d           4.829  -4.605  -5.386  0.00  0.00     0.120 C 
ATOM      8  N2  <1> d           3.812  -4.990  -5.714  0.00  0.00    -0.189 NA
ATOM      9  H4  <1> d           7.562  -1.523  -3.300  0.00  0.00     0.066 H 
ENDROOT
BRANCH   1  10
ATOM     10  C3  <1> d           4.989  -2.135  -3.931  0.00  0.00     0.022 A 
ATOM     11  C2  <1> d           4.185  -2.207  -2.808  0.00  0.00    -0.047 A 
ATOM     12  C1  <1> d           3.093  -1.377  -2.731  0.00  0.00    -0.054 A 
ATOM     13  H2  <1> d           4.411  -2.900  -2.010  0.00  0.00     0.063 H 
ATOM     14  C4  <1> d           2.837  -0.517  -3.752  0.00  0.00    -0.024 A 
ATOM     15  H1  <1> d           2.441  -1.410  -1.870  0.00  0.00     0.062 H 
ATOM     16  S1  <1> d           4.172  -0.866  -4.885  0.00  0.00    -0.097 SA
ATOM     17  H3  <1> d           2.031   0.195  -3.853  0.00  0.00     0.069 H 
ENDBRANCH   1  10
BRANCH   4  18
ATOM     18  C11 <1> d           9.585  -5.211  -5.251  0.00  0.00     0.093 C 
ATOM     19  O1  <1> d          10.298  -5.668  -4.368  0.00  0.00    -0.543 OA
ATOM     20  O2  <1> d           9.851  -5.427  -6.426  0.00  0.00    -0.543 OA
ENDBRANCH   4  18
BRANCH   3  21
ATOM     21  O3  <1> d           9.814  -2.798  -3.810  0.00  0.00    -0.505 OA
ATOM     22  H5  <1> d          10.226  -2.180  -4.430  0.00  0.00     0.292 HD
ENDBRANCH   3  21
TORSDOF 3
ENDMDL
MODEL 5
REMARK VINA RESULT:      -4.9      2.464      3.121
REMARK  3 active torsions:
REMARK  status: ('A' for Active; 'I' for Inactive)
REMARK    1  A    between atoms: C3_3  and  C5_6 
REMARK    2  A    between atoms: C7_8  and  O3_17 
REMARK    3  A    between atoms: C8_9  and  C11_14 
ROOT
ATOM      1  C5  <1> d           5.040  -2.350  -4.966  0.00  0.00     0.028 A 
ATOM      2  C6  <1> d           4.797  -2.452  -3.593  0.00  0.00    -0.007 A 
ATOM      3  C7  <1> d           4.585  -1.285  -2.873  0.00  0.00     0.144 A 
ATOM      4  C8  <1> d           4.621  -0.047  -3.540  0.00  0.00     0.129 A 
ATOM      5  N1  <1> d           4.855   0.017  -4.844  0.00  0.00    -0.231 NA
ATOM      6  C9  <1> d           5.067  -1.069  -5.566  0.00  0.00     0.149 A 
ATOM      7  C10 <1> d           5.320  -0.948  -6.970  0.00  0.00     0.120 C 
ATOM      8  N2  <1> d           5.521  -0.853  -8.084  0.00  0.00    -0.189 NA
ATOM      9  H4  <1> d           4.774  -3.415  -3.106  0.00  0.00     0.066 H 
ENDROOT
BRANCH   1  10
ATOM     10  C3  <1> d           5.271  -3.559  -5.775  0.00  0.00     0.022 A 
ATOM     11  C2  <1> d           6.430  -4.300  -5.922  0.00  0.00    -0.047 A 
ATOM     12  C1  <1> d           6.400  -5.403  -6.741  0.00  0.00    -0.054 A 
ATOM     13  H2  <1> d           7.335  -4.019  -5.404  0.00  0.00     0.063 H 
ATOM     14  C4  <1> d           5.245  -5.729  -7.378  0.00  0.00    -0.024 A 
ATOM     15  H1  <1> d           7.289  -6.002  -6.883  0.00  0.00     0.062 H 
ATOM     16  S1  <1> d           4.131  -4.450  -6.820  0.00  0.00    -0.097 SA
ATOM     17  H3  <1> d           5.050  -6.552  -8.050  0.00  0.00     0.069 H 
ENDBRANCH   1  10
BRANCH   4  18
ATOM     18  C11 <1> d           4.396   1.194  -2.780  0.00  0.00     0.093 C 
ATOM     19  O1  <1> d           4.877   1.324  -1.662  0.00  0.00    -0.543 OA
ATOM     20  O2  <1> d           3.729   2.097  -3.267  0.00  0.00    -0.543 OA
ENDBRANCH   4  18
BRANCH   3  21
ATOM     21  O3  <1> d           4.344  -1.338  -1.539  0.00  0.00    -0.505 OA
ATOM     22  H5  <1> d           3.410  -1.443  -1.312  0.00  0.00     0.292 HD
ENDBRANCH   3  21
TORSDOF 3
ENDMDL
MODEL 6
REMARK VINA RESULT:      -4.9      5.068      6.951
REMARK  3 active torsions:
REMARK  status: ('A' for Active; 'I' for Inactive)
REMARK    1  A    between atoms: C3_3  and  C5_6 
REMARK    2  A    between atoms: C7_8  and  O3_17 
REMARK    3  A    between atoms: C8_9  and  C11_14 
ROOT
ATOM      1  C5  <1> d           3.975  -1.401  -7.919  0.00  0.00     0.028 A 
ATOM      2  C6  <1> d           3.426  -2.420  -8.702  0.00  0.00    -0.007 A 
ATOM      3  C7  <1> d           3.519  -3.727  -8.244  0.00  0.00     0.144 A 
ATOM      4  C8  <1> d           4.158  -3.983  -7.017  0.00  0.00     0.129 A 
ATOM      5  N1  <1> d           4.670  -2.994  -6.297  0.00  0.00    -0.231 NA
ATOM      6  C9  <1> d           4.608  -1.737  -6.698  0.00  0.00     0.149 A 
ATOM      7  C10 <1> d           5.180  -0.704  -5.888  0.00  0.00     0.120 C 
ATOM      8  N2  <1> d           5.634   0.116  -5.246  0.00  0.00    -0.189 NA
ATOM      9  H4  <1> d           2.940  -2.196  -9.640  0.00  0.00     0.066 H 
ENDROOT
BRANCH   1  10
ATOM     10  C3  <1> d           3.902   0.002  -8.361  0.00  0.00     0.022 A 
ATOM     11  C2  <1> d           2.889   0.924  -8.173  0.00  0.00    -0.047 A 
ATOM     12  C1  <1> d           3.052   2.189  -8.684  0.00  0.00    -0.054 A 
ATOM     13  H2  <1> d           1.991   0.656  -7.636  0.00  0.00     0.063 H 
ATOM     14  C4  <1> d           4.195   2.493  -9.354  0.00  0.00    -0.024 A 
ATOM     15  H1  <1> d           2.278   2.933  -8.560  0.00  0.00     0.062 H 
ATOM     16  S1  <1> d           5.100   0.957  -9.279  0.00  0.00    -0.097 SA
ATOM     17  H3  <1> d           4.482   3.427  -9.815  0.00  0.00     0.069 H 
ENDBRANCH   1  10
BRANCH   4  18
ATOM     18  C11 <1> d           4.260  -5.368  -6.526  0.00  0.00     0.093 C 
ATOM     19  O1  <1> d           3.890  -5.644  -5.393  0.00  0.00    -0.543 OA
ATOM     20  O2  <1> d           4.713  -6.242  -7.252  0.00  0.00    -0.543 OA
ENDBRANCH   4  18
BRANCH   3  21
ATOM     21  O3  <1> d           2.999  -4.746  -8.971  0.00  0.00    -0.505 OA
ATOM     22  H5  <1> d           3.159  -5.621  -8.592  0.00  0.00     0.292 HD
ENDBRANCH   3  21
TORSDOF 3
ENDMDL
MODEL 7
REMARK VINA RESULT:      -4.9     10.012     11.174
REMARK  3 active torsions:
REMARK  status: ('A' for Active; 'I' for Inactive)
REMARK    1  A    between atoms: C3_3  and  C5_6 
REMARK    2  A    between atoms: C7_8  and  O3_17 
REMARK    3  A    between atoms: C8_9  and  C11_14 
ROOT
ATOM      1  C5  <1> d          10.487   7.280  -2.651  0.00  0.00     0.028 A 
ATOM      2  C6  <1> d          10.901   5.996  -2.287  0.00  0.00    -0.007 A 
ATOM      3  C7  <1> d          11.070   5.715  -0.938  0.00  0.00     0.144 A 
ATOM      4  C8  <1> d          10.822   6.723   0.011  0.00  0.00     0.129 A 
ATOM      5  N1  <1> d          10.431   7.933  -0.366  0.00  0.00    -0.231 NA
ATOM      6  C9  <1> d          10.263   8.243  -1.639  0.00  0.00     0.149 A 
ATOM      7  C10 <1> d           9.843   9.565  -1.998  0.00  0.00     0.120 C 
ATOM      8  N2  <1> d           9.511  10.613  -2.283  0.00  0.00    -0.189 NA
ATOM      9  H4  <1> d          11.084   5.240  -3.036  0.00  0.00     0.066 H 
ENDROOT
BRANCH   1  10
ATOM     10  C3  <1> d          10.294   7.628  -4.069  0.00  0.00     0.022 A 
ATOM     11  C2  <1> d           9.258   7.282  -4.918  0.00  0.00    -0.047 A 
ATOM     12  C1  <1> d           9.298   7.732  -6.216  0.00  0.00    -0.054 A 
ATOM     13  H2  <1> d           8.437   6.673  -4.569  0.00  0.00     0.063 H 
ATOM     14  C4  <1> d          10.346   8.497  -6.623  0.00  0.00    -0.024 A 
ATOM     15  H1  <1> d           8.508   7.477  -6.908  0.00  0.00     0.062 H 
ATOM     16  S1  <1> d          11.334   8.607  -5.140  0.00  0.00    -0.097 SA
ATOM     17  H3  <1> d          10.533   8.927  -7.596  0.00  0.00     0.069 H 
ENDBRANCH   1  10
BRANCH   4  18
ATOM     18  C11 <1> d          11.000   6.431   1.444  0.00  0.00     0.093 C 
ATOM     19  O1  <1> d          10.646   5.350   1.897  0.00  0.00    -0.543 OA
ATOM     20  O2  <1> d          11.502   7.268   2.182  0.00  0.00    -0.543 OA
ENDBRANCH   4  18
BRANCH   3  21
ATOM     21  O3  <1> d          11.470   4.482  -0.540  0.00  0.00    -0.505 OA
ATOM     22  H5  <1> d          11.520   4.376   0.420  0.00  0.00     0.292 HD
ENDBRANCH   3  21
TORSDOF 3
ENDMDL
MODEL 8
REMARK VINA RESULT:      -4.8      8.377     10.605
REMARK  3 active torsions:
REMARK  status: ('A' for Active; 'I' for Inactive)
REMARK    1  A    between atoms: C3_3  and  C5_6 
REMARK    2  A    between atoms: C7_8  and  O3_17 
REMARK    3  A    between atoms: C8_9  and  C11_14 
ROOT
ATOM      1  C5  <1> d          10.052   6.786  -1.896  0.00  0.00     0.028 A 
ATOM      2  C6  <1> d           9.573   6.442  -3.163  0.00  0.00    -0.007 A 
ATOM      3  C7  <1> d           9.684   5.121  -3.573  0.00  0.00     0.144 A 
ATOM      4  C8  <1> d          10.271   4.178  -2.709  0.00  0.00     0.129 A 
ATOM      5  N1  <1> d          10.716   4.536  -1.513  0.00  0.00    -0.231 NA
ATOM      6  C9  <1> d          10.635   5.784  -1.086  0.00  0.00     0.149 A 
ATOM      7  C10 <1> d          11.135   6.123   0.213  0.00  0.00     0.120 C 
ATOM      8  N2  <1> d          11.532   6.393   1.242  0.00  0.00    -0.189 NA
ATOM      9  H4  <1> d           9.126   7.185  -3.807  0.00  0.00     0.066 H 
ENDROOT
BRANCH   1  10
ATOM     10  C3  <1> d           9.958   8.175  -1.415  0.00  0.00     0.022 A 
ATOM     11  C2  <1> d           8.896   8.815  -0.802  0.00  0.00    -0.047 A 
ATOM     12  C1  <1> d           9.048  10.131  -0.437  0.00  0.00    -0.054 A 
ATOM     13  H2  <1> d           7.970   8.292  -0.613  0.00  0.00     0.063 H 
ATOM     14  C4  <1> d          10.227  10.760  -0.689  0.00  0.00    -0.024 A 
ATOM     15  H1  <1> d           8.237  10.663   0.039  0.00  0.00     0.062 H 
ATOM     16  S1  <1> d          11.184   9.471  -1.469  0.00  0.00    -0.097 SA
ATOM     17  H3  <1> d          10.511  11.779  -0.472  0.00  0.00     0.069 H 
ENDBRANCH   1  10
BRANCH   4  18
ATOM     18  C11 <1> d          10.390   2.774  -3.139  0.00  0.00     0.093 C 
ATOM     19  O1  <1> d          11.494   2.256  -3.236  0.00  0.00    -0.543 OA
ATOM     20  O2  <1> d           9.385   2.126  -3.399  0.00  0.00    -0.543 OA
ENDBRANCH   4  18
BRANCH   3  21
ATOM     21  O3  <1> d           9.231   4.742  -4.794  0.00  0.00    -0.505 OA
ATOM     22  H5  <1> d           9.137   5.471  -5.422  0.00  0.00     0.292 HD
ENDBRANCH   3  21
TORSDOF 3
ENDMDL
MODEL 9
REMARK VINA RESULT:      -4.8      4.287      5.978
REMARK  3 active torsions:
REMARK  status: ('A' for Active; 'I' for Inactive)
REMARK    1  A    between atoms: C3_3  and  C5_6 
REMARK    2  A    between atoms: C7_8  and  O3_17 
REMARK    3  A    between atoms: C8_9  and  C11_14 
ROOT
ATOM      1  C5  <1> d           4.558  -2.094  -4.935  0.00  0.00     0.028 A 
ATOM      2  C6  <1> d           4.730  -3.425  -4.547  0.00  0.00    -0.007 A 
ATOM      3  C7  <1> d           4.694  -4.408  -5.526  0.00  0.00     0.144 A 
ATOM      4  C8  <1> d           4.486  -4.037  -6.867  0.00  0.00     0.129 A 
ATOM      5  N1  <1> d           4.326  -2.764  -7.204  0.00  0.00    -0.231 NA
ATOM      6  C9  <1> d           4.348  -1.798  -6.303  0.00  0.00     0.149 A 
ATOM      7  C10 <1> d           4.165  -0.439  -6.716  0.00  0.00     0.120 C 
ATOM      8  N2  <1> d           4.020   0.639  -7.042  0.00  0.00    -0.189 NA
ATOM      9  H4  <1> d           4.888  -3.683  -3.510  0.00  0.00     0.066 H 
ENDROOT
BRANCH   1  10
ATOM     10  C3  <1> d           4.588  -1.014  -3.934  0.00  0.00     0.022 A 
ATOM     11  C2  <1> d           3.575  -0.567  -3.105  0.00  0.00    -0.047 A 
ATOM     12  C1  <1> d           3.847   0.468  -2.242  0.00  0.00    -0.054 A 
ATOM     13  H2  <1> d           2.596  -1.021  -3.134  0.00  0.00     0.063 H 
ATOM     14  C4  <1> d           5.090   1.017  -2.230  0.00  0.00    -0.024 A 
ATOM     15  H1  <1> d           3.077   0.846  -1.583  0.00  0.00     0.062 H 
ATOM     16  S1  <1> d           5.939   0.058  -3.474  0.00  0.00    -0.097 SA
ATOM     17  H3  <1> d           5.468   1.827  -1.624  0.00  0.00     0.069 H 
ENDBRANCH   1  10
BRANCH   4  18
ATOM     18  C11 <1> d           4.447  -5.076  -7.910  0.00  0.00     0.093 C 
ATOM     19  O1  <1> d           5.291  -5.086  -8.796  0.00  0.00    -0.543 OA
ATOM     20  O2  <1> d           3.572  -5.930  -7.890  0.00  0.00    -0.543 OA
ENDBRANCH   4  18
BRANCH   3  21
ATOM     21  O3  <1> d           4.857  -5.712  -5.194  0.00  0.00    -0.505 OA
ATOM     22  H5  <1> d           4.034  -6.220  -5.177  0.00  0.00     0.292 HD
ENDBRANCH   3  21
TORSDOF 3
ENDMDL
MODEL 10
REMARK VINA RESULT:      -4.8      4.225      5.554
REMARK  3 active torsions:
REMARK  status: ('A' for Active; 'I' for Inactive)
REMARK    1  A    between atoms: C3_3  and  C5_6 
REMARK    2  A    between atoms: C7_8  and  O3_17 
REMARK    3  A    between atoms: C8_9  and  C11_14 
ROOT
ATOM      1  C5  <1> d           4.430  -0.425  -5.765  0.00  0.00     0.028 A 
ATOM      2  C6  <1> d           3.266  -0.113  -6.471  0.00  0.00    -0.007 A 
ATOM      3  C7  <1> d           3.373   0.180  -7.824  0.00  0.00     0.144 A 
ATOM      4  C8  <1> d           4.640   0.155  -8.435  0.00  0.00     0.129 A 
ATOM      5  N1  <1> d           5.727  -0.144  -7.738  0.00  0.00    -0.231 NA
ATOM      6  C9  <1> d           5.670  -0.424  -6.448  0.00  0.00     0.149 A 
ATOM      7  C10 <1> d           6.872  -0.737  -5.736  0.00  0.00     0.120 C 
ATOM      8  N2  <1> d           7.826  -0.984  -5.170  0.00  0.00    -0.189 NA
ATOM      9  H4  <1> d           2.305  -0.102  -5.978  0.00  0.00     0.066 H 
ENDROOT
BRANCH   1  10
ATOM     10  C3  <1> d           4.369  -0.743  -4.328  0.00  0.00     0.022 A 
ATOM     11  C2  <1> d           3.998  -1.925  -3.712  0.00  0.00    -0.047 A 
ATOM     12  C1  <1> d           4.022  -1.982  -2.339  0.00  0.00    -0.054 A 
ATOM     13  H2  <1> d           3.697  -2.782  -4.297  0.00  0.00     0.063 H 
ATOM     14  C4  <1> d           4.407  -0.885  -1.634  0.00  0.00    -0.024 A 
ATOM     15  H1  <1> d           3.733  -2.887  -1.825  0.00  0.00     0.062 H 
ATOM     16  S1  <1> d           4.757   0.294  -2.928  0.00  0.00    -0.097 SA
ATOM     17  H3  <1> d           4.481  -0.759  -0.564  0.00  0.00     0.069 H 
ENDBRANCH   1  10
BRANCH   4  18
ATOM     18  C11 <1> d           4.760   0.466  -9.871  0.00  0.00     0.093 C 
ATOM     19  O1  <1> d           5.390   1.449 -10.234  0.00  0.00    -0.543 OA
ATOM     20  O2  <1> d           4.229  -0.262 -10.700  0.00  0.00    -0.543 OA
ENDBRANCH   4  18
BRANCH   3  21
ATOM     21  O3  <1> d           2.269   0.487  -8.548  0.00  0.00    -0.505 OA
ATOM     22  H5  <1> d           1.851  -0.276  -8.970  0.00  0.00     0.292 HD
ENDBRANCH   3  21
TORSDOF 3
ENDMDL
