MODEL 1
REMARK VINA RESULT:      -6.9      0.000      0.000
REMARK  8 active torsions:
REMARK  status: ('A' for Active; 'I' for Inactive)
REMARK    1  A    between atoms: C_1  and  O_2 
REMARK    2  A    between atoms: O_2  and  C_3 
REMARK    3  A    between atoms: C_5  and  C_13 
REMARK    4  A    between atoms: C_7  and  O_11 
REMARK    5  A    between atoms: C_8  and  O_9 
REMARK    6  A    between atoms: O_9  and  C_10 
REMARK    7  A    between atoms: O_11  and  C_12 
REMARK    8  A    between atoms: N_25  and  C_28 
ROOT
ATOM      1  C   LIG d   1       8.924  -8.734  -4.377  0.00  0.00    -0.008 C 
ATOM      2  C   LIG d   1       9.350  -7.456  -4.547  0.00  0.00     0.176 A 
ATOM      3  C   LIG d   1      10.722  -7.033  -4.864  0.00  0.00     0.232 A 
ATOM      4  O   LIG d   1      11.702  -7.739  -5.028  0.00  0.00    -0.283 OA
ATOM      5  C   LIG d   1      10.647  -5.563  -4.939  0.00  0.00     0.068 A 
ATOM      6  C   LIG d   1      11.592  -4.570  -5.201  0.00  0.00    -0.044 A 
ATOM      7  C   LIG d   1      11.216  -3.258  -5.201  0.00  0.00    -0.019 A 
ATOM      8  C   LIG d   1       9.891  -2.903  -4.944  0.00  0.00     0.131 A 
ATOM      9  C   LIG d   1       8.944  -3.878  -4.685  0.00  0.00     0.054 A 
ATOM     10  C   LIG d   1       9.312  -5.220  -4.678  0.00  0.00     0.148 A 
ATOM     11  O   LIG d   1       8.588  -6.340  -4.460  0.00  0.00    -0.451 OA
ATOM     12  C   LIG d   1       7.509  -3.509  -4.408  0.00  0.00     0.047 C 
ATOM     13  N   LIG d   1       7.426  -2.084  -4.059  0.00  0.00    -0.293 NA
ATOM     14  C   LIG d   1       8.158  -1.276  -5.048  0.00  0.00     0.157 C 
ATOM     15  O   LIG d   1       9.549  -1.588  -4.950  0.00  0.00    -0.473 OA
ATOM     16  H   LIG d   1       9.638  -9.544  -4.368  0.00  0.00     0.066 H 
ATOM     17  H   LIG d   1      12.617  -4.839  -5.402  0.00  0.00     0.063 H 
ATOM     18  H   LIG d   1      11.948  -2.489  -5.403  0.00  0.00     0.065 H 
ATOM     19  H   LIG d   1       7.133  -4.109  -3.579  0.00  0.00     0.052 H 
ATOM     20  H   LIG d   1       6.907  -3.701  -5.297  0.00  0.00     0.052 H 
ATOM     21  H   LIG d   1       8.004  -0.217  -4.842  0.00  0.00     0.091 H 
ATOM     22  H   LIG d   1       7.800  -1.512  -6.050  0.00  0.00     0.091 H 
ENDROOT
BRANCH   1  23
ATOM     23  C   LIG d   1       7.493  -9.014  -4.209  0.00  0.00    -0.014 A 
ATOM     24  C   LIG d   1       6.570  -8.548  -5.154  0.00  0.00    -0.009 A 
ATOM     25  C   LIG d   1       5.225  -8.816  -4.992  0.00  0.00     0.166 A 
ATOM     26  H   LIG d   1       6.910  -7.981  -6.008  0.00  0.00     0.066 H 
ATOM     27  C   LIG d   1       4.785  -9.543  -3.888  0.00  0.00     0.203 A 
ATOM     28  C   LIG d   1       5.699 -10.012  -2.949  0.00  0.00     0.166 A 
ATOM     29  C   LIG d   1       7.047  -9.749  -3.103  0.00  0.00    -0.009 A 
ATOM     30  H   LIG d   1       7.756 -10.111  -2.372  0.00  0.00     0.066 H 
BRANCH  25  31
ATOM     31  O   LIG d   1       4.328  -8.363  -5.909  0.00  0.00    -0.491 OA
BRANCH  31  32
ATOM     32  C   LIG d   1       4.606  -7.102  -6.521  0.00  0.00     0.079 C 
ATOM     33  H   LIG d   1       5.664  -7.049  -6.777  0.00  0.00     0.066 H 
ATOM     34  H   LIG d   1       4.360  -6.299  -5.826  0.00  0.00     0.066 H 
ATOM     35  H   LIG d   1       4.007  -6.996  -7.425  0.00  0.00     0.066 H 
ENDBRANCH  31  32
ENDBRANCH  25  31
BRANCH  27  36
ATOM     36  O   LIG d   1       3.459  -9.798  -3.730  0.00  0.00    -0.488 OA
BRANCH  36  37
ATOM     37  C   LIG d   1       3.012 -11.120  -4.038  0.00  0.00     0.079 C 
ATOM     38  H   LIG d   1       1.977 -11.237  -3.718  0.00  0.00     0.066 H 
ATOM     39  H   LIG d   1       3.081 -11.285  -5.113  0.00  0.00     0.066 H 
ATOM     40  H   LIG d   1       3.637 -11.845  -3.517  0.00  0.00     0.066 H 
ENDBRANCH  36  37
ENDBRANCH  27  36
BRANCH  28  41
ATOM     41  O   LIG d   1       5.265 -10.725  -1.876  0.00  0.00    -0.491 OA
BRANCH  41  42
ATOM     42  C   LIG d   1       6.263 -11.247  -0.996  0.00  0.00     0.079 C 
ATOM     43  H   LIG d   1       6.196 -10.747  -0.031  0.00  0.00     0.066 H 
ATOM     44  H   LIG d   1       6.106 -12.318  -0.862  0.00  0.00     0.066 H 
ATOM     45  H   LIG d   1       7.251 -11.076  -1.426  0.00  0.00     0.066 H 
ENDBRANCH  41  42
ENDBRANCH  28  41
ENDBRANCH   1  23
BRANCH  13  46
ATOM     46  C   LIG d   1       6.092  -1.669  -3.960  0.00  0.00     0.036 A 
ATOM     47  C   LIG d   1       5.542  -0.863  -4.948  0.00  0.00     0.005 A 
ATOM     48  C   LIG d   1       4.223  -0.454  -4.851  0.00  0.00     0.168 A 
ATOM     49  H   LIG d   1       6.142  -0.555  -5.790  0.00  0.00     0.067 H 
ATOM     50  C   LIG d   1       3.450  -0.852  -3.763  0.00  0.00     0.166 A 
ATOM     51  O   LIG d   1       3.455   0.325  -5.668  0.00  0.00    -0.453 OA
ATOM     52  C   LIG d   1       4.003  -1.658  -2.779  0.00  0.00    -0.014 A 
ATOM     53  O   LIG d   1       2.198  -0.323  -3.899  0.00  0.00    -0.453 OA
ATOM     54  C   LIG d   1       5.318  -2.070  -2.880  0.00  0.00    -0.037 A 
ATOM     55  H   LIG d   1       3.404  -1.967  -1.936  0.00  0.00     0.066 H 
ATOM     56  H   LIG d   1       5.746  -2.701  -2.115  0.00  0.00     0.064 H 
ATOM     57  C   LIG d   1       2.332   0.735  -4.866  0.00  0.00     0.233 C 
ATOM     58  H   LIG d   1       2.540   1.683  -4.371  0.00  0.00     0.117 H 
ATOM     59  H   LIG d   1       1.433   0.811  -5.478  0.00  0.00     0.117 H 
ENDBRANCH  13  46
TORSDOF 8
ENDMDL
MODEL 2
REMARK VINA RESULT:      -6.9      0.064      2.174
REMARK  8 active torsions:
REMARK  status: ('A' for Active; 'I' for Inactive)
REMARK    1  A    between atoms: C_1  and  O_2 
REMARK    2  A    between atoms: O_2  and  C_3 
REMARK    3  A    between atoms: C_5  and  C_13 
REMARK    4  A    between atoms: C_7  and  O_11 
REMARK    5  A    between atoms: C_8  and  O_9 
REMARK    6  A    between atoms: O_9  and  C_10 
REMARK    7  A    between atoms: O_11  and  C_12 
REMARK    8  A    between atoms: N_25  and  C_28 
ROOT
ATOM      1  C   LIG d   1       8.930  -8.751  -4.404  0.00  0.00    -0.008 C 
ATOM      2  C   LIG d   1       9.359  -7.474  -4.577  0.00  0.00     0.176 A 
ATOM      3  C   LIG d   1      10.729  -7.055  -4.906  0.00  0.00     0.232 A 
ATOM      4  O   LIG d   1      11.705  -7.764  -5.079  0.00  0.00    -0.283 OA
ATOM      5  C   LIG d   1      10.658  -5.585  -4.981  0.00  0.00     0.068 A 
ATOM      6  C   LIG d   1      11.603  -4.595  -5.251  0.00  0.00    -0.044 A 
ATOM      7  C   LIG d   1      11.231  -3.282  -5.248  0.00  0.00    -0.019 A 
ATOM      8  C   LIG d   1       9.910  -2.922  -4.979  0.00  0.00     0.131 A 
ATOM      9  C   LIG d   1       8.963  -3.895  -4.711  0.00  0.00     0.054 A 
ATOM     10  C   LIG d   1       9.326  -5.238  -4.707  0.00  0.00     0.148 A 
ATOM     11  O   LIG d   1       8.600  -6.356  -4.484  0.00  0.00    -0.451 OA
ATOM     12  C   LIG d   1       7.531  -3.522  -4.422  0.00  0.00     0.047 C 
ATOM     13  N   LIG d   1       7.456  -2.096  -4.072  0.00  0.00    -0.293 NA
ATOM     14  C   LIG d   1       8.181  -1.291  -5.067  0.00  0.00     0.157 C 
ATOM     15  O   LIG d   1       9.572  -1.606  -4.982  0.00  0.00    -0.473 OA
ATOM     16  H   LIG d   1       9.641  -9.563  -4.401  0.00  0.00     0.066 H 
ATOM     17  H   LIG d   1      12.626  -4.867  -5.462  0.00  0.00     0.063 H 
ATOM     18  H   LIG d   1      11.964  -2.515  -5.457  0.00  0.00     0.065 H 
ATOM     19  H   LIG d   1       7.161  -4.120  -3.589  0.00  0.00     0.052 H 
ATOM     20  H   LIG d   1       6.921  -3.712  -5.305  0.00  0.00     0.052 H 
ATOM     21  H   LIG d   1       8.032  -0.231  -4.860  0.00  0.00     0.091 H 
ATOM     22  H   LIG d   1       7.814  -1.525  -6.066  0.00  0.00     0.091 H 
ENDROOT
BRANCH   1  23
ATOM     23  C   LIG d   1       7.500  -9.026  -4.222  0.00  0.00    -0.014 A 
ATOM     24  C   LIG d   1       7.056  -9.711  -3.084  0.00  0.00    -0.009 A 
ATOM     25  C   LIG d   1       5.709  -9.966  -2.916  0.00  0.00     0.166 A 
ATOM     26  H   LIG d   1       7.765 -10.038  -2.338  0.00  0.00     0.066 H 
ATOM     27  C   LIG d   1       4.793  -9.550  -3.879  0.00  0.00     0.203 A 
ATOM     28  C   LIG d   1       5.230  -8.865  -5.010  0.00  0.00     0.166 A 
ATOM     29  C   LIG d   1       6.576  -8.604  -5.186  0.00  0.00    -0.009 A 
ATOM     30  H   LIG d   1       6.914  -8.075  -6.065  0.00  0.00     0.066 H 
BRANCH  25  31
ATOM     31  O   LIG d   1       5.277 -10.632  -1.811  0.00  0.00    -0.491 OA
BRANCH  31  32
ATOM     32  C   LIG d   1       6.263 -11.329  -1.047  0.00  0.00     0.079 C 
ATOM     33  H   LIG d   1       6.163 -12.401  -1.218  0.00  0.00     0.066 H 
ATOM     34  H   LIG d   1       6.118 -11.116   0.013  0.00  0.00     0.066 H 
ATOM     35  H   LIG d   1       7.257 -11.002  -1.350  0.00  0.00     0.066 H 
ENDBRANCH  31  32
ENDBRANCH  25  31
BRANCH  27  36
ATOM     36  O   LIG d   1       3.469  -9.809  -3.712  0.00  0.00    -0.488 OA
BRANCH  36  37
ATOM     37  C   LIG d   1       3.031 -11.141  -3.983  0.00  0.00     0.079 C 
ATOM     38  H   LIG d   1       3.369 -11.804  -3.186  0.00  0.00     0.066 H 
ATOM     39  H   LIG d   1       1.942 -11.162  -4.035  0.00  0.00     0.066 H 
ATOM     40  H   LIG d   1       3.447 -11.475  -4.934  0.00  0.00     0.066 H 
ENDBRANCH  36  37
ENDBRANCH  27  36
BRANCH  28  41
ATOM     41  O   LIG d   1       4.331  -8.456  -5.945  0.00  0.00    -0.491 OA
BRANCH  41  42
ATOM     42  C   LIG d   1       4.653  -7.273  -6.680  0.00  0.00     0.079 C 
ATOM     43  H   LIG d   1       3.823  -6.569  -6.618  0.00  0.00     0.066 H 
ATOM     44  H   LIG d   1       5.549  -6.815  -6.260  0.00  0.00     0.066 H 
ATOM     45  H   LIG d   1       4.833  -7.531  -7.725  0.00  0.00     0.066 H 
ENDBRANCH  41  42
ENDBRANCH  28  41
ENDBRANCH   1  23
BRANCH  13  46
ATOM     46  C   LIG d   1       6.124  -1.677  -3.961  0.00  0.00     0.036 A 
ATOM     47  C   LIG d   1       5.560  -0.888  -4.955  0.00  0.00     0.005 A 
ATOM     48  C   LIG d   1       4.244  -0.475  -4.846  0.00  0.00     0.168 A 
ATOM     49  H   LIG d   1       6.149  -0.597  -5.812  0.00  0.00     0.067 H 
ATOM     50  C   LIG d   1       3.486  -0.852  -3.739  0.00  0.00     0.166 A 
ATOM     51  O   LIG d   1       3.465   0.290  -5.666  0.00  0.00    -0.453 OA
ATOM     52  C   LIG d   1       4.052  -1.641  -2.750  0.00  0.00    -0.014 A 
ATOM     53  O   LIG d   1       2.233  -0.323  -3.867  0.00  0.00    -0.453 OA
ATOM     54  C   LIG d   1       5.365  -2.057  -2.862  0.00  0.00    -0.037 A 
ATOM     55  H   LIG d   1       3.465  -1.933  -1.892  0.00  0.00     0.066 H 
ATOM     56  H   LIG d   1       5.803  -2.674  -2.092  0.00  0.00     0.064 H 
ATOM     57  C   LIG d   1       2.355   0.716  -4.855  0.00  0.00     0.233 C 
ATOM     58  H   LIG d   1       2.572   1.674  -4.381  0.00  0.00     0.117 H 
ATOM     59  H   LIG d   1       1.446   0.784  -5.455  0.00  0.00     0.117 H 
ENDBRANCH  13  46
TORSDOF 8
ENDMDL
MODEL 3
REMARK VINA RESULT:      -6.6     11.673     16.504
REMARK  8 active torsions:
REMARK  status: ('A' for Active; 'I' for Inactive)
REMARK    1  A    between atoms: C_1  and  O_2 
REMARK    2  A    between atoms: O_2  and  C_3 
REMARK    3  A    between atoms: C_5  and  C_13 
REMARK    4  A    between atoms: C_7  and  O_11 
REMARK    5  A    between atoms: C_8  and  O_9 
REMARK    6  A    between atoms: O_9  and  C_10 
REMARK    7  A    between atoms: O_11  and  C_12 
REMARK    8  A    between atoms: N_25  and  C_28 
ROOT
ATOM      1  C   LIG d   1      10.255  11.831  -0.804  0.00  0.00    -0.008 C 
ATOM      2  C   LIG d   1      10.179  12.073  -2.138  0.00  0.00     0.176 A 
ATOM      3  C   LIG d   1      10.176  13.395  -2.782  0.00  0.00     0.232 A 
ATOM      4  O   LIG d   1      10.239  14.487  -2.245  0.00  0.00    -0.283 OA
ATOM      5  C   LIG d   1      10.079  13.103  -4.223  0.00  0.00     0.068 A 
ATOM      6  C   LIG d   1      10.031  13.910  -5.361  0.00  0.00    -0.044 A 
ATOM      7  C   LIG d   1       9.939  13.337  -6.596  0.00  0.00    -0.019 A 
ATOM      8  C   LIG d   1       9.894  11.949  -6.729  0.00  0.00     0.131 A 
ATOM      9  C   LIG d   1       9.942  11.138  -5.609  0.00  0.00     0.054 A 
ATOM     10  C   LIG d   1      10.034  11.705  -4.343  0.00  0.00     0.148 A 
ATOM     11  O   LIG d   1      10.099  11.141  -3.116  0.00  0.00    -0.451 OA
ATOM     12  C   LIG d   1       9.898   9.637  -5.739  0.00  0.00     0.047 C 
ATOM     13  N   LIG d   1       9.395   9.272  -7.072  0.00  0.00    -0.293 NA
ATOM     14  C   LIG d   1      10.119  10.025  -8.109  0.00  0.00     0.157 C 
ATOM     15  O   LIG d   1       9.800  11.411  -7.973  0.00  0.00    -0.473 OA
ATOM     16  H   LIG d   1      10.212  12.652  -0.103  0.00  0.00     0.066 H 
ATOM     17  H   LIG d   1      10.067  14.984  -5.263  0.00  0.00     0.063 H 
ATOM     18  H   LIG d   1       9.901  13.963  -7.476  0.00  0.00     0.065 H 
ATOM     19  H   LIG d   1       9.236   9.226  -4.977  0.00  0.00     0.052 H 
ATOM     20  H   LIG d   1      10.901   9.231  -5.606  0.00  0.00     0.052 H 
ATOM     21  H   LIG d   1       9.815   9.673  -9.095  0.00  0.00     0.091 H 
ATOM     22  H   LIG d   1      11.192   9.882  -7.983  0.00  0.00     0.091 H 
ENDROOT
BRANCH   1  23
ATOM     23  C   LIG d   1      10.396  10.454  -0.314  0.00  0.00    -0.014 A 
ATOM     24  C   LIG d   1      11.211  10.182   0.792  0.00  0.00    -0.009 A 
ATOM     25  C   LIG d   1      11.339   8.885   1.250  0.00  0.00     0.166 A 
ATOM     26  H   LIG d   1      11.738  10.985   1.285  0.00  0.00     0.066 H 
ATOM     27  C   LIG d   1      10.664   7.848   0.610  0.00  0.00     0.203 A 
ATOM     28  C   LIG d   1       9.848   8.115  -0.487  0.00  0.00     0.166 A 
ATOM     29  C   LIG d   1       9.714   9.410  -0.951  0.00  0.00    -0.009 A 
ATOM     30  H   LIG d   1       9.083   9.615  -1.804  0.00  0.00     0.066 H 
BRANCH  25  31
ATOM     31  O   LIG d   1      12.132   8.620   2.323  0.00  0.00    -0.491 OA
BRANCH  31  32
ATOM     32  C   LIG d   1      12.478   9.723   3.162  0.00  0.00     0.079 C 
ATOM     33  H   LIG d   1      12.644   9.368   4.179  0.00  0.00     0.066 H 
ATOM     34  H   LIG d   1      11.665  10.451   3.160  0.00  0.00     0.066 H 
ATOM     35  H   LIG d   1      13.387  10.194   2.788  0.00  0.00     0.066 H 
ENDBRANCH  31  32
ENDBRANCH  25  31
BRANCH  27  36
ATOM     36  O   LIG d   1      10.798   6.573   1.061  0.00  0.00    -0.488 OA
BRANCH  36  37
ATOM     37  C   LIG d   1      11.754   5.747   0.395  0.00  0.00     0.079 C 
ATOM     38  H   LIG d   1      12.384   5.251   1.134  0.00  0.00     0.066 H 
ATOM     39  H   LIG d   1      11.233   4.997  -0.201  0.00  0.00     0.066 H 
ATOM     40  H   LIG d   1      12.375   6.362  -0.257  0.00  0.00     0.066 H 
ENDBRANCH  36  37
ENDBRANCH  27  36
BRANCH  28  41
ATOM     41  O   LIG d   1       9.187   7.100  -1.104  0.00  0.00    -0.491 OA
BRANCH  41  42
ATOM     42  C   LIG d   1       9.539   6.828  -2.463  0.00  0.00     0.079 C 
ATOM     43  H   LIG d   1       9.681   5.756  -2.595  0.00  0.00     0.066 H 
ATOM     44  H   LIG d   1       8.740   7.173  -3.121  0.00  0.00     0.066 H 
ATOM     45  H   LIG d   1      10.464   7.351  -2.710  0.00  0.00     0.066 H 
ENDBRANCH  41  42
ENDBRANCH  28  41
ENDBRANCH   1  23
BRANCH  13  46
ATOM     46  C   LIG d   1       9.499   7.893  -7.286  0.00  0.00     0.036 A 
ATOM     47  C   LIG d   1       9.769   7.043  -6.221  0.00  0.00     0.005 A 
ATOM     48  C   LIG d   1       9.871   5.679  -6.433  0.00  0.00     0.168 A 
ATOM     49  H   LIG d   1       9.899   7.447  -5.228  0.00  0.00     0.067 H 
ATOM     50  C   LIG d   1       9.703   5.161  -7.715  0.00  0.00     0.166 A 
ATOM     51  O   LIG d   1      10.124   4.647  -5.576  0.00  0.00    -0.453 OA
ATOM     52  C   LIG d   1       9.433   6.012  -8.775  0.00  0.00    -0.014 A 
ATOM     53  O   LIG d   1       9.850   3.804  -7.660  0.00  0.00    -0.453 OA
ATOM     54  C   LIG d   1       9.326   7.373  -8.562  0.00  0.00    -0.037 A 
ATOM     55  H   LIG d   1       9.302   5.610  -9.769  0.00  0.00     0.066 H 
ATOM     56  H   LIG d   1       9.111   8.034  -9.389  0.00  0.00     0.064 H 
ATOM     57  C   LIG d   1      10.514   3.541  -6.410  0.00  0.00     0.233 C 
ATOM     58  H   LIG d   1      11.595   3.525  -6.546  0.00  0.00     0.117 H 
ATOM     59  H   LIG d   1      10.167   2.599  -5.983  0.00  0.00     0.117 H 
ENDBRANCH  13  46
TORSDOF 8
ENDMDL
MODEL 4
REMARK VINA RESULT:      -6.6     11.668     16.427
REMARK  8 active torsions:
REMARK  status: ('A' for Active; 'I' for Inactive)
REMARK    1  A    between atoms: C_1  and  O_2 
REMARK    2  A    between atoms: O_2  and  C_3 
REMARK    3  A    between atoms: C_5  and  C_13 
REMARK    4  A    between atoms: C_7  and  O_11 
REMARK    5  A    between atoms: C_8  and  O_9 
REMARK    6  A    between atoms: O_9  and  C_10 
REMARK    7  A    between atoms: O_11  and  C_12 
REMARK    8  A    between atoms: N_25  and  C_28 
ROOT
ATOM      1  C   LIG d   1      10.255  11.830  -0.806  0.00  0.00    -0.008 C 
ATOM      2  C   LIG d   1      10.179  12.070  -2.140  0.00  0.00     0.176 A 
ATOM      3  C   LIG d   1      10.174  13.391  -2.786  0.00  0.00     0.232 A 
ATOM      4  O   LIG d   1      10.237  14.484  -2.251  0.00  0.00    -0.283 OA
ATOM      5  C   LIG d   1      10.078  13.096  -4.227  0.00  0.00     0.068 A 
ATOM      6  C   LIG d   1      10.029  13.902  -5.366  0.00  0.00    -0.044 A 
ATOM      7  C   LIG d   1       9.936  13.327  -6.600  0.00  0.00    -0.019 A 
ATOM      8  C   LIG d   1       9.893  11.939  -6.732  0.00  0.00     0.131 A 
ATOM      9  C   LIG d   1       9.942  11.129  -5.610  0.00  0.00     0.054 A 
ATOM     10  C   LIG d   1      10.033  11.699  -4.344  0.00  0.00     0.148 A 
ATOM     11  O   LIG d   1      10.100  11.136  -3.117  0.00  0.00    -0.451 OA
ATOM     12  C   LIG d   1       9.899   9.628  -5.738  0.00  0.00     0.047 C 
ATOM     13  N   LIG d   1       9.396   9.261  -7.069  0.00  0.00    -0.293 NA
ATOM     14  C   LIG d   1      10.119  10.012  -8.108  0.00  0.00     0.157 C 
ATOM     15  O   LIG d   1       9.799  11.398  -7.975  0.00  0.00    -0.473 OA
ATOM     16  H   LIG d   1      10.212  12.652  -0.106  0.00  0.00     0.066 H 
ATOM     17  H   LIG d   1      10.064  14.976  -5.270  0.00  0.00     0.063 H 
ATOM     18  H   LIG d   1       9.898  13.951  -7.482  0.00  0.00     0.065 H 
ATOM     19  H   LIG d   1       9.237   9.218  -4.974  0.00  0.00     0.052 H 
ATOM     20  H   LIG d   1      10.903   9.223  -5.604  0.00  0.00     0.052 H 
ATOM     21  H   LIG d   1       9.815   9.659  -9.093  0.00  0.00     0.091 H 
ATOM     22  H   LIG d   1      11.193   9.871  -7.982  0.00  0.00     0.091 H 
ENDROOT
BRANCH   1  23
ATOM     23  C   LIG d   1      10.397  10.454  -0.314  0.00  0.00    -0.014 A 
ATOM     24  C   LIG d   1       9.716   9.408  -0.950  0.00  0.00    -0.009 A 
ATOM     25  C   LIG d   1       9.855   8.115  -0.485  0.00  0.00     0.166 A 
ATOM     26  H   LIG d   1       9.085   9.612  -1.802  0.00  0.00     0.066 H 
ATOM     27  C   LIG d   1      10.665   7.851   0.617  0.00  0.00     0.203 A 
ATOM     28  C   LIG d   1      11.347   8.888   1.249  0.00  0.00     0.166 A 
ATOM     29  C   LIG d   1      11.215  10.185   0.790  0.00  0.00    -0.009 A 
ATOM     30  H   LIG d   1      11.742  10.988   1.282  0.00  0.00     0.066 H 
BRANCH  25  31
ATOM     31  O   LIG d   1       9.193   7.098  -1.101  0.00  0.00    -0.491 OA
BRANCH  31  32
ATOM     32  C   LIG d   1       9.547   6.822  -2.458  0.00  0.00     0.079 C 
ATOM     33  H   LIG d   1      10.256   7.572  -2.807  0.00  0.00     0.066 H 
ATOM     34  H   LIG d   1       8.651   6.852  -3.080  0.00  0.00     0.066 H 
ATOM     35  H   LIG d   1      10.000   5.833  -2.522  0.00  0.00     0.066 H 
ENDBRANCH  31  32
ENDBRANCH  25  31
BRANCH  27  36
ATOM     36  O   LIG d   1      10.793   6.577   1.074  0.00  0.00    -0.488 OA
BRANCH  36  37
ATOM     37  C   LIG d   1      11.746   5.744   0.412  0.00  0.00     0.079 C 
ATOM     38  H   LIG d   1      11.726   5.950  -0.659  0.00  0.00     0.066 H 
ATOM     39  H   LIG d   1      12.742   5.950   0.803  0.00  0.00     0.066 H 
ATOM     40  H   LIG d   1      11.497   4.697   0.585  0.00  0.00     0.066 H 
ENDBRANCH  36  37
ENDBRANCH  27  36
BRANCH  28  41
ATOM     41  O   LIG d   1      12.140   8.624   2.321  0.00  0.00    -0.491 OA
BRANCH  41  42
ATOM     42  C   LIG d   1      12.481   9.728   3.163  0.00  0.00     0.079 C 
ATOM     43  H   LIG d   1      13.451   9.547   3.624  0.00  0.00     0.066 H 
ATOM     44  H   LIG d   1      12.525  10.640   2.567  0.00  0.00     0.066 H 
ATOM     45  H   LIG d   1      11.724   9.839   3.941  0.00  0.00     0.066 H 
ENDBRANCH  41  42
ENDBRANCH  28  41
ENDBRANCH   1  23
BRANCH  13  46
ATOM     46  C   LIG d   1       9.501   7.881  -7.282  0.00  0.00     0.036 A 
ATOM     47  C   LIG d   1       9.770   7.034  -6.215  0.00  0.00     0.005 A 
ATOM     48  C   LIG d   1       9.874   5.669  -6.425  0.00  0.00     0.168 A 
ATOM     49  H   LIG d   1       9.899   7.439  -5.223  0.00  0.00     0.067 H 
ATOM     50  C   LIG d   1       9.707   5.149  -7.706  0.00  0.00     0.166 A 
ATOM     51  O   LIG d   1      10.126   4.639  -5.566  0.00  0.00    -0.453 OA
ATOM     52  C   LIG d   1       9.438   5.998  -8.768  0.00  0.00    -0.014 A 
ATOM     53  O   LIG d   1       9.856   3.792  -7.649  0.00  0.00    -0.453 OA
ATOM     54  C   LIG d   1       9.330   7.359  -8.557  0.00  0.00    -0.037 A 
ATOM     55  H   LIG d   1       9.309   5.595  -9.762  0.00  0.00     0.066 H 
ATOM     56  H   LIG d   1       9.116   8.019  -9.385  0.00  0.00     0.064 H 
ATOM     57  C   LIG d   1      10.517   3.531  -6.398  0.00  0.00     0.233 C 
ATOM     58  H   LIG d   1      11.599   3.515  -6.532  0.00  0.00     0.117 H 
ATOM     59  H   LIG d   1      10.171   2.590  -5.970  0.00  0.00     0.117 H 
ENDBRANCH  13  46
TORSDOF 8
ENDMDL
MODEL 5
REMARK VINA RESULT:      -6.5      9.704     15.019
REMARK  8 active torsions:
REMARK  status: ('A' for Active; 'I' for Inactive)
REMARK    1  A    between atoms: C_1  and  O_2 
REMARK    2  A    between atoms: O_2  and  C_3 
REMARK    3  A    between atoms: C_5  and  C_13 
REMARK    4  A    between atoms: C_7  and  O_11 
REMARK    5  A    between atoms: C_8  and  O_9 
REMARK    6  A    between atoms: O_9  and  C_10 
REMARK    7  A    between atoms: O_11  and  C_12 
REMARK    8  A    between atoms: N_25  and  C_28 
ROOT
ATOM      1  C   LIG d   1       9.572   6.888  -9.165  0.00  0.00    -0.008 C 
ATOM      2  C   LIG d   1       9.541   5.817  -8.330  0.00  0.00     0.176 A 
ATOM      3  C   LIG d   1       9.210   4.434  -8.705  0.00  0.00     0.232 A 
ATOM      4  O   LIG d   1       8.912   4.011  -9.808  0.00  0.00    -0.283 OA
ATOM      5  C   LIG d   1       9.321   3.674  -7.447  0.00  0.00     0.068 A 
ATOM      6  C   LIG d   1       9.137   2.329  -7.123  0.00  0.00    -0.044 A 
ATOM      7  C   LIG d   1       9.316   1.910  -5.837  0.00  0.00    -0.019 A 
ATOM      8  C   LIG d   1       9.684   2.817  -4.843  0.00  0.00     0.131 A 
ATOM      9  C   LIG d   1       9.871   4.154  -5.151  0.00  0.00     0.054 A 
ATOM     10  C   LIG d   1       9.690   4.598  -6.457  0.00  0.00     0.148 A 
ATOM     11  O   LIG d   1       9.814   5.828  -7.004  0.00  0.00    -0.451 OA
ATOM     12  C   LIG d   1      10.271   5.144  -4.088  0.00  0.00     0.047 C 
ATOM     13  N   LIG d   1      10.007   4.574  -2.759  0.00  0.00    -0.293 NA
ATOM     14  C   LIG d   1      10.567   3.216  -2.670  0.00  0.00     0.157 C 
ATOM     15  O   LIG d   1       9.852   2.368  -3.572  0.00  0.00    -0.473 OA
ATOM     16  H   LIG d   1       9.237   6.786 -10.186  0.00  0.00     0.066 H 
ATOM     17  H   LIG d   1       8.854   1.623  -7.889  0.00  0.00     0.063 H 
ATOM     18  H   LIG d   1       9.173   0.868  -5.587  0.00  0.00     0.065 H 
ATOM     19  H   LIG d   1       9.695   6.061  -4.211  0.00  0.00     0.052 H 
ATOM     20  H   LIG d   1      11.335   5.368  -4.182  0.00  0.00     0.052 H 
ATOM     21  H   LIG d   1      10.459   2.842  -1.652  0.00  0.00     0.091 H 
ATOM     22  H   LIG d   1      11.621   3.235  -2.945  0.00  0.00     0.091 H 
ENDROOT
BRANCH   1  23
ATOM     23  C   LIG d   1      10.062   8.183  -8.678  0.00  0.00    -0.014 A 
ATOM     24  C   LIG d   1       9.480   8.776  -7.550  0.00  0.00    -0.009 A 
ATOM     25  C   LIG d   1       9.946   9.994  -7.094  0.00  0.00     0.166 A 
ATOM     26  H   LIG d   1       8.668   8.281  -7.038  0.00  0.00     0.066 H 
ATOM     27  C   LIG d   1      10.990  10.635  -7.757  0.00  0.00     0.203 A 
ATOM     28  C   LIG d   1      11.575  10.047  -8.876  0.00  0.00     0.166 A 
ATOM     29  C   LIG d   1      11.115   8.828  -9.338  0.00  0.00    -0.009 A 
ATOM     30  H   LIG d   1      11.568   8.374 -10.207  0.00  0.00     0.066 H 
BRANCH  25  31
ATOM     31  O   LIG d   1       9.380  10.570  -6.000  0.00  0.00    -0.491 OA
BRANCH  31  32
ATOM     32  C   LIG d   1       9.705  10.006  -4.728  0.00  0.00     0.079 C 
ATOM     33  H   LIG d   1      10.300  10.719  -4.157  0.00  0.00     0.066 H 
ATOM     34  H   LIG d   1      10.277   9.089  -4.873  0.00  0.00     0.066 H 
ATOM     35  H   LIG d   1       8.788   9.780  -4.185  0.00  0.00     0.066 H 
ENDBRANCH  31  32
ENDBRANCH  25  31
BRANCH  27  36
ATOM     36  O   LIG d   1      11.440  11.836  -7.308  0.00  0.00    -0.488 OA
BRANCH  36  37
ATOM     37  C   LIG d   1      10.835  13.004  -7.864  0.00  0.00     0.079 C 
ATOM     38  H   LIG d   1      10.616  12.832  -8.919  0.00  0.00     0.066 H 
ATOM     39  H   LIG d   1       9.910  13.223  -7.332  0.00  0.00     0.066 H 
ATOM     40  H   LIG d   1      11.518  13.849  -7.769  0.00  0.00     0.066 H 
ENDBRANCH  36  37
ENDBRANCH  27  36
BRANCH  28  41
ATOM     41  O   LIG d   1      12.596  10.675  -9.516  0.00  0.00    -0.491 OA
BRANCH  41  42
ATOM     42  C   LIG d   1      12.343  11.138 -10.845  0.00  0.00     0.079 C 
ATOM     43  H   LIG d   1      13.170  10.852 -11.494  0.00  0.00     0.066 H 
ATOM     44  H   LIG d   1      11.419  10.691 -11.215  0.00  0.00     0.066 H 
ATOM     45  H   LIG d   1      12.244  12.224 -10.839  0.00  0.00     0.066 H 
ENDBRANCH  41  42
ENDBRANCH  28  41
ENDBRANCH   1  23
BRANCH  13  46
ATOM     46  C   LIG d   1      10.521   5.396  -1.750  0.00  0.00     0.036 A 
ATOM     47  C   LIG d   1       9.951   6.640  -1.510  0.00  0.00     0.005 A 
ATOM     48  C   LIG d   1      10.459   7.453  -0.512  0.00  0.00     0.168 A 
ATOM     49  H   LIG d   1       9.112   6.973  -2.103  0.00  0.00     0.067 H 
ATOM     50  C   LIG d   1      11.541   7.022   0.252  0.00  0.00     0.166 A 
ATOM     51  O   LIG d   1      10.090   8.695  -0.082  0.00  0.00    -0.453 OA
ATOM     52  C   LIG d   1      12.107   5.780   0.010  0.00  0.00    -0.014 A 
ATOM     53  O   LIG d   1      11.850   7.995   1.160  0.00  0.00    -0.453 OA
ATOM     54  C   LIG d   1      11.596   4.967  -0.984  0.00  0.00    -0.037 A 
ATOM     55  H   LIG d   1      12.946   5.445   0.602  0.00  0.00     0.066 H 
ATOM     56  H   LIG d   1      12.036   3.998  -1.167  0.00  0.00     0.064 H 
ATOM     57  C   LIG d   1      11.211   9.189   0.674  0.00  0.00     0.233 C 
ATOM     58  H   LIG d   1      11.888   9.753   0.032  0.00  0.00     0.117 H 
ATOM     59  H   LIG d   1      10.869   9.806   1.506  0.00  0.00     0.117 H 
ENDBRANCH  13  46
TORSDOF 8
ENDMDL
MODEL 6
REMARK VINA RESULT:      -6.5     11.128     14.670
REMARK  8 active torsions:
REMARK  status: ('A' for Active; 'I' for Inactive)
REMARK    1  A    between atoms: C_1  and  O_2 
REMARK    2  A    between atoms: O_2  and  C_3 
REMARK    3  A    between atoms: C_5  and  C_13 
REMARK    4  A    between atoms: C_7  and  O_11 
REMARK    5  A    between atoms: C_8  and  O_9 
REMARK    6  A    between atoms: O_9  and  C_10 
REMARK    7  A    between atoms: O_11  and  C_12 
REMARK    8  A    between atoms: N_25  and  C_28 
ROOT
ATOM      1  C   LIG d   1       9.777   4.198  -5.436  0.00  0.00    -0.008 C 
ATOM      2  C   LIG d   1       9.916   5.057  -4.393  0.00  0.00     0.176 A 
ATOM      3  C   LIG d   1      10.140   4.688  -2.987  0.00  0.00     0.232 A 
ATOM      4  O   LIG d   1      10.240   3.568  -2.517  0.00  0.00    -0.283 OA
ATOM      5  C   LIG d   1      10.218   5.976  -2.276  0.00  0.00     0.068 A 
ATOM      6  C   LIG d   1      10.414   6.317  -0.937  0.00  0.00    -0.044 A 
ATOM      7  C   LIG d   1      10.438   7.631  -0.567  0.00  0.00    -0.019 A 
ATOM      8  C   LIG d   1      10.268   8.636  -1.521  0.00  0.00     0.131 A 
ATOM      9  C   LIG d   1      10.074   8.310  -2.852  0.00  0.00     0.054 A 
ATOM     10  C   LIG d   1      10.045   6.976  -3.245  0.00  0.00     0.148 A 
ATOM     11  O   LIG d   1       9.878   6.409  -4.460  0.00  0.00    -0.451 OA
ATOM     12  C   LIG d   1       9.892   9.385  -3.892  0.00  0.00     0.047 C 
ATOM     13  N   LIG d   1       9.547  10.654  -3.235  0.00  0.00    -0.293 NA
ATOM     14  C   LIG d   1      10.484  10.924  -2.132  0.00  0.00     0.157 C 
ATOM     15  O   LIG d   1      10.295   9.934  -1.120  0.00  0.00    -0.473 OA
ATOM     16  H   LIG d   1       9.723   3.135  -5.256  0.00  0.00     0.066 H 
ATOM     17  H   LIG d   1      10.547   5.544  -0.196  0.00  0.00     0.063 H 
ATOM     18  H   LIG d   1      10.589   7.895   0.470  0.00  0.00     0.065 H 
ATOM     19  H   LIG d   1       9.091   9.100  -4.574  0.00  0.00     0.052 H 
ATOM     20  H   LIG d   1      10.820   9.508  -4.453  0.00  0.00     0.052 H 
ATOM     21  H   LIG d   1      10.286  11.913  -1.719  0.00  0.00     0.091 H 
ATOM     22  H   LIG d   1      11.508  10.878  -2.502  0.00  0.00     0.091 H 
ENDROOT
BRANCH   1  23
ATOM     23  C   LIG d   1       9.705   4.715  -6.808  0.00  0.00    -0.014 A 
ATOM     24  C   LIG d   1       9.389   3.855  -7.867  0.00  0.00    -0.009 A 
ATOM     25  C   LIG d   1       9.319   4.346  -9.156  0.00  0.00     0.166 A 
ATOM     26  H   LIG d   1       9.199   2.809  -7.675  0.00  0.00     0.066 H 
ATOM     27  C   LIG d   1       9.568   5.694  -9.404  0.00  0.00     0.203 A 
ATOM     28  C   LIG d   1       9.878   6.554  -8.354  0.00  0.00     0.166 A 
ATOM     29  C   LIG d   1       9.949   6.071  -7.061  0.00  0.00    -0.009 A 
ATOM     30  H   LIG d   1      10.192   6.738  -6.247  0.00  0.00     0.066 H 
BRANCH  25  31
ATOM     31  O   LIG d   1       9.013   3.510 -10.185  0.00  0.00    -0.491 OA
BRANCH  31  32
ATOM     32  C   LIG d   1       9.966   2.493 -10.500  0.00  0.00     0.079 C 
ATOM     33  H   LIG d   1       9.750   2.088 -11.489  0.00  0.00     0.066 H 
ATOM     34  H   LIG d   1       9.904   1.696  -9.759  0.00  0.00     0.066 H 
ATOM     35  H   LIG d   1      10.969   2.919 -10.492  0.00  0.00     0.066 H 
ENDBRANCH  31  32
ENDBRANCH  25  31
BRANCH  27  36
ATOM     36  O   LIG d   1       9.505   6.171 -10.676  0.00  0.00    -0.488 OA
BRANCH  36  37
ATOM     37  C   LIG d   1      10.714   6.151 -11.436  0.00  0.00     0.079 C 
ATOM     38  H   LIG d   1      10.706   5.292 -12.107  0.00  0.00     0.066 H 
ATOM     39  H   LIG d   1      10.790   7.068 -12.021  0.00  0.00     0.066 H 
ATOM     40  H   LIG d   1      11.567   6.078 -10.762  0.00  0.00     0.066 H 
ENDBRANCH  36  37
ENDBRANCH  27  36
BRANCH  28  41
ATOM     41  O   LIG d   1      10.116   7.870  -8.601  0.00  0.00    -0.491 OA
BRANCH  41  42
ATOM     42  C   LIG d   1       9.152   8.806  -8.114  0.00  0.00     0.079 C 
ATOM     43  H   LIG d   1       8.475   8.305  -7.423  0.00  0.00     0.066 H 
ATOM     44  H   LIG d   1       9.663   9.619  -7.597  0.00  0.00     0.066 H 
ATOM     45  H   LIG d   1       8.582   9.210  -8.952  0.00  0.00     0.066 H 
ENDBRANCH  41  42
ENDBRANCH  28  41
ENDBRANCH   1  23
BRANCH  13  46
ATOM     46  C   LIG d   1       9.536  11.708  -4.155  0.00  0.00     0.036 A 
ATOM     47  C   LIG d   1       9.554  11.441  -5.518  0.00  0.00     0.005 A 
ATOM     48  C   LIG d   1       9.544  12.483  -6.428  0.00  0.00     0.168 A 
ATOM     49  H   LIG d   1       9.578  10.419  -5.867  0.00  0.00     0.067 H 
ATOM     50  C   LIG d   1       9.514  13.801  -5.975  0.00  0.00     0.166 A 
ATOM     51  O   LIG d   1       9.556  12.492  -7.793  0.00  0.00    -0.453 OA
ATOM     52  C   LIG d   1       9.495  14.064  -4.614  0.00  0.00    -0.014 A 
ATOM     53  O   LIG d   1       9.508  14.634  -7.057  0.00  0.00    -0.453 OA
ATOM     54  C   LIG d   1       9.501  13.022  -3.707  0.00  0.00    -0.037 A 
ATOM     55  H   LIG d   1       9.472  15.085  -4.263  0.00  0.00     0.066 H 
ATOM     56  H   LIG d   1       9.482  13.229  -2.647  0.00  0.00     0.064 H 
ATOM     57  C   LIG d   1       9.947  13.827  -8.165  0.00  0.00     0.233 C 
ATOM     58  H   LIG d   1      11.029  13.891  -8.282  0.00  0.00     0.117 H 
ATOM     59  H   LIG d   1       9.444  14.131  -9.084  0.00  0.00     0.117 H 
ENDBRANCH  13  46
TORSDOF 8
ENDMDL
MODEL 7
REMARK VINA RESULT:      -6.5      9.742     14.961
REMARK  8 active torsions:
REMARK  status: ('A' for Active; 'I' for Inactive)
REMARK    1  A    between atoms: C_1  and  O_2 
REMARK    2  A    between atoms: O_2  and  C_3 
REMARK    3  A    between atoms: C_5  and  C_13 
REMARK    4  A    between atoms: C_7  and  O_11 
REMARK    5  A    between atoms: C_8  and  O_9 
REMARK    6  A    between atoms: O_9  and  C_10 
REMARK    7  A    between atoms: O_11  and  C_12 
REMARK    8  A    between atoms: N_25  and  C_28 
ROOT
ATOM      1  C   LIG d   1       9.592   6.935  -9.185  0.00  0.00    -0.008 C 
ATOM      2  C   LIG d   1       9.548   5.865  -8.349  0.00  0.00     0.176 A 
ATOM      3  C   LIG d   1       9.209   4.484  -8.724  0.00  0.00     0.232 A 
ATOM      4  O   LIG d   1       8.914   4.062  -9.828  0.00  0.00    -0.283 OA
ATOM      5  C   LIG d   1       9.307   3.726  -7.465  0.00  0.00     0.068 A 
ATOM      6  C   LIG d   1       9.111   2.383  -7.140  0.00  0.00    -0.044 A 
ATOM      7  C   LIG d   1       9.279   1.964  -5.852  0.00  0.00    -0.019 A 
ATOM      8  C   LIG d   1       9.648   2.869  -4.857  0.00  0.00     0.131 A 
ATOM      9  C   LIG d   1       9.847   4.204  -5.166  0.00  0.00     0.054 A 
ATOM     10  C   LIG d   1       9.677   4.648  -6.474  0.00  0.00     0.148 A 
ATOM     11  O   LIG d   1       9.813   5.876  -7.022  0.00  0.00    -0.451 OA
ATOM     12  C   LIG d   1      10.248   5.192  -4.102  0.00  0.00     0.047 C 
ATOM     13  N   LIG d   1       9.971   4.626  -2.774  0.00  0.00    -0.293 NA
ATOM     14  C   LIG d   1      10.520   3.264  -2.680  0.00  0.00     0.157 C 
ATOM     15  O   LIG d   1       9.805   2.420  -3.584  0.00  0.00    -0.473 OA
ATOM     16  H   LIG d   1       9.263   6.835 -10.208  0.00  0.00     0.066 H 
ATOM     17  H   LIG d   1       8.827   1.678  -7.907  0.00  0.00     0.063 H 
ATOM     18  H   LIG d   1       9.126   0.923  -5.602  0.00  0.00     0.065 H 
ATOM     19  H   LIG d   1       9.680   6.114  -4.229  0.00  0.00     0.052 H 
ATOM     20  H   LIG d   1      11.314   5.408  -4.190  0.00  0.00     0.052 H 
ATOM     21  H   LIG d   1      10.404   2.892  -1.662  0.00  0.00     0.091 H 
ATOM     22  H   LIG d   1      11.577   3.275  -2.948  0.00  0.00     0.091 H 
ENDROOT
BRANCH   1  23
ATOM     23  C   LIG d   1      10.090   8.227  -8.696  0.00  0.00    -0.014 A 
ATOM     24  C   LIG d   1      11.145   8.868  -9.357  0.00  0.00    -0.009 A 
ATOM     25  C   LIG d   1      11.609  10.085  -8.896  0.00  0.00     0.166 A 
ATOM     26  H   LIG d   1      11.595   8.413 -10.227  0.00  0.00     0.066 H 
ATOM     27  C   LIG d   1      11.032  10.671  -7.771  0.00  0.00     0.203 A 
ATOM     28  C   LIG d   1       9.980  10.039  -7.114  0.00  0.00     0.166 A 
ATOM     29  C   LIG d   1       9.509   8.822  -7.569  0.00  0.00    -0.009 A 
ATOM     30  H   LIG d   1       8.695   8.332  -7.057  0.00  0.00     0.066 H 
BRANCH  25  31
ATOM     31  O   LIG d   1      12.634  10.708  -9.537  0.00  0.00    -0.491 OA
BRANCH  31  32
ATOM     32  C   LIG d   1      12.371  11.206 -10.850  0.00  0.00     0.079 C 
ATOM     33  H   LIG d   1      11.423  10.805 -11.207  0.00  0.00     0.066 H 
ATOM     34  H   LIG d   1      13.172  10.897 -11.522  0.00  0.00     0.066 H 
ATOM     35  H   LIG d   1      12.320  12.294 -10.823  0.00  0.00     0.066 H 
ENDBRANCH  31  32
ENDBRANCH  25  31
BRANCH  27  36
ATOM     36  O   LIG d   1      11.496  11.866  -7.317  0.00  0.00    -0.488 OA
BRANCH  36  37
ATOM     37  C   LIG d   1      10.898  13.043  -7.862  0.00  0.00     0.079 C 
ATOM     38  H   LIG d   1      11.462  13.364  -8.739  0.00  0.00     0.066 H 
ATOM     39  H   LIG d   1       9.869  12.826  -8.151  0.00  0.00     0.066 H 
ATOM     40  H   LIG d   1      10.907  13.836  -7.115  0.00  0.00     0.066 H 
ENDBRANCH  36  37
ENDBRANCH  27  36
BRANCH  28  41
ATOM     41  O   LIG d   1       9.417  10.618  -6.019  0.00  0.00    -0.491 OA
BRANCH  41  42
ATOM     42  C   LIG d   1       9.665   9.996  -4.757  0.00  0.00     0.079 C 
ATOM     43  H   LIG d   1       8.954  10.370  -4.021  0.00  0.00     0.066 H 
ATOM     44  H   LIG d   1       9.552   8.916  -4.855  0.00  0.00     0.066 H 
ATOM     45  H   LIG d   1      10.680  10.226  -4.431  0.00  0.00     0.066 H 
ENDBRANCH  41  42
ENDBRANCH  28  41
ENDBRANCH   1  23
BRANCH  13  46
ATOM     46  C   LIG d   1      10.486   5.446  -1.763  0.00  0.00     0.036 A 
ATOM     47  C   LIG d   1       9.933   6.700  -1.538  0.00  0.00     0.005 A 
ATOM     48  C   LIG d   1      10.442   7.511  -0.538  0.00  0.00     0.168 A 
ATOM     49  H   LIG d   1       9.109   7.043  -2.144  0.00  0.00     0.067 H 
ATOM     50  C   LIG d   1      11.506   7.066   0.243  0.00  0.00     0.166 A 
ATOM     51  O   LIG d   1      10.088   8.761  -0.120  0.00  0.00    -0.453 OA
ATOM     52  C   LIG d   1      12.054   5.813   0.017  0.00  0.00    -0.014 A 
ATOM     53  O   LIG d   1      11.819   8.039   1.150  0.00  0.00    -0.453 OA
ATOM     54  C   LIG d   1      11.543   5.003  -0.979  0.00  0.00    -0.037 A 
ATOM     55  H   LIG d   1      12.879   5.468   0.622  0.00  0.00     0.066 H 
ATOM     56  H   LIG d   1      11.968   4.025  -1.151  0.00  0.00     0.064 H 
ATOM     57  C   LIG d   1      11.207   9.241   0.649  0.00  0.00     0.233 C 
ATOM     58  H   LIG d   1      11.902   9.790   0.013  0.00  0.00     0.117 H 
ATOM     59  H   LIG d   1      10.865   9.869   1.472  0.00  0.00     0.117 H 
ENDBRANCH  13  46
TORSDOF 8
ENDMDL
MODEL 8
REMARK VINA RESULT:      -6.5     11.199     14.735
REMARK  8 active torsions:
REMARK  status: ('A' for Active; 'I' for Inactive)
REMARK    1  A    between atoms: C_1  and  O_2 
REMARK    2  A    between atoms: O_2  and  C_3 
REMARK    3  A    between atoms: C_5  and  C_13 
REMARK    4  A    between atoms: C_7  and  O_11 
REMARK    5  A    between atoms: C_8  and  O_9 
REMARK    6  A    between atoms: O_9  and  C_10 
REMARK    7  A    between atoms: O_11  and  C_12 
REMARK    8  A    between atoms: N_25  and  C_28 
ROOT
ATOM      1  C   LIG d   1       9.751   4.292  -5.537  0.00  0.00    -0.008 C 
ATOM      2  C   LIG d   1       9.877   5.144  -4.487  0.00  0.00     0.176 A 
ATOM      3  C   LIG d   1      10.076   4.765  -3.080  0.00  0.00     0.232 A 
ATOM      4  O   LIG d   1      10.163   3.643  -2.615  0.00  0.00    -0.283 OA
ATOM      5  C   LIG d   1      10.149   6.049  -2.360  0.00  0.00     0.068 A 
ATOM      6  C   LIG d   1      10.326   6.381  -1.016  0.00  0.00    -0.044 A 
ATOM      7  C   LIG d   1      10.350   7.693  -0.639  0.00  0.00    -0.019 A 
ATOM      8  C   LIG d   1      10.201   8.704  -1.588  0.00  0.00     0.131 A 
ATOM      9  C   LIG d   1      10.026   8.387  -2.924  0.00  0.00     0.054 A 
ATOM     10  C   LIG d   1       9.997   7.055  -3.325  0.00  0.00     0.148 A 
ATOM     11  O   LIG d   1       9.847   6.496  -4.547  0.00  0.00    -0.451 OA
ATOM     12  C   LIG d   1       9.867   9.469  -3.961  0.00  0.00     0.047 C 
ATOM     13  N   LIG d   1       9.518  10.736  -3.302  0.00  0.00    -0.293 NA
ATOM     14  C   LIG d   1      10.438  10.995  -2.183  0.00  0.00     0.157 C 
ATOM     15  O   LIG d   1      10.227   9.999  -1.180  0.00  0.00    -0.473 OA
ATOM     16  H   LIG d   1       9.688   3.228  -5.364  0.00  0.00     0.066 H 
ATOM     17  H   LIG d   1      10.443   5.603  -0.277  0.00  0.00     0.063 H 
ATOM     18  H   LIG d   1      10.486   7.950   0.402  0.00  0.00     0.065 H 
ATOM     19  H   LIG d   1       9.076   9.192  -4.657  0.00  0.00     0.052 H 
ATOM     20  H   LIG d   1      10.804   9.590  -4.506  0.00  0.00     0.052 H 
ATOM     21  H   LIG d   1      10.239  11.983  -1.767  0.00  0.00     0.091 H 
ATOM     22  H   LIG d   1      11.468  10.946  -2.536  0.00  0.00     0.091 H 
ENDROOT
BRANCH   1  23
ATOM     23  C   LIG d   1       9.703   4.817  -6.907  0.00  0.00    -0.014 A 
ATOM     24  C   LIG d   1       9.950   6.175  -7.147  0.00  0.00    -0.009 A 
ATOM     25  C   LIG d   1       9.905   6.665  -8.438  0.00  0.00     0.166 A 
ATOM     26  H   LIG d   1      10.175   6.838  -6.325  0.00  0.00     0.066 H 
ATOM     27  C   LIG d   1       9.610   5.812  -9.499  0.00  0.00     0.203 A 
ATOM     28  C   LIG d   1       9.368   4.461  -9.265  0.00  0.00     0.166 A 
ATOM     29  C   LIG d   1       9.411   3.962  -7.977  0.00  0.00    -0.009 A 
ATOM     30  H   LIG d   1       9.222   2.914  -7.796  0.00  0.00     0.066 H 
BRANCH  25  31
ATOM     31  O   LIG d   1      10.144   7.984  -8.672  0.00  0.00    -0.491 OA
BRANCH  31  32
ATOM     32  C   LIG d   1       9.275   8.923  -8.036  0.00  0.00     0.079 C 
ATOM     33  H   LIG d   1       8.885   9.617  -8.781  0.00  0.00     0.066 H 
ATOM     34  H   LIG d   1       9.831   9.477  -7.280  0.00  0.00     0.066 H 
ATOM     35  H   LIG d   1       8.449   8.393  -7.564  0.00  0.00     0.066 H 
ENDBRANCH  31  32
ENDBRANCH  25  31
BRANCH  27  36
ATOM     36  O   LIG d   1       9.561   6.301 -10.767  0.00  0.00    -0.488 OA
BRANCH  36  37
ATOM     37  C   LIG d   1      10.784   6.308 -11.506  0.00  0.00     0.079 C 
ATOM     38  H   LIG d   1      10.802   5.455 -12.185  0.00  0.00     0.066 H 
ATOM     39  H   LIG d   1      10.856   7.231 -12.080  0.00  0.00     0.066 H 
ATOM     40  H   LIG d   1      11.626   6.241 -10.817  0.00  0.00     0.066 H 
ENDBRANCH  36  37
ENDBRANCH  27  36
BRANCH  28  41
ATOM     41  O   LIG d   1       9.085   3.632 -10.305  0.00  0.00    -0.491 OA
BRANCH  41  42
ATOM     42  C   LIG d   1       9.989   2.549 -10.537  0.00  0.00     0.079 C 
ATOM     43  H   LIG d   1      10.659   2.446  -9.684  0.00  0.00     0.066 H 
ATOM     44  H   LIG d   1       9.425   1.626 -10.669  0.00  0.00     0.066 H 
ATOM     45  H   LIG d   1      10.574   2.749 -11.436  0.00  0.00     0.066 H 
ENDBRANCH  41  42
ENDBRANCH  28  41
ENDBRANCH   1  23
BRANCH  13  46
ATOM     46  C   LIG d   1       9.527  11.796  -4.216  0.00  0.00     0.036 A 
ATOM     47  C   LIG d   1       9.535  11.536  -5.580  0.00  0.00     0.005 A 
ATOM     48  C   LIG d   1       9.545  12.584  -6.484  0.00  0.00     0.168 A 
ATOM     49  H   LIG d   1       9.535  10.516  -5.935  0.00  0.00     0.067 H 
ATOM     50  C   LIG d   1       9.545  13.899  -6.024  0.00  0.00     0.166 A 
ATOM     51  O   LIG d   1       9.553  12.601  -7.849  0.00  0.00    -0.453 OA
ATOM     52  C   LIG d   1       9.536  14.154  -4.661  0.00  0.00    -0.014 A 
ATOM     53  O   LIG d   1       9.555  14.739  -7.101  0.00  0.00    -0.453 OA
ATOM     54  C   LIG d   1       9.522  13.107  -3.760  0.00  0.00    -0.037 A 
ATOM     55  H   LIG d   1       9.536  15.173  -4.304  0.00  0.00     0.066 H 
ATOM     56  H   LIG d   1       9.511  13.309  -2.699  0.00  0.00     0.064 H 
ATOM     57  C   LIG d   1       9.972  13.928  -8.215  0.00  0.00     0.233 C 
ATOM     58  H   LIG d   1      11.055  13.970  -8.335  0.00  0.00     0.117 H 
ATOM     59  H   LIG d   1       9.473  14.249  -9.130  0.00  0.00     0.117 H 
ENDBRANCH  13  46
TORSDOF 8
ENDMDL
MODEL 9
REMARK VINA RESULT:      -6.4     11.610     15.419
REMARK  8 active torsions:
REMARK  status: ('A' for Active; 'I' for Inactive)
REMARK    1  A    between atoms: C_1  and  O_2 
REMARK    2  A    between atoms: O_2  and  C_3 
REMARK    3  A    between atoms: C_5  and  C_13 
REMARK    4  A    between atoms: C_7  and  O_11 
REMARK    5  A    between atoms: C_8  and  O_9 
REMARK    6  A    between atoms: O_9  and  C_10 
REMARK    7  A    between atoms: O_11  and  C_12 
REMARK    8  A    between atoms: N_25  and  C_28 
ROOT
ATOM      1  C   LIG d   1      10.595   5.515  -1.190  0.00  0.00    -0.008 C 
ATOM      2  C   LIG d   1      10.802   6.737  -0.635  0.00  0.00     0.176 A 
ATOM      3  C   LIG d   1      11.239   7.001   0.744  0.00  0.00     0.232 A 
ATOM      4  O   LIG d   1      11.489   6.188   1.616  0.00  0.00    -0.283 OA
ATOM      5  C   LIG d   1      11.308   8.471   0.833  0.00  0.00     0.068 A 
ATOM      6  C   LIG d   1      11.652   9.350   1.861  0.00  0.00    -0.044 A 
ATOM      7  C   LIG d   1      11.620  10.697   1.641  0.00  0.00    -0.019 A 
ATOM      8  C   LIG d   1      11.247  11.200   0.394  0.00  0.00     0.131 A 
ATOM      9  C   LIG d   1      10.905  10.338  -0.633  0.00  0.00     0.054 A 
ATOM     10  C   LIG d   1      10.930   8.963  -0.425  0.00  0.00     0.148 A 
ATOM     11  O   LIG d   1      10.649   7.932  -1.252  0.00  0.00    -0.451 OA
ATOM     12  C   LIG d   1      10.503  10.869  -1.986  0.00  0.00     0.047 C 
ATOM     13  N   LIG d   1      10.148  12.291  -1.872  0.00  0.00    -0.293 NA
ATOM     14  C   LIG d   1      11.198  13.017  -1.140  0.00  0.00     0.157 C 
ATOM     15  O   LIG d   1      11.223  12.546   0.208  0.00  0.00    -0.473 OA
ATOM     16  H   LIG d   1      10.649   4.628  -0.578  0.00  0.00     0.066 H 
ATOM     17  H   LIG d   1      11.943   8.966   2.826  0.00  0.00     0.063 H 
ATOM     18  H   LIG d   1      11.886  11.378   2.437  0.00  0.00     0.065 H 
ATOM     19  H   LIG d   1       9.644  10.308  -2.354  0.00  0.00     0.052 H 
ATOM     20  H   LIG d   1      11.335  10.756  -2.682  0.00  0.00     0.052 H 
ATOM     21  H   LIG d   1      10.980  14.085  -1.151  0.00  0.00     0.091 H 
ATOM     22  H   LIG d   1      12.165  12.835  -1.609  0.00  0.00     0.091 H 
ENDROOT
BRANCH   1  23
ATOM     23  C   LIG d   1      10.301   5.401  -2.624  0.00  0.00    -0.014 A 
ATOM     24  C   LIG d   1       9.805   4.199  -3.146  0.00  0.00    -0.009 A 
ATOM     25  C   LIG d   1       9.528   4.097  -4.495  0.00  0.00     0.166 A 
ATOM     26  H   LIG d   1       9.640   3.354  -2.494  0.00  0.00     0.066 H 
ATOM     27  C   LIG d   1       9.746   5.184  -5.338  0.00  0.00     0.203 A 
ATOM     28  C   LIG d   1      10.234   6.382  -4.822  0.00  0.00     0.166 A 
ATOM     29  C   LIG d   1      10.514   6.494  -3.474  0.00  0.00    -0.009 A 
ATOM     30  H   LIG d   1      10.895   7.423  -3.075  0.00  0.00     0.066 H 
BRANCH  25  31
ATOM     31  O   LIG d   1       9.047   2.929  -5.002  0.00  0.00    -0.491 OA
BRANCH  31  32
ATOM     32  C   LIG d   1       8.150   2.184  -4.177  0.00  0.00     0.079 C 
ATOM     33  H   LIG d   1       7.125   2.489  -4.387  0.00  0.00     0.066 H 
ATOM     34  H   LIG d   1       8.379   2.375  -3.128  0.00  0.00     0.066 H 
ATOM     35  H   LIG d   1       8.263   1.120  -4.385  0.00  0.00     0.066 H 
ENDBRANCH  31  32
ENDBRANCH  25  31
BRANCH  27  36
ATOM     36  O   LIG d   1       9.477   5.076  -6.666  0.00  0.00    -0.488 OA
BRANCH  36  37
ATOM     37  C   LIG d   1      10.546   4.650  -7.511  0.00  0.00     0.079 C 
ATOM     38  H   LIG d   1      10.414   5.075  -8.506  0.00  0.00     0.066 H 
ATOM     39  H   LIG d   1      11.495   4.988  -7.094  0.00  0.00     0.066 H 
ATOM     40  H   LIG d   1      10.546   3.562  -7.578  0.00  0.00     0.066 H 
ENDBRANCH  36  37
ENDBRANCH  27  36
BRANCH  28  41
ATOM     41  O   LIG d   1      10.440   7.443  -5.648  0.00  0.00    -0.491 OA
BRANCH  41  42
ATOM     42  C   LIG d   1       9.489   8.508  -5.587  0.00  0.00     0.079 C 
ATOM     43  H   LIG d   1       8.897   8.415  -4.677  0.00  0.00     0.066 H 
ATOM     44  H   LIG d   1      10.013   9.464  -5.583  0.00  0.00     0.066 H 
ATOM     45  H   LIG d   1       8.831   8.458  -6.455  0.00  0.00     0.066 H 
ENDBRANCH  41  42
ENDBRANCH  28  41
ENDBRANCH   1  23
BRANCH  13  46
ATOM     46  C   LIG d   1       9.933  12.855  -3.134  0.00  0.00     0.036 A 
ATOM     47  C   LIG d   1       9.868  12.041  -4.257  0.00  0.00     0.005 A 
ATOM     48  C   LIG d   1       9.654  12.599  -5.506  0.00  0.00     0.168 A 
ATOM     49  H   LIG d   1       9.985  10.972  -4.156  0.00  0.00     0.067 H 
ATOM     50  C   LIG d   1       9.504  13.979  -5.633  0.00  0.00     0.166 A 
ATOM     51  O   LIG d   1       9.550  12.034  -6.744  0.00  0.00    -0.453 OA
ATOM     52  C   LIG d   1       9.568  14.788  -4.510  0.00  0.00    -0.014 A 
ATOM     53  O   LIG d   1       9.306  14.276  -6.952  0.00  0.00    -0.453 OA
ATOM     54  C   LIG d   1       9.777  14.229  -3.264  0.00  0.00    -0.037 A 
ATOM     55  H   LIG d   1       9.451  15.857  -4.609  0.00  0.00     0.066 H 
ATOM     56  H   LIG d   1       9.822  14.861  -2.389  0.00  0.00     0.064 H 
ATOM     57  C   LIG d   1       9.744  13.112  -7.677  0.00  0.00     0.233 C 
ATOM     58  H   LIG d   1      10.797  13.202  -7.947  0.00  0.00     0.117 H 
ATOM     59  H   LIG d   1       9.133  12.963  -8.567  0.00  0.00     0.117 H 
ENDBRANCH  13  46
TORSDOF 8
ENDMDL
