MODEL 1
REMARK VINA RESULT:      -6.5      0.000      0.000
REMARK  12 active torsions:
REMARK  status: ('A' for Active; 'I' for Inactive)
REMARK    1  A    between atoms: C_1  and  C_2 
REMARK    2  A    between atoms: C_2  and  C_3 
REMARK    3  A    between atoms: C_3  and  C_4 
REMARK    4  A    between atoms: C_4  and  C_5 
REMARK    5  A    between atoms: C_5  and  O_7 
REMARK    6  A    between atoms: O_7  and  C_8 
REMARK    7  A    between atoms: C_8  and  C_33 
REMARK    8  A    between atoms: C_13  and  C_32 
REMARK    9  A    between atoms: C_15  and  O_31 
REMARK   10  A    between atoms: C_29  and  C_30 
REMARK   11  A    between atoms: C_33  and  C_35 
REMARK   12  A    between atoms: C_35  and  O_36 
ROOT
ATOM      1  C   LIG d   1       6.596  -0.539  -4.839  0.00  0.00     0.178 C 
ATOM      2  C   LIG d   1       5.174  -0.292  -5.403  0.00  0.00    -0.005 C 
ATOM      3  C   LIG d   1       4.693  -1.648  -5.987  0.00  0.00    -0.045 C 
ATOM      4  C   LIG d   1       5.530  -2.672  -5.212  0.00  0.00    -0.028 C 
ATOM      5  H   LIG d   1       5.146  -2.788  -4.200  0.00  0.00     0.031 H 
ATOM      6  C   LIG d   1       6.923  -1.986  -5.189  0.00  0.00     0.020 C 
ATOM      7  C   LIG d   1       7.778  -2.747  -4.194  0.00  0.00    -0.017 C 
ATOM      8  C   LIG d   1       7.969  -4.166  -4.750  0.00  0.00     0.060 C 
ATOM      9  H   LIG d   1       8.553  -4.752  -4.039  0.00  0.00     0.060 H 
ATOM     10  C   LIG d   1       6.634  -4.864  -4.991  0.00  0.00     0.001 C 
ATOM     11  H   LIG d   1       6.137  -5.028  -4.034  0.00  0.00     0.034 H 
ATOM     12  C   LIG d   1       5.725  -4.015  -5.893  0.00  0.00    -0.031 C 
ATOM     13  H   LIG d   1       6.195  -3.880  -6.867  0.00  0.00     0.031 H 
ATOM     14  C   LIG d   1       4.367  -4.702  -6.045  0.00  0.00    -0.046 C 
ATOM     15  C   LIG d   1       4.548  -6.040  -6.768  0.00  0.00    -0.030 C 
ATOM     16  C   LIG d   1       5.570  -6.858  -6.001  0.00  0.00    -0.056 A 
ATOM     17  C   LIG d   1       5.263  -8.099  -5.649  0.00  0.00    -0.015 A 
ATOM     18  C   LIG d   1       6.213  -8.914  -4.877  0.00  0.00     0.179 A 
ATOM     19  O   LIG d   1       5.952 -10.066  -4.585  0.00  0.00    -0.288 OA
ATOM     20  C   LIG d   1       7.489  -8.304  -4.464  0.00  0.00    -0.018 A 
ATOM     21  C   LIG d   1       7.777  -7.066  -4.833  0.00  0.00    -0.070 A 
ATOM     22  C   LIG d   1       6.884  -6.214  -5.668  0.00  0.00     0.013 A 
ATOM     23  H   LIG d   1       5.209   0.462  -6.189  0.00  0.00     0.031 H 
ATOM     24  H   LIG d   1       4.506   0.029  -4.604  0.00  0.00     0.031 H 
ATOM     25  H   LIG d   1       4.905  -1.705  -7.055  0.00  0.00     0.027 H 
ATOM     26  H   LIG d   1       3.630  -1.796  -5.796  0.00  0.00     0.027 H 
ATOM     27  H   LIG d   1       7.274  -2.792  -3.229  0.00  0.00     0.030 H 
ATOM     28  H   LIG d   1       8.746  -2.257  -4.085  0.00  0.00     0.030 H 
ATOM     29  H   LIG d   1       3.937  -4.877  -5.059  0.00  0.00     0.027 H 
ATOM     30  H   LIG d   1       3.699  -4.064  -6.624  0.00  0.00     0.027 H 
ATOM     31  H   LIG d   1       4.904  -5.865  -7.783  0.00  0.00     0.031 H 
ATOM     32  H   LIG d   1       3.598  -6.573  -6.798  0.00  0.00     0.031 H 
ATOM     33  H   LIG d   1       4.307  -8.515  -5.931  0.00  0.00     0.066 H 
ATOM     34  H   LIG d   1       8.187  -8.866  -3.863  0.00  0.00     0.065 H 
ATOM     35  H   LIG d   1       8.717  -6.646  -4.508  0.00  0.00     0.058 H 
ENDROOT
BRANCH   1  36
ATOM     36  O   LIG d   1       6.604  -0.355  -3.398  0.00  0.00    -0.450 OA
BRANCH  36  37
ATOM     37  C   LIG d   1       5.830   0.623  -2.904  0.00  0.00     0.308 C 
ATOM     38  O   LIG d   1       6.104   1.780  -3.121  0.00  0.00    -0.251 OA
BRANCH  37  39
ATOM     39  C   LIG d   1       4.617   0.279  -2.080  0.00  0.00     0.045 C 
ATOM     40  H   LIG d   1       4.623   0.865  -1.161  0.00  0.00     0.038 H 
ATOM     41  H   LIG d   1       3.714   0.504  -2.648  0.00  0.00     0.038 H 
BRANCH  39  42
ATOM     42  C   LIG d   1       4.641  -1.211  -1.732  0.00  0.00    -0.043 C 
ATOM     43  H   LIG d   1       5.596  -1.639  -2.036  0.00  0.00     0.027 H 
ATOM     44  H   LIG d   1       4.513  -1.335  -0.657  0.00  0.00     0.027 H 
BRANCH  42  45
ATOM     45  C   LIG d   1       3.506  -1.926  -2.466  0.00  0.00    -0.055 C 
ATOM     46  H   LIG d   1       3.919  -2.526  -3.278  0.00  0.00     0.026 H 
ATOM     47  H   LIG d   1       2.975  -2.576  -1.770  0.00  0.00     0.026 H 
BRANCH  45  48
ATOM     48  C   LIG d   1       2.536  -0.891  -3.039  0.00  0.00    -0.065 C 
ATOM     49  H   LIG d   1       2.903   0.111  -2.820  0.00  0.00     0.023 H 
ATOM     50  H   LIG d   1       2.462  -1.022  -4.119  0.00  0.00     0.023 H 
ATOM     51  H   LIG d   1       1.553  -1.026  -2.589  0.00  0.00     0.023 H 
ENDBRANCH  45  48
ENDBRANCH  42  45
ENDBRANCH  39  42
ENDBRANCH  37  39
ENDBRANCH  36  37
ENDBRANCH   1  36
BRANCH   1  52
ATOM     52  C   LIG d   1       7.585   0.392  -5.491  0.00  0.00     0.202 C 
ATOM     53  O   LIG d   1       7.239   1.091  -6.413  0.00  0.00    -0.291 OA
BRANCH  52  54
ATOM     54  C   LIG d   1       9.006   0.451  -4.992  0.00  0.00     0.106 C 
ATOM     55  H   LIG d   1       9.332  -0.476  -4.806  0.00  0.00     0.064 H 
ATOM     56  H   LIG d   1       9.638   0.915  -5.749  0.00  0.00     0.064 H 
BRANCH  54  57
ATOM     57  O   LIG d   1       9.057   1.224  -3.791  0.00  0.00    -0.387 OA
ATOM     58  H   LIG d   1       8.374   1.905  -3.731  0.00  0.00     0.210 HD
ENDBRANCH  54  57
ENDBRANCH  52  54
ENDBRANCH   1  52
BRANCH   6  59
ATOM     59  C   LIG d   1       7.559  -2.057  -6.579  0.00  0.00    -0.055 C 
ATOM     60  H   LIG d   1       7.880  -1.062  -6.883  0.00  0.00     0.024 H 
ATOM     61  H   LIG d   1       8.420  -2.724  -6.550  0.00  0.00     0.024 H 
ATOM     62  H   LIG d   1       6.828  -2.437  -7.293  0.00  0.00     0.024 H 
ENDBRANCH   6  59
BRANCH   8  63
ATOM     63  O   LIG d   1       8.684  -4.091  -5.985  0.00  0.00    -0.391 OA
ATOM     64  H   LIG d   1       8.172  -4.378  -6.754  0.00  0.00     0.210 HD
ENDBRANCH   8  63
BRANCH  22  65
ATOM     65  C   LIG d   1       7.619  -5.947  -6.983  0.00  0.00    -0.052 C 
ATOM     66  H   LIG d   1       8.535  -5.392  -6.779  0.00  0.00     0.024 H 
ATOM     67  H   LIG d   1       7.866  -6.895  -7.460  0.00  0.00     0.024 H 
ATOM     68  H   LIG d   1       6.981  -5.362  -7.644  0.00  0.00     0.024 H 
ENDBRANCH  22  65
TORSDOF 12
ENDMDL
MODEL 2
REMARK VINA RESULT:      -5.9      2.150      3.185
REMARK  12 active torsions:
REMARK  status: ('A' for Active; 'I' for Inactive)
REMARK    1  A    between atoms: C_1  and  C_2 
REMARK    2  A    between atoms: C_2  and  C_3 
REMARK    3  A    between atoms: C_3  and  C_4 
REMARK    4  A    between atoms: C_4  and  C_5 
REMARK    5  A    between atoms: C_5  and  O_7 
REMARK    6  A    between atoms: O_7  and  C_8 
REMARK    7  A    between atoms: C_8  and  C_33 
REMARK    8  A    between atoms: C_13  and  C_32 
REMARK    9  A    between atoms: C_15  and  O_31 
REMARK   10  A    between atoms: C_29  and  C_30 
REMARK   11  A    between atoms: C_33  and  C_35 
REMARK   12  A    between atoms: C_35  and  O_36 
ROOT
ATOM      1  C   LIG d   1       5.312  -0.505  -6.359  0.00  0.00     0.178 C 
ATOM      2  C   LIG d   1       4.225  -1.440  -6.944  0.00  0.00    -0.005 C 
ATOM      3  C   LIG d   1       4.783  -2.884  -6.834  0.00  0.00    -0.045 C 
ATOM      4  C   LIG d   1       5.802  -2.773  -5.693  0.00  0.00    -0.028 C 
ATOM      5  H   LIG d   1       5.291  -2.724  -4.732  0.00  0.00     0.031 H 
ATOM      6  C   LIG d   1       6.485  -1.416  -6.015  0.00  0.00     0.020 C 
ATOM      7  C   LIG d   1       7.307  -1.032  -4.799  0.00  0.00    -0.017 C 
ATOM      8  C   LIG d   1       8.415  -2.085  -4.648  0.00  0.00     0.060 C 
ATOM      9  H   LIG d   1       9.005  -1.856  -3.759  0.00  0.00     0.060 H 
ATOM     10  C   LIG d   1       7.843  -3.493  -4.516  0.00  0.00     0.001 C 
ATOM     11  H   LIG d   1       7.287  -3.568  -3.580  0.00  0.00     0.034 H 
ATOM     12  C   LIG d   1       6.903  -3.817  -5.688  0.00  0.00    -0.031 C 
ATOM     13  H   LIG d   1       7.459  -3.785  -6.625  0.00  0.00     0.031 H 
ATOM     14  C   LIG d   1       6.283  -5.200  -5.481  0.00  0.00    -0.046 C 
ATOM     15  C   LIG d   1       7.382  -6.265  -5.515  0.00  0.00    -0.030 C 
ATOM     16  C   LIG d   1       8.429  -5.898  -4.480  0.00  0.00    -0.056 A 
ATOM     17  C   LIG d   1       8.800  -6.811  -3.592  0.00  0.00    -0.015 A 
ATOM     18  C   LIG d   1       9.788  -6.486  -2.553  0.00  0.00     0.179 A 
ATOM     19  O   LIG d   1      10.160  -7.332  -1.760  0.00  0.00    -0.288 OA
ATOM     20  C   LIG d   1      10.317  -5.112  -2.491  0.00  0.00    -0.018 A 
ATOM     21  C   LIG d   1       9.937  -4.219  -3.391  0.00  0.00    -0.070 A 
ATOM     22  C   LIG d   1       8.990  -4.507  -4.505  0.00  0.00     0.013 A 
ATOM     23  H   LIG d   1       4.039  -1.190  -7.988  0.00  0.00     0.031 H 
ATOM     24  H   LIG d   1       3.304  -1.349  -6.367  0.00  0.00     0.031 H 
ATOM     25  H   LIG d   1       5.274  -3.181  -7.761  0.00  0.00     0.027 H 
ATOM     26  H   LIG d   1       3.991  -3.586  -6.575  0.00  0.00     0.027 H 
ATOM     27  H   LIG d   1       6.676  -1.027  -3.910  0.00  0.00     0.030 H 
ATOM     28  H   LIG d   1       7.749  -0.046  -4.946  0.00  0.00     0.030 H 
ATOM     29  H   LIG d   1       5.778  -5.230  -4.516  0.00  0.00     0.027 H 
ATOM     30  H   LIG d   1       5.561  -5.396  -6.274  0.00  0.00     0.027 H 
ATOM     31  H   LIG d   1       7.838  -6.292  -6.505  0.00  0.00     0.031 H 
ATOM     32  H   LIG d   1       6.957  -7.240  -5.278  0.00  0.00     0.031 H 
ATOM     33  H   LIG d   1       8.373  -7.802  -3.633  0.00  0.00     0.066 H 
ATOM     34  H   LIG d   1      11.012  -4.835  -1.713  0.00  0.00     0.065 H 
ATOM     35  H   LIG d   1      10.339  -3.220  -3.314  0.00  0.00     0.058 H 
ENDROOT
BRANCH   1  36
ATOM     36  O   LIG d   1       4.818   0.154  -5.162  0.00  0.00    -0.450 OA
BRANCH  36  37
ATOM     37  C   LIG d   1       3.487   0.247  -5.024  0.00  0.00     0.308 C 
ATOM     38  O   LIG d   1       2.838   0.878  -5.824  0.00  0.00    -0.251 OA
BRANCH  37  39
ATOM     39  C   LIG d   1       2.801  -0.438  -3.870  0.00  0.00     0.045 C 
ATOM     40  H   LIG d   1       1.730  -0.233  -3.910  0.00  0.00     0.038 H 
ATOM     41  H   LIG d   1       2.967  -1.513  -3.934  0.00  0.00     0.038 H 
BRANCH  39  42
ATOM     42  C   LIG d   1       3.371   0.088  -2.551  0.00  0.00    -0.043 C 
ATOM     43  H   LIG d   1       3.927   1.007  -2.737  0.00  0.00     0.027 H 
ATOM     44  H   LIG d   1       2.554   0.292  -1.859  0.00  0.00     0.027 H 
BRANCH  42  45
ATOM     45  C   LIG d   1       4.304  -0.959  -1.944  0.00  0.00    -0.055 C 
ATOM     46  H   LIG d   1       5.335  -0.727  -2.212  0.00  0.00     0.026 H 
ATOM     47  H   LIG d   1       4.202  -0.952  -0.858  0.00  0.00     0.026 H 
BRANCH  45  48
ATOM     48  C   LIG d   1       3.938  -2.344  -2.482  0.00  0.00    -0.065 C 
ATOM     49  H   LIG d   1       4.529  -3.101  -1.968  0.00  0.00     0.023 H 
ATOM     50  H   LIG d   1       2.878  -2.531  -2.309  0.00  0.00     0.023 H 
ATOM     51  H   LIG d   1       4.144  -2.384  -3.551  0.00  0.00     0.023 H 
ENDBRANCH  45  48
ENDBRANCH  42  45
ENDBRANCH  39  42
ENDBRANCH  37  39
ENDBRANCH  36  37
ENDBRANCH   1  36
BRANCH   1  52
ATOM     52  C   LIG d   1       5.729   0.517  -7.384  0.00  0.00     0.202 C 
ATOM     53  O   LIG d   1       6.703   1.204  -7.191  0.00  0.00    -0.291 OA
BRANCH  52  54
ATOM     54  C   LIG d   1       4.930   0.683  -8.651  0.00  0.00     0.106 C 
ATOM     55  H   LIG d   1       5.545   0.922  -9.404  0.00  0.00     0.064 H 
ATOM     56  H   LIG d   1       4.419  -0.251  -8.883  0.00  0.00     0.064 H 
BRANCH  54  57
ATOM     57  O   LIG d   1       3.966   1.723  -8.475  0.00  0.00    -0.387 OA
ATOM     58  H   LIG d   1       3.452   1.648  -7.659  0.00  0.00     0.210 HD
ENDBRANCH  54  57
ENDBRANCH  52  54
ENDBRANCH   1  52
BRANCH   6  59
ATOM     59  C   LIG d   1       7.400  -1.572  -7.231  0.00  0.00    -0.055 C 
ATOM     60  H   LIG d   1       7.081  -2.432  -7.818  0.00  0.00     0.024 H 
ATOM     61  H   LIG d   1       7.347  -0.672  -7.843  0.00  0.00     0.024 H 
ATOM     62  H   LIG d   1       8.427  -1.723  -6.895  0.00  0.00     0.024 H 
ENDBRANCH   6  59
BRANCH   8  63
ATOM     63  O   LIG d   1       9.266  -2.034  -5.795  0.00  0.00    -0.391 OA
ATOM     64  H   LIG d   1      10.201  -1.901  -5.585  0.00  0.00     0.210 HD
ENDBRANCH   8  63
BRANCH  22  65
ATOM     65  C   LIG d   1       9.770  -4.341  -5.811  0.00  0.00    -0.052 C 
ATOM     66  H   LIG d   1       9.078  -4.095  -6.617  0.00  0.00     0.024 H 
ATOM     67  H   LIG d   1      10.498  -3.538  -5.700  0.00  0.00     0.024 H 
ATOM     68  H   LIG d   1      10.286  -5.271  -6.047  0.00  0.00     0.024 H 
ENDBRANCH  22  65
TORSDOF 12
ENDMDL
MODEL 3
REMARK VINA RESULT:      -5.5      3.918      5.882
REMARK  12 active torsions:
REMARK  status: ('A' for Active; 'I' for Inactive)
REMARK    1  A    between atoms: C_1  and  C_2 
REMARK    2  A    between atoms: C_2  and  C_3 
REMARK    3  A    between atoms: C_3  and  C_4 
REMARK    4  A    between atoms: C_4  and  C_5 
REMARK    5  A    between atoms: C_5  and  O_7 
REMARK    6  A    between atoms: O_7  and  C_8 
REMARK    7  A    between atoms: C_8  and  C_33 
REMARK    8  A    between atoms: C_13  and  C_32 
REMARK    9  A    between atoms: C_15  and  O_31 
REMARK   10  A    between atoms: C_29  and  C_30 
REMARK   11  A    between atoms: C_33  and  C_35 
REMARK   12  A    between atoms: C_35  and  O_36 
ROOT
ATOM      1  C   LIG d   1       5.530  -2.502  -5.225  0.00  0.00     0.178 C 
ATOM      2  C   LIG d   1       5.808  -0.980  -5.136  0.00  0.00    -0.005 C 
ATOM      3  C   LIG d   1       5.403  -0.380  -6.510  0.00  0.00    -0.045 C 
ATOM      4  C   LIG d   1       4.390  -1.399  -7.044  0.00  0.00    -0.028 C 
ATOM      5  H   LIG d   1       3.435  -1.289  -6.533  0.00  0.00     0.031 H 
ATOM      6  C   LIG d   1       5.062  -2.744  -6.655  0.00  0.00     0.020 C 
ATOM      7  C   LIG d   1       4.027  -3.834  -6.854  0.00  0.00    -0.017 C 
ATOM      8  C   LIG d   1       3.709  -3.891  -8.356  0.00  0.00     0.060 C 
ATOM      9  H   LIG d   1       2.940  -4.645  -8.528  0.00  0.00     0.060 H 
ATOM     10  C   LIG d   1       3.216  -2.547  -8.882  0.00  0.00     0.001 C 
ATOM     11  H   LIG d   1       2.254  -2.314  -8.425  0.00  0.00     0.034 H 
ATOM     12  C   LIG d   1       4.216  -1.427  -8.552  0.00  0.00    -0.031 C 
ATOM     13  H   LIG d   1       5.170  -1.630  -9.039  0.00  0.00     0.031 H 
ATOM     14  C   LIG d   1       3.653  -0.083  -9.017  0.00  0.00    -0.046 C 
ATOM     15  C   LIG d   1       3.512  -0.087 -10.542  0.00  0.00    -0.030 C 
ATOM     16  C   LIG d   1       2.662  -1.281 -10.936  0.00  0.00    -0.056 A 
ATOM     17  C   LIG d   1       1.614  -1.088 -11.725  0.00  0.00    -0.015 A 
ATOM     18  C   LIG d   1       0.746  -2.214 -12.104  0.00  0.00     0.179 A 
ATOM     19  O   LIG d   1      -0.194  -2.049 -12.859  0.00  0.00    -0.288 OA
ATOM     20  C   LIG d   1       1.041  -3.546 -11.548  0.00  0.00    -0.018 A 
ATOM     21  C   LIG d   1       2.096  -3.716 -10.768  0.00  0.00    -0.070 A 
ATOM     22  C   LIG d   1       3.047  -2.629 -10.401  0.00  0.00     0.013 A 
ATOM     23  H   LIG d   1       6.867  -0.804  -4.950  0.00  0.00     0.031 H 
ATOM     24  H   LIG d   1       5.208  -0.536  -4.342  0.00  0.00     0.031 H 
ATOM     25  H   LIG d   1       6.267  -0.312  -7.171  0.00  0.00     0.027 H 
ATOM     26  H   LIG d   1       4.936   0.597  -6.382  0.00  0.00     0.027 H 
ATOM     27  H   LIG d   1       3.123  -3.595  -6.293  0.00  0.00     0.030 H 
ATOM     28  H   LIG d   1       4.427  -4.792  -6.522  0.00  0.00     0.030 H 
ATOM     29  H   LIG d   1       2.676   0.077  -8.563  0.00  0.00     0.027 H 
ATOM     30  H   LIG d   1       4.329   0.718  -8.717  0.00  0.00     0.027 H 
ATOM     31  H   LIG d   1       4.497  -0.169 -11.003  0.00  0.00     0.031 H 
ATOM     32  H   LIG d   1       3.028   0.833 -10.870  0.00  0.00     0.031 H 
ATOM     33  H   LIG d   1       1.395  -0.097 -12.092  0.00  0.00     0.066 H 
ATOM     34  H   LIG d   1       0.396  -4.382 -11.777  0.00  0.00     0.065 H 
ATOM     35  H   LIG d   1       2.279  -4.704 -10.372  0.00  0.00     0.058 H 
ENDROOT
BRANCH   1  36
ATOM     36  O   LIG d   1       4.488  -2.878  -4.284  0.00  0.00    -0.450 OA
BRANCH  36  37
ATOM     37  C   LIG d   1       4.301  -2.071  -3.228  0.00  0.00     0.308 C 
ATOM     38  O   LIG d   1       5.153  -1.983  -2.376  0.00  0.00    -0.251 OA
BRANCH  37  39
ATOM     39  C   LIG d   1       3.028  -1.274  -3.107  0.00  0.00     0.045 C 
ATOM     40  H   LIG d   1       2.565  -1.176  -4.089  0.00  0.00     0.038 H 
ATOM     41  H   LIG d   1       2.343  -1.784  -2.431  0.00  0.00     0.038 H 
BRANCH  39  42
ATOM     42  C   LIG d   1       3.347   0.117  -2.554  0.00  0.00    -0.043 C 
ATOM     43  H   LIG d   1       2.666   0.347  -1.735  0.00  0.00     0.027 H 
ATOM     44  H   LIG d   1       4.374   0.135  -2.188  0.00  0.00     0.027 H 
BRANCH  42  45
ATOM     45  C   LIG d   1       3.183   1.158  -3.662  0.00  0.00    -0.055 C 
ATOM     46  H   LIG d   1       2.690   2.043  -3.260  0.00  0.00     0.026 H 
ATOM     47  H   LIG d   1       4.164   1.434  -4.050  0.00  0.00     0.026 H 
BRANCH  45  48
ATOM     48  C   LIG d   1       2.334   0.571  -4.792  0.00  0.00    -0.065 C 
ATOM     49  H   LIG d   1       2.946  -0.097  -5.397  0.00  0.00     0.023 H 
ATOM     50  H   LIG d   1       1.499   0.013  -4.366  0.00  0.00     0.023 H 
ATOM     51  H   LIG d   1       1.950   1.379  -5.415  0.00  0.00     0.023 H 
ENDBRANCH  45  48
ENDBRANCH  42  45
ENDBRANCH  39  42
ENDBRANCH  37  39
ENDBRANCH  36  37
ENDBRANCH   1  36
BRANCH   1  52
ATOM     52  C   LIG d   1       6.790  -3.280  -4.949  0.00  0.00     0.202 C 
ATOM     53  O   LIG d   1       6.797  -4.480  -5.075  0.00  0.00    -0.291 OA
BRANCH  52  54
ATOM     54  C   LIG d   1       8.040  -2.560  -4.515  0.00  0.00     0.106 C 
ATOM     55  H   LIG d   1       8.843  -3.050  -4.857  0.00  0.00     0.064 H 
ATOM     56  H   LIG d   1       8.035  -1.547  -4.916  0.00  0.00     0.064 H 
BRANCH  54  57
ATOM     57  O   LIG d   1       8.089  -2.506  -3.088  0.00  0.00    -0.387 OA
ATOM     58  H   LIG d   1       7.946  -1.622  -2.722  0.00  0.00     0.210 HD
ENDBRANCH  54  57
ENDBRANCH  52  54
ENDBRANCH   1  52
BRANCH   6  59
ATOM     59  C   LIG d   1       6.267  -3.002  -7.562  0.00  0.00    -0.055 C 
ATOM     60  H   LIG d   1       6.860  -2.092  -7.648  0.00  0.00     0.024 H 
ATOM     61  H   LIG d   1       6.879  -3.796  -7.135  0.00  0.00     0.024 H 
ATOM     62  H   LIG d   1       5.919  -3.303  -8.551  0.00  0.00     0.024 H 
ENDBRANCH   6  59
BRANCH   8  63
ATOM     63  O   LIG d   1       4.891  -4.265  -9.068  0.00  0.00    -0.391 OA
ATOM     64  H   LIG d   1       5.007  -3.799  -9.908  0.00  0.00     0.210 HD
ENDBRANCH   8  63
BRANCH  22  65
ATOM     65  C   LIG d   1       4.405  -2.999 -11.002  0.00  0.00    -0.052 C 
ATOM     66  H   LIG d   1       4.320  -3.049 -12.087  0.00  0.00     0.024 H 
ATOM     67  H   LIG d   1       5.141  -2.242 -10.729  0.00  0.00     0.024 H 
ATOM     68  H   LIG d   1       4.720  -3.968 -10.617  0.00  0.00     0.024 H 
ENDBRANCH  22  65
TORSDOF 12
ENDMDL
MODEL 4
REMARK VINA RESULT:      -5.3      2.965      7.696
REMARK  12 active torsions:
REMARK  status: ('A' for Active; 'I' for Inactive)
REMARK    1  A    between atoms: C_1  and  C_2 
REMARK    2  A    between atoms: C_2  and  C_3 
REMARK    3  A    between atoms: C_3  and  C_4 
REMARK    4  A    between atoms: C_4  and  C_5 
REMARK    5  A    between atoms: C_5  and  O_7 
REMARK    6  A    between atoms: O_7  and  C_8 
REMARK    7  A    between atoms: C_8  and  C_33 
REMARK    8  A    between atoms: C_13  and  C_32 
REMARK    9  A    between atoms: C_15  and  O_31 
REMARK   10  A    between atoms: C_29  and  C_30 
REMARK   11  A    between atoms: C_33  and  C_35 
REMARK   12  A    between atoms: C_35  and  O_36 
ROOT
ATOM      1  C   LIG d   1       6.282  -1.651  -4.877  0.00  0.00     0.178 C 
ATOM      2  C   LIG d   1       6.655  -1.296  -3.416  0.00  0.00    -0.005 C 
ATOM      3  C   LIG d   1       7.671  -0.124  -3.496  0.00  0.00    -0.045 C 
ATOM      4  C   LIG d   1       7.358   0.509  -4.856  0.00  0.00    -0.028 C 
ATOM      5  H   LIG d   1       6.441   1.094  -4.800  0.00  0.00     0.031 H 
ATOM      6  C   LIG d   1       7.148  -0.746  -5.746  0.00  0.00     0.020 C 
ATOM      7  C   LIG d   1       6.535  -0.271  -7.049  0.00  0.00    -0.017 C 
ATOM      8  C   LIG d   1       7.577   0.620  -7.743  0.00  0.00     0.060 C 
ATOM      9  H   LIG d   1       7.152   1.007  -8.670  0.00  0.00     0.060 H 
ATOM     10  C   LIG d   1       7.996   1.792  -6.861  0.00  0.00     0.001 C 
ATOM     11  H   LIG d   1       7.144   2.456  -6.718  0.00  0.00     0.034 H 
ATOM     12  C   LIG d   1       8.488   1.299  -5.491  0.00  0.00    -0.031 C 
ATOM     13  H   LIG d   1       9.366   0.667  -5.620  0.00  0.00     0.031 H 
ATOM     14  C   LIG d   1       8.820   2.500  -4.603  0.00  0.00    -0.046 C 
ATOM     15  C   LIG d   1       9.987   3.282  -5.214  0.00  0.00    -0.030 C 
ATOM     16  C   LIG d   1       9.615   3.651  -6.639  0.00  0.00    -0.056 A 
ATOM     17  C   LIG d   1       9.725   4.917  -7.021  0.00  0.00    -0.015 A 
ATOM     18  C   LIG d   1       9.343   5.322  -8.382  0.00  0.00     0.179 A 
ATOM     19  O   LIG d   1       9.479   6.475  -8.750  0.00  0.00    -0.288 OA
ATOM     20  C   LIG d   1       8.793   4.301  -9.291  0.00  0.00    -0.018 A 
ATOM     21  C   LIG d   1       8.699   3.044  -8.890  0.00  0.00    -0.070 A 
ATOM     22  C   LIG d   1       9.128   2.562  -7.547  0.00  0.00     0.013 A 
ATOM     23  H   LIG d   1       7.114  -2.155  -2.927  0.00  0.00     0.031 H 
ATOM     24  H   LIG d   1       5.766  -0.984  -2.868  0.00  0.00     0.031 H 
ATOM     25  H   LIG d   1       8.695  -0.499  -3.470  0.00  0.00     0.027 H 
ATOM     26  H   LIG d   1       7.501   0.590  -2.690  0.00  0.00     0.027 H 
ATOM     27  H   LIG d   1       5.631   0.304  -6.847  0.00  0.00     0.030 H 
ATOM     28  H   LIG d   1       6.297  -1.127  -7.682  0.00  0.00     0.030 H 
ATOM     29  H   LIG d   1       7.948   3.149  -4.530  0.00  0.00     0.027 H 
ATOM     30  H   LIG d   1       9.098   2.151  -3.609  0.00  0.00     0.027 H 
ATOM     31  H   LIG d   1      10.884   2.661  -5.219  0.00  0.00     0.031 H 
ATOM     32  H   LIG d   1      10.168   4.187  -4.635  0.00  0.00     0.031 H 
ATOM     33  H   LIG d   1      10.096   5.655  -6.327  0.00  0.00     0.066 H 
ATOM     34  H   LIG d   1       8.467   4.580 -10.282  0.00  0.00     0.065 H 
ATOM     35  H   LIG d   1       8.285   2.322  -9.578  0.00  0.00     0.058 H 
ENDROOT
BRANCH   1  36
ATOM     36  O   LIG d   1       4.874  -1.382  -5.116  0.00  0.00    -0.450 OA
BRANCH  36  37
ATOM     37  C   LIG d   1       4.010  -1.773  -4.166  0.00  0.00     0.308 C 
ATOM     38  O   LIG d   1       3.971  -2.931  -3.823  0.00  0.00    -0.251 OA
BRANCH  37  39
ATOM     39  C   LIG d   1       3.089  -0.766  -3.527  0.00  0.00     0.045 C 
ATOM     40  H   LIG d   1       2.071  -0.925  -3.885  0.00  0.00     0.038 H 
ATOM     41  H   LIG d   1       3.116  -0.884  -2.444  0.00  0.00     0.038 H 
BRANCH  39  42
ATOM     42  C   LIG d   1       3.542   0.648  -3.897  0.00  0.00    -0.043 C 
ATOM     43  H   LIG d   1       4.534   0.605  -4.347  0.00  0.00     0.027 H 
ATOM     44  H   LIG d   1       2.839   1.080  -4.609  0.00  0.00     0.027 H 
BRANCH  42  45
ATOM     45  C   LIG d   1       3.591   1.515  -2.638  0.00  0.00    -0.055 C 
ATOM     46  H   LIG d   1       3.922   2.519  -2.900  0.00  0.00     0.026 H 
ATOM     47  H   LIG d   1       2.596   1.566  -2.193  0.00  0.00     0.026 H 
BRANCH  45  48
ATOM     48  C   LIG d   1       4.568   0.901  -1.633  0.00  0.00    -0.065 C 
ATOM     49  H   LIG d   1       5.269   0.253  -2.157  0.00  0.00     0.023 H 
ATOM     50  H   LIG d   1       5.116   1.698  -1.128  0.00  0.00     0.023 H 
ATOM     51  H   LIG d   1       4.014   0.319  -0.897  0.00  0.00     0.023 H 
ENDBRANCH  45  48
ENDBRANCH  42  45
ENDBRANCH  39  42
ENDBRANCH  37  39
ENDBRANCH  36  37
ENDBRANCH   1  36
BRANCH   1  52
ATOM     52  C   LIG d   1       6.593  -3.098  -5.158  0.00  0.00     0.202 C 
ATOM     53  O   LIG d   1       7.284  -3.727  -4.393  0.00  0.00    -0.291 OA
BRANCH  52  54
ATOM     54  C   LIG d   1       6.041  -3.761  -6.394  0.00  0.00     0.106 C 
ATOM     55  H   LIG d   1       5.655  -3.066  -7.001  0.00  0.00     0.064 H 
ATOM     56  H   LIG d   1       6.842  -4.290  -6.911  0.00  0.00     0.064 H 
BRANCH  54  57
ATOM     57  O   LIG d   1       5.020  -4.689  -6.022  0.00  0.00    -0.387 OA
ATOM     58  H   LIG d   1       4.235  -4.276  -5.637  0.00  0.00     0.210 HD
ENDBRANCH  54  57
ENDBRANCH  52  54
ENDBRANCH   1  52
BRANCH   6  59
ATOM     59  C   LIG d   1       8.494  -1.418  -6.021  0.00  0.00    -0.055 C 
ATOM     60  H   LIG d   1       8.551  -2.357  -5.472  0.00  0.00     0.024 H 
ATOM     61  H   LIG d   1       8.591  -1.614  -7.089  0.00  0.00     0.024 H 
ATOM     62  H   LIG d   1       9.301  -0.759  -5.698  0.00  0.00     0.024 H 
ENDBRANCH   6  59
BRANCH   8  63
ATOM     63  O   LIG d   1       8.729  -0.166  -8.054  0.00  0.00    -0.391 OA
ATOM     64  H   LIG d   1       8.987  -0.133  -8.985  0.00  0.00     0.210 HD
ENDBRANCH   8  63
BRANCH  22  65
ATOM     65  C   LIG d   1      10.286   1.587  -7.769  0.00  0.00    -0.052 C 
ATOM     66  H   LIG d   1      10.007   0.861  -8.533  0.00  0.00     0.024 H 
ATOM     67  H   LIG d   1      11.167   2.139  -8.097  0.00  0.00     0.024 H 
ATOM     68  H   LIG d   1      10.508   1.067  -6.838  0.00  0.00     0.024 H 
ENDBRANCH  22  65
TORSDOF 12
ENDMDL
MODEL 5
REMARK VINA RESULT:      -5.3      2.003      4.165
REMARK  12 active torsions:
REMARK  status: ('A' for Active; 'I' for Inactive)
REMARK    1  A    between atoms: C_1  and  C_2 
REMARK    2  A    between atoms: C_2  and  C_3 
REMARK    3  A    between atoms: C_3  and  C_4 
REMARK    4  A    between atoms: C_4  and  C_5 
REMARK    5  A    between atoms: C_5  and  O_7 
REMARK    6  A    between atoms: O_7  and  C_8 
REMARK    7  A    between atoms: C_8  and  C_33 
REMARK    8  A    between atoms: C_13  and  C_32 
REMARK    9  A    between atoms: C_15  and  O_31 
REMARK   10  A    between atoms: C_29  and  C_30 
REMARK   11  A    between atoms: C_33  and  C_35 
REMARK   12  A    between atoms: C_35  and  O_36 
ROOT
ATOM      1  C   LIG d   1       5.704  -0.781  -3.986  0.00  0.00     0.178 C 
ATOM      2  C   LIG d   1       6.955  -1.044  -3.112  0.00  0.00    -0.005 C 
ATOM      3  C   LIG d   1       7.400  -2.501  -3.412  0.00  0.00    -0.045 C 
ATOM      4  C   LIG d   1       6.820  -2.757  -4.807  0.00  0.00    -0.028 C 
ATOM      5  H   LIG d   1       7.414  -2.248  -5.565  0.00  0.00     0.031 H 
ATOM      6  C   LIG d   1       5.417  -2.103  -4.688  0.00  0.00     0.020 C 
ATOM      7  C   LIG d   1       4.845  -2.016  -6.090  0.00  0.00    -0.017 C 
ATOM      8  C   LIG d   1       4.646  -3.455  -6.591  0.00  0.00     0.060 C 
ATOM      9  H   LIG d   1       4.267  -3.426  -7.613  0.00  0.00     0.060 H 
ATOM     10  C   LIG d   1       5.948  -4.248  -6.565  0.00  0.00     0.001 C 
ATOM     11  H   LIG d   1       6.644  -3.819  -7.286  0.00  0.00     0.034 H 
ATOM     12  C   LIG d   1       6.585  -4.213  -5.167  0.00  0.00    -0.031 C 
ATOM     13  H   LIG d   1       5.914  -4.678  -4.445  0.00  0.00     0.031 H 
ATOM     14  C   LIG d   1       7.928  -4.945  -5.197  0.00  0.00    -0.046 C 
ATOM     15  C   LIG d   1       7.698  -6.425  -5.518  0.00  0.00    -0.030 C 
ATOM     16  C   LIG d   1       6.920  -6.511  -6.818  0.00  0.00    -0.056 A 
ATOM     17  C   LIG d   1       7.383  -7.284  -7.791  0.00  0.00    -0.015 A 
ATOM     18  C   LIG d   1       6.677  -7.370  -9.078  0.00  0.00     0.179 A 
ATOM     19  O   LIG d   1       7.076  -8.108  -9.960  0.00  0.00    -0.288 OA
ATOM     20  C   LIG d   1       5.474  -6.542  -9.276  0.00  0.00    -0.018 A 
ATOM     21  C   LIG d   1       5.026  -5.783  -8.289  0.00  0.00    -0.070 A 
ATOM     22  C   LIG d   1       5.662  -5.704  -6.943  0.00  0.00     0.013 A 
ATOM     23  H   LIG d   1       6.703  -0.941  -2.057  0.00  0.00     0.031 H 
ATOM     24  H   LIG d   1       7.750  -0.347  -3.377  0.00  0.00     0.031 H 
ATOM     25  H   LIG d   1       6.975  -3.193  -2.684  0.00  0.00     0.027 H 
ATOM     26  H   LIG d   1       8.488  -2.577  -3.427  0.00  0.00     0.027 H 
ATOM     27  H   LIG d   1       5.541  -1.489  -6.743  0.00  0.00     0.030 H 
ATOM     28  H   LIG d   1       3.889  -1.494  -6.070  0.00  0.00     0.030 H 
ATOM     29  H   LIG d   1       8.566  -4.502  -5.961  0.00  0.00     0.027 H 
ATOM     30  H   LIG d   1       8.413  -4.856  -4.224  0.00  0.00     0.027 H 
ATOM     31  H   LIG d   1       7.126  -6.891  -4.716  0.00  0.00     0.031 H 
ATOM     32  H   LIG d   1       8.657  -6.931  -5.629  0.00  0.00     0.031 H 
ATOM     33  H   LIG d   1       8.287  -7.854  -7.638  0.00  0.00     0.066 H 
ATOM     34  H   LIG d   1       4.959  -6.556 -10.225  0.00  0.00     0.065 H 
ATOM     35  H   LIG d   1       4.146  -5.184  -8.469  0.00  0.00     0.058 H 
ENDROOT
BRANCH   1  36
ATOM     36  O   LIG d   1       5.982   0.258  -4.963  0.00  0.00    -0.450 OA
BRANCH  36  37
ATOM     37  C   LIG d   1       7.058   1.028  -4.742  0.00  0.00     0.308 C 
ATOM     38  O   LIG d   1       7.012   1.909  -3.916  0.00  0.00    -0.251 OA
BRANCH  37  39
ATOM     39  C   LIG d   1       8.325   0.795  -5.525  0.00  0.00     0.045 C 
ATOM     40  H   LIG d   1       8.825   1.748  -5.699  0.00  0.00     0.038 H 
ATOM     41  H   LIG d   1       8.985   0.136  -4.961  0.00  0.00     0.038 H 
BRANCH  39  42
ATOM     42  C   LIG d   1       7.983   0.147  -6.868  0.00  0.00    -0.043 C 
ATOM     43  H   LIG d   1       6.949  -0.196  -6.853  0.00  0.00     0.027 H 
ATOM     44  H   LIG d   1       8.111   0.878  -7.666  0.00  0.00     0.027 H 
BRANCH  42  45
ATOM     45  C   LIG d   1       8.911  -1.043  -7.112  0.00  0.00    -0.055 C 
ATOM     46  H   LIG d   1       9.876  -0.685  -7.471  0.00  0.00     0.026 H 
ATOM     47  H   LIG d   1       9.053  -1.591  -6.179  0.00  0.00     0.026 H 
BRANCH  45  48
ATOM     48  C   LIG d   1       8.290  -1.971  -8.158  0.00  0.00    -0.065 C 
ATOM     49  H   LIG d   1       7.944  -1.381  -9.007  0.00  0.00     0.023 H 
ATOM     50  H   LIG d   1       9.037  -2.689  -8.495  0.00  0.00     0.023 H 
ATOM     51  H   LIG d   1       7.448  -2.503  -7.716  0.00  0.00     0.023 H 
ENDBRANCH  45  48
ENDBRANCH  42  45
ENDBRANCH  39  42
ENDBRANCH  37  39
ENDBRANCH  36  37
ENDBRANCH   1  36
BRANCH   1  52
ATOM     52  C   LIG d   1       4.536  -0.385  -3.121  0.00  0.00     0.202 C 
ATOM     53  O   LIG d   1       4.468  -0.778  -1.981  0.00  0.00    -0.291 OA
BRANCH  52  54
ATOM     54  C   LIG d   1       3.452   0.502  -3.677  0.00  0.00     0.106 C 
ATOM     55  H   LIG d   1       3.320   0.297  -4.648  0.00  0.00     0.064 H 
ATOM     56  H   LIG d   1       2.522   0.322  -3.138  0.00  0.00     0.064 H 
BRANCH  54  57
ATOM     57  O   LIG d   1       3.832   1.871  -3.527  0.00  0.00    -0.387 OA
ATOM     58  H   LIG d   1       3.110   2.498  -3.671  0.00  0.00     0.210 HD
ENDBRANCH  54  57
ENDBRANCH  52  54
ENDBRANCH   1  52
BRANCH   6  59
ATOM     59  C   LIG d   1       4.512  -2.974  -3.814  0.00  0.00    -0.055 C 
ATOM     60  H   LIG d   1       3.472  -2.691  -3.971  0.00  0.00     0.024 H 
ATOM     61  H   LIG d   1       4.648  -4.022  -4.081  0.00  0.00     0.024 H 
ATOM     62  H   LIG d   1       4.773  -2.829  -2.765  0.00  0.00     0.024 H 
ENDBRANCH   6  59
BRANCH   8  63
ATOM     63  O   LIG d   1       3.685  -4.109  -5.759  0.00  0.00    -0.391 OA
ATOM     64  H   LIG d   1       4.067  -4.768  -5.162  0.00  0.00     0.210 HD
ENDBRANCH   8  63
BRANCH  22  65
ATOM     65  C   LIG d   1       4.651  -6.256  -5.936  0.00  0.00    -0.052 C 
ATOM     66  H   LIG d   1       4.191  -5.430  -5.394  0.00  0.00     0.024 H 
ATOM     67  H   LIG d   1       3.881  -6.818  -6.465  0.00  0.00     0.024 H 
ATOM     68  H   LIG d   1       5.161  -6.912  -5.232  0.00  0.00     0.024 H 
ENDBRANCH  22  65
TORSDOF 12
ENDMDL
MODEL 6
REMARK VINA RESULT:      -5.1      3.441      6.489
REMARK  12 active torsions:
REMARK  status: ('A' for Active; 'I' for Inactive)
REMARK    1  A    between atoms: C_1  and  C_2 
REMARK    2  A    between atoms: C_2  and  C_3 
REMARK    3  A    between atoms: C_3  and  C_4 
REMARK    4  A    between atoms: C_4  and  C_5 
REMARK    5  A    between atoms: C_5  and  O_7 
REMARK    6  A    between atoms: O_7  and  C_8 
REMARK    7  A    between atoms: C_8  and  C_33 
REMARK    8  A    between atoms: C_13  and  C_32 
REMARK    9  A    between atoms: C_15  and  O_31 
REMARK   10  A    between atoms: C_29  and  C_30 
REMARK   11  A    between atoms: C_33  and  C_35 
REMARK   12  A    between atoms: C_35  and  O_36 
ROOT
ATOM      1  C   LIG d   1       6.057  -1.636  -4.631  0.00  0.00     0.178 C 
ATOM      2  C   LIG d   1       5.564  -3.090  -4.422  0.00  0.00    -0.005 C 
ATOM      3  C   LIG d   1       4.600  -3.399  -5.600  0.00  0.00    -0.045 C 
ATOM      4  C   LIG d   1       5.058  -2.417  -6.685  0.00  0.00    -0.028 C 
ATOM      5  H   LIG d   1       5.985  -2.760  -7.141  0.00  0.00     0.031 H 
ATOM      6  C   LIG d   1       5.306  -1.127  -5.856  0.00  0.00     0.020 C 
ATOM      7  C   LIG d   1       6.051  -0.158  -6.753  0.00  0.00    -0.017 C 
ATOM      8  C   LIG d   1       5.109   0.208  -7.910  0.00  0.00     0.060 C 
ATOM      9  H   LIG d   1       5.630   0.880  -8.594  0.00  0.00     0.060 H 
ATOM     10  C   LIG d   1       4.651  -1.027  -8.678  0.00  0.00     0.001 C 
ATOM     11  H   LIG d   1       5.509  -1.477  -9.178  0.00  0.00     0.034 H 
ATOM     12  C   LIG d   1       4.019  -2.060  -7.732  0.00  0.00    -0.031 C 
ATOM     13  H   LIG d   1       3.135  -1.633  -7.258  0.00  0.00     0.031 H 
ATOM     14  C   LIG d   1       3.648  -3.318  -8.520  0.00  0.00    -0.046 C 
ATOM     15  C   LIG d   1       2.570  -2.977  -9.552  0.00  0.00    -0.030 C 
ATOM     16  C   LIG d   1       3.084  -1.839 -10.414  0.00  0.00    -0.056 A 
ATOM     17  C   LIG d   1       3.053  -1.971 -11.734  0.00  0.00    -0.015 A 
ATOM     18  C   LIG d   1       3.571  -0.905 -12.604  0.00  0.00     0.179 A 
ATOM     19  O   LIG d   1       3.510  -1.005 -13.816  0.00  0.00    -0.288 OA
ATOM     20  C   LIG d   1       4.167   0.288 -11.976  0.00  0.00    -0.018 A 
ATOM     21  C   LIG d   1       4.181   0.401 -10.658  0.00  0.00    -0.070 A 
ATOM     22  C   LIG d   1       3.614  -0.615  -9.727  0.00  0.00     0.013 A 
ATOM     23  H   LIG d   1       5.033  -3.172  -3.474  0.00  0.00     0.031 H 
ATOM     24  H   LIG d   1       6.409  -3.777  -4.439  0.00  0.00     0.031 H 
ATOM     25  H   LIG d   1       3.566  -3.204  -5.314  0.00  0.00     0.027 H 
ATOM     26  H   LIG d   1       4.720  -4.428  -5.937  0.00  0.00     0.027 H 
ATOM     27  H   LIG d   1       6.952  -0.630  -7.144  0.00  0.00     0.030 H 
ATOM     28  H   LIG d   1       6.316   0.739  -6.192  0.00  0.00     0.030 H 
ATOM     29  H   LIG d   1       4.532  -3.700  -9.030  0.00  0.00     0.027 H 
ATOM     30  H   LIG d   1       3.269  -4.077  -7.835  0.00  0.00     0.027 H 
ATOM     31  H   LIG d   1       1.657  -2.669  -9.043  0.00  0.00     0.031 H 
ATOM     32  H   LIG d   1       2.368  -3.848 -10.175  0.00  0.00     0.031 H 
ATOM     33  H   LIG d   1       2.645  -2.869 -12.172  0.00  0.00     0.066 H 
ATOM     34  H   LIG d   1       4.591   1.067 -12.591  0.00  0.00     0.065 H 
ATOM     35  H   LIG d   1       4.631   1.284 -10.230  0.00  0.00     0.058 H 
ENDROOT
BRANCH   1  36
ATOM     36  O   LIG d   1       7.489  -1.621  -4.875  0.00  0.00    -0.450 OA
BRANCH  36  37
ATOM     37  C   LIG d   1       8.157  -2.762  -4.650  0.00  0.00     0.308 C 
ATOM     38  O   LIG d   1       8.416  -3.099  -3.519  0.00  0.00    -0.251 OA
BRANCH  37  39
ATOM     39  C   LIG d   1       8.584  -3.626  -5.809  0.00  0.00     0.045 C 
ATOM     40  H   LIG d   1       9.526  -4.119  -5.568  0.00  0.00     0.038 H 
ATOM     41  H   LIG d   1       7.819  -4.377  -6.004  0.00  0.00     0.038 H 
BRANCH  39  42
ATOM     42  C   LIG d   1       8.770  -2.755  -7.053  0.00  0.00    -0.043 C 
ATOM     43  H   LIG d   1       8.339  -1.770  -6.875  0.00  0.00     0.027 H 
ATOM     44  H   LIG d   1       9.834  -2.652  -7.268  0.00  0.00     0.027 H 
BRANCH  42  45
ATOM     45  C   LIG d   1       8.070  -3.409  -8.245  0.00  0.00    -0.055 C 
ATOM     46  H   LIG d   1       8.668  -4.248  -8.602  0.00  0.00     0.026 H 
ATOM     47  H   LIG d   1       7.088  -3.770  -7.936  0.00  0.00     0.026 H 
BRANCH  45  48
ATOM     48  C   LIG d   1       7.907  -2.383  -9.368  0.00  0.00    -0.065 C 
ATOM     49  H   LIG d   1       8.522  -2.675 -10.219  0.00  0.00     0.023 H 
ATOM     50  H   LIG d   1       6.860  -2.343  -9.673  0.00  0.00     0.023 H 
ATOM     51  H   LIG d   1       8.219  -1.402  -9.012  0.00  0.00     0.023 H 
ENDBRANCH  45  48
ENDBRANCH  42  45
ENDBRANCH  39  42
ENDBRANCH  37  39
ENDBRANCH  36  37
ENDBRANCH   1  36
BRANCH   1  52
ATOM     52  C   LIG d   1       5.723  -0.793  -3.427  0.00  0.00     0.202 C 
ATOM     53  O   LIG d   1       4.959  -1.211  -2.591  0.00  0.00    -0.291 OA
BRANCH  52  54
ATOM     54  C   LIG d   1       6.343   0.571  -3.267  0.00  0.00     0.106 C 
ATOM     55  H   LIG d   1       7.241   0.480  -2.836  0.00  0.00     0.064 H 
ATOM     56  H   LIG d   1       6.454   1.037  -4.245  0.00  0.00     0.064 H 
BRANCH  54  57
ATOM     57  O   LIG d   1       5.501   1.383  -2.446  0.00  0.00    -0.387 OA
ATOM     58  H   LIG d   1       5.686   1.310  -1.499  0.00  0.00     0.210 HD
ENDBRANCH  54  57
ENDBRANCH  52  54
ENDBRANCH   1  52
BRANCH   6  59
ATOM     59  C   LIG d   1       3.968  -0.518  -5.433  0.00  0.00    -0.055 C 
ATOM     60  H   LIG d   1       3.552  -1.091  -4.606  0.00  0.00     0.024 H 
ATOM     61  H   LIG d   1       4.122   0.515  -5.119  0.00  0.00     0.024 H 
ATOM     62  H   LIG d   1       3.276  -0.542  -6.276  0.00  0.00     0.024 H 
ENDBRANCH   6  59
BRANCH   8  63
ATOM     63  O   LIG d   1       3.963   0.880  -7.383  0.00  0.00    -0.391 OA
ATOM     64  H   LIG d   1       3.432   1.335  -8.052  0.00  0.00     0.210 HD
ENDBRANCH   8  63
BRANCH  22  65
ATOM     65  C   LIG d   1       2.448   0.049  -8.992  0.00  0.00    -0.052 C 
ATOM     66  H   LIG d   1       2.838   0.721  -8.227  0.00  0.00     0.024 H 
ATOM     67  H   LIG d   1       1.848   0.618  -9.703  0.00  0.00     0.024 H 
ATOM     68  H   LIG d   1       1.830  -0.715  -8.524  0.00  0.00     0.024 H 
ENDBRANCH  22  65
TORSDOF 12
ENDMDL
MODEL 7
REMARK VINA RESULT:      -5.0      2.125      7.103
REMARK  12 active torsions:
REMARK  status: ('A' for Active; 'I' for Inactive)
REMARK    1  A    between atoms: C_1  and  C_2 
REMARK    2  A    between atoms: C_2  and  C_3 
REMARK    3  A    between atoms: C_3  and  C_4 
REMARK    4  A    between atoms: C_4  and  C_5 
REMARK    5  A    between atoms: C_5  and  O_7 
REMARK    6  A    between atoms: O_7  and  C_8 
REMARK    7  A    between atoms: C_8  and  C_33 
REMARK    8  A    between atoms: C_13  and  C_32 
REMARK    9  A    between atoms: C_15  and  O_31 
REMARK   10  A    between atoms: C_29  and  C_30 
REMARK   11  A    between atoms: C_33  and  C_35 
REMARK   12  A    between atoms: C_35  and  O_36 
ROOT
ATOM      1  C   LIG d   1       7.659  -5.846  -6.657  0.00  0.00     0.178 C 
ATOM      2  C   LIG d   1       8.932  -5.142  -7.191  0.00  0.00    -0.005 C 
ATOM      3  C   LIG d   1       8.746  -3.627  -6.910  0.00  0.00    -0.045 C 
ATOM      4  C   LIG d   1       7.752  -3.614  -5.743  0.00  0.00    -0.028 C 
ATOM      5  H   LIG d   1       8.252  -3.890  -4.816  0.00  0.00     0.031 H 
ATOM      6  C   LIG d   1       6.751  -4.722  -6.171  0.00  0.00     0.020 C 
ATOM      7  C   LIG d   1       5.882  -5.027  -4.966  0.00  0.00    -0.017 C 
ATOM      8  C   LIG d   1       5.068  -3.761  -4.659  0.00  0.00     0.060 C 
ATOM      9  H   LIG d   1       4.457  -3.936  -3.774  0.00  0.00     0.060 H 
ATOM     10  C   LIG d   1       5.970  -2.556  -4.410  0.00  0.00     0.001 C 
ATOM     11  H   LIG d   1       6.544  -2.720  -3.497  0.00  0.00     0.034 H 
ATOM     12  C   LIG d   1       6.939  -2.342  -5.583  0.00  0.00    -0.031 C 
ATOM     13  H   LIG d   1       6.376  -2.136  -6.493  0.00  0.00     0.031 H 
ATOM     14  C   LIG d   1       7.883  -1.181  -5.264  0.00  0.00    -0.046 C 
ATOM     15  C   LIG d   1       7.077   0.116  -5.141  0.00  0.00    -0.030 C 
ATOM     16  C   LIG d   1       5.991  -0.099  -4.103  0.00  0.00    -0.056 A 
ATOM     17  C   LIG d   1       5.871   0.774  -3.112  0.00  0.00    -0.015 A 
ATOM     18  C   LIG d   1       4.852   0.585  -2.068  0.00  0.00     0.179 A 
ATOM     19  O   LIG d   1       4.713   1.403  -1.178  0.00  0.00    -0.288 OA
ATOM     20  C   LIG d   1       4.005  -0.619  -2.124  0.00  0.00    -0.018 A 
ATOM     21  C   LIG d   1       4.138  -1.473  -3.126  0.00  0.00    -0.070 A 
ATOM     22  C   LIG d   1       5.106  -1.302  -4.245  0.00  0.00     0.013 A 
ATOM     23  H   LIG d   1       9.032  -5.314  -8.263  0.00  0.00     0.031 H 
ATOM     24  H   LIG d   1       9.812  -5.515  -6.668  0.00  0.00     0.031 H 
ATOM     25  H   LIG d   1       8.326  -3.121  -7.780  0.00  0.00     0.027 H 
ATOM     26  H   LIG d   1       9.691  -3.170  -6.616  0.00  0.00     0.027 H 
ATOM     27  H   LIG d   1       6.509  -5.281  -4.110  0.00  0.00     0.030 H 
ATOM     28  H   LIG d   1       5.210  -5.855  -5.192  0.00  0.00     0.030 H 
ATOM     29  H   LIG d   1       8.397  -1.379  -4.324  0.00  0.00     0.027 H 
ATOM     30  H   LIG d   1       8.617  -1.078  -6.064  0.00  0.00     0.027 H 
ATOM     31  H   LIG d   1       6.624   0.360  -6.102  0.00  0.00     0.031 H 
ATOM     32  H   LIG d   1       7.732   0.928  -4.825  0.00  0.00     0.031 H 
ATOM     33  H   LIG d   1       6.527   1.630  -3.071  0.00  0.00     0.066 H 
ATOM     34  H   LIG d   1       3.276  -0.803  -1.348  0.00  0.00     0.065 H 
ATOM     35  H   LIG d   1       3.505  -2.348  -3.133  0.00  0.00     0.058 H 
ENDROOT
BRANCH   1  36
ATOM     36  O   LIG d   1       7.998  -6.732  -5.557  0.00  0.00    -0.450 OA
BRANCH  36  37
ATOM     37  C   LIG d   1       9.292  -7.057  -5.414  0.00  0.00     0.308 C 
ATOM     38  O   LIG d   1       9.764  -7.961  -6.063  0.00  0.00    -0.251 OA
BRANCH  37  39
ATOM     39  C   LIG d   1      10.158  -6.295  -4.444  0.00  0.00     0.045 C 
ATOM     40  H   LIG d   1      11.004  -6.915  -4.147  0.00  0.00     0.038 H 
ATOM     41  H   LIG d   1      10.523  -5.386  -4.920  0.00  0.00     0.038 H 
BRANCH  39  42
ATOM     42  C   LIG d   1       9.336  -5.927  -3.207  0.00  0.00    -0.043 C 
ATOM     43  H   LIG d   1       8.275  -5.971  -3.449  0.00  0.00     0.027 H 
ATOM     44  H   LIG d   1       9.554  -6.632  -2.404  0.00  0.00     0.027 H 
BRANCH  42  45
ATOM     45  C   LIG d   1       9.699  -4.512  -2.755  0.00  0.00    -0.055 C 
ATOM     46  H   LIG d   1       8.815  -3.875  -2.811  0.00  0.00     0.026 H 
ATOM     47  H   LIG d   1      10.060  -4.540  -1.726  0.00  0.00     0.026 H 
BRANCH  45  48
ATOM     48  C   LIG d   1      10.792  -3.949  -3.665  0.00  0.00    -0.065 C 
ATOM     49  H   LIG d   1      10.534  -4.144  -4.706  0.00  0.00     0.023 H 
ATOM     50  H   LIG d   1      10.877  -2.874  -3.507  0.00  0.00     0.023 H 
ATOM     51  H   LIG d   1      11.742  -4.427  -3.429  0.00  0.00     0.023 H 
ENDBRANCH  45  48
ENDBRANCH  42  45
ENDBRANCH  39  42
ENDBRANCH  37  39
ENDBRANCH  36  37
ENDBRANCH   1  36
BRANCH   1  52
ATOM     52  C   LIG d   1       6.987  -6.618  -7.762  0.00  0.00     0.202 C 
ATOM     53  O   LIG d   1       7.183  -6.317  -8.915  0.00  0.00    -0.291 OA
BRANCH  52  54
ATOM     54  C   LIG d   1       6.070  -7.767  -7.429  0.00  0.00     0.106 C 
ATOM     55  H   LIG d   1       5.470  -7.506  -6.672  0.00  0.00     0.064 H 
ATOM     56  H   LIG d   1       5.467  -8.016  -8.301  0.00  0.00     0.064 H 
BRANCH  54  57
ATOM     57  O   LIG d   1       6.848  -8.903  -7.048  0.00  0.00    -0.387 OA
ATOM     58  H   LIG d   1       6.539  -9.737  -7.427  0.00  0.00     0.210 HD
ENDBRANCH  54  57
ENDBRANCH  52  54
ENDBRANCH   1  52
BRANCH   6  59
ATOM     59  C   LIG d   1       5.880  -4.217  -7.323  0.00  0.00    -0.055 C 
ATOM     60  H   LIG d   1       5.221  -5.017  -7.658  0.00  0.00     0.024 H 
ATOM     61  H   LIG d   1       5.283  -3.372  -6.983  0.00  0.00     0.024 H 
ATOM     62  H   LIG d   1       6.519  -3.902  -8.149  0.00  0.00     0.024 H 
ENDBRANCH   6  59
BRANCH   8  63
ATOM     63  O   LIG d   1       4.211  -3.478  -5.767  0.00  0.00    -0.391 OA
ATOM     64  H   LIG d   1       4.524  -2.760  -6.333  0.00  0.00     0.210 HD
ENDBRANCH   8  63
BRANCH  22  65
ATOM     65  C   LIG d   1       4.287  -1.131  -5.526  0.00  0.00    -0.052 C 
ATOM     66  H   LIG d   1       3.780  -0.166  -5.505  0.00  0.00     0.024 H 
ATOM     67  H   LIG d   1       4.950  -1.174  -6.390  0.00  0.00     0.024 H 
ATOM     68  H   LIG d   1       3.547  -1.928  -5.594  0.00  0.00     0.024 H 
ENDBRANCH  22  65
TORSDOF 12
ENDMDL
MODEL 8
REMARK VINA RESULT:      -5.0      3.215      7.426
REMARK  12 active torsions:
REMARK  status: ('A' for Active; 'I' for Inactive)
REMARK    1  A    between atoms: C_1  and  C_2 
REMARK    2  A    between atoms: C_2  and  C_3 
REMARK    3  A    between atoms: C_3  and  C_4 
REMARK    4  A    between atoms: C_4  and  C_5 
REMARK    5  A    between atoms: C_5  and  O_7 
REMARK    6  A    between atoms: O_7  and  C_8 
REMARK    7  A    between atoms: C_8  and  C_33 
REMARK    8  A    between atoms: C_13  and  C_32 
REMARK    9  A    between atoms: C_15  and  O_31 
REMARK   10  A    between atoms: C_29  and  C_30 
REMARK   11  A    between atoms: C_33  and  C_35 
REMARK   12  A    between atoms: C_35  and  O_36 
ROOT
ATOM      1  C   LIG d   1       6.404  -1.351  -5.247  0.00  0.00     0.178 C 
ATOM      2  C   LIG d   1       7.159  -2.537  -5.897  0.00  0.00    -0.005 C 
ATOM      3  C   LIG d   1       8.595  -2.029  -6.201  0.00  0.00    -0.045 C 
ATOM      4  C   LIG d   1       8.771  -0.881  -5.200  0.00  0.00    -0.028 C 
ATOM      5  H   LIG d   1       8.947  -1.273  -4.200  0.00  0.00     0.031 H 
ATOM      6  C   LIG d   1       7.385  -0.184  -5.275  0.00  0.00     0.020 C 
ATOM      7  C   LIG d   1       7.313   0.789  -4.114  0.00  0.00    -0.017 C 
ATOM      8  C   LIG d   1       8.385   1.863  -4.354  0.00  0.00     0.060 C 
ATOM      9  H   LIG d   1       8.383   2.562  -3.516  0.00  0.00     0.060 H 
ATOM     10  C   LIG d   1       9.777   1.253  -4.488  0.00  0.00     0.001 C 
ATOM     11  H   LIG d   1      10.067   0.808  -3.535  0.00  0.00     0.034 H 
ATOM     12  C   LIG d   1       9.799   0.170  -5.578  0.00  0.00    -0.031 C 
ATOM     13  H   LIG d   1       9.552   0.613  -6.542  0.00  0.00     0.031 H 
ATOM     14  C   LIG d   1      11.184  -0.479  -5.628  0.00  0.00    -0.046 C 
ATOM     15  C   LIG d   1      12.224   0.564  -6.048  0.00  0.00    -0.030 C 
ATOM     16  C   LIG d   1      12.128   1.740  -5.093  0.00  0.00    -0.056 A 
ATOM     17  C   LIG d   1      13.231   2.173  -4.498  0.00  0.00    -0.015 A 
ATOM     18  C   LIG d   1      13.176   3.289  -3.541  0.00  0.00     0.179 A 
ATOM     19  O   LIG d   1      14.191   3.716  -3.023  0.00  0.00    -0.288 OA
ATOM     20  C   LIG d   1      11.863   3.877  -3.223  0.00  0.00    -0.018 A 
ATOM     21  C   LIG d   1      10.776   3.433  -3.833  0.00  0.00    -0.070 A 
ATOM     22  C   LIG d   1      10.778   2.351  -4.858  0.00  0.00     0.013 A 
ATOM     23  H   LIG d   1       6.665  -2.833  -6.822  0.00  0.00     0.031 H 
ATOM     24  H   LIG d   1       7.198  -3.379  -5.206  0.00  0.00     0.031 H 
ATOM     25  H   LIG d   1       8.666  -1.663  -7.225  0.00  0.00     0.027 H 
ATOM     26  H   LIG d   1       9.328  -2.814  -6.019  0.00  0.00     0.027 H 
ATOM     27  H   LIG d   1       7.513   0.268  -3.179  0.00  0.00     0.030 H 
ATOM     28  H   LIG d   1       6.326   1.251  -4.078  0.00  0.00     0.030 H 
ATOM     29  H   LIG d   1      11.438  -0.868  -4.642  0.00  0.00     0.027 H 
ATOM     30  H   LIG d   1      11.177  -1.296  -6.349  0.00  0.00     0.027 H 
ATOM     31  H   LIG d   1      12.019   0.900  -7.065  0.00  0.00     0.031 H 
ATOM     32  H   LIG d   1      13.222   0.130  -5.997  0.00  0.00     0.031 H 
ATOM     33  H   LIG d   1      14.178   1.704  -4.719  0.00  0.00     0.066 H 
ATOM     34  H   LIG d   1      11.789   4.670  -2.494  0.00  0.00     0.065 H 
ATOM     35  H   LIG d   1       9.829   3.881  -3.573  0.00  0.00     0.058 H 
ENDROOT
BRANCH   1  36
ATOM     36  O   LIG d   1       6.044  -1.673  -3.877  0.00  0.00    -0.450 OA
BRANCH  36  37
ATOM     37  C   LIG d   1       4.837  -2.224  -3.678  0.00  0.00     0.308 C 
ATOM     38  O   LIG d   1       4.572  -3.296  -4.169  0.00  0.00    -0.251 OA
BRANCH  37  39
ATOM     39  C   LIG d   1       3.810  -1.504  -2.842  0.00  0.00     0.045 C 
ATOM     40  H   LIG d   1       3.365  -0.698  -3.426  0.00  0.00     0.038 H 
ATOM     41  H   LIG d   1       3.033  -2.205  -2.539  0.00  0.00     0.038 H 
BRANCH  39  42
ATOM     42  C   LIG d   1       4.483  -0.919  -1.599  0.00  0.00    -0.043 C 
ATOM     43  H   LIG d   1       3.914  -1.200  -0.713  0.00  0.00     0.027 H 
ATOM     44  H   LIG d   1       5.497  -1.310  -1.518  0.00  0.00     0.027 H 
BRANCH  42  45
ATOM     45  C   LIG d   1       4.530   0.605  -1.712  0.00  0.00    -0.055 C 
ATOM     46  H   LIG d   1       4.411   1.047  -0.723  0.00  0.00     0.026 H 
ATOM     47  H   LIG d   1       5.490   0.908  -2.132  0.00  0.00     0.026 H 
BRANCH  45  48
ATOM     48  C   LIG d   1       3.399   1.085  -2.625  0.00  0.00    -0.065 C 
ATOM     49  H   LIG d   1       3.812   1.387  -3.586  0.00  0.00     0.023 H 
ATOM     50  H   LIG d   1       2.686   0.274  -2.774  0.00  0.00     0.023 H 
ATOM     51  H   LIG d   1       2.894   1.932  -2.161  0.00  0.00     0.023 H 
ENDBRANCH  45  48
ENDBRANCH  42  45
ENDBRANCH  39  42
ENDBRANCH  37  39
ENDBRANCH  36  37
ENDBRANCH   1  36
BRANCH   1  52
ATOM     52  C   LIG d   1       5.172  -1.015  -6.046  0.00  0.00     0.202 C 
ATOM     53  O   LIG d   1       4.457  -0.105  -5.700  0.00  0.00    -0.291 OA
BRANCH  52  54
ATOM     54  C   LIG d   1       4.831  -1.814  -7.278  0.00  0.00     0.106 C 
ATOM     55  H   LIG d   1       4.486  -1.200  -7.988  0.00  0.00     0.064 H 
ATOM     56  H   LIG d   1       5.724  -2.323  -7.639  0.00  0.00     0.064 H 
BRANCH  54  57
ATOM     57  O   LIG d   1       3.829  -2.781  -6.957  0.00  0.00    -0.387 OA
ATOM     58  H   LIG d   1       3.313  -3.079  -7.718  0.00  0.00     0.210 HD
ENDBRANCH  54  57
ENDBRANCH  52  54
ENDBRANCH   1  52
BRANCH   6  59
ATOM     59  C   LIG d   1       7.257   0.575  -6.597  0.00  0.00    -0.055 C 
ATOM     60  H   LIG d   1       7.291   1.647  -6.406  0.00  0.00     0.024 H 
ATOM     61  H   LIG d   1       8.080   0.297  -7.256  0.00  0.00     0.024 H 
ATOM     62  H   LIG d   1       6.309   0.321  -7.071  0.00  0.00     0.024 H 
ENDBRANCH   6  59
BRANCH   8  63
ATOM     63  O   LIG d   1       8.072   2.575  -5.553  0.00  0.00    -0.391 OA
ATOM     64  H   LIG d   1       8.667   2.383  -6.291  0.00  0.00     0.210 HD
ENDBRANCH   8  63
BRANCH  22  65
ATOM     65  C   LIG d   1      10.314   2.978  -6.174  0.00  0.00    -0.052 C 
ATOM     66  H   LIG d   1       9.233   3.110  -6.152  0.00  0.00     0.024 H 
ATOM     67  H   LIG d   1      10.796   3.947  -6.304  0.00  0.00     0.024 H 
ATOM     68  H   LIG d   1      10.583   2.324  -7.003  0.00  0.00     0.024 H 
ENDBRANCH  22  65
TORSDOF 12
ENDMDL
MODEL 9
REMARK VINA RESULT:      -5.0      4.306      5.793
REMARK  12 active torsions:
REMARK  status: ('A' for Active; 'I' for Inactive)
REMARK    1  A    between atoms: C_1  and  C_2 
REMARK    2  A    between atoms: C_2  and  C_3 
REMARK    3  A    between atoms: C_3  and  C_4 
REMARK    4  A    between atoms: C_4  and  C_5 
REMARK    5  A    between atoms: C_5  and  O_7 
REMARK    6  A    between atoms: O_7  and  C_8 
REMARK    7  A    between atoms: C_8  and  C_33 
REMARK    8  A    between atoms: C_13  and  C_32 
REMARK    9  A    between atoms: C_15  and  O_31 
REMARK   10  A    between atoms: C_29  and  C_30 
REMARK   11  A    between atoms: C_33  and  C_35 
REMARK   12  A    between atoms: C_35  and  O_36 
ROOT
ATOM      1  C   LIG d   1       5.655  -1.307  -6.223  0.00  0.00     0.178 C 
ATOM      2  C   LIG d   1       4.653  -0.245  -5.704  0.00  0.00    -0.005 C 
ATOM      3  C   LIG d   1       3.639  -0.000  -6.854  0.00  0.00    -0.045 C 
ATOM      4  C   LIG d   1       3.718  -1.299  -7.664  0.00  0.00    -0.028 C 
ATOM      5  H   LIG d   1       3.188  -2.100  -7.150  0.00  0.00     0.031 H 
ATOM      6  C   LIG d   1       5.246  -1.574  -7.668  0.00  0.00     0.020 C 
ATOM      7  C   LIG d   1       5.443  -2.989  -8.176  0.00  0.00    -0.017 C 
ATOM      8  C   LIG d   1       4.963  -3.019  -9.636  0.00  0.00     0.060 C 
ATOM      9  H   LIG d   1       5.060  -4.035 -10.021  0.00  0.00     0.060 H 
ATOM     10  C   LIG d   1       3.509  -2.576  -9.761  0.00  0.00     0.001 C 
ATOM     11  H   LIG d   1       2.867  -3.304  -9.264  0.00  0.00     0.034 H 
ATOM     12  C   LIG d   1       3.298  -1.195  -9.118  0.00  0.00    -0.031 C 
ATOM     13  H   LIG d   1       3.903  -0.452  -9.636  0.00  0.00     0.031 H 
ATOM     14  C   LIG d   1       1.816  -0.819  -9.187  0.00  0.00    -0.046 C 
ATOM     15  C   LIG d   1       1.392  -0.672 -10.651  0.00  0.00    -0.030 C 
ATOM     16  C   LIG d   1       1.735  -1.961 -11.375  0.00  0.00    -0.056 A 
ATOM     17  C   LIG d   1       0.793  -2.567 -12.085  0.00  0.00    -0.015 A 
ATOM     18  C   LIG d   1       1.075  -3.835 -12.775  0.00  0.00     0.179 A 
ATOM     19  O   LIG d   1       0.225  -4.374 -13.460  0.00  0.00    -0.288 OA
ATOM     20  C   LIG d   1       2.410  -4.437 -12.619  0.00  0.00    -0.018 A 
ATOM     21  C   LIG d   1       3.337  -3.812 -11.910  0.00  0.00    -0.070 A 
ATOM     22  C   LIG d   1       3.130  -2.496 -11.243  0.00  0.00     0.013 A 
ATOM     23  H   LIG d   1       5.178   0.680  -5.466  0.00  0.00     0.031 H 
ATOM     24  H   LIG d   1       4.136  -0.620  -4.821  0.00  0.00     0.031 H 
ATOM     25  H   LIG d   1       3.942   0.853  -7.461  0.00  0.00     0.027 H 
ATOM     26  H   LIG d   1       2.634   0.146  -6.457  0.00  0.00     0.027 H 
ATOM     27  H   LIG d   1       4.855  -3.684  -7.578  0.00  0.00     0.030 H 
ATOM     28  H   LIG d   1       6.499  -3.258  -8.127  0.00  0.00     0.030 H 
ATOM     29  H   LIG d   1       1.222  -1.600  -8.713  0.00  0.00     0.027 H 
ATOM     30  H   LIG d   1       1.656   0.125  -8.666  0.00  0.00     0.027 H 
ATOM     31  H   LIG d   1       1.929   0.159 -11.108  0.00  0.00     0.031 H 
ATOM     32  H   LIG d   1       0.318  -0.493 -10.707  0.00  0.00     0.031 H 
ATOM     33  H   LIG d   1      -0.190  -2.126 -12.157  0.00  0.00     0.066 H 
ATOM     34  H   LIG d   1       2.631  -5.388 -13.081  0.00  0.00     0.065 H 
ATOM     35  H   LIG d   1       4.302  -4.284 -11.810  0.00  0.00     0.058 H 
ENDROOT
BRANCH   1  36
ATOM     36  O   LIG d   1       5.550  -2.524  -5.437  0.00  0.00    -0.450 OA
BRANCH  36  37
ATOM     37  C   LIG d   1       5.534  -2.386  -4.103  0.00  0.00     0.308 C 
ATOM     38  O   LIG d   1       6.567  -2.211  -3.500  0.00  0.00    -0.251 OA
BRANCH  37  39
ATOM     39  C   LIG d   1       4.228  -2.451  -3.355  0.00  0.00     0.045 C 
ATOM     40  H   LIG d   1       3.429  -2.054  -3.982  0.00  0.00     0.038 H 
ATOM     41  H   LIG d   1       4.007  -3.487  -3.098  0.00  0.00     0.038 H 
BRANCH  39  42
ATOM     42  C   LIG d   1       4.331  -1.620  -2.074  0.00  0.00    -0.043 C 
ATOM     43  H   LIG d   1       3.824  -2.140  -1.262  0.00  0.00     0.027 H 
ATOM     44  H   LIG d   1       5.380  -1.479  -1.817  0.00  0.00     0.027 H 
BRANCH  42  45
ATOM     45  C   LIG d   1       3.672  -0.257  -2.296  0.00  0.00    -0.055 C 
ATOM     46  H   LIG d   1       3.521  -0.096  -3.363  0.00  0.00     0.026 H 
ATOM     47  H   LIG d   1       2.708  -0.232  -1.785  0.00  0.00     0.026 H 
BRANCH  45  48
ATOM     48  C   LIG d   1       4.575   0.844  -1.736  0.00  0.00    -0.065 C 
ATOM     49  H   LIG d   1       3.960   1.661  -1.360  0.00  0.00     0.023 H 
ATOM     50  H   LIG d   1       5.178   0.439  -0.923  0.00  0.00     0.023 H 
ATOM     51  H   LIG d   1       5.229   1.213  -2.525  0.00  0.00     0.023 H 
ENDBRANCH  45  48
ENDBRANCH  42  45
ENDBRANCH  39  42
ENDBRANCH  37  39
ENDBRANCH  36  37
ENDBRANCH   1  36
BRANCH   1  52
ATOM     52  C   LIG d   1       7.061  -0.768  -6.170  0.00  0.00     0.202 C 
ATOM     53  O   LIG d   1       7.972  -1.413  -6.631  0.00  0.00    -0.291 OA
BRANCH  52  54
ATOM     54  C   LIG d   1       7.331   0.575  -5.542  0.00  0.00     0.106 C 
ATOM     55  H   LIG d   1       6.549   0.841  -4.976  0.00  0.00     0.064 H 
ATOM     56  H   LIG d   1       8.224   0.513  -4.922  0.00  0.00     0.064 H 
BRANCH  54  57
ATOM     57  O   LIG d   1       7.529   1.550  -6.568  0.00  0.00    -0.387 OA
ATOM     58  H   LIG d   1       6.726   1.776  -7.056  0.00  0.00     0.210 HD
ENDBRANCH  54  57
ENDBRANCH  52  54
ENDBRANCH   1  52
BRANCH   6  59
ATOM     59  C   LIG d   1       5.948  -0.585  -8.601  0.00  0.00    -0.055 C 
ATOM     60  H   LIG d   1       7.024  -0.747  -8.560  0.00  0.00     0.024 H 
ATOM     61  H   LIG d   1       5.596  -0.737  -9.621  0.00  0.00     0.024 H 
ATOM     62  H   LIG d   1       5.722   0.434  -8.286  0.00  0.00     0.024 H 
ENDBRANCH   6  59
BRANCH   8  63
ATOM     63  O   LIG d   1       5.785  -2.147 -10.415  0.00  0.00    -0.391 OA
ATOM     64  H   LIG d   1       6.296  -2.598 -11.101  0.00  0.00     0.210 HD
ENDBRANCH   8  63
BRANCH  22  65
ATOM     65  C   LIG d   1       4.078  -1.499 -11.912  0.00  0.00    -0.052 C 
ATOM     66  H   LIG d   1       3.635  -0.503 -11.884  0.00  0.00     0.024 H 
ATOM     67  H   LIG d   1       5.029  -1.489 -11.380  0.00  0.00     0.024 H 
ATOM     68  H   LIG d   1       4.243  -1.793 -12.948  0.00  0.00     0.024 H 
ENDBRANCH  22  65
TORSDOF 12
ENDMDL
