MODEL 1
REMARK VINA RESULT:      -5.5      0.000      0.000
REMARK  5 active torsions:
REMARK  status: ('A' for Active; 'I' for Inactive)
REMARK    1  A    between atoms: C_1  and  C_2 
REMARK    2  A    between atoms: C_2  and  C_3 
REMARK    3  A    between atoms: C_2  and  C_4 
REMARK    4  A    between atoms: C_2  and  N_6 
REMARK       I    between atoms: N_6  and  C_7 
REMARK    5  A    between atoms: C_7  and  C_9 
ROOT
ATOM      1  C   LIG d   1       4.272   0.069  -2.486  0.00  0.00    -0.080 C 
ATOM      2  C   LIG d   1       4.127   1.134  -2.014  0.00  0.00    -0.117 C 
ATOM      3  H   LIG d   1       3.998   2.086  -1.592  0.00  0.00     0.123 H 
ENDROOT
BRANCH   1   4
ATOM      4  C   LIG d   1       4.455  -1.267  -3.077  0.00  0.00     0.090 C 
BRANCH   4   5
ATOM      5  C   LIG d   1       5.947  -1.597  -3.142  0.00  0.00    -0.033 C 
ATOM      6  H   LIG d   1       6.379  -1.525  -2.144  0.00  0.00     0.026 H 
ATOM      7  H   LIG d   1       6.080  -2.609  -3.524  0.00  0.00     0.026 H 
ATOM      8  H   LIG d   1       6.446  -0.889  -3.805  0.00  0.00     0.026 H 
ENDBRANCH   4   5
BRANCH   4   9
ATOM      9  C   LIG d   1       3.739  -2.308  -2.213  0.00  0.00    -0.033 C 
ATOM     10  H   LIG d   1       3.392  -1.839  -1.293  0.00  0.00     0.026 H 
ATOM     11  H   LIG d   1       2.886  -2.710  -2.761  0.00  0.00     0.026 H 
ATOM     12  H   LIG d   1       4.429  -3.116  -1.972  0.00  0.00     0.026 H 
ENDBRANCH   4   9
BRANCH   4  13
ATOM     13  N   LIG d   1       3.892  -1.284  -4.430  0.00  0.00    -0.296 N 
ATOM     14  C   LIG d   1       4.466  -0.557  -5.409  0.00  0.00     0.245 C 
ATOM     15  O   LIG d   1       5.451   0.112  -5.170  0.00  0.00    -0.270 OA
ATOM     16  H   LIG d   1       3.105  -1.819  -4.620  0.00  0.00     0.150 HD
BRANCH  14  17
ATOM     17  C   LIG d   1       3.898  -0.576  -6.773  0.00  0.00     0.040 A 
ATOM     18  C   LIG d   1       3.803  -1.779  -7.476  0.00  0.00    -0.031 A 
ATOM     19  C   LIG d   1       3.265  -1.791  -8.748  0.00  0.00     0.043 A 
ATOM     20  H   LIG d   1       4.146  -2.698  -7.024  0.00  0.00     0.064 H 
ATOM     21  C   LIG d   1       2.831  -0.613  -9.331  0.00  0.00    -0.025 A 
ATOM     22 CL   LIG d   1       3.140  -3.287  -9.620  0.00  0.00    -0.084 Cl
ATOM     23  C   LIG d   1       2.928   0.584  -8.641  0.00  0.00     0.043 A 
ATOM     24  H   LIG d   1       2.416  -0.627 -10.328  0.00  0.00     0.065 H 
ATOM     25  C   LIG d   1       3.458   0.609  -7.366  0.00  0.00    -0.031 A 
ATOM     26 CL   LIG d   1       2.380   2.057  -9.380  0.00  0.00    -0.084 Cl
ATOM     27  H   LIG d   1       3.533   1.542  -6.829  0.00  0.00     0.064 H 
ENDBRANCH  14  17
ENDBRANCH   4  13
ENDBRANCH   1   4
TORSDOF 5
ENDMDL
MODEL 2
REMARK VINA RESULT:      -5.5      0.016      2.258
REMARK  5 active torsions:
REMARK  status: ('A' for Active; 'I' for Inactive)
REMARK    1  A    between atoms: C_1  and  C_2 
REMARK    2  A    between atoms: C_2  and  C_3 
REMARK    3  A    between atoms: C_2  and  C_4 
REMARK    4  A    between atoms: C_2  and  N_6 
REMARK       I    between atoms: N_6  and  C_7 
REMARK    5  A    between atoms: C_7  and  C_9 
ROOT
ATOM      1  C   LIG d   1       4.268   0.063  -2.485  0.00  0.00    -0.080 C 
ATOM      2  C   LIG d   1       4.112   1.126  -2.012  0.00  0.00    -0.117 C 
ATOM      3  H   LIG d   1       3.972   2.077  -1.590  0.00  0.00     0.123 H 
ENDROOT
BRANCH   1   4
ATOM      4  C   LIG d   1       4.464  -1.270  -3.077  0.00  0.00     0.090 C 
BRANCH   4   5
ATOM      5  C   LIG d   1       5.960  -1.586  -3.138  0.00  0.00    -0.033 C 
ATOM      6  H   LIG d   1       6.204  -2.339  -2.388  0.00  0.00     0.026 H 
ATOM      7  H   LIG d   1       6.211  -1.965  -4.129  0.00  0.00     0.026 H 
ATOM      8  H   LIG d   1       6.531  -0.679  -2.940  0.00  0.00     0.026 H 
ENDBRANCH   4   5
BRANCH   4   9
ATOM      9  C   LIG d   1       3.756  -2.319  -2.215  0.00  0.00    -0.033 C 
ATOM     10  H   LIG d   1       4.461  -3.106  -1.950  0.00  0.00     0.026 H 
ATOM     11  H   LIG d   1       3.377  -1.848  -1.308  0.00  0.00     0.026 H 
ATOM     12  H   LIG d   1       2.926  -2.748  -2.776  0.00  0.00     0.026 H 
ENDBRANCH   4   9
BRANCH   4  13
ATOM     13  N   LIG d   1       3.905  -1.292  -4.430  0.00  0.00    -0.296 N 
ATOM     14  C   LIG d   1       4.473  -0.556  -5.406  0.00  0.00     0.245 C 
ATOM     15  O   LIG d   1       5.448   0.126  -5.163  0.00  0.00    -0.270 OA
ATOM     16  H   LIG d   1       3.126  -1.837  -4.624  0.00  0.00     0.150 HD
BRANCH  14  17
ATOM     17  C   LIG d   1       3.908  -0.579  -6.772  0.00  0.00     0.040 A 
ATOM     18  C   LIG d   1       3.458   0.604  -7.364  0.00  0.00    -0.031 A 
ATOM     19  C   LIG d   1       2.937   0.578  -8.643  0.00  0.00     0.043 A 
ATOM     20  H   LIG d   1       3.523   1.537  -6.825  0.00  0.00     0.064 H 
ATOM     21  C   LIG d   1       2.848  -0.619  -9.333  0.00  0.00    -0.025 A 
ATOM     22 CL   LIG d   1       2.386   2.048  -9.383  0.00  0.00    -0.084 Cl
ATOM     23  C   LIG d   1       3.285  -1.796  -8.748  0.00  0.00     0.043 A 
ATOM     24  H   LIG d   1       2.434  -0.636 -10.330  0.00  0.00     0.065 H 
ATOM     25  C   LIG d   1       3.814  -1.782  -7.473  0.00  0.00    -0.031 A 
ATOM     26 CL   LIG d   1       3.170  -3.292  -9.622  0.00  0.00    -0.084 Cl
ATOM     27  H   LIG d   1       4.156  -2.700  -7.018  0.00  0.00     0.064 H 
ENDBRANCH  14  17
ENDBRANCH   4  13
ENDBRANCH   1   4
TORSDOF 5
ENDMDL
MODEL 3
REMARK VINA RESULT:      -5.5      0.948      1.794
REMARK  5 active torsions:
REMARK  status: ('A' for Active; 'I' for Inactive)
REMARK    1  A    between atoms: C_1  and  C_2 
REMARK    2  A    between atoms: C_2  and  C_3 
REMARK    3  A    between atoms: C_2  and  C_4 
REMARK    4  A    between atoms: C_2  and  N_6 
REMARK       I    between atoms: N_6  and  C_7 
REMARK    5  A    between atoms: C_7  and  C_9 
ROOT
ATOM      1  C   LIG d   1       4.072  -1.086  -2.799  0.00  0.00    -0.080 C 
ATOM      2  C   LIG d   1       3.841  -2.151  -2.364  0.00  0.00    -0.117 C 
ATOM      3  H   LIG d   1       3.634  -3.104  -1.975  0.00  0.00     0.123 H 
ENDROOT
BRANCH   1   4
ATOM      4  C   LIG d   1       4.363   0.250  -3.344  0.00  0.00     0.090 C 
BRANCH   4   5
ATOM      5  C   LIG d   1       3.656   1.311  -2.498  0.00  0.00    -0.033 C 
ATOM      6  H   LIG d   1       2.586   1.290  -2.709  0.00  0.00     0.026 H 
ATOM      7  H   LIG d   1       3.822   1.103  -1.441  0.00  0.00     0.026 H 
ATOM      8  H   LIG d   1       4.055   2.295  -2.742  0.00  0.00     0.026 H 
ENDBRANCH   4   5
BRANCH   4   9
ATOM      9  C   LIG d   1       5.873   0.496  -3.313  0.00  0.00    -0.033 C 
ATOM     10  H   LIG d   1       6.286   0.342  -4.309  0.00  0.00     0.026 H 
ATOM     11  H   LIG d   1       6.069   1.519  -2.992  0.00  0.00     0.026 H 
ATOM     12  H   LIG d   1       6.340  -0.199  -2.614  0.00  0.00     0.026 H 
ENDBRANCH   4   9
BRANCH   4  13
ATOM     13  N   LIG d   1       3.884   0.330  -4.726  0.00  0.00    -0.296 N 
ATOM     14  C   LIG d   1       4.434  -0.451  -5.677  0.00  0.00     0.245 C 
ATOM     15  O   LIG d   1       5.327  -1.221  -5.387  0.00  0.00    -0.270 OA
ATOM     16  H   LIG d   1       3.170   0.945  -4.957  0.00  0.00     0.150 HD
BRANCH  14  17
ATOM     17  C   LIG d   1       3.949  -0.370  -7.071  0.00  0.00     0.040 A 
ATOM     18  C   LIG d   1       3.496  -1.519  -7.723  0.00  0.00    -0.031 A 
ATOM     19  C   LIG d   1       3.038  -1.436  -9.023  0.00  0.00     0.043 A 
ATOM     20  H   LIG d   1       3.498  -2.468  -7.209  0.00  0.00     0.064 H 
ATOM     21  C   LIG d   1       3.040  -0.220  -9.685  0.00  0.00    -0.025 A 
ATOM     22 CL   LIG d   1       2.466  -2.861  -9.832  0.00  0.00    -0.084 Cl
ATOM     23  C   LIG d   1       3.494   0.922  -9.046  0.00  0.00     0.043 A 
ATOM     24  H   LIG d   1       2.686  -0.161 -10.703  0.00  0.00     0.065 H 
ATOM     25  C   LIG d   1       3.949   0.853  -7.743  0.00  0.00    -0.031 A 
ATOM     26 CL   LIG d   1       3.492   2.443  -9.883  0.00  0.00    -0.084 Cl
ATOM     27  H   LIG d   1       4.302   1.744  -7.246  0.00  0.00     0.064 H 
ENDBRANCH  14  17
ENDBRANCH   4  13
ENDBRANCH   1   4
TORSDOF 5
ENDMDL
MODEL 4
REMARK VINA RESULT:      -5.4      0.950      2.833
REMARK  5 active torsions:
REMARK  status: ('A' for Active; 'I' for Inactive)
REMARK    1  A    between atoms: C_1  and  C_2 
REMARK    2  A    between atoms: C_2  and  C_3 
REMARK    3  A    between atoms: C_2  and  C_4 
REMARK    4  A    between atoms: C_2  and  N_6 
REMARK       I    between atoms: N_6  and  C_7 
REMARK    5  A    between atoms: C_7  and  C_9 
ROOT
ATOM      1  C   LIG d   1       4.078  -1.086  -2.812  0.00  0.00    -0.080 C 
ATOM      2  C   LIG d   1       3.829  -2.144  -2.370  0.00  0.00    -0.117 C 
ATOM      3  H   LIG d   1       3.606  -3.091  -1.974  0.00  0.00     0.123 H 
ENDROOT
BRANCH   1   4
ATOM      4  C   LIG d   1       4.389   0.242  -3.366  0.00  0.00     0.090 C 
BRANCH   4   5
ATOM      5  C   LIG d   1       3.704   1.320  -2.524  0.00  0.00    -0.033 C 
ATOM      6  H   LIG d   1       2.622   1.212  -2.607  0.00  0.00     0.026 H 
ATOM      7  H   LIG d   1       4.001   1.210  -1.481  0.00  0.00     0.026 H 
ATOM      8  H   LIG d   1       3.999   2.305  -2.886  0.00  0.00     0.026 H 
ENDBRANCH   4   5
BRANCH   4   9
ATOM      9  C   LIG d   1       5.903   0.461  -3.343  0.00  0.00    -0.033 C 
ATOM     10  H   LIG d   1       6.231   0.623  -2.316  0.00  0.00     0.026 H 
ATOM     11  H   LIG d   1       6.404  -0.417  -3.750  0.00  0.00     0.026 H 
ATOM     12  H   LIG d   1       6.153   1.334  -3.946  0.00  0.00     0.026 H 
ENDBRANCH   4   9
BRANCH   4  13
ATOM     13  N   LIG d   1       3.906   0.321  -4.747  0.00  0.00    -0.296 N 
ATOM     14  C   LIG d   1       4.452  -0.462  -5.699  0.00  0.00     0.245 C 
ATOM     15  O   LIG d   1       5.346  -1.232  -5.412  0.00  0.00    -0.270 OA
ATOM     16  H   LIG d   1       3.191   0.936  -4.976  0.00  0.00     0.150 HD
BRANCH  14  17
ATOM     17  C   LIG d   1       3.964  -0.381  -7.091  0.00  0.00     0.040 A 
ATOM     18  C   LIG d   1       3.953   0.845  -7.760  0.00  0.00    -0.031 A 
ATOM     19  C   LIG d   1       3.501   0.913  -9.064  0.00  0.00     0.043 A 
ATOM     20  H   LIG d   1       4.302   1.736  -7.261  0.00  0.00     0.064 H 
ATOM     21  C   LIG d   1       3.048  -0.228  -9.703  0.00  0.00    -0.025 A 
ATOM     22 CL   LIG d   1       3.496   2.435  -9.899  0.00  0.00    -0.084 Cl
ATOM     23  C   LIG d   1       3.049  -1.445  -9.042  0.00  0.00     0.043 A 
ATOM     24  H   LIG d   1       2.690  -0.169 -10.720  0.00  0.00     0.065 H 
ATOM     25  C   LIG d   1       3.504  -1.528  -7.741  0.00  0.00    -0.031 A 
ATOM     26 CL   LIG d   1       2.479  -2.871  -9.853  0.00  0.00    -0.084 Cl
ATOM     27  H   LIG d   1       3.506  -2.478  -7.227  0.00  0.00     0.064 H 
ENDBRANCH  14  17
ENDBRANCH   4  13
ENDBRANCH   1   4
TORSDOF 5
ENDMDL
MODEL 5
REMARK VINA RESULT:      -5.2      3.103      5.779
REMARK  5 active torsions:
REMARK  status: ('A' for Active; 'I' for Inactive)
REMARK    1  A    between atoms: C_1  and  C_2 
REMARK    2  A    between atoms: C_2  and  C_3 
REMARK    3  A    between atoms: C_2  and  C_4 
REMARK    4  A    between atoms: C_2  and  N_6 
REMARK       I    between atoms: N_6  and  C_7 
REMARK    5  A    between atoms: C_7  and  C_9 
ROOT
ATOM      1  C   LIG d   1       2.530  -0.030  -9.342  0.00  0.00    -0.080 C 
ATOM      2  C   LIG d   1       1.730  -0.797  -9.728  0.00  0.00    -0.117 C 
ATOM      3  H   LIG d   1       1.015  -1.484 -10.073  0.00  0.00     0.123 H 
ENDROOT
BRANCH   1   4
ATOM      4  C   LIG d   1       3.533   0.934  -8.860  0.00  0.00     0.090 C 
BRANCH   4   5
ATOM      5  C   LIG d   1       4.546   1.216  -9.971  0.00  0.00    -0.033 C 
ATOM      6  H   LIG d   1       4.931   2.230  -9.863  0.00  0.00     0.026 H 
ATOM      7  H   LIG d   1       5.369   0.505  -9.901  0.00  0.00     0.026 H 
ATOM      8  H   LIG d   1       4.059   1.113 -10.941  0.00  0.00     0.026 H 
ENDBRANCH   4   5
BRANCH   4   9
ATOM      9  C   LIG d   1       2.836   2.238  -8.462  0.00  0.00    -0.033 C 
ATOM     10  H   LIG d   1       3.539   2.877  -7.930  0.00  0.00     0.026 H 
ATOM     11  H   LIG d   1       2.485   2.750  -9.358  0.00  0.00     0.026 H 
ATOM     12  H   LIG d   1       1.987   2.013  -7.816  0.00  0.00     0.026 H 
ENDBRANCH   4   9
BRANCH   4  13
ATOM     13  N   LIG d   1       4.227   0.377  -7.697  0.00  0.00    -0.296 N 
ATOM     14  C   LIG d   1       3.533   0.061  -6.585  0.00  0.00     0.245 C 
ATOM     15  O   LIG d   1       2.332   0.238  -6.548  0.00  0.00    -0.270 OA
ATOM     16  H   LIG d   1       5.186   0.235  -7.727  0.00  0.00     0.150 HD
BRANCH  14  17
ATOM     17  C   LIG d   1       4.235  -0.502  -5.412  0.00  0.00     0.040 A 
ATOM     18  C   LIG d   1       5.037  -1.636  -5.553  0.00  0.00    -0.031 A 
ATOM     19  C   LIG d   1       5.696  -2.154  -4.455  0.00  0.00     0.043 A 
ATOM     20  H   LIG d   1       5.147  -2.104  -6.520  0.00  0.00     0.064 H 
ATOM     21  C   LIG d   1       5.551  -1.558  -3.214  0.00  0.00    -0.025 A 
ATOM     22 CL   LIG d   1       6.700  -3.559  -4.630  0.00  0.00    -0.084 Cl
ATOM     23  C   LIG d   1       4.752  -0.437  -3.066  0.00  0.00     0.043 A 
ATOM     24  H   LIG d   1       6.064  -1.970  -2.356  0.00  0.00     0.065 H 
ATOM     25  C   LIG d   1       4.093   0.094  -4.157  0.00  0.00    -0.031 A 
ATOM     26 CL   LIG d   1       4.578   0.304  -1.505  0.00  0.00    -0.084 Cl
ATOM     27  H   LIG d   1       3.470   0.968  -4.041  0.00  0.00     0.064 H 
ENDBRANCH  14  17
ENDBRANCH   4  13
ENDBRANCH   1   4
TORSDOF 5
ENDMDL
MODEL 6
REMARK VINA RESULT:      -5.2      3.101      6.116
REMARK  5 active torsions:
REMARK  status: ('A' for Active; 'I' for Inactive)
REMARK    1  A    between atoms: C_1  and  C_2 
REMARK    2  A    between atoms: C_2  and  C_3 
REMARK    3  A    between atoms: C_2  and  C_4 
REMARK    4  A    between atoms: C_2  and  N_6 
REMARK       I    between atoms: N_6  and  C_7 
REMARK    5  A    between atoms: C_7  and  C_9 
ROOT
ATOM      1  C   LIG d   1       2.525  -0.051  -9.347  0.00  0.00    -0.080 C 
ATOM      2  C   LIG d   1       1.714  -0.810  -9.725  0.00  0.00    -0.117 C 
ATOM      3  H   LIG d   1       0.988  -1.490 -10.063  0.00  0.00     0.123 H 
ENDROOT
BRANCH   1   4
ATOM      4  C   LIG d   1       3.542   0.902  -8.874  0.00  0.00     0.090 C 
BRANCH   4   5
ATOM      5  C   LIG d   1       4.554   1.165  -9.992  0.00  0.00    -0.033 C 
ATOM      6  H   LIG d   1       4.952   2.174  -9.891  0.00  0.00     0.026 H 
ATOM      7  H   LIG d   1       5.368   0.444  -9.921  0.00  0.00     0.026 H 
ATOM      8  H   LIG d   1       4.061   1.064 -10.958  0.00  0.00     0.026 H 
ENDBRANCH   4   5
BRANCH   4   9
ATOM      9  C   LIG d   1       2.864   2.217  -8.480  0.00  0.00    -0.033 C 
ATOM     10  H   LIG d   1       2.551   2.747  -9.379  0.00  0.00     0.026 H 
ATOM     11  H   LIG d   1       1.993   2.005  -7.860  0.00  0.00     0.026 H 
ATOM     12  H   LIG d   1       3.567   2.834  -7.920  0.00  0.00     0.026 H 
ENDBRANCH   4   9
BRANCH   4  13
ATOM     13  N   LIG d   1       4.234   0.342  -7.711  0.00  0.00    -0.296 N 
ATOM     14  C   LIG d   1       3.543   0.044  -6.593  0.00  0.00     0.245 C 
ATOM     15  O   LIG d   1       2.345   0.240  -6.551  0.00  0.00    -0.270 OA
ATOM     16  H   LIG d   1       5.191   0.185  -7.746  0.00  0.00     0.150 HD
BRANCH  14  17
ATOM     17  C   LIG d   1       4.242  -0.522  -5.421  0.00  0.00     0.040 A 
ATOM     18  C   LIG d   1       4.103   0.076  -4.166  0.00  0.00    -0.031 A 
ATOM     19  C   LIG d   1       4.753  -0.461  -3.073  0.00  0.00     0.043 A 
ATOM     20  H   LIG d   1       3.483   0.953  -4.051  0.00  0.00     0.064 H 
ATOM     21  C   LIG d   1       5.553  -1.581  -3.220  0.00  0.00    -0.025 A 
ATOM     22 CL   LIG d   1       4.574   0.277  -1.511  0.00  0.00    -0.084 Cl
ATOM     23  C   LIG d   1       5.700  -2.174  -4.463  0.00  0.00     0.043 A 
ATOM     24  H   LIG d   1       6.064  -1.993  -2.363  0.00  0.00     0.065 H 
ATOM     25  C   LIG d   1       5.050  -1.651  -5.563  0.00  0.00    -0.031 A 
ATOM     26 CL   LIG d   1       6.704  -3.580  -4.638  0.00  0.00    -0.084 Cl
ATOM     27  H   LIG d   1       5.165  -2.115  -6.531  0.00  0.00     0.064 H 
ENDBRANCH  14  17
ENDBRANCH   4  13
ENDBRANCH   1   4
TORSDOF 5
ENDMDL
MODEL 7
REMARK VINA RESULT:      -5.2      4.276      5.752
REMARK  5 active torsions:
REMARK  status: ('A' for Active; 'I' for Inactive)
REMARK    1  A    between atoms: C_1  and  C_2 
REMARK    2  A    between atoms: C_2  and  C_3 
REMARK    3  A    between atoms: C_2  and  C_4 
REMARK    4  A    between atoms: C_2  and  N_6 
REMARK       I    between atoms: N_6  and  C_7 
REMARK    5  A    between atoms: C_7  and  C_9 
ROOT
ATOM      1  C   LIG d   1       3.711  -1.075  -2.858  0.00  0.00    -0.080 C 
ATOM      2  C   LIG d   1       3.734  -2.121  -2.326  0.00  0.00    -0.117 C 
ATOM      3  H   LIG d   1       3.755  -3.057  -1.851  0.00  0.00     0.123 H 
ENDROOT
BRANCH   1   4
ATOM      4  C   LIG d   1       3.683   0.237  -3.524  0.00  0.00     0.090 C 
BRANCH   4   5
ATOM      5  C   LIG d   1       2.534   0.272  -4.534  0.00  0.00    -0.033 C 
ATOM      6  H   LIG d   1       2.164   1.294  -4.627  0.00  0.00     0.026 H 
ATOM      7  H   LIG d   1       2.891  -0.075  -5.503  0.00  0.00     0.026 H 
ATOM      8  H   LIG d   1       1.729  -0.376  -4.190  0.00  0.00     0.026 H 
ENDBRANCH   4   5
BRANCH   4   9
ATOM      9  C   LIG d   1       3.477   1.335  -2.478  0.00  0.00    -0.033 C 
ATOM     10  H   LIG d   1       3.401   0.885  -1.489  0.00  0.00     0.026 H 
ATOM     11  H   LIG d   1       4.323   2.023  -2.501  0.00  0.00     0.026 H 
ATOM     12  H   LIG d   1       2.560   1.881  -2.700  0.00  0.00     0.026 H 
ENDBRANCH   4   9
BRANCH   4  13
ATOM     13  N   LIG d   1       4.952   0.459  -4.221  0.00  0.00    -0.296 N 
ATOM     14  C   LIG d   1       6.053   0.807  -3.525  0.00  0.00     0.245 C 
ATOM     15  O   LIG d   1       5.991   0.937  -2.319  0.00  0.00    -0.270 OA
ATOM     16  H   LIG d   1       5.001   0.355  -5.184  0.00  0.00     0.150 HD
BRANCH  14  17
ATOM     17  C   LIG d   1       7.332   1.030  -4.229  0.00  0.00     0.040 A 
ATOM     18  C   LIG d   1       8.205   2.030  -3.796  0.00  0.00    -0.031 A 
ATOM     19  C   LIG d   1       9.403   2.230  -4.454  0.00  0.00     0.043 A 
ATOM     20  H   LIG d   1       7.947   2.643  -2.945  0.00  0.00     0.064 H 
ATOM     21  C   LIG d   1       9.733   1.450  -5.549  0.00  0.00    -0.025 A 
ATOM     22 CL   LIG d   1      10.493   3.468  -3.911  0.00  0.00    -0.084 Cl
ATOM     23  C   LIG d   1       8.869   0.461  -5.987  0.00  0.00     0.043 A 
ATOM     24  H   LIG d   1      10.668   1.614  -6.064  0.00  0.00     0.065 H 
ATOM     25  C   LIG d   1       7.671   0.247  -5.334  0.00  0.00    -0.031 A 
ATOM     26 CL   LIG d   1       9.292  -0.513  -7.361  0.00  0.00    -0.084 Cl
ATOM     27  H   LIG d   1       6.998  -0.525  -5.676  0.00  0.00     0.064 H 
ENDBRANCH  14  17
ENDBRANCH   4  13
ENDBRANCH   1   4
TORSDOF 5
ENDMDL
MODEL 8
REMARK VINA RESULT:      -4.8      2.993      6.024
REMARK  5 active torsions:
REMARK  status: ('A' for Active; 'I' for Inactive)
REMARK    1  A    between atoms: C_1  and  C_2 
REMARK    2  A    between atoms: C_2  and  C_3 
REMARK    3  A    between atoms: C_2  and  C_4 
REMARK    4  A    between atoms: C_2  and  N_6 
REMARK       I    between atoms: N_6  and  C_7 
REMARK    5  A    between atoms: C_7  and  C_9 
ROOT
ATOM      1  C   LIG d   1       4.200   0.321 -10.010  0.00  0.00    -0.080 C 
ATOM      2  C   LIG d   1       5.150   0.309 -10.699  0.00  0.00    -0.117 C 
ATOM      3  H   LIG d   1       5.999   0.297 -11.315  0.00  0.00     0.123 H 
ENDROOT
BRANCH   1   4
ATOM      4  C   LIG d   1       3.008   0.337  -9.146  0.00  0.00     0.090 C 
BRANCH   4   5
ATOM      5  C   LIG d   1       2.771   1.757  -8.628  0.00  0.00    -0.033 C 
ATOM      6  H   LIG d   1       2.936   1.783  -7.551  0.00  0.00     0.026 H 
ATOM      7  H   LIG d   1       3.462   2.443  -9.119  0.00  0.00     0.026 H 
ATOM      8  H   LIG d   1       1.746   2.056  -8.846  0.00  0.00     0.026 H 
ENDBRANCH   4   5
BRANCH   4   9
ATOM      9  C   LIG d   1       1.790  -0.124  -9.949  0.00  0.00    -0.033 C 
ATOM     10  H   LIG d   1       0.923  -0.184  -9.291  0.00  0.00     0.026 H 
ATOM     11  H   LIG d   1       1.591   0.589 -10.749  0.00  0.00     0.026 H 
ATOM     12  H   LIG d   1       1.989  -1.106 -10.380  0.00  0.00     0.026 H 
ENDBRANCH   4   9
BRANCH   4  13
ATOM     13  N   LIG d   1       3.216  -0.567  -8.012  0.00  0.00    -0.296 N 
ATOM     14  C   LIG d   1       4.172  -0.298  -7.101  0.00  0.00     0.245 C 
ATOM     15  O   LIG d   1       4.862   0.694  -7.220  0.00  0.00    -0.270 OA
ATOM     16  H   LIG d   1       2.664  -1.360  -7.916  0.00  0.00     0.150 HD
BRANCH  14  17
ATOM     17  C   LIG d   1       4.380  -1.210  -5.957  0.00  0.00     0.040 A 
ATOM     18  C   LIG d   1       4.226  -0.743  -4.650  0.00  0.00    -0.031 A 
ATOM     19  C   LIG d   1       4.416  -1.601  -3.585  0.00  0.00     0.043 A 
ATOM     20  H   LIG d   1       3.955   0.287  -4.473  0.00  0.00     0.064 H 
ATOM     21  C   LIG d   1       4.769  -2.920  -3.811  0.00  0.00    -0.025 A 
ATOM     22 CL   LIG d   1       4.216  -1.023  -1.960  0.00  0.00    -0.084 Cl
ATOM     23  C   LIG d   1       4.930  -3.389  -5.104  0.00  0.00     0.043 A 
ATOM     24  H   LIG d   1       4.922  -3.587  -2.975  0.00  0.00     0.065 H 
ATOM     25  C   LIG d   1       4.737  -2.542  -6.177  0.00  0.00    -0.031 A 
ATOM     26 CL   LIG d   1       5.373  -5.046  -5.377  0.00  0.00    -0.084 Cl
ATOM     27  H   LIG d   1       4.862  -2.908  -7.185  0.00  0.00     0.064 H 
ENDBRANCH  14  17
ENDBRANCH   4  13
ENDBRANCH   1   4
TORSDOF 5
ENDMDL
MODEL 9
REMARK VINA RESULT:      -4.7      1.618      2.673
REMARK  5 active torsions:
REMARK  status: ('A' for Active; 'I' for Inactive)
REMARK    1  A    between atoms: C_1  and  C_2 
REMARK    2  A    between atoms: C_2  and  C_3 
REMARK    3  A    between atoms: C_2  and  C_4 
REMARK    4  A    between atoms: C_2  and  N_6 
REMARK       I    between atoms: N_6  and  C_7 
REMARK    5  A    between atoms: C_7  and  C_9 
ROOT
ATOM      1  C   LIG d   1       4.745  -1.500  -2.943  0.00  0.00    -0.080 C 
ATOM      2  C   LIG d   1       4.341  -1.156  -1.896  0.00  0.00    -0.117 C 
ATOM      3  H   LIG d   1       3.981  -0.848  -0.960  0.00  0.00     0.123 H 
ENDROOT
BRANCH   1   4
ATOM      4  C   LIG d   1       5.252  -1.934  -4.255  0.00  0.00     0.090 C 
BRANCH   4   5
ATOM      5  C   LIG d   1       6.763  -1.706  -4.319  0.00  0.00    -0.033 C 
ATOM      6  H   LIG d   1       7.264  -2.650  -4.536  0.00  0.00     0.026 H 
ATOM      7  H   LIG d   1       6.990  -0.985  -5.104  0.00  0.00     0.026 H 
ATOM      8  H   LIG d   1       7.113  -1.322  -3.361  0.00  0.00     0.026 H 
ENDBRANCH   4   5
BRANCH   4   9
ATOM      9  C   LIG d   1       4.950  -3.421  -4.452  0.00  0.00    -0.033 C 
ATOM     10  H   LIG d   1       5.886  -3.970  -4.554  0.00  0.00     0.026 H 
ATOM     11  H   LIG d   1       4.399  -3.797  -3.590  0.00  0.00     0.026 H 
ATOM     12  H   LIG d   1       4.350  -3.554  -5.353  0.00  0.00     0.026 H 
ENDBRANCH   4   9
BRANCH   4  13
ATOM     13  N   LIG d   1       4.597  -1.159  -5.312  0.00  0.00    -0.296 N 
ATOM     14  C   LIG d   1       4.707  -1.546  -6.599  0.00  0.00     0.245 C 
ATOM     15  O   LIG d   1       5.349  -2.537  -6.881  0.00  0.00    -0.270 OA
ATOM     16  H   LIG d   1       4.084  -0.367  -5.086  0.00  0.00     0.150 HD
BRANCH  14  17
ATOM     17  C   LIG d   1       4.046  -0.764  -7.664  0.00  0.00     0.040 A 
ATOM     18  C   LIG d   1       4.412   0.565  -7.887  0.00  0.00    -0.031 A 
ATOM     19  C   LIG d   1       3.795   1.290  -8.889  0.00  0.00     0.043 A 
ATOM     20  H   LIG d   1       5.179   1.024  -7.282  0.00  0.00     0.064 H 
ATOM     21  C   LIG d   1       2.807   0.705  -9.662  0.00  0.00    -0.025 A 
ATOM     22 CL   LIG d   1       4.256   2.940  -9.173  0.00  0.00    -0.084 Cl
ATOM     23  C   LIG d   1       2.435  -0.610  -9.441  0.00  0.00     0.043 A 
ATOM     24  H   LIG d   1       2.324   1.278 -10.440  0.00  0.00     0.065 H 
ATOM     25  C   LIG d   1       3.048  -1.347  -8.447  0.00  0.00    -0.031 A 
ATOM     26 CL   LIG d   1       1.195  -1.335 -10.417  0.00  0.00    -0.084 Cl
ATOM     27  H   LIG d   1       2.757  -2.373  -8.276  0.00  0.00     0.064 H 
ENDBRANCH  14  17
ENDBRANCH   4  13
ENDBRANCH   1   4
TORSDOF 5
ENDMDL
MODEL 10
REMARK VINA RESULT:      -4.6      4.122      5.691
REMARK  5 active torsions:
REMARK  status: ('A' for Active; 'I' for Inactive)
REMARK    1  A    between atoms: C_1  and  C_2 
REMARK    2  A    between atoms: C_2  and  C_3 
REMARK    3  A    between atoms: C_2  and  C_4 
REMARK    4  A    between atoms: C_2  and  N_6 
REMARK       I    between atoms: N_6  and  C_7 
REMARK    5  A    between atoms: C_7  and  C_9 
ROOT
ATOM      1  C   LIG d   1       3.786  -0.160  -3.880  0.00  0.00    -0.080 C 
ATOM      2  C   LIG d   1       3.136   0.084  -4.826  0.00  0.00    -0.117 C 
ATOM      3  H   LIG d   1       2.555   0.303  -5.673  0.00  0.00     0.123 H 
ENDROOT
BRANCH   1   4
ATOM      4  C   LIG d   1       4.602  -0.466  -2.694  0.00  0.00     0.090 C 
BRANCH   4   5
ATOM      5  C   LIG d   1       4.565   0.721  -1.729  0.00  0.00    -0.033 C 
ATOM      6  H   LIG d   1       5.286   1.473  -2.051  0.00  0.00     0.026 H 
ATOM      7  H   LIG d   1       3.565   1.154  -1.725  0.00  0.00     0.026 H 
ATOM      8  H   LIG d   1       4.818   0.381  -0.725  0.00  0.00     0.026 H 
ENDBRANCH   4   5
BRANCH   4   9
ATOM      9  C   LIG d   1       4.042  -1.708  -1.997  0.00  0.00    -0.033 C 
ATOM     10  H   LIG d   1       3.715  -1.444  -0.992  0.00  0.00     0.026 H 
ATOM     11  H   LIG d   1       3.195  -2.093  -2.565  0.00  0.00     0.026 H 
ATOM     12  H   LIG d   1       4.817  -2.473  -1.938  0.00  0.00     0.026 H 
ENDBRANCH   4   9
BRANCH   4  13
ATOM     13  N   LIG d   1       5.986  -0.718  -3.103  0.00  0.00    -0.296 N 
ATOM     14  C   LIG d   1       6.301  -1.859  -3.748  0.00  0.00     0.245 C 
ATOM     15  O   LIG d   1       5.437  -2.679  -3.989  0.00  0.00    -0.270 OA
ATOM     16  H   LIG d   1       6.675  -0.063  -2.911  0.00  0.00     0.150 HD
BRANCH  14  17
ATOM     17  C   LIG d   1       7.697  -2.113  -4.161  0.00  0.00     0.040 A 
ATOM     18  C   LIG d   1       8.360  -3.262  -3.724  0.00  0.00    -0.031 A 
ATOM     19  C   LIG d   1       9.663  -3.496  -4.118  0.00  0.00     0.043 A 
ATOM     20  H   LIG d   1       7.853  -3.967  -3.083  0.00  0.00     0.064 H 
ATOM     21  C   LIG d   1      10.316  -2.590  -4.934  0.00  0.00    -0.025 A 
ATOM     22 CL   LIG d   1      10.484  -4.929  -3.582  0.00  0.00    -0.084 Cl
ATOM     23  C   LIG d   1       9.666  -1.445  -5.366  0.00  0.00     0.043 A 
ATOM     24  H   LIG d   1      11.336  -2.774  -5.235  0.00  0.00     0.065 H 
ATOM     25  C   LIG d   1       8.362  -1.202  -4.984  0.00  0.00    -0.031 A 
ATOM     26 CL   LIG d   1      10.494  -0.314  -6.391  0.00  0.00    -0.084 Cl
ATOM     27  H   LIG d   1       7.856  -0.309  -5.321  0.00  0.00     0.064 H 
ENDBRANCH  14  17
ENDBRANCH   4  13
ENDBRANCH   1   4
TORSDOF 5
ENDMDL
