MODEL 1
REMARK VINA RESULT:      -7.5      0.000      0.000
REMARK  10 active torsions:
REMARK  status: ('A' for Active; 'I' for Inactive)
REMARK    1  A    between atoms: C_3  and  O_36 
REMARK    2  A    between atoms: C_6  and  C_7 
REMARK    3  A    between atoms: C_12  and  O_35 
REMARK    4  A    between atoms: C_14  and  O_18 
REMARK    5  A    between atoms: O_18  and  C_19 
REMARK    6  A    between atoms: C_21  and  O_34 
REMARK    7  A    between atoms: C_23  and  O_33 
REMARK    8  A    between atoms: C_25  and  O_32 
REMARK    9  A    between atoms: C_27  and  C_30 
REMARK   10  A    between atoms: C_30  and  O_31 
ROOT
ATOM      1  C   LIG d   1       7.674   1.208  -4.221  0.00  0.00     0.139 A 
ATOM      2  C   LIG d   1       8.075   0.976  -5.500  0.00  0.00     0.029 A 
ATOM      3  C   LIG d   1       9.051   1.813  -6.088  0.00  0.00     0.197 A 
ATOM      4  O   LIG d   1       9.434   1.635  -7.234  0.00  0.00    -0.287 OA
ATOM      5  C   LIG d   1       9.588   2.910  -5.265  0.00  0.00     0.105 A 
ATOM      6  C   LIG d   1      10.559   3.787  -5.765  0.00  0.00     0.135 A 
ATOM      7  C   LIG d   1      11.038   4.803  -4.960  0.00  0.00     0.023 A 
ATOM      8  C   LIG d   1      10.563   4.948  -3.661  0.00  0.00     0.131 A 
ATOM      9  C   LIG d   1       9.599   4.087  -3.161  0.00  0.00     0.024 A 
ATOM     10  C   LIG d   1       9.106   3.062  -3.953  0.00  0.00     0.146 A 
ATOM     11  O   LIG d   1       8.171   2.211  -3.480  0.00  0.00    -0.454 OA
ATOM     12  H   LIG d   1       7.649   0.158  -6.063  0.00  0.00     0.069 H 
ATOM     13  H   LIG d   1      11.786   5.483  -5.339  0.00  0.00     0.069 H 
ATOM     14  H   LIG d   1       9.234   4.212  -2.152  0.00  0.00     0.069 H 
ENDROOT
BRANCH   8  15
ATOM     15  O   LIG d   1      11.045   5.947  -2.877  0.00  0.00    -0.461 OA
BRANCH  15  16
ATOM     16  C   LIG d   1      10.139   6.997  -2.535  0.00  0.00     0.231 C 
ATOM     17  H   LIG d   1       9.114   6.651  -2.668  0.00  0.00     0.108 H 
ATOM     18  O   LIG d   1      10.375   8.124  -3.381  0.00  0.00    -0.331 OA
ATOM     19  C   LIG d   1       9.500   9.229  -3.140  0.00  0.00     0.114 C 
ATOM     20  C   LIG d   1       9.691   9.724  -1.704  0.00  0.00     0.112 C 
ATOM     21  H   LIG d   1       8.467   8.911  -3.281  0.00  0.00     0.065 H 
ATOM     22  C   LIG d   1       9.423   8.570  -0.734  0.00  0.00     0.115 C 
ATOM     23  H   LIG d   1      10.713  10.080  -1.574  0.00  0.00     0.065 H 
ATOM     24  C   LIG d   1      10.355   7.403  -1.075  0.00  0.00     0.145 C 
ATOM     25  H   LIG d   1       9.611   8.900   0.287  0.00  0.00     0.065 H 
ATOM     26  H   LIG d   1      11.391   7.711  -0.933  0.00  0.00     0.068 H 
BRANCH  19  27
ATOM     27  C   LIG d   1       9.825  10.360  -4.118  0.00  0.00     0.073 C 
ATOM     28  H   LIG d   1      10.564  11.025  -3.672  0.00  0.00     0.058 H 
ATOM     29  H   LIG d   1      10.226   9.938  -5.040  0.00  0.00     0.058 H 
BRANCH  27  30
ATOM     30  O   LIG d   1       8.635  11.095  -4.409  0.00  0.00    -0.392 OA
ATOM     31  H   LIG d   1       7.819  10.606  -4.239  0.00  0.00     0.209 HD
ENDBRANCH  27  30
ENDBRANCH  19  27
BRANCH  20  32
ATOM     32  O   LIG d   1       8.777  10.790  -1.442  0.00  0.00    -0.387 OA
ATOM     33  H   LIG d   1       8.587  10.924  -0.503  0.00  0.00     0.210 HD
ENDBRANCH  20  32
BRANCH  22  34
ATOM     34  O   LIG d   1       8.063   8.147  -0.859  0.00  0.00    -0.386 OA
ATOM     35  H   LIG d   1       7.677   8.317  -1.730  0.00  0.00     0.210 HD
ENDBRANCH  22  34
BRANCH  24  36
ATOM     36  O   LIG d   1      10.063   6.294  -0.223  0.00  0.00    -0.383 OA
ATOM     37  H   LIG d   1       9.155   5.969  -0.299  0.00  0.00     0.210 HD
ENDBRANCH  24  36
ENDBRANCH  15  16
ENDBRANCH   8  15
BRANCH   6  38
ATOM     38  O   LIG d   1      11.025   3.641  -7.031  0.00  0.00    -0.506 OA
ATOM     39  H   LIG d   1      10.459   4.039  -7.707  0.00  0.00     0.292 HD
ENDBRANCH   6  38
BRANCH   1  40
ATOM     40  C   LIG d   1       6.655   0.324  -3.625  0.00  0.00     0.018 A 
ATOM     41  C   LIG d   1       5.644   0.860  -2.821  0.00  0.00    -0.048 A 
ATOM     42  C   LIG d   1       4.691   0.032  -2.272  0.00  0.00    -0.019 A 
ATOM     43  H   LIG d   1       5.609   1.924  -2.635  0.00  0.00     0.063 H 
ATOM     44  C   LIG d   1       4.739  -1.337  -2.507  0.00  0.00     0.117 A 
ATOM     45  H   LIG d   1       3.908   0.446  -1.654  0.00  0.00     0.065 H 
ATOM     46  C   LIG d   1       5.745  -1.876  -3.301  0.00  0.00    -0.019 A 
ATOM     47  C   LIG d   1       6.699  -1.054  -3.858  0.00  0.00    -0.048 A 
ATOM     48  H   LIG d   1       5.778  -2.940  -3.480  0.00  0.00     0.065 H 
ATOM     49  H   LIG d   1       7.479  -1.473  -4.476  0.00  0.00     0.063 H 
BRANCH  44  50
ATOM     50  O   LIG d   1       3.801  -2.150  -1.959  0.00  0.00    -0.507 OA
ATOM     51  H   LIG d   1       4.116  -2.662  -1.201  0.00  0.00     0.292 HD
ENDBRANCH  44  50
ENDBRANCH   1  40
TORSDOF 10
ENDMDL
MODEL 2
REMARK VINA RESULT:      -7.0      2.471      8.481
REMARK  10 active torsions:
REMARK  status: ('A' for Active; 'I' for Inactive)
REMARK    1  A    between atoms: C_3  and  O_36 
REMARK    2  A    between atoms: C_6  and  C_7 
REMARK    3  A    between atoms: C_12  and  O_35 
REMARK    4  A    between atoms: C_14  and  O_18 
REMARK    5  A    between atoms: O_18  and  C_19 
REMARK    6  A    between atoms: C_21  and  O_34 
REMARK    7  A    between atoms: C_23  and  O_33 
REMARK    8  A    between atoms: C_25  and  O_32 
REMARK    9  A    between atoms: C_27  and  C_30 
REMARK   10  A    between atoms: C_30  and  O_31 
ROOT
ATOM      1  C   LIG d   1      10.089   5.028  -2.879  0.00  0.00     0.139 A 
ATOM      2  C   LIG d   1      10.307   5.623  -4.083  0.00  0.00     0.029 A 
ATOM      3  C   LIG d   1       9.957   4.941  -5.271  0.00  0.00     0.197 A 
ATOM      4  O   LIG d   1      10.140   5.443  -6.369  0.00  0.00    -0.287 OA
ATOM      5  C   LIG d   1       9.365   3.600  -5.134  0.00  0.00     0.105 A 
ATOM      6  C   LIG d   1       8.987   2.853  -6.257  0.00  0.00     0.135 A 
ATOM      7  C   LIG d   1       8.433   1.597  -6.084  0.00  0.00     0.023 A 
ATOM      8  C   LIG d   1       8.247   1.085  -4.806  0.00  0.00     0.131 A 
ATOM      9  C   LIG d   1       8.624   1.818  -3.690  0.00  0.00     0.024 A 
ATOM     10  C   LIG d   1       9.181   3.077  -3.842  0.00  0.00     0.146 A 
ATOM     11  O   LIG d   1       9.548   3.805  -2.766  0.00  0.00    -0.454 OA
ATOM     12  H   LIG d   1      10.746   6.608  -4.131  0.00  0.00     0.069 H 
ATOM     13  H   LIG d   1       8.139   1.016  -6.946  0.00  0.00     0.069 H 
ATOM     14  H   LIG d   1       8.479   1.407  -2.701  0.00  0.00     0.069 H 
ENDROOT
BRANCH   8  15
ATOM     15  O   LIG d   1       7.697  -0.146  -4.647  0.00  0.00    -0.461 OA
BRANCH  15  16
ATOM     16  C   LIG d   1       6.273  -0.236  -4.729  0.00  0.00     0.231 C 
ATOM     17  H   LIG d   1       5.931   0.250  -5.642  0.00  0.00     0.108 H 
ATOM     18  O   LIG d   1       5.690   0.412  -3.597  0.00  0.00    -0.331 OA
ATOM     19  C   LIG d   1       4.260   0.402  -3.593  0.00  0.00     0.114 C 
ATOM     20  C   LIG d   1       3.761  -1.045  -3.563  0.00  0.00     0.112 C 
ATOM     21  H   LIG d   1       3.891   0.896  -4.491  0.00  0.00     0.065 H 
ATOM     22  C   LIG d   1       4.326  -1.796  -4.772  0.00  0.00     0.115 C 
ATOM     23  H   LIG d   1       4.095  -1.527  -2.644  0.00  0.00     0.065 H 
ATOM     24  C   LIG d   1       5.855  -1.708  -4.745  0.00  0.00     0.145 C 
ATOM     25  H   LIG d   1       4.020  -2.841  -4.727  0.00  0.00     0.065 H 
ATOM     26  H   LIG d   1       6.233  -2.204  -3.851  0.00  0.00     0.068 H 
BRANCH  19  27
ATOM     27  C   LIG d   1       3.749   1.144  -2.356  0.00  0.00     0.073 C 
ATOM     28  H   LIG d   1       3.501   2.170  -2.626  0.00  0.00     0.058 H 
ATOM     29  H   LIG d   1       2.860   0.643  -1.973  0.00  0.00     0.058 H 
BRANCH  27  30
ATOM     30  O   LIG d   1       4.764   1.148  -1.349  0.00  0.00    -0.392 OA
ATOM     31  H   LIG d   1       5.664   1.210  -1.697  0.00  0.00     0.209 HD
ENDBRANCH  27  30
ENDBRANCH  19  27
BRANCH  20  32
ATOM     32  O   LIG d   1       2.334  -1.058  -3.617  0.00  0.00    -0.387 OA
ATOM     33  H   LIG d   1       1.940  -0.203  -3.841  0.00  0.00     0.210 HD
ENDBRANCH  20  32
BRANCH  22  34
ATOM     34  O   LIG d   1       3.834  -1.203  -5.975  0.00  0.00    -0.386 OA
ATOM     35  H   LIG d   1       4.457  -0.594  -6.397  0.00  0.00     0.210 HD
ENDBRANCH  22  34
BRANCH  24  36
ATOM     36  O   LIG d   1       6.390  -2.344  -5.907  0.00  0.00    -0.383 OA
ATOM     37  H   LIG d   1       5.718  -2.725  -6.491  0.00  0.00     0.210 HD
ENDBRANCH  24  36
ENDBRANCH  15  16
ENDBRANCH   8  15
BRANCH   6  38
ATOM     38  O   LIG d   1       9.164   3.356  -7.504  0.00  0.00    -0.506 OA
ATOM     39  H   LIG d   1       9.815   4.070  -7.552  0.00  0.00     0.292 HD
ENDBRANCH   6  38
BRANCH   1  40
ATOM     40  C   LIG d   1      10.461   5.756  -1.651  0.00  0.00     0.018 A 
ATOM     41  C   LIG d   1       9.939   7.029  -1.404  0.00  0.00    -0.048 A 
ATOM     42  C   LIG d   1      10.285   7.702  -0.254  0.00  0.00    -0.019 A 
ATOM     43  H   LIG d   1       9.262   7.482  -2.114  0.00  0.00     0.063 H 
ATOM     44  C   LIG d   1      11.159   7.122   0.657  0.00  0.00     0.117 A 
ATOM     45  H   LIG d   1       9.878   8.684  -0.061  0.00  0.00     0.065 H 
ATOM     46  C   LIG d   1      11.685   5.858   0.414  0.00  0.00    -0.019 A 
ATOM     47  C   LIG d   1      11.341   5.176  -0.732  0.00  0.00    -0.048 A 
ATOM     48  H   LIG d   1      12.365   5.412   1.123  0.00  0.00     0.065 H 
ATOM     49  H   LIG d   1      11.749   4.194  -0.920  0.00  0.00     0.063 H 
BRANCH  44  50
ATOM     50  O   LIG d   1      11.501   7.791   1.787  0.00  0.00    -0.507 OA
ATOM     51  H   LIG d   1      12.450   7.796   1.970  0.00  0.00     0.292 HD
ENDBRANCH  44  50
ENDBRANCH   1  40
TORSDOF 10
ENDMDL
MODEL 3
REMARK VINA RESULT:      -6.6      2.495      8.886
REMARK  10 active torsions:
REMARK  status: ('A' for Active; 'I' for Inactive)
REMARK    1  A    between atoms: C_3  and  O_36 
REMARK    2  A    between atoms: C_6  and  C_7 
REMARK    3  A    between atoms: C_12  and  O_35 
REMARK    4  A    between atoms: C_14  and  O_18 
REMARK    5  A    between atoms: O_18  and  C_19 
REMARK    6  A    between atoms: C_21  and  O_34 
REMARK    7  A    between atoms: C_23  and  O_33 
REMARK    8  A    between atoms: C_25  and  O_32 
REMARK    9  A    between atoms: C_27  and  C_30 
REMARK   10  A    between atoms: C_30  and  O_31 
ROOT
ATOM      1  C   LIG d   1      10.734   4.351  -2.385  0.00  0.00     0.139 A 
ATOM      2  C   LIG d   1      11.880   3.811  -2.879  0.00  0.00     0.029 A 
ATOM      3  C   LIG d   1      11.807   2.712  -3.767  0.00  0.00     0.197 A 
ATOM      4  O   LIG d   1      12.815   2.201  -4.229  0.00  0.00    -0.287 OA
ATOM      5  C   LIG d   1      10.467   2.206  -4.110  0.00  0.00     0.105 A 
ATOM      6  C   LIG d   1      10.300   1.122  -4.981  0.00  0.00     0.135 A 
ATOM      7  C   LIG d   1       9.025   0.678  -5.278  0.00  0.00     0.023 A 
ATOM      8  C   LIG d   1       7.918   1.307  -4.721  0.00  0.00     0.131 A 
ATOM      9  C   LIG d   1       8.077   2.377  -3.853  0.00  0.00     0.024 A 
ATOM     10  C   LIG d   1       9.347   2.837  -3.543  0.00  0.00     0.146 A 
ATOM     11  O   LIG d   1       9.518   3.881  -2.704  0.00  0.00    -0.454 OA
ATOM     12  H   LIG d   1      12.839   4.218  -2.596  0.00  0.00     0.069 H 
ATOM     13  H   LIG d   1       8.889  -0.158  -5.949  0.00  0.00     0.069 H 
ATOM     14  H   LIG d   1       7.209   2.856  -3.422  0.00  0.00     0.069 H 
ENDROOT
BRANCH   8  15
ATOM     15  O   LIG d   1       6.670   0.866  -5.024  0.00  0.00    -0.461 OA
BRANCH  15  16
ATOM     16  C   LIG d   1       6.051  -0.021  -4.090  0.00  0.00     0.231 C 
ATOM     17  H   LIG d   1       6.660  -0.083  -3.189  0.00  0.00     0.108 H 
ATOM     18  O   LIG d   1       5.931  -1.319  -4.674  0.00  0.00    -0.331 OA
ATOM     19  C   LIG d   1       5.344  -2.295  -3.811  0.00  0.00     0.114 C 
ATOM     20  C   LIG d   1       3.925  -1.860  -3.441  0.00  0.00     0.112 C 
ATOM     21  H   LIG d   1       5.944  -2.387  -2.906  0.00  0.00     0.065 H 
ATOM     22  C   LIG d   1       3.979  -0.480  -2.778  0.00  0.00     0.115 C 
ATOM     23  H   LIG d   1       3.313  -1.808  -4.341  0.00  0.00     0.065 H 
ATOM     24  C   LIG d   1       4.659   0.506  -3.732  0.00  0.00     0.145 C 
ATOM     25  H   LIG d   1       2.966  -0.139  -2.563  0.00  0.00     0.065 H 
ATOM     26  H   LIG d   1       4.064   0.607  -4.638  0.00  0.00     0.068 H 
BRANCH  19  27
ATOM     27  C   LIG d   1       5.294  -3.646  -4.528  0.00  0.00     0.073 C 
ATOM     28  H   LIG d   1       6.097  -3.697  -5.263  0.00  0.00     0.058 H 
ATOM     29  H   LIG d   1       5.415  -4.449  -3.801  0.00  0.00     0.058 H 
BRANCH  27  30
ATOM     30  O   LIG d   1       4.035  -3.789  -5.189  0.00  0.00    -0.392 OA
ATOM     31  H   LIG d   1       3.321  -4.097  -4.614  0.00  0.00     0.209 HD
ENDBRANCH  27  30
ENDBRANCH  19  27
BRANCH  20  32
ATOM     32  O   LIG d   1       3.357  -2.804  -2.532  0.00  0.00    -0.387 OA
ATOM     33  H   LIG d   1       2.396  -2.890  -2.601  0.00  0.00     0.210 HD
ENDBRANCH  20  32
BRANCH  22  34
ATOM     34  O   LIG d   1       4.726  -0.563  -1.563  0.00  0.00    -0.386 OA
ATOM     35  H   LIG d   1       4.418   0.037  -0.869  0.00  0.00     0.210 HD
ENDBRANCH  22  34
BRANCH  24  36
ATOM     36  O   LIG d   1       4.780   1.779  -3.094  0.00  0.00    -0.383 OA
ATOM     37  H   LIG d   1       3.939   2.148  -2.791  0.00  0.00     0.210 HD
ENDBRANCH  24  36
ENDBRANCH  15  16
ENDBRANCH   8  15
BRANCH   6  38
ATOM     38  O   LIG d   1      11.382   0.512  -5.528  0.00  0.00    -0.506 OA
ATOM     39  H   LIG d   1      11.391   0.520  -6.495  0.00  0.00     0.292 HD
ENDBRANCH   6  38
BRANCH   1  40
ATOM     40  C   LIG d   1      10.831   5.497  -1.461  0.00  0.00     0.018 A 
ATOM     41  C   LIG d   1      11.522   5.367  -0.252  0.00  0.00    -0.048 A 
ATOM     42  C   LIG d   1      11.614   6.441   0.605  0.00  0.00    -0.019 A 
ATOM     43  H   LIG d   1      11.985   4.426   0.007  0.00  0.00     0.063 H 
ATOM     44  C   LIG d   1      11.014   7.650   0.275  0.00  0.00     0.117 A 
ATOM     45  H   LIG d   1      12.151   6.342   1.537  0.00  0.00     0.065 H 
ATOM     46  C   LIG d   1      10.321   7.783  -0.924  0.00  0.00    -0.019 A 
ATOM     47  C   LIG d   1      10.228   6.715  -1.788  0.00  0.00    -0.048 A 
ATOM     48  H   LIG d   1       9.856   8.723  -1.176  0.00  0.00     0.065 H 
ATOM     49  H   LIG d   1       9.691   6.819  -2.720  0.00  0.00     0.063 H 
BRANCH  44  50
ATOM     50  O   LIG d   1      11.103   8.704   1.124  0.00  0.00    -0.507 OA
ATOM     51  H   LIG d   1      10.502   8.654   1.879  0.00  0.00     0.292 HD
ENDBRANCH  44  50
ENDBRANCH   1  40
TORSDOF 10
ENDMDL
MODEL 4
REMARK VINA RESULT:      -6.6      6.590     12.941
REMARK  10 active torsions:
REMARK  status: ('A' for Active; 'I' for Inactive)
REMARK    1  A    between atoms: C_3  and  O_36 
REMARK    2  A    between atoms: C_6  and  C_7 
REMARK    3  A    between atoms: C_12  and  O_35 
REMARK    4  A    between atoms: C_14  and  O_18 
REMARK    5  A    between atoms: O_18  and  C_19 
REMARK    6  A    between atoms: C_21  and  O_34 
REMARK    7  A    between atoms: C_23  and  O_33 
REMARK    8  A    between atoms: C_25  and  O_32 
REMARK    9  A    between atoms: C_27  and  C_30 
REMARK   10  A    between atoms: C_30  and  O_31 
ROOT
ATOM      1  C   LIG d   1       6.936  -2.350  -4.204  0.00  0.00     0.139 A 
ATOM      2  C   LIG d   1       8.202  -1.996  -4.554  0.00  0.00     0.029 A 
ATOM      3  C   LIG d   1       9.035  -2.939  -5.200  0.00  0.00     0.197 A 
ATOM      4  O   LIG d   1      10.177  -2.657  -5.527  0.00  0.00    -0.287 OA
ATOM      5  C   LIG d   1       8.473  -4.275  -5.460  0.00  0.00     0.105 A 
ATOM      6  C   LIG d   1       9.226  -5.270  -6.095  0.00  0.00     0.135 A 
ATOM      7  C   LIG d   1       8.661  -6.512  -6.322  0.00  0.00     0.023 A 
ATOM      8  C   LIG d   1       7.353  -6.766  -5.927  0.00  0.00     0.131 A 
ATOM      9  C   LIG d   1       6.603  -5.787  -5.294  0.00  0.00     0.024 A 
ATOM     10  C   LIG d   1       7.152  -4.537  -5.057  0.00  0.00     0.146 A 
ATOM     11  O   LIG d   1       6.433  -3.571  -4.446  0.00  0.00    -0.454 OA
ATOM     12  H   LIG d   1       8.568  -1.003  -4.340  0.00  0.00     0.069 H 
ATOM     13  H   LIG d   1       9.237  -7.284  -6.811  0.00  0.00     0.069 H 
ATOM     14  H   LIG d   1       5.589  -5.998  -4.987  0.00  0.00     0.069 H 
ENDROOT
BRANCH   8  15
ATOM     15  O   LIG d   1       6.806  -7.987  -6.160  0.00  0.00    -0.461 OA
BRANCH  15  16
ATOM     16  C   LIG d   1       6.056  -8.575  -5.095  0.00  0.00     0.231 C 
ATOM     17  H   LIG d   1       5.416  -7.819  -4.641  0.00  0.00     0.108 H 
ATOM     18  O   LIG d   1       6.953  -9.095  -4.112  0.00  0.00    -0.331 OA
ATOM     19  C   LIG d   1       6.303  -9.686  -2.984  0.00  0.00     0.114 C 
ATOM     20  C   LIG d   1       5.449 -10.867  -3.451  0.00  0.00     0.112 C 
ATOM     21  H   LIG d   1       5.666  -8.945  -2.502  0.00  0.00     0.065 H 
ATOM     22  C   LIG d   1       4.438 -10.376  -4.491  0.00  0.00     0.115 C 
ATOM     23  H   LIG d   1       6.090 -11.627  -3.896  0.00  0.00     0.065 H 
ATOM     24  C   LIG d   1       5.192  -9.712  -5.647  0.00  0.00     0.145 C 
ATOM     25  H   LIG d   1       3.863 -11.222  -4.869  0.00  0.00     0.065 H 
ATOM     26  H   LIG d   1       5.828 -10.447  -6.138  0.00  0.00     0.068 H 
BRANCH  19  27
ATOM     27  C   LIG d   1       7.356 -10.179  -1.989  0.00  0.00     0.073 C 
ATOM     28  H   LIG d   1       7.098 -11.183  -1.655  0.00  0.00     0.058 H 
ATOM     29  H   LIG d   1       8.333 -10.197  -2.474  0.00  0.00     0.058 H 
BRANCH  27  30
ATOM     30  O   LIG d   1       7.399  -9.298  -0.865  0.00  0.00    -0.392 OA
ATOM     31  H   LIG d   1       6.976  -8.442  -1.019  0.00  0.00     0.209 HD
ENDBRANCH  27  30
ENDBRANCH  19  27
BRANCH  20  32
ATOM     32  O   LIG d   1       4.753 -11.424  -2.334  0.00  0.00    -0.387 OA
ATOM     33  H   LIG d   1       4.377 -10.763  -1.735  0.00  0.00     0.210 HD
ENDBRANCH  20  32
BRANCH  22  34
ATOM     34  O   LIG d   1       3.555  -9.427  -3.888  0.00  0.00    -0.386 OA
ATOM     35  H   LIG d   1       3.342  -8.673  -4.455  0.00  0.00     0.210 HD
ENDBRANCH  22  34
BRANCH  24  36
ATOM     36  O   LIG d   1       4.255  -9.185  -6.588  0.00  0.00    -0.383 OA
ATOM     37  H   LIG d   1       3.409  -8.926  -6.197  0.00  0.00     0.210 HD
ENDBRANCH  24  36
ENDBRANCH  15  16
ENDBRANCH   8  15
BRANCH   6  38
ATOM     38  O   LIG d   1      10.502  -5.018  -6.484  0.00  0.00    -0.506 OA
ATOM     39  H   LIG d   1      10.629  -4.144  -6.875  0.00  0.00     0.292 HD
ENDBRANCH   6  38
BRANCH   1  40
ATOM     40  C   LIG d   1       6.081  -1.352  -3.532  0.00  0.00     0.018 A 
ATOM     41  C   LIG d   1       4.929  -1.760  -2.853  0.00  0.00    -0.048 A 
ATOM     42  C   LIG d   1       4.137  -0.826  -2.222  0.00  0.00    -0.019 A 
ATOM     43  H   LIG d   1       4.662  -2.806  -2.821  0.00  0.00     0.063 H 
ATOM     44  C   LIG d   1       4.477   0.521  -2.268  0.00  0.00     0.117 A 
ATOM     45  H   LIG d   1       3.249  -1.141  -1.694  0.00  0.00     0.065 H 
ATOM     46  C   LIG d   1       5.619   0.932  -2.946  0.00  0.00    -0.019 A 
ATOM     47  C   LIG d   1       6.419   0.003  -3.576  0.00  0.00    -0.048 A 
ATOM     48  H   LIG d   1       5.878   1.979  -2.980  0.00  0.00     0.065 H 
ATOM     49  H   LIG d   1       7.306   0.323  -4.101  0.00  0.00     0.063 H 
BRANCH  44  50
ATOM     50  O   LIG d   1       3.691   1.438  -1.649  0.00  0.00    -0.507 OA
ATOM     51  H   LIG d   1       3.393   2.155  -2.225  0.00  0.00     0.292 HD
ENDBRANCH  44  50
ENDBRANCH   1  40
TORSDOF 10
ENDMDL
MODEL 5
REMARK VINA RESULT:      -6.5      2.454      8.417
REMARK  10 active torsions:
REMARK  status: ('A' for Active; 'I' for Inactive)
REMARK    1  A    between atoms: C_3  and  O_36 
REMARK    2  A    between atoms: C_6  and  C_7 
REMARK    3  A    between atoms: C_12  and  O_35 
REMARK    4  A    between atoms: C_14  and  O_18 
REMARK    5  A    between atoms: O_18  and  C_19 
REMARK    6  A    between atoms: C_21  and  O_34 
REMARK    7  A    between atoms: C_23  and  O_33 
REMARK    8  A    between atoms: C_25  and  O_32 
REMARK    9  A    between atoms: C_27  and  C_30 
REMARK   10  A    between atoms: C_30  and  O_31 
ROOT
ATOM      1  C   LIG d   1       9.658   4.391  -3.476  0.00  0.00     0.139 A 
ATOM      2  C   LIG d   1       9.835   4.871  -4.737  0.00  0.00     0.029 A 
ATOM      3  C   LIG d   1       9.446   4.082  -5.844  0.00  0.00     0.197 A 
ATOM      4  O   LIG d   1       9.591   4.480  -6.989  0.00  0.00    -0.287 OA
ATOM      5  C   LIG d   1       8.861   2.760  -5.563  0.00  0.00     0.105 A 
ATOM      6  C   LIG d   1       8.447   1.913  -6.598  0.00  0.00     0.135 A 
ATOM      7  C   LIG d   1       7.902   0.679  -6.291  0.00  0.00     0.023 A 
ATOM      8  C   LIG d   1       7.760   0.289  -4.965  0.00  0.00     0.131 A 
ATOM      9  C   LIG d   1       8.173   1.121  -3.935  0.00  0.00     0.024 A 
ATOM     10  C   LIG d   1       8.722   2.360  -4.222  0.00  0.00     0.146 A 
ATOM     11  O   LIG d   1       9.124   3.185  -3.231  0.00  0.00    -0.454 OA
ATOM     12  H   LIG d   1      10.270   5.847  -4.891  0.00  0.00     0.069 H 
ATOM     13  H   LIG d   1       7.581   0.020  -7.084  0.00  0.00     0.069 H 
ATOM     14  H   LIG d   1       8.062   0.804  -2.908  0.00  0.00     0.069 H 
ENDROOT
BRANCH   8  15
ATOM     15  O   LIG d   1       7.218  -0.922  -4.674  0.00  0.00    -0.461 OA
BRANCH  15  16
ATOM     16  C   LIG d   1       5.799  -1.042  -4.791  0.00  0.00     0.231 C 
ATOM     17  H   LIG d   1       5.533  -2.090  -4.929  0.00  0.00     0.108 H 
ATOM     18  O   LIG d   1       5.348  -0.284  -5.914  0.00  0.00    -0.331 OA
ATOM     19  C   LIG d   1       3.938  -0.356  -6.138  0.00  0.00     0.114 C 
ATOM     20  C   LIG d   1       3.200   0.204  -4.919  0.00  0.00     0.112 C 
ATOM     21  H   LIG d   1       3.647  -1.395  -6.294  0.00  0.00     0.065 H 
ATOM     22  C   LIG d   1       3.615  -0.586  -3.674  0.00  0.00     0.115 C 
ATOM     23  H   LIG d   1       3.458   1.254  -4.787  0.00  0.00     0.065 H 
ATOM     24  C   LIG d   1       5.137  -0.510  -3.518  0.00  0.00     0.145 C 
ATOM     25  H   LIG d   1       3.136  -0.157  -2.794  0.00  0.00     0.065 H 
ATOM     26  H   LIG d   1       5.435   0.525  -3.357  0.00  0.00     0.068 H 
BRANCH  19  27
ATOM     27  C   LIG d   1       3.575   0.467  -7.376  0.00  0.00     0.073 C 
ATOM     28  H   LIG d   1       3.370   1.495  -7.081  0.00  0.00     0.058 H 
ATOM     29  H   LIG d   1       4.408   0.449  -8.080  0.00  0.00     0.058 H 
BRANCH  27  30
ATOM     30  O   LIG d   1       2.416  -0.091  -7.997  0.00  0.00    -0.392 OA
ATOM     31  H   LIG d   1       1.686  -0.263  -7.386  0.00  0.00     0.209 HD
ENDBRANCH  27  30
ENDBRANCH  19  27
BRANCH  20  32
ATOM     32  O   LIG d   1       1.791   0.079  -5.116  0.00  0.00    -0.387 OA
ATOM     33  H   LIG d   1       1.535  -0.107  -6.030  0.00  0.00     0.210 HD
ENDBRANCH  20  32
BRANCH  22  34
ATOM     34  O   LIG d   1       3.217  -1.951  -3.820  0.00  0.00    -0.386 OA
ATOM     35  H   LIG d   1       2.339  -2.065  -4.212  0.00  0.00     0.210 HD
ENDBRANCH  22  34
BRANCH  24  36
ATOM     36  O   LIG d   1       5.541  -1.304  -2.401  0.00  0.00    -0.383 OA
ATOM     37  H   LIG d   1       4.869  -1.381  -1.709  0.00  0.00     0.210 HD
ENDBRANCH  24  36
ENDBRANCH  15  16
ENDBRANCH   8  15
BRANCH   6  38
ATOM     38  O   LIG d   1       8.582   2.298  -7.892  0.00  0.00    -0.506 OA
ATOM     39  H   LIG d   1       8.457   1.583  -8.530  0.00  0.00     0.292 HD
ENDBRANCH   6  38
BRANCH   1  40
ATOM     40  C   LIG d   1      10.070   5.229  -2.334  0.00  0.00     0.018 A 
ATOM     41  C   LIG d   1       9.513   6.500  -2.159  0.00  0.00    -0.048 A 
ATOM     42  C   LIG d   1       9.896   7.276  -1.088  0.00  0.00    -0.019 A 
ATOM     43  H   LIG d   1       8.780   6.869  -2.862  0.00  0.00     0.063 H 
ATOM     44  C   LIG d   1      10.843   6.803  -0.187  0.00  0.00     0.117 A 
ATOM     45  H   LIG d   1       9.463   8.256  -0.951  0.00  0.00     0.065 H 
ATOM     46  C   LIG d   1      11.404   5.543  -0.360  0.00  0.00    -0.019 A 
ATOM     47  C   LIG d   1      11.022   4.758  -1.426  0.00  0.00    -0.048 A 
ATOM     48  H   LIG d   1      12.139   5.180   0.341  0.00  0.00     0.065 H 
ATOM     49  H   LIG d   1      11.458   3.779  -1.559  0.00  0.00     0.063 H 
BRANCH  44  50
ATOM     50  O   LIG d   1      11.221   7.574   0.863  0.00  0.00    -0.507 OA
ATOM     51  H   LIG d   1      11.176   7.124   1.718  0.00  0.00     0.292 HD
ENDBRANCH  44  50
ENDBRANCH   1  40
TORSDOF 10
ENDMDL
MODEL 6
REMARK VINA RESULT:      -6.4      4.071      6.128
REMARK  10 active torsions:
REMARK  status: ('A' for Active; 'I' for Inactive)
REMARK    1  A    between atoms: C_3  and  O_36 
REMARK    2  A    between atoms: C_6  and  C_7 
REMARK    3  A    between atoms: C_12  and  O_35 
REMARK    4  A    between atoms: C_14  and  O_18 
REMARK    5  A    between atoms: O_18  and  C_19 
REMARK    6  A    between atoms: C_21  and  O_34 
REMARK    7  A    between atoms: C_23  and  O_33 
REMARK    8  A    between atoms: C_25  and  O_32 
REMARK    9  A    between atoms: C_27  and  C_30 
REMARK   10  A    between atoms: C_30  and  O_31 
ROOT
ATOM      1  C   LIG d   1       9.894   5.174  -6.132  0.00  0.00     0.139 A 
ATOM      2  C   LIG d   1      10.536   4.035  -5.756  0.00  0.00     0.029 A 
ATOM      3  C   LIG d   1      10.822   3.816  -4.388  0.00  0.00     0.197 A 
ATOM      4  O   LIG d   1      11.398   2.806  -4.014  0.00  0.00    -0.287 OA
ATOM      5  C   LIG d   1      10.399   4.853  -3.432  0.00  0.00     0.105 A 
ATOM      6  C   LIG d   1      10.640   4.718  -2.059  0.00  0.00     0.135 A 
ATOM      7  C   LIG d   1      10.226   5.715  -1.194  0.00  0.00     0.023 A 
ATOM      8  C   LIG d   1       9.571   6.838  -1.686  0.00  0.00     0.131 A 
ATOM      9  C   LIG d   1       9.334   6.980  -3.044  0.00  0.00     0.024 A 
ATOM     10  C   LIG d   1       9.742   5.992  -3.927  0.00  0.00     0.146 A 
ATOM     11  O   LIG d   1       9.514   6.113  -5.252  0.00  0.00    -0.454 OA
ATOM     12  H   LIG d   1      10.827   3.305  -6.496  0.00  0.00     0.069 H 
ATOM     13  H   LIG d   1      10.409   5.618  -0.134  0.00  0.00     0.069 H 
ATOM     14  H   LIG d   1       8.828   7.860  -3.415  0.00  0.00     0.069 H 
ENDROOT
BRANCH   8  15
ATOM     15  O   LIG d   1       9.164   7.809  -0.827  0.00  0.00    -0.461 OA
BRANCH  15  16
ATOM     16  C   LIG d   1      10.023   8.940  -0.673  0.00  0.00     0.231 C 
ATOM     17  H   LIG d   1      10.677   9.021  -1.541  0.00  0.00     0.108 H 
ATOM     18  O   LIG d   1      10.813   8.782   0.507  0.00  0.00    -0.331 OA
ATOM     19  C   LIG d   1      11.730   9.852   0.743  0.00  0.00     0.114 C 
ATOM     20  C   LIG d   1      10.952  11.158   0.921  0.00  0.00     0.112 C 
ATOM     21  H   LIG d   1      12.407   9.945  -0.106  0.00  0.00     0.065 H 
ATOM     22  C   LIG d   1      10.101  11.410  -0.327  0.00  0.00     0.115 C 
ATOM     23  H   LIG d   1      10.306  11.082   1.795  0.00  0.00     0.065 H 
ATOM     24  C   LIG d   1       9.176  10.210  -0.552  0.00  0.00     0.145 C 
ATOM     25  H   LIG d   1       9.502  12.310  -0.184  0.00  0.00     0.065 H 
ATOM     26  H   LIG d   1       8.493  10.113   0.291  0.00  0.00     0.068 H 
BRANCH  19  27
ATOM     27  C   LIG d   1      12.538   9.562   2.010  0.00  0.00     0.073 C 
ATOM     28  H   LIG d   1      13.526   9.195   1.734  0.00  0.00     0.058 H 
ATOM     29  H   LIG d   1      12.640  10.477   2.594  0.00  0.00     0.058 H 
BRANCH  27  30
ATOM     30  O   LIG d   1      11.862   8.573   2.789  0.00  0.00    -0.392 OA
ATOM     31  H   LIG d   1      11.758   8.810   3.721  0.00  0.00     0.209 HD
ENDBRANCH  27  30
ENDBRANCH  19  27
BRANCH  20  32
ATOM     32  O   LIG d   1      11.869  12.239   1.099  0.00  0.00    -0.387 OA
ATOM     33  H   LIG d   1      11.638  13.038   0.604  0.00  0.00     0.210 HD
ENDBRANCH  20  32
BRANCH  22  34
ATOM     34  O   LIG d   1      10.953  11.577  -1.462  0.00  0.00    -0.386 OA
ATOM     35  H   LIG d   1      10.850  10.890  -2.135  0.00  0.00     0.210 HD
ENDBRANCH  22  34
BRANCH  24  36
ATOM     36  O   LIG d   1       8.429  10.402  -1.754  0.00  0.00    -0.383 OA
ATOM     37  H   LIG d   1       8.362  11.327  -2.031  0.00  0.00     0.210 HD
ENDBRANCH  24  36
ENDBRANCH  15  16
ENDBRANCH   8  15
BRANCH   6  38
ATOM     38  O   LIG d   1      11.275   3.619  -1.581  0.00  0.00    -0.506 OA
ATOM     39  H   LIG d   1      11.900   3.224  -2.204  0.00  0.00     0.292 HD
ENDBRANCH   6  38
BRANCH   1  40
ATOM     40  C   LIG d   1       9.605   5.385  -7.563  0.00  0.00     0.018 A 
ATOM     41  C   LIG d   1       9.366   4.290  -8.400  0.00  0.00    -0.048 A 
ATOM     42  C   LIG d   1       9.091   4.492  -9.734  0.00  0.00    -0.019 A 
ATOM     43  H   LIG d   1       9.394   3.287  -7.998  0.00  0.00     0.063 H 
ATOM     44  C   LIG d   1       9.061   5.782 -10.252  0.00  0.00     0.117 A 
ATOM     45  H   LIG d   1       8.903   3.647 -10.379  0.00  0.00     0.065 H 
ATOM     46  C   LIG d   1       9.304   6.873  -9.426  0.00  0.00    -0.019 A 
ATOM     47  C   LIG d   1       9.575   6.680  -8.089  0.00  0.00    -0.048 A 
ATOM     48  H   LIG d   1       9.281   7.872  -9.833  0.00  0.00     0.065 H 
ATOM     49  H   LIG d   1       9.762   7.528  -7.448  0.00  0.00     0.063 H 
BRANCH  44  50
ATOM     50  O   LIG d   1       8.795   5.976 -11.568  0.00  0.00    -0.507 OA
ATOM     51  H   LIG d   1       8.495   6.870 -11.782  0.00  0.00     0.292 HD
ENDBRANCH  44  50
ENDBRANCH   1  40
TORSDOF 10
ENDMDL
MODEL 7
REMARK VINA RESULT:      -6.2      3.135      6.441
REMARK  10 active torsions:
REMARK  status: ('A' for Active; 'I' for Inactive)
REMARK    1  A    between atoms: C_3  and  O_36 
REMARK    2  A    between atoms: C_6  and  C_7 
REMARK    3  A    between atoms: C_12  and  O_35 
REMARK    4  A    between atoms: C_14  and  O_18 
REMARK    5  A    between atoms: O_18  and  C_19 
REMARK    6  A    between atoms: C_21  and  O_34 
REMARK    7  A    between atoms: C_23  and  O_33 
REMARK    8  A    between atoms: C_25  and  O_32 
REMARK    9  A    between atoms: C_27  and  C_30 
REMARK   10  A    between atoms: C_30  and  O_31 
ROOT
ATOM      1  C   LIG d   1      10.360   5.569  -2.007  0.00  0.00     0.139 A 
ATOM      2  C   LIG d   1      10.920   5.202  -0.823  0.00  0.00     0.029 A 
ATOM      3  C   LIG d   1      11.181   6.186   0.159  0.00  0.00     0.197 A 
ATOM      4  O   LIG d   1      11.684   5.893   1.232  0.00  0.00    -0.287 OA
ATOM      5  C   LIG d   1      10.826   7.578  -0.165  0.00  0.00     0.105 A 
ATOM      6  C   LIG d   1      11.049   8.616   0.748  0.00  0.00     0.135 A 
ATOM      7  C   LIG d   1      10.700   9.910   0.406  0.00  0.00     0.023 A 
ATOM      8  C   LIG d   1      10.127  10.175  -0.832  0.00  0.00     0.131 A 
ATOM      9  C   LIG d   1       9.908   9.152  -1.742  0.00  0.00     0.024 A 
ATOM     10  C   LIG d   1      10.251   7.849  -1.418  0.00  0.00     0.146 A 
ATOM     11  O   LIG d   1      10.040   6.841  -2.291  0.00  0.00    -0.454 OA
ATOM     12  H   LIG d   1      11.163   4.167  -0.635  0.00  0.00     0.069 H 
ATOM     13  H   LIG d   1      10.869  10.716   1.106  0.00  0.00     0.069 H 
ATOM     14  H   LIG d   1       9.466   9.371  -2.704  0.00  0.00     0.069 H 
ENDROOT
BRANCH   8  15
ATOM     15  O   LIG d   1       9.783  11.448  -1.155  0.00  0.00    -0.461 OA
BRANCH  15  16
ATOM     16  C   LIG d   1      10.023  11.863  -2.501  0.00  0.00     0.231 C 
ATOM     17  H   LIG d   1      10.251  10.992  -3.115  0.00  0.00     0.108 H 
ATOM     18  O   LIG d   1      11.129  12.768  -2.530  0.00  0.00    -0.331 OA
ATOM     19  C   LIG d   1      11.473  13.228  -3.839  0.00  0.00     0.114 C 
ATOM     20  C   LIG d   1      10.286  13.983  -4.441  0.00  0.00     0.112 C 
ATOM     21  H   LIG d   1      11.720  12.374  -4.470  0.00  0.00     0.065 H 
ATOM     22  C   LIG d   1       9.065  13.059  -4.470  0.00  0.00     0.115 C 
ATOM     23  H   LIG d   1      10.065  14.860  -3.833  0.00  0.00     0.065 H 
ATOM     24  C   LIG d   1       8.778  12.564  -3.049  0.00  0.00     0.145 C 
ATOM     25  H   LIG d   1       8.201  13.607  -4.847  0.00  0.00     0.065 H 
ATOM     26  H   LIG d   1       8.526  13.411  -2.412  0.00  0.00     0.068 H 
BRANCH  19  27
ATOM     27  C   LIG d   1      12.681  14.163  -3.750  0.00  0.00     0.073 C 
ATOM     28  H   LIG d   1      12.339  15.181  -3.565  0.00  0.00     0.058 H 
ATOM     29  H   LIG d   1      13.329  13.843  -2.933  0.00  0.00     0.058 H 
BRANCH  27  30
ATOM     30  O   LIG d   1      13.409  14.120  -4.979  0.00  0.00    -0.392 OA
ATOM     31  H   LIG d   1      13.165  13.383  -5.555  0.00  0.00     0.209 HD
ENDBRANCH  27  30
ENDBRANCH  19  27
BRANCH  20  32
ATOM     32  O   LIG d   1      10.606  14.393  -5.771  0.00  0.00    -0.387 OA
ATOM     33  H   LIG d   1       9.921  14.188  -6.423  0.00  0.00     0.210 HD
ENDBRANCH  20  32
BRANCH  22  34
ATOM     34  O   LIG d   1       9.332  11.942  -5.321  0.00  0.00    -0.386 OA
ATOM     35  H   LIG d   1       8.550  11.413  -5.533  0.00  0.00     0.210 HD
ENDBRANCH  22  34
BRANCH  24  36
ATOM     36  O   LIG d   1       7.685  11.643  -3.077  0.00  0.00    -0.383 OA
ATOM     37  H   LIG d   1       7.524  11.200  -2.232  0.00  0.00     0.210 HD
ENDBRANCH  24  36
ENDBRANCH  15  16
ENDBRANCH   8  15
BRANCH   6  38
ATOM     38  O   LIG d   1      11.604   8.355   1.958  0.00  0.00    -0.506 OA
ATOM     39  H   LIG d   1      12.562   8.486   1.989  0.00  0.00     0.292 HD
ENDBRANCH   6  38
BRANCH   1  40
ATOM     40  C   LIG d   1      10.094   4.529  -3.019  0.00  0.00     0.018 A 
ATOM     41  C   LIG d   1      10.342   3.184  -2.724  0.00  0.00    -0.048 A 
ATOM     42  C   LIG d   1      10.087   2.216  -3.670  0.00  0.00    -0.019 A 
ATOM     43  H   LIG d   1      10.729   2.906  -1.755  0.00  0.00     0.063 H 
ATOM     44  C   LIG d   1       9.594   2.574  -4.919  0.00  0.00     0.117 A 
ATOM     45  H   LIG d   1      10.275   1.177  -3.441  0.00  0.00     0.065 H 
ATOM     46  C   LIG d   1       9.352   3.910  -5.219  0.00  0.00    -0.019 A 
ATOM     47  C   LIG d   1       9.599   4.884  -4.277  0.00  0.00    -0.048 A 
ATOM     48  H   LIG d   1       8.970   4.183  -6.190  0.00  0.00     0.065 H 
ATOM     49  H   LIG d   1       9.409   5.921  -4.510  0.00  0.00     0.063 H 
BRANCH  44  50
ATOM     50  O   LIG d   1       9.350   1.617  -5.849  0.00  0.00    -0.507 OA
ATOM     51  H   LIG d   1       9.869   0.810  -5.731  0.00  0.00     0.292 HD
ENDBRANCH  44  50
ENDBRANCH   1  40
TORSDOF 10
ENDMDL
MODEL 8
REMARK VINA RESULT:      -6.1      7.733     13.360
REMARK  10 active torsions:
REMARK  status: ('A' for Active; 'I' for Inactive)
REMARK    1  A    between atoms: C_3  and  O_36 
REMARK    2  A    between atoms: C_6  and  C_7 
REMARK    3  A    between atoms: C_12  and  O_35 
REMARK    4  A    between atoms: C_14  and  O_18 
REMARK    5  A    between atoms: O_18  and  C_19 
REMARK    6  A    between atoms: C_21  and  O_34 
REMARK    7  A    between atoms: C_23  and  O_33 
REMARK    8  A    between atoms: C_25  and  O_32 
REMARK    9  A    between atoms: C_27  and  C_30 
REMARK   10  A    between atoms: C_30  and  O_31 
ROOT
ATOM      1  C   LIG d   1       5.108  -3.074  -4.794  0.00  0.00     0.139 A 
ATOM      2  C   LIG d   1       6.400  -3.465  -4.625  0.00  0.00     0.029 A 
ATOM      3  C   LIG d   1       6.886  -4.589  -5.334  0.00  0.00     0.197 A 
ATOM      4  O   LIG d   1       8.040  -4.969  -5.206  0.00  0.00    -0.287 OA
ATOM      5  C   LIG d   1       5.947  -5.284  -6.230  0.00  0.00     0.105 A 
ATOM      6  C   LIG d   1       6.343  -6.404  -6.971  0.00  0.00     0.135 A 
ATOM      7  C   LIG d   1       5.431  -7.028  -7.803  0.00  0.00     0.023 A 
ATOM      8  C   LIG d   1       4.133  -6.540  -7.906  0.00  0.00     0.131 A 
ATOM      9  C   LIG d   1       3.733  -5.434  -7.171  0.00  0.00     0.024 A 
ATOM     10  C   LIG d   1       4.633  -4.796  -6.332  0.00  0.00     0.146 A 
ATOM     11  O   LIG d   1       4.261  -3.715  -5.614  0.00  0.00    -0.454 OA
ATOM     12  H   LIG d   1       7.049  -2.923  -3.954  0.00  0.00     0.069 H 
ATOM     13  H   LIG d   1       5.729  -7.892  -8.377  0.00  0.00     0.069 H 
ATOM     14  H   LIG d   1       2.720  -5.068  -7.256  0.00  0.00     0.069 H 
ENDROOT
BRANCH   8  15
ATOM     15  O   LIG d   1       3.247  -7.157  -8.730  0.00  0.00    -0.461 OA
BRANCH  15  16
ATOM     16  C   LIG d   1       2.577  -6.338  -9.691  0.00  0.00     0.231 C 
ATOM     17  H   LIG d   1       2.909  -5.306  -9.583  0.00  0.00     0.108 H 
ATOM     18  O   LIG d   1       1.166  -6.410  -9.476  0.00  0.00    -0.331 OA
ATOM     19  C   LIG d   1       0.398  -5.604 -10.373  0.00  0.00     0.114 C 
ATOM     20  C   LIG d   1       0.637  -6.072 -11.810  0.00  0.00     0.112 C 
ATOM     21  H   LIG d   1       0.702  -4.562 -10.274  0.00  0.00     0.065 H 
ATOM     22  C   LIG d   1       2.135  -5.992 -12.122  0.00  0.00     0.115 C 
ATOM     23  H   LIG d   1       0.296  -7.101 -11.920  0.00  0.00     0.065 H 
ATOM     24  C   LIG d   1       2.903  -6.836 -11.100  0.00  0.00     0.145 C 
ATOM     25  H   LIG d   1       2.319  -6.377 -13.125  0.00  0.00     0.065 H 
ATOM     26  H   LIG d   1       2.609  -7.881 -11.195  0.00  0.00     0.068 H 
BRANCH  19  27
ATOM     27  C   LIG d   1      -1.088  -5.737 -10.033  0.00  0.00     0.073 C 
ATOM     28  H   LIG d   1      -1.605  -4.816 -10.299  0.00  0.00     0.058 H 
ATOM     29  H   LIG d   1      -1.516  -6.569 -10.592  0.00  0.00     0.058 H 
BRANCH  27  30
ATOM     30  O   LIG d   1      -1.237  -5.979  -8.632  0.00  0.00    -0.392 OA
ATOM     31  H   LIG d   1      -2.156  -6.044  -8.339  0.00  0.00     0.209 HD
ENDBRANCH  27  30
ENDBRANCH  19  27
BRANCH  20  32
ATOM     32  O   LIG d   1      -0.083  -5.231 -12.712  0.00  0.00    -0.387 OA
ATOM     33  H   LIG d   1       0.463  -4.563 -13.151  0.00  0.00     0.210 HD
ENDBRANCH  20  32
BRANCH  22  34
ATOM     34  O   LIG d   1       2.568  -4.633 -12.042  0.00  0.00    -0.386 OA
ATOM     35  H   LIG d   1       2.587  -4.278 -11.141  0.00  0.00     0.210 HD
ENDBRANCH  22  34
BRANCH  24  36
ATOM     36  O   LIG d   1       4.307  -6.711 -11.338  0.00  0.00    -0.383 OA
ATOM     37  H   LIG d   1       4.852  -6.841 -10.549  0.00  0.00     0.210 HD
ENDBRANCH  24  36
ENDBRANCH  15  16
ENDBRANCH   8  15
BRANCH   6  38
ATOM     38  O   LIG d   1       7.612  -6.875  -6.873  0.00  0.00    -0.506 OA
ATOM     39  H   LIG d   1       8.279  -6.186  -6.755  0.00  0.00     0.292 HD
ENDBRANCH   6  38
BRANCH   1  40
ATOM     40  C   LIG d   1       4.619  -1.900  -4.046  0.00  0.00     0.018 A 
ATOM     41  C   LIG d   1       4.753  -1.849  -2.655  0.00  0.00    -0.048 A 
ATOM     42  C   LIG d   1       4.300  -0.748  -1.962  0.00  0.00    -0.019 A 
ATOM     43  H   LIG d   1       5.214  -2.670  -2.126  0.00  0.00     0.063 H 
ATOM     44  C   LIG d   1       3.702   0.306  -2.642  0.00  0.00     0.117 A 
ATOM     45  H   LIG d   1       4.407  -0.707  -0.888  0.00  0.00     0.065 H 
ATOM     46  C   LIG d   1       3.562   0.257  -4.024  0.00  0.00    -0.019 A 
ATOM     47  C   LIG d   1       4.017  -0.838  -4.725  0.00  0.00    -0.048 A 
ATOM     48  H   LIG d   1       3.096   1.078  -4.548  0.00  0.00     0.065 H 
ATOM     49  H   LIG d   1       3.908  -0.874  -5.799  0.00  0.00     0.063 H 
BRANCH  44  50
ATOM     50  O   LIG d   1       3.253   1.386  -1.954  0.00  0.00    -0.507 OA
ATOM     51  H   LIG d   1       2.315   1.577  -2.090  0.00  0.00     0.292 HD
ENDBRANCH  44  50
ENDBRANCH   1  40
TORSDOF 10
ENDMDL
MODEL 9
REMARK VINA RESULT:      -6.1      6.412     11.832
REMARK  10 active torsions:
REMARK  status: ('A' for Active; 'I' for Inactive)
REMARK    1  A    between atoms: C_3  and  O_36 
REMARK    2  A    between atoms: C_6  and  C_7 
REMARK    3  A    between atoms: C_12  and  O_35 
REMARK    4  A    between atoms: C_14  and  O_18 
REMARK    5  A    between atoms: O_18  and  C_19 
REMARK    6  A    between atoms: C_21  and  O_34 
REMARK    7  A    between atoms: C_23  and  O_33 
REMARK    8  A    between atoms: C_25  and  O_32 
REMARK    9  A    between atoms: C_27  and  C_30 
REMARK   10  A    between atoms: C_30  and  O_31 
ROOT
ATOM      1  C   LIG d   1       7.543  -1.801  -4.138  0.00  0.00     0.139 A 
ATOM      2  C   LIG d   1       8.477  -1.181  -4.908  0.00  0.00     0.029 A 
ATOM      3  C   LIG d   1       9.496  -1.947  -5.520  0.00  0.00     0.197 A 
ATOM      4  O   LIG d   1      10.352  -1.424  -6.217  0.00  0.00    -0.287 OA
ATOM      5  C   LIG d   1       9.487  -3.401  -5.284  0.00  0.00     0.105 A 
ATOM      6  C   LIG d   1      10.457  -4.237  -5.851  0.00  0.00     0.135 A 
ATOM      7  C   LIG d   1      10.412  -5.597  -5.605  0.00  0.00     0.023 A 
ATOM      8  C   LIG d   1       9.407  -6.129  -4.806  0.00  0.00     0.131 A 
ATOM      9  C   LIG d   1       8.446  -5.307  -4.237  0.00  0.00     0.024 A 
ATOM     10  C   LIG d   1       8.475  -3.941  -4.471  0.00  0.00     0.146 A 
ATOM     11  O   LIG d   1       7.544  -3.127  -3.929  0.00  0.00    -0.454 OA
ATOM     12  H   LIG d   1       8.441  -0.111  -5.050  0.00  0.00     0.069 H 
ATOM     13  H   LIG d   1      11.157  -6.247  -6.039  0.00  0.00     0.069 H 
ATOM     14  H   LIG d   1       7.673  -5.732  -3.613  0.00  0.00     0.069 H 
ENDROOT
BRANCH   8  15
ATOM     15  O   LIG d   1       9.369  -7.467  -4.575  0.00  0.00    -0.461 OA
BRANCH  15  16
ATOM     16  C   LIG d   1       9.107  -7.887  -3.234  0.00  0.00     0.231 C 
ATOM     17  H   LIG d   1       8.305  -7.281  -2.814  0.00  0.00     0.108 H 
ATOM     18  O   LIG d   1      10.288  -7.726  -2.446  0.00  0.00    -0.331 OA
ATOM     19  C   LIG d   1      10.128  -8.095  -1.074  0.00  0.00     0.114 C 
ATOM     20  C   LIG d   1       9.753  -9.576  -0.987  0.00  0.00     0.112 C 
ATOM     21  H   LIG d   1       9.339  -7.492  -0.626  0.00  0.00     0.065 H 
ATOM     22  C   LIG d   1       8.471  -9.818  -1.789  0.00  0.00     0.115 C 
ATOM     23  H   LIG d   1      10.560 -10.182  -1.397  0.00  0.00     0.065 H 
ATOM     24  C   LIG d   1       8.691  -9.359  -3.233  0.00  0.00     0.145 C 
ATOM     25  H   LIG d   1       8.228 -10.881  -1.776  0.00  0.00     0.065 H 
ATOM     26  H   LIG d   1       9.476  -9.960  -3.691  0.00  0.00     0.068 H 
BRANCH  19  27
ATOM     27  C   LIG d   1      11.441  -7.856  -0.326  0.00  0.00     0.073 C 
ATOM     28  H   LIG d   1      12.059  -8.752  -0.381  0.00  0.00     0.058 H 
ATOM     29  H   LIG d   1      11.972  -7.019  -0.781  0.00  0.00     0.058 H 
BRANCH  27  30
ATOM     30  O   LIG d   1      11.162  -7.553   1.043  0.00  0.00    -0.392 OA
ATOM     31  H   LIG d   1      11.691  -8.060   1.674  0.00  0.00     0.209 HD
ENDBRANCH  27  30
ENDBRANCH  19  27
BRANCH  20  32
ATOM     32  O   LIG d   1       9.536  -9.933   0.380  0.00  0.00    -0.387 OA
ATOM     33  H   LIG d   1      10.112  -9.471   1.004  0.00  0.00     0.210 HD
ENDBRANCH  20  32
BRANCH  22  34
ATOM     34  O   LIG d   1       7.397  -9.074  -1.209  0.00  0.00    -0.386 OA
ATOM     35  H   LIG d   1       7.461  -8.975  -0.248  0.00  0.00     0.210 HD
ENDBRANCH  22  34
BRANCH  24  36
ATOM     36  O   LIG d   1       7.478  -9.514  -3.973  0.00  0.00    -0.383 OA
ATOM     37  H   LIG d   1       7.315  -8.805  -4.611  0.00  0.00     0.210 HD
ENDBRANCH  24  36
ENDBRANCH  15  16
ENDBRANCH   8  15
BRANCH   6  38
ATOM     38  O   LIG d   1      11.434  -3.716  -6.635  0.00  0.00    -0.506 OA
ATOM     39  H   LIG d   1      11.358  -2.762  -6.777  0.00  0.00     0.292 HD
ENDBRANCH   6  38
BRANCH   1  40
ATOM     40  C   LIG d   1       6.488  -0.985  -3.508  0.00  0.00     0.018 A 
ATOM     41  C   LIG d   1       5.404  -1.605  -2.879  0.00  0.00    -0.048 A 
ATOM     42  C   LIG d   1       4.424  -0.839  -2.287  0.00  0.00    -0.019 A 
ATOM     43  H   LIG d   1       5.337  -2.683  -2.854  0.00  0.00     0.063 H 
ATOM     44  C   LIG d   1       4.506   0.548  -2.323  0.00  0.00     0.117 A 
ATOM     45  H   LIG d   1       3.589  -1.317  -1.797  0.00  0.00     0.065 H 
ATOM     46  C   LIG d   1       5.579   1.169  -2.952  0.00  0.00    -0.019 A 
ATOM     47  C   LIG d   1       6.566   0.410  -3.542  0.00  0.00    -0.048 A 
ATOM     48  H   LIG d   1       5.639   2.246  -2.979  0.00  0.00     0.065 H 
ATOM     49  H   LIG d   1       7.400   0.893  -4.030  0.00  0.00     0.063 H 
BRANCH  44  50
ATOM     50  O   LIG d   1       3.536   1.299  -1.743  0.00  0.00    -0.507 OA
ATOM     51  H   LIG d   1       3.243   2.047  -2.280  0.00  0.00     0.292 HD
ENDBRANCH  44  50
ENDBRANCH   1  40
TORSDOF 10
ENDMDL
