MODEL 1
REMARK VINA RESULT:      -5.3      0.000      0.000
REMARK  6 active torsions:
REMARK  status: ('A' for Active; 'I' for Inactive)
REMARK    1  A    between atoms: C_1  and  C_2 
REMARK    2  A    between atoms: C_2  and  O_3 
REMARK    3  A    between atoms: O_3  and  C_4 
REMARK    4  A    between atoms: C_6  and  C_11 
REMARK    5  A    between atoms: C_9  and  O_10 
REMARK    6  A    between atoms: C_11  and  C_12 
ROOT
ATOM      1  C   LIG d   1       3.198   0.617  -4.323  0.00  0.00     0.162 A 
ATOM      2  C   LIG d   1       3.395  -0.746  -4.173  0.00  0.00    -0.013 A 
ATOM      3  C   LIG d   1       3.922  -1.243  -2.995  0.00  0.00    -0.038 A 
ATOM      4  C   LIG d   1       4.243  -0.383  -1.961  0.00  0.00    -0.054 A 
ATOM      5  C   LIG d   1       4.043   0.977  -2.102  0.00  0.00    -0.016 A 
ATOM      6  C   LIG d   1       3.520   1.482  -3.282  0.00  0.00     0.159 A 
ATOM      7  H   LIG d   1       3.141  -1.421  -4.978  0.00  0.00     0.066 H 
ATOM      8  H   LIG d   1       4.649  -0.776  -1.041  0.00  0.00     0.062 H 
ATOM      9  H   LIG d   1       4.294   1.647  -1.292  0.00  0.00     0.066 H 
ENDROOT
BRANCH   1  10
ATOM     10  O   LIG d   1       2.685   1.108  -5.482  0.00  0.00    -0.489 OA
BRANCH  10  11
ATOM     11  C   LIG d   1       2.853   0.310  -6.656  0.00  0.00     0.087 C 
ATOM     12  H   LIG d   1       1.994  -0.351  -6.772  0.00  0.00     0.069 H 
ATOM     13  H   LIG d   1       3.760  -0.288  -6.562  0.00  0.00     0.069 H 
BRANCH  11  14
ATOM     14  C   LIG d   1       2.966   1.220  -7.881  0.00  0.00    -0.031 C 
ATOM     15  H   LIG d   1       2.056   1.811  -7.978  0.00  0.00     0.026 H 
ATOM     16  H   LIG d   1       3.821   1.885  -7.760  0.00  0.00     0.026 H 
ATOM     17  H   LIG d   1       3.101   0.610  -8.774  0.00  0.00     0.026 H 
ENDBRANCH  11  14
ENDBRANCH  10  11
ENDBRANCH   1  10
BRANCH   6  18
ATOM     18  O   LIG d   1       3.324   2.821  -3.422  0.00  0.00    -0.503 OA
ATOM     19  H   LIG d   1       3.050   3.088  -4.309  0.00  0.00     0.292 HD
ENDBRANCH   6  18
BRANCH   3  20
ATOM     20  C   LIG d   1       4.141  -2.726  -2.836  0.00  0.00     0.012 C 
ATOM     21  H   LIG d   1       4.714  -2.913  -1.929  0.00  0.00     0.037 H 
ATOM     22  H   LIG d   1       3.176  -3.229  -2.766  0.00  0.00     0.037 H 
BRANCH  20  23
ATOM     23  C   LIG d   1       4.897  -3.253  -4.027  0.00  0.00     0.046 C 
ATOM     24  O   LIG d   1       4.378  -4.058  -4.765  0.00  0.00    -0.549 OA
ATOM     25  O   LIG d   1       6.148  -2.831  -4.269  0.00  0.00    -0.549 OA
ENDBRANCH  20  23
ENDBRANCH   3  20
TORSDOF 6
ENDMDL
MODEL 2
REMARK VINA RESULT:      -5.1      2.800      3.445
REMARK  6 active torsions:
REMARK  status: ('A' for Active; 'I' for Inactive)
REMARK    1  A    between atoms: C_1  and  C_2 
REMARK    2  A    between atoms: C_2  and  O_3 
REMARK    3  A    between atoms: O_3  and  C_4 
REMARK    4  A    between atoms: C_6  and  C_11 
REMARK    5  A    between atoms: C_9  and  O_10 
REMARK    6  A    between atoms: C_11  and  C_12 
ROOT
ATOM      1  C   LIG d   1       5.971   0.422  -3.093  0.00  0.00     0.162 A 
ATOM      2  C   LIG d   1       6.323  -0.689  -3.842  0.00  0.00    -0.013 A 
ATOM      3  C   LIG d   1       5.681  -1.895  -3.634  0.00  0.00    -0.038 A 
ATOM      4  C   LIG d   1       4.678  -1.994  -2.686  0.00  0.00    -0.054 A 
ATOM      5  C   LIG d   1       4.318  -0.888  -1.939  0.00  0.00    -0.016 A 
ATOM      6  C   LIG d   1       4.962   0.322  -2.139  0.00  0.00     0.159 A 
ATOM      7  H   LIG d   1       7.102  -0.614  -4.586  0.00  0.00     0.066 H 
ATOM      8  H   LIG d   1       4.175  -2.937  -2.530  0.00  0.00     0.062 H 
ATOM      9  H   LIG d   1       3.534  -0.968  -1.200  0.00  0.00     0.066 H 
ENDROOT
BRANCH   1  10
ATOM     10  O   LIG d   1       6.605   1.608  -3.292  0.00  0.00    -0.489 OA
BRANCH  10  11
ATOM     11  C   LIG d   1       7.683   1.617  -4.229  0.00  0.00     0.087 C 
ATOM     12  H   LIG d   1       7.372   2.134  -5.137  0.00  0.00     0.069 H 
ATOM     13  H   LIG d   1       7.962   0.591  -4.473  0.00  0.00     0.069 H 
BRANCH  11  14
ATOM     14  C   LIG d   1       8.886   2.340  -3.618  0.00  0.00    -0.031 C 
ATOM     15  H   LIG d   1       9.348   2.977  -4.372  0.00  0.00     0.026 H 
ATOM     16  H   LIG d   1       8.552   2.952  -2.780  0.00  0.00     0.026 H 
ATOM     17  H   LIG d   1       9.611   1.606  -3.267  0.00  0.00     0.026 H 
ENDBRANCH  11  14
ENDBRANCH  10  11
ENDBRANCH   1  10
BRANCH   6  18
ATOM     18  O   LIG d   1       4.608   1.411  -1.405  0.00  0.00    -0.503 OA
ATOM     19  H   LIG d   1       4.985   1.425  -0.515  0.00  0.00     0.292 HD
ENDBRANCH   6  18
BRANCH   3  20
ATOM     20  C   LIG d   1       6.069  -3.104  -4.446  0.00  0.00     0.012 C 
ATOM     21  H   LIG d   1       6.905  -2.850  -5.097  0.00  0.00     0.037 H 
ATOM     22  H   LIG d   1       6.362  -3.913  -3.776  0.00  0.00     0.037 H 
BRANCH  20  23
ATOM     23  C   LIG d   1       4.896  -3.545  -5.283  0.00  0.00     0.046 C 
ATOM     24  O   LIG d   1       4.531  -2.869  -6.216  0.00  0.00    -0.549 OA
ATOM     25  O   LIG d   1       4.256  -4.688  -4.991  0.00  0.00    -0.549 OA
ENDBRANCH  20  23
ENDBRANCH   3  20
TORSDOF 6
ENDMDL
MODEL 3
REMARK VINA RESULT:      -4.9      1.675      3.863
REMARK  6 active torsions:
REMARK  status: ('A' for Active; 'I' for Inactive)
REMARK    1  A    between atoms: C_1  and  C_2 
REMARK    2  A    between atoms: C_2  and  O_3 
REMARK    3  A    between atoms: O_3  and  C_4 
REMARK    4  A    between atoms: C_6  and  C_11 
REMARK    5  A    between atoms: C_9  and  O_10 
REMARK    6  A    between atoms: C_11  and  C_12 
ROOT
ATOM      1  C   LIG d   1       4.393  -1.057  -5.724  0.00  0.00     0.162 A 
ATOM      2  C   LIG d   1       4.263  -0.510  -4.457  0.00  0.00    -0.013 A 
ATOM      3  C   LIG d   1       4.405  -1.312  -3.340  0.00  0.00    -0.038 A 
ATOM      4  C   LIG d   1       4.687  -2.658  -3.483  0.00  0.00    -0.054 A 
ATOM      5  C   LIG d   1       4.823  -3.209  -4.743  0.00  0.00    -0.016 A 
ATOM      6  C   LIG d   1       4.677  -2.412  -5.867  0.00  0.00     0.159 A 
ATOM      7  H   LIG d   1       4.047   0.542  -4.343  0.00  0.00     0.066 H 
ATOM      8  H   LIG d   1       4.802  -3.280  -2.607  0.00  0.00     0.062 H 
ATOM      9  H   LIG d   1       5.044  -4.261  -4.852  0.00  0.00     0.066 H 
ENDROOT
BRANCH   1  10
ATOM     10  O   LIG d   1       4.248  -0.271  -6.824  0.00  0.00    -0.489 OA
BRANCH  10  11
ATOM     11  C   LIG d   1       2.938   0.233  -7.093  0.00  0.00     0.087 C 
ATOM     12  H   LIG d   1       2.983   1.316  -7.213  0.00  0.00     0.069 H 
ATOM     13  H   LIG d   1       2.276  -0.013  -6.263  0.00  0.00     0.069 H 
BRANCH  11  14
ATOM     14  C   LIG d   1       2.402  -0.401  -8.379  0.00  0.00    -0.031 C 
ATOM     15  H   LIG d   1       1.617   0.232  -8.794  0.00  0.00     0.026 H 
ATOM     16  H   LIG d   1       3.212  -0.497  -9.101  0.00  0.00     0.026 H 
ATOM     17  H   LIG d   1       1.993  -1.386  -8.154  0.00  0.00     0.026 H 
ENDBRANCH  11  14
ENDBRANCH  10  11
ENDBRANCH   1  10
BRANCH   6  18
ATOM     18  O   LIG d   1       4.811  -2.953  -7.108  0.00  0.00    -0.503 OA
ATOM     19  H   LIG d   1       5.624  -3.460  -7.230  0.00  0.00     0.292 HD
ENDBRANCH   6  18
BRANCH   3  20
ATOM     20  C   LIG d   1       4.259  -0.716  -1.964  0.00  0.00     0.012 C 
ATOM     21  H   LIG d   1       3.290  -0.992  -1.549  0.00  0.00     0.037 H 
ATOM     22  H   LIG d   1       5.051  -1.096  -1.318  0.00  0.00     0.037 H 
BRANCH  20  23
ATOM     23  C   LIG d   1       4.359   0.785  -2.052  0.00  0.00     0.046 C 
ATOM     24  O   LIG d   1       3.360   1.461  -1.992  0.00  0.00    -0.549 OA
ATOM     25  O   LIG d   1       5.558   1.370  -2.198  0.00  0.00    -0.549 OA
ENDBRANCH  20  23
ENDBRANCH   3  20
TORSDOF 6
ENDMDL
MODEL 4
REMARK VINA RESULT:      -4.7      1.882      2.417
REMARK  6 active torsions:
REMARK  status: ('A' for Active; 'I' for Inactive)
REMARK    1  A    between atoms: C_1  and  C_2 
REMARK    2  A    between atoms: C_2  and  O_3 
REMARK    3  A    between atoms: O_3  and  C_4 
REMARK    4  A    between atoms: C_6  and  C_11 
REMARK    5  A    between atoms: C_9  and  O_10 
REMARK    6  A    between atoms: C_11  and  C_12 
ROOT
ATOM      1  C   LIG d   1       3.973  -0.378  -4.837  0.00  0.00     0.162 A 
ATOM      2  C   LIG d   1       5.285  -0.731  -4.571  0.00  0.00    -0.013 A 
ATOM      3  C   LIG d   1       5.593  -1.434  -3.421  0.00  0.00    -0.038 A 
ATOM      4  C   LIG d   1       4.591  -1.796  -2.540  0.00  0.00    -0.054 A 
ATOM      5  C   LIG d   1       3.278  -1.453  -2.802  0.00  0.00    -0.016 A 
ATOM      6  C   LIG d   1       2.964  -0.743  -3.951  0.00  0.00     0.159 A 
ATOM      7  H   LIG d   1       6.070  -0.453  -5.260  0.00  0.00     0.066 H 
ATOM      8  H   LIG d   1       4.835  -2.350  -1.646  0.00  0.00     0.062 H 
ATOM      9  H   LIG d   1       2.497  -1.738  -2.113  0.00  0.00     0.066 H 
ENDROOT
BRANCH   1  10
ATOM     10  O   LIG d   1       3.668   0.318  -5.965  0.00  0.00    -0.489 OA
BRANCH  10  11
ATOM     11  C   LIG d   1       3.790  -0.377  -7.208  0.00  0.00     0.087 C 
ATOM     12  H   LIG d   1       3.886  -1.446  -7.019  0.00  0.00     0.069 H 
ATOM     13  H   LIG d   1       4.674  -0.021  -7.738  0.00  0.00     0.069 H 
BRANCH  11  14
ATOM     14  C   LIG d   1       2.545  -0.119  -8.061  0.00  0.00    -0.031 C 
ATOM     15  H   LIG d   1       2.832  -0.055  -9.110  0.00  0.00     0.026 H 
ATOM     16  H   LIG d   1       1.839  -0.938  -7.927  0.00  0.00     0.026 H 
ATOM     17  H   LIG d   1       2.082   0.818  -7.753  0.00  0.00     0.026 H 
ENDBRANCH  11  14
ENDBRANCH  10  11
ENDBRANCH   1  10
BRANCH   6  18
ATOM     18  O   LIG d   1       1.672  -0.404  -4.210  0.00  0.00    -0.503 OA
ATOM     19  H   LIG d   1       1.199  -1.046  -4.755  0.00  0.00     0.292 HD
ENDBRANCH   6  18
BRANCH   3  20
ATOM     20  C   LIG d   1       7.023  -1.813  -3.131  0.00  0.00     0.012 C 
ATOM     21  H   LIG d   1       7.625  -0.910  -3.038  0.00  0.00     0.037 H 
ATOM     22  H   LIG d   1       7.067  -2.377  -2.199  0.00  0.00     0.037 H 
BRANCH  20  23
ATOM     23  C   LIG d   1       7.557  -2.660  -4.257  0.00  0.00     0.046 C 
ATOM     24  O   LIG d   1       8.554  -2.320  -4.848  0.00  0.00    -0.549 OA
ATOM     25  O   LIG d   1       6.924  -3.791  -4.604  0.00  0.00    -0.549 OA
ENDBRANCH  20  23
ENDBRANCH   3  20
TORSDOF 6
ENDMDL
MODEL 5
REMARK VINA RESULT:      -4.6      1.681      2.354
REMARK  6 active torsions:
REMARK  status: ('A' for Active; 'I' for Inactive)
REMARK    1  A    between atoms: C_1  and  C_2 
REMARK    2  A    between atoms: C_2  and  O_3 
REMARK    3  A    between atoms: O_3  and  C_4 
REMARK    4  A    between atoms: C_6  and  C_11 
REMARK    5  A    between atoms: C_9  and  O_10 
REMARK    6  A    between atoms: C_11  and  C_12 
ROOT
ATOM      1  C   LIG d   1       4.135  -0.544  -5.545  0.00  0.00     0.162 A 
ATOM      2  C   LIG d   1       4.664  -1.805  -5.765  0.00  0.00    -0.013 A 
ATOM      3  C   LIG d   1       4.713  -2.724  -4.733  0.00  0.00    -0.038 A 
ATOM      4  C   LIG d   1       4.224  -2.391  -3.483  0.00  0.00    -0.054 A 
ATOM      5  C   LIG d   1       3.689  -1.136  -3.259  0.00  0.00    -0.016 A 
ATOM      6  C   LIG d   1       3.642  -0.209  -4.288  0.00  0.00     0.159 A 
ATOM      7  H   LIG d   1       5.043  -2.070  -6.741  0.00  0.00     0.066 H 
ATOM      8  H   LIG d   1       4.259  -3.113  -2.681  0.00  0.00     0.062 H 
ATOM      9  H   LIG d   1       3.307  -0.879  -2.282  0.00  0.00     0.066 H 
ENDROOT
BRANCH   1  10
ATOM     10  O   LIG d   1       4.091   0.363  -6.557  0.00  0.00    -0.489 OA
BRANCH  10  11
ATOM     11  C   LIG d   1       3.026   0.230  -7.501  0.00  0.00     0.087 C 
ATOM     12  H   LIG d   1       2.090   0.057  -6.971  0.00  0.00     0.069 H 
ATOM     13  H   LIG d   1       3.230  -0.613  -8.163  0.00  0.00     0.069 H 
BRANCH  11  14
ATOM     14  C   LIG d   1       2.914   1.512  -8.329  0.00  0.00    -0.031 C 
ATOM     15  H   LIG d   1       2.635   1.259  -9.352  0.00  0.00     0.026 H 
ATOM     16  H   LIG d   1       2.153   2.159  -7.894  0.00  0.00     0.026 H 
ATOM     17  H   LIG d   1       3.875   2.028  -8.331  0.00  0.00     0.026 H 
ENDBRANCH  11  14
ENDBRANCH  10  11
ENDBRANCH   1  10
BRANCH   6  18
ATOM     18  O   LIG d   1       3.116   1.026  -4.068  0.00  0.00    -0.503 OA
ATOM     19  H   LIG d   1       2.964   1.229  -3.135  0.00  0.00     0.292 HD
ENDBRANCH   6  18
BRANCH   3  20
ATOM     20  C   LIG d   1       5.294  -4.094  -4.973  0.00  0.00     0.012 C 
ATOM     21  H   LIG d   1       6.356  -4.003  -5.199  0.00  0.00     0.037 H 
ATOM     22  H   LIG d   1       5.164  -4.705  -4.079  0.00  0.00     0.037 H 
BRANCH  20  23
ATOM     23  C   LIG d   1       4.586  -4.744  -6.133  0.00  0.00     0.046 C 
ATOM     24  O   LIG d   1       5.138  -4.834  -7.204  0.00  0.00    -0.549 OA
ATOM     25  O   LIG d   1       3.343  -5.224  -5.976  0.00  0.00    -0.549 OA
ENDBRANCH  20  23
ENDBRANCH   3  20
TORSDOF 6
ENDMDL
MODEL 6
REMARK VINA RESULT:      -4.5      3.497      5.177
REMARK  6 active torsions:
REMARK  status: ('A' for Active; 'I' for Inactive)
REMARK    1  A    between atoms: C_1  and  C_2 
REMARK    2  A    between atoms: C_2  and  O_3 
REMARK    3  A    between atoms: O_3  and  C_4 
REMARK    4  A    between atoms: C_6  and  C_11 
REMARK    5  A    between atoms: C_9  and  O_10 
REMARK    6  A    between atoms: C_11  and  C_12 
ROOT
ATOM      1  C   LIG d   1       7.690   0.515  -4.011  0.00  0.00     0.162 A 
ATOM      2  C   LIG d   1       6.542   0.964  -3.378  0.00  0.00    -0.013 A 
ATOM      3  C   LIG d   1       5.631   0.057  -2.871  0.00  0.00    -0.038 A 
ATOM      4  C   LIG d   1       5.868  -1.301  -2.984  0.00  0.00    -0.054 A 
ATOM      5  C   LIG d   1       7.013  -1.757  -3.608  0.00  0.00    -0.016 A 
ATOM      6  C   LIG d   1       7.928  -0.852  -4.123  0.00  0.00     0.159 A 
ATOM      7  H   LIG d   1       6.357   2.024  -3.285  0.00  0.00     0.066 H 
ATOM      8  H   LIG d   1       5.156  -2.007  -2.582  0.00  0.00     0.062 H 
ATOM      9  H   LIG d   1       7.196  -2.818  -3.694  0.00  0.00     0.066 H 
ENDROOT
BRANCH   1  10
ATOM     10  O   LIG d   1       8.585   1.405  -4.515  0.00  0.00    -0.489 OA
BRANCH  10  11
ATOM     11  C   LIG d   1       8.832   2.583  -3.744  0.00  0.00     0.087 C 
ATOM     12  H   LIG d   1       8.110   2.642  -2.929  0.00  0.00     0.069 H 
ATOM     13  H   LIG d   1       8.733   3.462  -4.380  0.00  0.00     0.069 H 
BRANCH  11  14
ATOM     14  C   LIG d   1      10.248   2.527  -3.167  0.00  0.00    -0.031 C 
ATOM     15  H   LIG d   1      10.262   1.864  -2.302  0.00  0.00     0.026 H 
ATOM     16  H   LIG d   1      10.934   2.150  -3.925  0.00  0.00     0.026 H 
ATOM     17  H   LIG d   1      10.556   3.528  -2.862  0.00  0.00     0.026 H 
ENDBRANCH  11  14
ENDBRANCH  10  11
ENDBRANCH   1  10
BRANCH   6  18
ATOM     18  O   LIG d   1       9.055  -1.299  -4.739  0.00  0.00    -0.503 OA
ATOM     19  H   LIG d   1       8.907  -1.647  -5.628  0.00  0.00     0.292 HD
ENDBRANCH   6  18
BRANCH   3  20
ATOM     20  C   LIG d   1       4.381   0.548  -2.188  0.00  0.00     0.012 C 
ATOM     21  H   LIG d   1       4.206  -0.038  -1.286  0.00  0.00     0.037 H 
ATOM     22  H   LIG d   1       4.502   1.599  -1.921  0.00  0.00     0.037 H 
BRANCH  20  23
ATOM     23  C   LIG d   1       3.207   0.400  -3.120  0.00  0.00     0.046 C 
ATOM     24  O   LIG d   1       2.433  -0.517  -2.976  0.00  0.00    -0.549 OA
ATOM     25  O   LIG d   1       3.020   1.286  -4.110  0.00  0.00    -0.549 OA
ENDBRANCH  20  23
ENDBRANCH   3  20
TORSDOF 6
ENDMDL
MODEL 7
REMARK VINA RESULT:      -4.4      2.477      3.098
REMARK  6 active torsions:
REMARK  status: ('A' for Active; 'I' for Inactive)
REMARK    1  A    between atoms: C_1  and  C_2 
REMARK    2  A    between atoms: C_2  and  O_3 
REMARK    3  A    between atoms: O_3  and  C_4 
REMARK    4  A    between atoms: C_6  and  C_11 
REMARK    5  A    between atoms: C_9  and  O_10 
REMARK    6  A    between atoms: C_11  and  C_12 
ROOT
ATOM      1  C   LIG d   1       3.546  -0.200  -5.204  0.00  0.00     0.162 A 
ATOM      2  C   LIG d   1       4.894  -0.286  -4.895  0.00  0.00    -0.013 A 
ATOM      3  C   LIG d   1       5.291  -0.548  -3.597  0.00  0.00    -0.038 A 
ATOM      4  C   LIG d   1       4.344  -0.735  -2.606  0.00  0.00    -0.054 A 
ATOM      5  C   LIG d   1       2.998  -0.656  -2.908  0.00  0.00    -0.016 A 
ATOM      6  C   LIG d   1       2.594  -0.389  -4.206  0.00  0.00     0.159 A 
ATOM      7  H   LIG d   1       5.635  -0.145  -5.668  0.00  0.00     0.066 H 
ATOM      8  H   LIG d   1       4.658  -0.944  -1.594  0.00  0.00     0.062 H 
ATOM      9  H   LIG d   1       2.261  -0.803  -2.132  0.00  0.00     0.066 H 
ENDROOT
BRANCH   1  10
ATOM     10  O   LIG d   1       3.153   0.063  -6.479  0.00  0.00    -0.489 OA
BRANCH  10  11
ATOM     11  C   LIG d   1       3.610  -0.833  -7.495  0.00  0.00     0.087 C 
ATOM     12  H   LIG d   1       3.650  -1.847  -7.095  0.00  0.00     0.069 H 
ATOM     13  H   LIG d   1       4.605  -0.533  -7.823  0.00  0.00     0.069 H 
BRANCH  11  14
ATOM     14  C   LIG d   1       2.647  -0.791  -8.683  0.00  0.00    -0.031 C 
ATOM     15  H   LIG d   1       2.615  -1.771  -9.159  0.00  0.00     0.026 H 
ATOM     16  H   LIG d   1       1.650  -0.525  -8.332  0.00  0.00     0.026 H 
ATOM     17  H   LIG d   1       2.991  -0.048  -9.403  0.00  0.00     0.026 H 
ENDBRANCH  11  14
ENDBRANCH  10  11
ENDBRANCH   1  10
BRANCH   6  18
ATOM     18  O   LIG d   1       1.269  -0.311  -4.505  0.00  0.00    -0.503 OA
ATOM     19  H   LIG d   1       1.084  -0.184  -5.445  0.00  0.00     0.292 HD
ENDBRANCH   6  18
BRANCH   3  20
ATOM     20  C   LIG d   1       6.757  -0.636  -3.263  0.00  0.00     0.012 C 
ATOM     21  H   LIG d   1       6.880  -0.711  -2.182  0.00  0.00     0.037 H 
ATOM     22  H   LIG d   1       7.186  -1.519  -3.739  0.00  0.00     0.037 H 
BRANCH  20  23
ATOM     23  C   LIG d   1       7.463   0.597  -3.764  0.00  0.00     0.046 C 
ATOM     24  O   LIG d   1       7.168   1.683  -3.324  0.00  0.00    -0.549 OA
ATOM     25  O   LIG d   1       8.419   0.489  -4.700  0.00  0.00    -0.549 OA
ENDBRANCH  20  23
ENDBRANCH   3  20
TORSDOF 6
ENDMDL
MODEL 8
REMARK VINA RESULT:      -4.4      2.192      4.970
REMARK  6 active torsions:
REMARK  status: ('A' for Active; 'I' for Inactive)
REMARK    1  A    between atoms: C_1  and  C_2 
REMARK    2  A    between atoms: C_2  and  O_3 
REMARK    3  A    between atoms: O_3  and  C_4 
REMARK    4  A    between atoms: C_6  and  C_11 
REMARK    5  A    between atoms: C_9  and  O_10 
REMARK    6  A    between atoms: C_11  and  C_12 
ROOT
ATOM      1  C   LIG d   1       5.611  -3.253  -4.999  0.00  0.00     0.162 A 
ATOM      2  C   LIG d   1       4.461  -2.762  -4.402  0.00  0.00    -0.013 A 
ATOM      3  C   LIG d   1       4.554  -1.923  -3.308  0.00  0.00    -0.038 A 
ATOM      4  C   LIG d   1       5.793  -1.561  -2.814  0.00  0.00    -0.054 A 
ATOM      5  C   LIG d   1       6.945  -2.041  -3.408  0.00  0.00    -0.016 A 
ATOM      6  C   LIG d   1       6.859  -2.887  -4.502  0.00  0.00     0.159 A 
ATOM      7  H   LIG d   1       3.492  -3.040  -4.789  0.00  0.00     0.066 H 
ATOM      8  H   LIG d   1       5.862  -0.900  -1.962  0.00  0.00     0.062 H 
ATOM      9  H   LIG d   1       7.912  -1.756  -3.020  0.00  0.00     0.066 H 
ENDROOT
BRANCH   1  10
ATOM     10  O   LIG d   1       5.523  -4.083  -6.072  0.00  0.00    -0.489 OA
BRANCH  10  11
ATOM     11  C   LIG d   1       4.418  -4.989  -6.101  0.00  0.00     0.087 C 
ATOM     12  H   LIG d   1       4.079  -5.116  -7.130  0.00  0.00     0.069 H 
ATOM     13  H   LIG d   1       3.603  -4.588  -5.498  0.00  0.00     0.069 H 
BRANCH  11  14
ATOM     14  C   LIG d   1       4.853  -6.343  -5.536  0.00  0.00    -0.031 C 
ATOM     15  H   LIG d   1       4.077  -7.083  -5.730  0.00  0.00     0.026 H 
ATOM     16  H   LIG d   1       5.781  -6.655  -6.016  0.00  0.00     0.026 H 
ATOM     17  H   LIG d   1       5.010  -6.254  -4.461  0.00  0.00     0.026 H 
ENDBRANCH  11  14
ENDBRANCH  10  11
ENDBRANCH   1  10
BRANCH   6  18
ATOM     18  O   LIG d   1       7.992  -3.361  -5.088  0.00  0.00    -0.503 OA
ATOM     19  H   LIG d   1       7.872  -4.198  -5.556  0.00  0.00     0.292 HD
ENDBRANCH   6  18
BRANCH   3  20
ATOM     20  C   LIG d   1       3.301  -1.395  -2.657  0.00  0.00     0.012 C 
ATOM     21  H   LIG d   1       2.439  -1.951  -3.025  0.00  0.00     0.037 H 
ATOM     22  H   LIG d   1       3.376  -1.515  -1.576  0.00  0.00     0.037 H 
BRANCH  20  23
ATOM     23  C   LIG d   1       3.138   0.065  -2.991  0.00  0.00     0.046 C 
ATOM     24  O   LIG d   1       2.791   0.396  -4.100  0.00  0.00    -0.549 OA
ATOM     25  O   LIG d   1       3.378   0.997  -2.056  0.00  0.00    -0.549 OA
ENDBRANCH  20  23
ENDBRANCH   3  20
TORSDOF 6
ENDMDL
MODEL 9
REMARK VINA RESULT:      -4.4      2.217      4.980
REMARK  6 active torsions:
REMARK  status: ('A' for Active; 'I' for Inactive)
REMARK    1  A    between atoms: C_1  and  C_2 
REMARK    2  A    between atoms: C_2  and  O_3 
REMARK    3  A    between atoms: O_3  and  C_4 
REMARK    4  A    between atoms: C_6  and  C_11 
REMARK    5  A    between atoms: C_9  and  O_10 
REMARK    6  A    between atoms: C_11  and  C_12 
ROOT
ATOM      1  C   LIG d   1       3.372  -0.377  -4.481  0.00  0.00     0.162 A 
ATOM      2  C   LIG d   1       2.915   0.380  -5.547  0.00  0.00    -0.013 A 
ATOM      3  C   LIG d   1       3.344   0.097  -6.830  0.00  0.00    -0.038 A 
ATOM      4  C   LIG d   1       4.220  -0.949  -7.055  0.00  0.00    -0.054 A 
ATOM      5  C   LIG d   1       4.675  -1.712  -5.996  0.00  0.00    -0.016 A 
ATOM      6  C   LIG d   1       4.254  -1.430  -4.707  0.00  0.00     0.159 A 
ATOM      7  H   LIG d   1       2.227   1.195  -5.375  0.00  0.00     0.066 H 
ATOM      8  H   LIG d   1       4.548  -1.170  -8.059  0.00  0.00     0.062 H 
ATOM      9  H   LIG d   1       5.359  -2.529  -6.175  0.00  0.00     0.066 H 
ENDROOT
BRANCH   1  10
ATOM     10  O   LIG d   1       2.957  -0.097  -3.217  0.00  0.00    -0.489 OA
BRANCH  10  11
ATOM     11  C   LIG d   1       3.432   1.118  -2.632  0.00  0.00     0.087 C 
ATOM     12  H   LIG d   1       2.624   1.594  -2.076  0.00  0.00     0.069 H 
ATOM     13  H   LIG d   1       3.777   1.789  -3.419  0.00  0.00     0.069 H 
BRANCH  11  14
ATOM     14  C   LIG d   1       4.591   0.807  -1.682  0.00  0.00    -0.031 C 
ATOM     15  H   LIG d   1       4.202   0.347  -0.774  0.00  0.00     0.026 H 
ATOM     16  H   LIG d   1       5.285   0.122  -2.168  0.00  0.00     0.026 H 
ATOM     17  H   LIG d   1       5.109   1.732  -1.428  0.00  0.00     0.026 H 
ENDBRANCH  11  14
ENDBRANCH  10  11
ENDBRANCH   1  10
BRANCH   6  18
ATOM     18  O   LIG d   1       4.701  -2.181  -3.664  0.00  0.00    -0.503 OA
ATOM     19  H   LIG d   1       4.412  -3.103  -3.691  0.00  0.00     0.292 HD
ENDBRANCH   6  18
BRANCH   3  20
ATOM     20  C   LIG d   1       2.849   0.926  -7.988  0.00  0.00     0.012 C 
ATOM     21  H   LIG d   1       1.932   1.440  -7.701  0.00  0.00     0.037 H 
ATOM     22  H   LIG d   1       3.608   1.661  -8.258  0.00  0.00     0.037 H 
BRANCH  20  23
ATOM     23  C   LIG d   1       2.576   0.029  -9.167  0.00  0.00     0.046 C 
ATOM     24  O   LIG d   1       1.643  -0.738  -9.139  0.00  0.00    -0.549 OA
ATOM     25  O   LIG d   1       3.368   0.083 -10.249  0.00  0.00    -0.549 OA
ENDBRANCH  20  23
ENDBRANCH   3  20
TORSDOF 6
ENDMDL
MODEL 10
REMARK VINA RESULT:      -4.2      2.892      4.267
REMARK  6 active torsions:
REMARK  status: ('A' for Active; 'I' for Inactive)
REMARK    1  A    between atoms: C_1  and  C_2 
REMARK    2  A    between atoms: C_2  and  O_3 
REMARK    3  A    between atoms: O_3  and  C_4 
REMARK    4  A    between atoms: C_6  and  C_11 
REMARK    5  A    between atoms: C_9  and  O_10 
REMARK    6  A    between atoms: C_11  and  C_12 
ROOT
ATOM      1  C   LIG d   1       4.494  -1.215  -3.660  0.00  0.00     0.162 A 
ATOM      2  C   LIG d   1       5.815  -0.833  -3.830  0.00  0.00    -0.013 A 
ATOM      3  C   LIG d   1       6.240   0.404  -3.384  0.00  0.00    -0.038 A 
ATOM      4  C   LIG d   1       5.353   1.258  -2.756  0.00  0.00    -0.054 A 
ATOM      5  C   LIG d   1       4.035   0.882  -2.577  0.00  0.00    -0.016 A 
ATOM      6  C   LIG d   1       3.601  -0.354  -3.027  0.00  0.00     0.159 A 
ATOM      7  H   LIG d   1       6.511  -1.501  -4.316  0.00  0.00     0.066 H 
ATOM      8  H   LIG d   1       5.691   2.222  -2.404  0.00  0.00     0.062 H 
ATOM      9  H   LIG d   1       3.344   1.552  -2.086  0.00  0.00     0.066 H 
ENDROOT
BRANCH   1  10
ATOM     10  O   LIG d   1       4.071  -2.429  -4.103  0.00  0.00    -0.489 OA
BRANCH  10  11
ATOM     11  C   LIG d   1       5.080  -3.366  -4.485  0.00  0.00     0.087 C 
ATOM     12  H   LIG d   1       5.203  -4.110  -3.697  0.00  0.00     0.069 H 
ATOM     13  H   LIG d   1       6.024  -2.842  -4.639  0.00  0.00     0.069 H 
BRANCH  11  14
ATOM     14  C   LIG d   1       4.665  -4.062  -5.783  0.00  0.00    -0.031 C 
ATOM     15  H   LIG d   1       3.930  -4.835  -5.561  0.00  0.00     0.026 H 
ATOM     16  H   LIG d   1       4.230  -3.330  -6.463  0.00  0.00     0.026 H 
ATOM     17  H   LIG d   1       5.541  -4.516  -6.248  0.00  0.00     0.026 H 
ENDBRANCH  11  14
ENDBRANCH  10  11
ENDBRANCH   1  10
BRANCH   6  18
ATOM     18  O   LIG d   1       2.304  -0.726  -2.852  0.00  0.00    -0.503 OA
ATOM     19  H   LIG d   1       1.686  -0.295  -3.458  0.00  0.00     0.292 HD
ENDBRANCH   6  18
BRANCH   3  20
ATOM     20  C   LIG d   1       7.677   0.818  -3.575  0.00  0.00     0.012 C 
ATOM     21  H   LIG d   1       8.034   1.314  -2.673  0.00  0.00     0.037 H 
ATOM     22  H   LIG d   1       8.287  -0.064  -3.770  0.00  0.00     0.037 H 
BRANCH  20  23
ATOM     23  C   LIG d   1       7.776   1.765  -4.743  0.00  0.00     0.046 C 
ATOM     24  O   LIG d   1       7.353   1.435  -5.825  0.00  0.00    -0.549 OA
ATOM     25  O   LIG d   1       8.334   2.975  -4.581  0.00  0.00    -0.549 OA
ENDBRANCH  20  23
ENDBRANCH   3  20
TORSDOF 6
ENDMDL
