MODEL 1
REMARK VINA RESULT:      -4.2      0.000      0.000
REMARK  3 active torsions:
REMARK  status: ('A' for Active; 'I' for Inactive)
REMARK    1  A    between atoms: C_3  and  C_7 
REMARK    2  A    between atoms: C_7  and  C_9 
REMARK    3  A    between atoms: C_9  and  O_10 
ROOT
ATOM      1  C   LIG d   1       4.410   0.918  -1.669  0.00  0.00    -0.044 A 
ATOM      2  C   LIG d   1       4.509  -0.456  -1.896  0.00  0.00    -0.034 A 
ATOM      3  C   LIG d   1       4.300  -0.658  -3.249  0.00  0.00     0.085 A 
ATOM      4  N   LIG d   1       4.071   0.578  -3.818  0.00  0.00    -0.358 N 
ATOM      5  H   LIG d   1       3.889   0.742  -4.757  0.00  0.00     0.165 HD
ATOM      6  C   LIG d   1       4.139   1.517  -2.854  0.00  0.00     0.002 A 
ATOM      7  H   LIG d   1       4.523   1.413  -0.716  0.00  0.00     0.063 H 
ATOM      8  H   LIG d   1       4.713  -1.218  -1.157  0.00  0.00     0.064 H 
ATOM      9  H   LIG d   1       4.001   2.579  -3.002  0.00  0.00     0.081 H 
ENDROOT
BRANCH   3  10
ATOM     10  C   LIG d   1       4.314  -1.900  -3.922  0.00  0.00     0.204 C 
ATOM     11  O   LIG d   1       4.013  -2.915  -3.328  0.00  0.00    -0.288 OA
BRANCH  10  12
ATOM     12  C   LIG d   1       4.700  -1.965  -5.377  0.00  0.00     0.108 C 
ATOM     13  H   LIG d   1       4.765  -2.922  -5.662  0.00  0.00     0.064 H 
ATOM     14  H   LIG d   1       5.664  -1.477  -5.520  0.00  0.00     0.064 H 
BRANCH  12  15
ATOM     15  O   LIG d   1       3.708  -1.302  -6.163  0.00  0.00    -0.387 OA
ATOM     16  H   LIG d   1       4.062  -0.845  -6.939  0.00  0.00     0.210 HD
ENDBRANCH  12  15
ENDBRANCH  10  12
ENDBRANCH   3  10
TORSDOF 3
ENDMDL
MODEL 2
REMARK VINA RESULT:      -4.1      1.681      2.007
REMARK  3 active torsions:
REMARK  status: ('A' for Active; 'I' for Inactive)
REMARK    1  A    between atoms: C_3  and  C_7 
REMARK    2  A    between atoms: C_7  and  C_9 
REMARK    3  A    between atoms: C_9  and  O_10 
ROOT
ATOM      1  C   LIG d   1       4.458   0.803  -1.707  0.00  0.00    -0.044 A 
ATOM      2  C   LIG d   1       4.339  -0.576  -1.883  0.00  0.00    -0.034 A 
ATOM      3  C   LIG d   1       5.080  -0.905  -3.006  0.00  0.00     0.085 A 
ATOM      4  N   LIG d   1       5.625   0.264  -3.495  0.00  0.00    -0.358 N 
ATOM      5  H   LIG d   1       6.190   0.338  -4.281  0.00  0.00     0.165 HD
ATOM      6  C   LIG d   1       5.242   1.285  -2.703  0.00  0.00     0.002 A 
ATOM      7  H   LIG d   1       4.001   1.385  -0.919  0.00  0.00     0.063 H 
ATOM      8  H   LIG d   1       3.777  -1.259  -1.262  0.00  0.00     0.064 H 
ATOM      9  H   LIG d   1       5.515   2.322  -2.840  0.00  0.00     0.081 H 
ENDROOT
BRANCH   3  10
ATOM     10  C   LIG d   1       5.243  -2.198  -3.552  0.00  0.00     0.204 C 
ATOM     11  O   LIG d   1       4.291  -2.949  -3.628  0.00  0.00    -0.288 OA
BRANCH  10  12
ATOM     12  C   LIG d   1       6.596  -2.645  -4.040  0.00  0.00     0.108 C 
ATOM     13  H   LIG d   1       6.719  -2.357  -4.990  0.00  0.00     0.064 H 
ATOM     14  H   LIG d   1       6.664  -3.732  -3.979  0.00  0.00     0.064 H 
BRANCH  12  15
ATOM     15  O   LIG d   1       7.614  -2.058  -3.228  0.00  0.00    -0.387 OA
ATOM     16  H   LIG d   1       8.124  -1.368  -3.675  0.00  0.00     0.210 HD
ENDBRANCH  12  15
ENDBRANCH  10  12
ENDBRANCH   3  10
TORSDOF 3
ENDMDL
MODEL 3
REMARK VINA RESULT:      -4.1      2.397      2.853
REMARK  3 active torsions:
REMARK  status: ('A' for Active; 'I' for Inactive)
REMARK    1  A    between atoms: C_3  and  C_7 
REMARK    2  A    between atoms: C_7  and  C_9 
REMARK    3  A    between atoms: C_9  and  O_10 
ROOT
ATOM      1  C   LIG d   1       4.254  -0.916  -1.937  0.00  0.00    -0.044 A 
ATOM      2  C   LIG d   1       4.024   0.199  -2.744  0.00  0.00    -0.034 A 
ATOM      3  C   LIG d   1       3.360  -0.250  -3.873  0.00  0.00     0.085 A 
ATOM      4  N   LIG d   1       3.206  -1.615  -3.744  0.00  0.00    -0.358 N 
ATOM      5  H   LIG d   1       2.778  -2.199  -4.390  0.00  0.00     0.165 HD
ATOM      6  C   LIG d   1       3.750  -2.003  -2.573  0.00  0.00     0.002 A 
ATOM      7  H   LIG d   1       4.752  -0.914  -0.978  0.00  0.00     0.063 H 
ATOM      8  H   LIG d   1       4.307   1.219  -2.529  0.00  0.00     0.064 H 
ATOM      9  H   LIG d   1       3.780  -3.017  -2.200  0.00  0.00     0.081 H 
ENDROOT
BRANCH   3  10
ATOM     10  C   LIG d   1       2.926   0.542  -4.960  0.00  0.00     0.204 C 
ATOM     11  O   LIG d   1       2.514   1.668  -4.763  0.00  0.00    -0.288 OA
BRANCH  10  12
ATOM     12  C   LIG d   1       2.976  -0.008  -6.361  0.00  0.00     0.108 C 
ATOM     13  H   LIG d   1       2.073  -0.355  -6.615  0.00  0.00     0.064 H 
ATOM     14  H   LIG d   1       3.702  -0.820  -6.408  0.00  0.00     0.064 H 
BRANCH  12  15
ATOM     15  O   LIG d   1       3.360   1.028  -7.267  0.00  0.00    -0.387 OA
ATOM     16  H   LIG d   1       2.663   1.674  -7.444  0.00  0.00     0.210 HD
ENDBRANCH  12  15
ENDBRANCH  10  12
ENDBRANCH   3  10
TORSDOF 3
ENDMDL
MODEL 4
REMARK VINA RESULT:      -3.9      2.233      3.420
REMARK  3 active torsions:
REMARK  status: ('A' for Active; 'I' for Inactive)
REMARK    1  A    between atoms: C_3  and  C_7 
REMARK    2  A    between atoms: C_7  and  C_9 
REMARK    3  A    between atoms: C_9  and  O_10 
ROOT
ATOM      1  C   LIG d   1       2.753   0.310  -6.159  0.00  0.00    -0.044 A 
ATOM      2  C   LIG d   1       2.499   0.547  -4.807  0.00  0.00    -0.034 A 
ATOM      3  C   LIG d   1       3.538  -0.027  -4.094  0.00  0.00     0.085 A 
ATOM      4  N   LIG d   1       4.393  -0.605  -5.009  0.00  0.00    -0.358 N 
ATOM      5  H   LIG d   1       5.209  -1.085  -4.795  0.00  0.00     0.165 HD
ATOM      6  C   LIG d   1       3.908  -0.394  -6.249  0.00  0.00     0.002 A 
ATOM      7  H   LIG d   1       2.135   0.628  -6.986  0.00  0.00     0.063 H 
ATOM      8  H   LIG d   1       1.654   1.079  -4.394  0.00  0.00     0.064 H 
ATOM      9  H   LIG d   1       4.365  -0.733  -7.168  0.00  0.00     0.081 H 
ENDROOT
BRANCH   3  10
ATOM     10  C   LIG d   1       3.691  -0.026  -2.690  0.00  0.00     0.204 C 
ATOM     11  O   LIG d   1       3.384   0.958  -2.047  0.00  0.00    -0.288 OA
BRANCH  10  12
ATOM     12  C   LIG d   1       4.232  -1.245  -1.989  0.00  0.00     0.108 C 
ATOM     13  H   LIG d   1       3.962  -1.224  -1.027  0.00  0.00     0.064 H 
ATOM     14  H   LIG d   1       5.320  -1.253  -2.060  0.00  0.00     0.064 H 
BRANCH  12  15
ATOM     15  O   LIG d   1       3.707  -2.422  -2.606  0.00  0.00    -0.387 OA
ATOM     16  H   LIG d   1       3.534  -2.326  -3.552  0.00  0.00     0.210 HD
ENDBRANCH  12  15
ENDBRANCH  10  12
ENDBRANCH   3  10
TORSDOF 3
ENDMDL
MODEL 5
REMARK VINA RESULT:      -3.9      2.634      2.848
REMARK  3 active torsions:
REMARK  status: ('A' for Active; 'I' for Inactive)
REMARK    1  A    between atoms: C_3  and  C_7 
REMARK    2  A    between atoms: C_7  and  C_9 
REMARK    3  A    between atoms: C_9  and  O_10 
ROOT
ATOM      1  C   LIG d   1       3.546   1.153  -2.296  0.00  0.00    -0.044 A 
ATOM      2  C   LIG d   1       4.880   0.832  -2.039  0.00  0.00    -0.034 A 
ATOM      3  C   LIG d   1       5.430   0.402  -3.234  0.00  0.00     0.085 A 
ATOM      4  N   LIG d   1       4.435   0.458  -4.188  0.00  0.00    -0.358 N 
ATOM      5  H   LIG d   1       4.533   0.210  -5.121  0.00  0.00     0.165 HD
ATOM      6  C   LIG d   1       3.306   0.911  -3.609  0.00  0.00     0.002 A 
ATOM      7  H   LIG d   1       2.831   1.522  -1.576  0.00  0.00     0.063 H 
ATOM      8  H   LIG d   1       5.388   0.907  -1.088  0.00  0.00     0.064 H 
ATOM      9  H   LIG d   1       2.359   1.059  -4.110  0.00  0.00     0.081 H 
ENDROOT
BRANCH   3  10
ATOM     10  C   LIG d   1       6.763  -0.021  -3.438  0.00  0.00     0.204 C 
ATOM     11  O   LIG d   1       7.072  -1.176  -3.227  0.00  0.00    -0.288 OA
BRANCH  10  12
ATOM     12  C   LIG d   1       7.800   0.961  -3.918  0.00  0.00     0.108 C 
ATOM     13  H   LIG d   1       8.608   0.463  -4.236  0.00  0.00     0.064 H 
ATOM     14  H   LIG d   1       8.081   1.624  -3.099  0.00  0.00     0.064 H 
BRANCH  12  15
ATOM     15  O   LIG d   1       7.264   1.734  -4.993  0.00  0.00    -0.387 OA
ATOM     16  H   LIG d   1       7.579   2.647  -5.017  0.00  0.00     0.210 HD
ENDBRANCH  12  15
ENDBRANCH  10  12
ENDBRANCH   3  10
TORSDOF 3
ENDMDL
MODEL 6
REMARK VINA RESULT:      -3.9      1.178      2.100
REMARK  3 active torsions:
REMARK  status: ('A' for Active; 'I' for Inactive)
REMARK    1  A    between atoms: C_3  and  C_7 
REMARK    2  A    between atoms: C_7  and  C_9 
REMARK    3  A    between atoms: C_9  and  O_10 
ROOT
ATOM      1  C   LIG d   1       3.609   1.238  -2.214  0.00  0.00    -0.044 A 
ATOM      2  C   LIG d   1       3.454   0.913  -3.562  0.00  0.00    -0.034 A 
ATOM      3  C   LIG d   1       4.452   0.007  -3.877  0.00  0.00     0.085 A 
ATOM      4  N   LIG d   1       5.196  -0.197  -2.734  0.00  0.00    -0.358 N 
ATOM      5  H   LIG d   1       5.967  -0.783  -2.659  0.00  0.00     0.165 HD
ATOM      6  C   LIG d   1       4.678   0.551  -1.740  0.00  0.00     0.002 A 
ATOM      7  H   LIG d   1       2.991   1.921  -1.650  0.00  0.00     0.063 H 
ATOM      8  H   LIG d   1       2.697   1.294  -4.233  0.00  0.00     0.064 H 
ATOM      9  H   LIG d   1       5.053   0.597  -0.728  0.00  0.00     0.081 H 
ENDROOT
BRANCH   3  10
ATOM     10  C   LIG d   1       4.671  -0.593  -5.138  0.00  0.00     0.204 C 
ATOM     11  O   LIG d   1       4.895   0.101  -6.109  0.00  0.00    -0.288 OA
BRANCH  10  12
ATOM     12  C   LIG d   1       4.628  -2.093  -5.276  0.00  0.00     0.108 C 
ATOM     13  H   LIG d   1       5.556  -2.459  -5.220  0.00  0.00     0.064 H 
ATOM     14  H   LIG d   1       4.192  -2.357  -6.240  0.00  0.00     0.064 H 
BRANCH  12  15
ATOM     15  O   LIG d   1       3.833  -2.646  -4.226  0.00  0.00    -0.387 OA
ATOM     16  H   LIG d   1       3.168  -3.280  -4.528  0.00  0.00     0.210 HD
ENDBRANCH  12  15
ENDBRANCH  10  12
ENDBRANCH   3  10
TORSDOF 3
ENDMDL
MODEL 7
REMARK VINA RESULT:      -3.8      2.196      2.379
REMARK  3 active torsions:
REMARK  status: ('A' for Active; 'I' for Inactive)
REMARK    1  A    between atoms: C_3  and  C_7 
REMARK    2  A    between atoms: C_7  and  C_9 
REMARK    3  A    between atoms: C_9  and  O_10 
ROOT
ATOM      1  C   LIG d   1       3.022  -1.235  -2.676  0.00  0.00    -0.044 A 
ATOM      2  C   LIG d   1       4.000  -2.229  -2.739  0.00  0.00    -0.034 A 
ATOM      3  C   LIG d   1       4.475  -2.246  -4.039  0.00  0.00     0.085 A 
ATOM      4  N   LIG d   1       3.782  -1.283  -4.742  0.00  0.00    -0.358 N 
ATOM      5  H   LIG d   1       3.903  -1.073  -5.682  0.00  0.00     0.165 HD
ATOM      6  C   LIG d   1       2.910  -0.681  -3.909  0.00  0.00     0.002 A 
ATOM      7  H   LIG d   1       2.451  -0.960  -1.801  0.00  0.00     0.063 H 
ATOM      8  H   LIG d   1       4.327  -2.862  -1.927  0.00  0.00     0.064 H 
ATOM      9  H   LIG d   1       2.230   0.114  -4.179  0.00  0.00     0.081 H 
ENDROOT
BRANCH   3  10
ATOM     10  C   LIG d   1       5.479  -3.098  -4.552  0.00  0.00     0.204 C 
ATOM     11  O   LIG d   1       6.618  -3.007  -4.143  0.00  0.00    -0.288 OA
BRANCH  10  12
ATOM     12  C   LIG d   1       5.135  -4.119  -5.605  0.00  0.00     0.108 C 
ATOM     13  H   LIG d   1       5.511  -5.008  -5.342  0.00  0.00     0.064 H 
ATOM     14  H   LIG d   1       5.561  -3.814  -6.561  0.00  0.00     0.064 H 
BRANCH  12  15
ATOM     15  O   LIG d   1       3.715  -4.220  -5.726  0.00  0.00    -0.387 OA
ATOM     16  H   LIG d   1       3.420  -4.711  -6.505  0.00  0.00     0.210 HD
ENDBRANCH  12  15
ENDBRANCH  10  12
ENDBRANCH   3  10
TORSDOF 3
ENDMDL
MODEL 8
REMARK VINA RESULT:      -3.7      2.445      2.806
REMARK  3 active torsions:
REMARK  status: ('A' for Active; 'I' for Inactive)
REMARK    1  A    between atoms: C_3  and  C_7 
REMARK    2  A    between atoms: C_7  and  C_9 
REMARK    3  A    between atoms: C_9  and  O_10 
ROOT
ATOM      1  C   LIG d   1       3.688  -1.923  -2.409  0.00  0.00    -0.044 A 
ATOM      2  C   LIG d   1       4.999  -1.448  -2.489  0.00  0.00    -0.034 A 
ATOM      3  C   LIG d   1       4.967  -0.305  -3.269  0.00  0.00     0.085 A 
ATOM      4  N   LIG d   1       3.658  -0.108  -3.656  0.00  0.00    -0.358 N 
ATOM      5  H   LIG d   1       3.337   0.618  -4.214  0.00  0.00     0.165 HD
ATOM      6  C   LIG d   1       2.898  -1.090  -3.130  0.00  0.00     0.002 A 
ATOM      7  H   LIG d   1       3.363  -2.802  -1.872  0.00  0.00     0.063 H 
ATOM      8  H   LIG d   1       5.872  -1.888  -2.028  0.00  0.00     0.064 H 
ATOM      9  H   LIG d   1       1.831  -1.197  -3.263  0.00  0.00     0.081 H 
ENDROOT
BRANCH   3  10
ATOM     10  C   LIG d   1       6.072   0.506  -3.612  0.00  0.00     0.204 C 
ATOM     11  O   LIG d   1       6.405   1.417  -2.881  0.00  0.00    -0.288 OA
BRANCH  10  12
ATOM     12  C   LIG d   1       6.839   0.238  -4.881  0.00  0.00     0.108 C 
ATOM     13  H   LIG d   1       7.327  -0.630  -4.798  0.00  0.00     0.064 H 
ATOM     14  H   LIG d   1       7.556   1.043  -5.049  0.00  0.00     0.064 H 
BRANCH  12  15
ATOM     15  O   LIG d   1       5.931   0.172  -5.981  0.00  0.00    -0.387 OA
ATOM     16  H   LIG d   1       6.285  -0.285  -6.757  0.00  0.00     0.210 HD
ENDBRANCH  12  15
ENDBRANCH  10  12
ENDBRANCH   3  10
TORSDOF 3
ENDMDL
MODEL 9
REMARK VINA RESULT:      -3.7      8.859      9.872
REMARK  3 active torsions:
REMARK  status: ('A' for Active; 'I' for Inactive)
REMARK    1  A    between atoms: C_3  and  C_7 
REMARK    2  A    between atoms: C_7  and  C_9 
REMARK    3  A    between atoms: C_9  and  O_10 
ROOT
ATOM      1  C   LIG d   1      10.158   4.412  -3.351  0.00  0.00    -0.044 A 
ATOM      2  C   LIG d   1       9.880   5.582  -2.642  0.00  0.00    -0.034 A 
ATOM      3  C   LIG d   1      10.472   5.451  -1.398  0.00  0.00     0.085 A 
ATOM      4  N   LIG d   1      11.087   4.217  -1.364  0.00  0.00    -0.358 N 
ATOM      5  H   LIG d   1      11.580   3.852  -0.611  0.00  0.00     0.165 HD
ATOM      6  C   LIG d   1      10.890   3.602  -2.547  0.00  0.00     0.002 A 
ATOM      7  H   LIG d   1       9.842   4.190  -4.360  0.00  0.00     0.063 H 
ATOM      8  H   LIG d   1       9.311   6.430  -2.997  0.00  0.00     0.064 H 
ATOM      9  H   LIG d   1      11.255   2.620  -2.812  0.00  0.00     0.081 H 
ENDROOT
BRANCH   3  10
ATOM     10  C   LIG d   1      10.447   6.404  -0.354  0.00  0.00     0.204 C 
ATOM     11  O   LIG d   1       9.795   7.421  -0.477  0.00  0.00    -0.288 OA
BRANCH  10  12
ATOM     12  C   LIG d   1      11.227   6.157   0.910  0.00  0.00     0.108 C 
ATOM     13  H   LIG d   1      11.259   6.997   1.452  0.00  0.00     0.064 H 
ATOM     14  H   LIG d   1      12.243   5.850   0.658  0.00  0.00     0.064 H 
BRANCH  12  15
ATOM     15  O   LIG d   1      10.593   5.126   1.669  0.00  0.00    -0.387 OA
ATOM     16  H   LIG d   1      10.673   5.235   2.626  0.00  0.00     0.210 HD
ENDBRANCH  12  15
ENDBRANCH  10  12
ENDBRANCH   3  10
TORSDOF 3
ENDMDL
