MODEL 1
REMARK VINA RESULT:      -7.5      0.000      0.000
REMARK  5 active torsions:
REMARK  status: ('A' for Active; 'I' for Inactive)
REMARK    1  A    between atoms: C_4  and  C_7 
REMARK    2  A    between atoms: C_7  and  C_8 
REMARK    3  A    between atoms: C_10  and  C_13 
REMARK    4  A    between atoms: C_23  and  C_24 
REMARK    5  A    between atoms: C_23  and  N_46 
ROOT
ATOM      1  C   LIG d   1       3.232  -0.827  -9.549  0.00  0.00     0.066 C 
ATOM      2  H   LIG d   1       3.861  -0.222 -10.204  0.00  0.00     0.096 H 
ATOM      3  C   LIG d   1       1.768  -0.714  -9.998  0.00  0.00     0.043 C 
ATOM      4  C   LIG d   1       1.624  -1.460 -11.299  0.00  0.00     0.073 A 
ATOM      5  C   LIG d   1       2.541  -2.341 -11.759  0.00  0.00     0.084 A 
ATOM      6  N   LIG d   1       2.107  -2.814 -12.929  0.00  0.00    -0.344 N 
ATOM      7  C   LIG d   1       0.955  -2.261 -13.212  0.00  0.00     0.094 A 
ATOM      8  N   LIG d   1       0.622  -1.408 -12.215  0.00  0.00    -0.240 NA
ATOM      9  H   LIG d   1       2.585  -3.483 -13.497  0.00  0.00     0.167 HD
ATOM     10  C   LIG d   1       3.809  -2.681 -11.015  0.00  0.00     0.012 C 
ATOM     11  H   LIG d   1       1.116  -1.156  -9.245  0.00  0.00     0.039 H 
ATOM     12  H   LIG d   1       1.508   0.335 -10.144  0.00  0.00     0.039 H 
ATOM     13  H   LIG d   1       0.367  -2.453 -14.098  0.00  0.00     0.103 H 
ATOM     14  H   LIG d   1       4.654  -2.171 -11.478  0.00  0.00     0.088 H 
ATOM     15  H   LIG d   1       3.971  -3.758 -11.039  0.00  0.00     0.088 H 
ATOM     16  N   LIG d   1       3.639  -2.250  -9.606  0.00  0.00     0.252 N 
ATOM     17  H   LIG d   1       2.908  -2.822  -9.169  0.00  0.00     0.205 HD
ENDROOT
BRANCH   1  18
ATOM     18  C   LIG d   1       3.363  -0.335  -8.132  0.00  0.00     0.276 A 
ATOM     19  N   LIG d   1       2.394  -0.214  -7.255  0.00  0.00    -0.191 NA
ATOM     20  C   LIG d   1       2.975   0.257  -6.137  0.00  0.00     0.176 A 
ATOM     21  N   LIG d   1       4.242   0.403  -6.389  0.00  0.00    -0.061 NA
ATOM     22  O   LIG d   1       4.485   0.069  -7.528  0.00  0.00    -0.332 OA
BRANCH  20  23
ATOM     23  C   LIG d   1       2.283   0.564  -4.833  0.00  0.00     0.036 C 
ATOM     24  H   LIG d   1       2.185   1.644  -4.721  0.00  0.00     0.039 H 
ATOM     25  H   LIG d   1       1.294   0.106  -4.831  0.00  0.00     0.039 H 
BRANCH  23  26
ATOM     26  C   LIG d   1       3.097   0.012  -3.692  0.00  0.00    -0.040 A 
ATOM     27  C   LIG d   1       3.201  -1.355  -3.515  0.00  0.00    -0.058 A 
ATOM     28  C   LIG d   1       3.948  -1.860  -2.467  0.00  0.00    -0.061 A 
ATOM     29  H   LIG d   1       2.700  -2.028  -4.195  0.00  0.00     0.062 H 
ATOM     30  C   LIG d   1       4.591  -1.000  -1.596  0.00  0.00    -0.062 A 
ATOM     31  H   LIG d   1       4.030  -2.928  -2.328  0.00  0.00     0.062 H 
ATOM     32  C   LIG d   1       4.486   0.367  -1.774  0.00  0.00    -0.061 A 
ATOM     33  H   LIG d   1       5.174  -1.395  -0.777  0.00  0.00     0.062 H 
ATOM     34  C   LIG d   1       3.743   0.873  -2.824  0.00  0.00    -0.058 A 
ATOM     35  H   LIG d   1       4.987   1.039  -1.094  0.00  0.00     0.062 H 
ATOM     36  H   LIG d   1       3.665   1.941  -2.964  0.00  0.00     0.062 H 
ENDBRANCH  23  26
ENDBRANCH  20  23
ENDBRANCH   1  18
BRANCH  16  37
ATOM     37  C   LIG d   1       4.904  -2.441  -8.866  0.00  0.00     0.002 C 
ATOM     38  H   LIG d   1       5.695  -2.776  -9.537  0.00  0.00     0.087 H 
ATOM     39  H   LIG d   1       5.193  -1.496  -8.406  0.00  0.00     0.087 H 
BRANCH  37  40
ATOM     40  C   LIG d   1       4.684  -3.476  -7.792  0.00  0.00     0.034 A 
ATOM     41  S   LIG d   1       4.161  -5.175  -7.958  0.00  0.00    -0.096 SA
ATOM     42  C   LIG d   1       4.177  -5.613  -6.227  0.00  0.00    -0.024 A 
ATOM     43  C   LIG d   1       4.575  -4.454  -5.648  0.00  0.00    -0.054 A 
ATOM     44  H   LIG d   1       3.934  -6.557  -5.763  0.00  0.00     0.069 H 
ATOM     45  C   LIG d   1       4.841  -3.360  -6.451  0.00  0.00    -0.046 A 
ATOM     46  H   LIG d   1       4.688  -4.386  -4.576  0.00  0.00     0.062 H 
ATOM     47  H   LIG d   1       5.164  -2.426  -6.016  0.00  0.00     0.063 H 
ENDBRANCH  37  40
ENDBRANCH  16  37
TORSDOF 5
ENDMDL
MODEL 2
REMARK VINA RESULT:      -7.3      5.088      7.290
REMARK  5 active torsions:
REMARK  status: ('A' for Active; 'I' for Inactive)
REMARK    1  A    between atoms: C_4  and  C_7 
REMARK    2  A    between atoms: C_7  and  C_8 
REMARK    3  A    between atoms: C_10  and  C_13 
REMARK    4  A    between atoms: C_23  and  C_24 
REMARK    5  A    between atoms: C_23  and  N_46 
ROOT
ATOM      1  C   LIG d   1       7.867  -3.617  -5.483  0.00  0.00     0.066 C 
ATOM      2  H   LIG d   1       7.852  -4.067  -6.477  0.00  0.00     0.096 H 
ATOM      3  C   LIG d   1       8.665  -4.517  -4.528  0.00  0.00     0.043 C 
ATOM      4  C   LIG d   1      10.120  -4.418  -4.907  0.00  0.00     0.073 A 
ATOM      5  C   LIG d   1      10.619  -3.445  -5.701  0.00  0.00     0.084 A 
ATOM      6  N   LIG d   1      11.930  -3.655  -5.835  0.00  0.00    -0.344 N 
ATOM      7  C   LIG d   1      12.264  -4.720  -5.153  0.00  0.00     0.094 A 
ATOM      8  N   LIG d   1      11.156  -5.224  -4.559  0.00  0.00    -0.240 NA
ATOM      9  H   LIG d   1      12.557  -3.089  -6.370  0.00  0.00     0.167 HD
ATOM     10  C   LIG d   1       9.775  -2.343  -6.291  0.00  0.00     0.012 C 
ATOM     11  H   LIG d   1       8.527  -4.178  -3.501  0.00  0.00     0.039 H 
ATOM     12  H   LIG d   1       8.328  -5.549  -4.625  0.00  0.00     0.039 H 
ATOM     13  H   LIG d   1      13.260  -5.131  -5.078  0.00  0.00     0.103 H 
ATOM     14  H   LIG d   1       9.583  -2.550  -7.344  0.00  0.00     0.088 H 
ATOM     15  H   LIG d   1      10.293  -1.389  -6.193  0.00  0.00     0.088 H 
ATOM     16  N   LIG d   1       8.506  -2.282  -5.526  0.00  0.00     0.252 N 
ATOM     17  H   LIG d   1       8.711  -1.981  -4.566  0.00  0.00     0.205 HD
ENDROOT
BRANCH   1  18
ATOM     18  C   LIG d   1       6.457  -3.472  -4.975  0.00  0.00     0.276 A 
ATOM     19  N   LIG d   1       6.087  -2.919  -3.845  0.00  0.00    -0.191 NA
ATOM     20  C   LIG d   1       4.745  -3.014  -3.817  0.00  0.00     0.176 A 
ATOM     21  N   LIG d   1       4.375  -3.616  -4.908  0.00  0.00    -0.061 NA
ATOM     22  O   LIG d   1       5.343  -3.887  -5.587  0.00  0.00    -0.332 OA
BRANCH  20  23
ATOM     23  C   LIG d   1       3.838  -2.519  -2.720  0.00  0.00     0.036 C 
ATOM     24  H   LIG d   1       2.829  -2.898  -2.885  0.00  0.00     0.039 H 
ATOM     25  H   LIG d   1       4.206  -2.872  -1.757  0.00  0.00     0.039 H 
BRANCH  23  26
ATOM     26  C   LIG d   1       3.815  -1.012  -2.729  0.00  0.00    -0.040 A 
ATOM     27  C   LIG d   1       4.477  -0.306  -1.743  0.00  0.00    -0.058 A 
ATOM     28  C   LIG d   1       4.456   1.077  -1.752  0.00  0.00    -0.061 A 
ATOM     29  H   LIG d   1       5.010  -0.833  -0.965  0.00  0.00     0.062 H 
ATOM     30  C   LIG d   1       3.775   1.753  -2.747  0.00  0.00    -0.062 A 
ATOM     31  H   LIG d   1       4.973   1.629  -0.981  0.00  0.00     0.062 H 
ATOM     32  C   LIG d   1       3.113   1.044  -3.734  0.00  0.00    -0.061 A 
ATOM     33  H   LIG d   1       3.758   2.832  -2.754  0.00  0.00     0.062 H 
ATOM     34  C   LIG d   1       3.137  -0.337  -3.728  0.00  0.00    -0.058 A 
ATOM     35  H   LIG d   1       2.581   1.572  -4.511  0.00  0.00     0.062 H 
ATOM     36  H   LIG d   1       2.624  -0.889  -4.500  0.00  0.00     0.062 H 
ENDBRANCH  23  26
ENDBRANCH  20  23
ENDBRANCH   1  18
BRANCH  16  37
ATOM     37  C   LIG d   1       7.589  -1.305  -6.148  0.00  0.00     0.002 C 
ATOM     38  H   LIG d   1       7.819  -1.182  -7.207  0.00  0.00     0.087 H 
ATOM     39  H   LIG d   1       6.564  -1.661  -6.039  0.00  0.00     0.087 H 
BRANCH  37  40
ATOM     40  C   LIG d   1       7.739   0.018  -5.444  0.00  0.00     0.034 A 
ATOM     41  S   LIG d   1       8.516   1.518  -6.021  0.00  0.00    -0.096 SA
ATOM     42  C   LIG d   1       8.229   2.524  -4.575  0.00  0.00    -0.024 A 
ATOM     43  C   LIG d   1       7.570   1.663  -3.761  0.00  0.00    -0.054 A 
ATOM     44  H   LIG d   1       8.507   3.551  -4.395  0.00  0.00     0.069 H 
ATOM     45  C   LIG d   1       7.314   0.381  -4.208  0.00  0.00    -0.046 A 
ATOM     46  H   LIG d   1       7.245   1.976  -2.780  0.00  0.00     0.062 H 
ATOM     47  H   LIG d   1       6.786  -0.323  -3.583  0.00  0.00     0.063 H 
ENDBRANCH  37  40
ENDBRANCH  16  37
TORSDOF 5
ENDMDL
MODEL 3
REMARK VINA RESULT:      -7.3      2.674      3.293
REMARK  5 active torsions:
REMARK  status: ('A' for Active; 'I' for Inactive)
REMARK    1  A    between atoms: C_4  and  C_7 
REMARK    2  A    between atoms: C_7  and  C_8 
REMARK    3  A    between atoms: C_10  and  C_13 
REMARK    4  A    between atoms: C_23  and  C_24 
REMARK    5  A    between atoms: C_23  and  N_46 
ROOT
ATOM      1  C   LIG d   1       4.890  -0.451  -8.929  0.00  0.00     0.066 C 
ATOM      2  H   LIG d   1       5.166   0.344  -9.622  0.00  0.00     0.096 H 
ATOM      3  C   LIG d   1       4.149  -1.559  -9.692  0.00  0.00     0.043 C 
ATOM      4  C   LIG d   1       5.153  -2.275 -10.559  0.00  0.00     0.073 A 
ATOM      5  C   LIG d   1       6.490  -2.166 -10.396  0.00  0.00     0.084 A 
ATOM      6  N   LIG d   1       7.081  -2.920 -11.324  0.00  0.00    -0.344 N 
ATOM      7  C   LIG d   1       6.161  -3.494 -12.057  0.00  0.00     0.094 A 
ATOM      8  N   LIG d   1       4.942  -3.113 -11.606  0.00  0.00    -0.240 NA
ATOM      9  H   LIG d   1       8.067  -3.029 -11.442  0.00  0.00     0.167 HD
ATOM     10  C   LIG d   1       7.127  -1.319  -9.321  0.00  0.00     0.012 C 
ATOM     11  H   LIG d   1       3.705  -2.260  -8.985  0.00  0.00     0.039 H 
ATOM     12  H   LIG d   1       3.370  -1.120 -10.315  0.00  0.00     0.039 H 
ATOM     13  H   LIG d   1       6.344  -4.162 -12.885  0.00  0.00     0.103 H 
ATOM     14  H   LIG d   1       7.508  -0.396  -9.758  0.00  0.00     0.088 H 
ATOM     15  H   LIG d   1       7.945  -1.870  -8.856  0.00  0.00     0.088 H 
ATOM     16  N   LIG d   1       6.095  -1.032  -8.296  0.00  0.00     0.252 N 
ATOM     17  H   LIG d   1       5.836  -1.910  -7.831  0.00  0.00     0.205 HD
ENDROOT
BRANCH   1  18
ATOM     18  C   LIG d   1       3.991   0.107  -7.857  0.00  0.00     0.276 A 
ATOM     19  N   LIG d   1       3.467  -0.556  -6.854  0.00  0.00    -0.191 NA
ATOM     20  C   LIG d   1       2.746   0.344  -6.162  0.00  0.00     0.176 A 
ATOM     21  N   LIG d   1       2.860   1.486  -6.772  0.00  0.00    -0.061 NA
ATOM     22  O   LIG d   1       3.571   1.371  -7.748  0.00  0.00    -0.332 OA
BRANCH  20  23
ATOM     23  C   LIG d   1       1.947   0.077  -4.912  0.00  0.00     0.036 C 
ATOM     24  H   LIG d   1       1.258   0.903  -4.738  0.00  0.00     0.039 H 
ATOM     25  H   LIG d   1       1.383  -0.848  -5.032  0.00  0.00     0.039 H 
BRANCH  23  26
ATOM     26  C   LIG d   1       2.882  -0.053  -3.737  0.00  0.00    -0.040 A 
ATOM     27  C   LIG d   1       3.452   1.076  -3.180  0.00  0.00    -0.058 A 
ATOM     28  C   LIG d   1       4.309   0.956  -2.102  0.00  0.00    -0.061 A 
ATOM     29  H   LIG d   1       3.229   2.051  -3.586  0.00  0.00     0.062 H 
ATOM     30  C   LIG d   1       4.596  -0.292  -1.581  0.00  0.00    -0.062 A 
ATOM     31  H   LIG d   1       4.756   1.838  -1.667  0.00  0.00     0.062 H 
ATOM     32  C   LIG d   1       4.025  -1.421  -2.139  0.00  0.00    -0.061 A 
ATOM     33  H   LIG d   1       5.266  -0.385  -0.739  0.00  0.00     0.062 H 
ATOM     34  C   LIG d   1       3.165  -1.301  -3.214  0.00  0.00    -0.058 A 
ATOM     35  H   LIG d   1       4.249  -2.396  -1.732  0.00  0.00     0.062 H 
ATOM     36  H   LIG d   1       2.716  -2.183  -3.646  0.00  0.00     0.062 H 
ENDBRANCH  23  26
ENDBRANCH  20  23
ENDBRANCH   1  18
BRANCH  16  37
ATOM     37  C   LIG d   1       6.634  -0.097  -7.287  0.00  0.00     0.002 C 
ATOM     38  H   LIG d   1       7.492   0.445  -7.685  0.00  0.00     0.087 H 
ATOM     39  H   LIG d   1       5.855   0.612  -7.008  0.00  0.00     0.087 H 
BRANCH  37  40
ATOM     40  C   LIG d   1       7.057  -0.884  -6.073  0.00  0.00     0.034 A 
ATOM     41  S   LIG d   1       8.251  -2.204  -5.949  0.00  0.00    -0.096 SA
ATOM     42  C   LIG d   1       8.099  -2.518  -4.198  0.00  0.00    -0.024 A 
ATOM     43  C   LIG d   1       7.163  -1.610  -3.831  0.00  0.00    -0.054 A 
ATOM     44  H   LIG d   1       8.618  -3.243  -3.590  0.00  0.00     0.069 H 
ATOM     45  C   LIG d   1       6.632  -0.768  -4.791  0.00  0.00    -0.046 A 
ATOM     46  H   LIG d   1       6.839  -1.540  -2.803  0.00  0.00     0.062 H 
ATOM     47  H   LIG d   1       5.889  -0.031  -4.525  0.00  0.00     0.063 H 
ENDBRANCH  37  40
ENDBRANCH  16  37
TORSDOF 5
ENDMDL
MODEL 4
REMARK VINA RESULT:      -7.0      2.133      2.573
REMARK  5 active torsions:
REMARK  status: ('A' for Active; 'I' for Inactive)
REMARK    1  A    between atoms: C_4  and  C_7 
REMARK    2  A    between atoms: C_7  and  C_8 
REMARK    3  A    between atoms: C_10  and  C_13 
REMARK    4  A    between atoms: C_23  and  C_24 
REMARK    5  A    between atoms: C_23  and  N_46 
ROOT
ATOM      1  C   LIG d   1       3.506   0.587  -9.198  0.00  0.00     0.066 C 
ATOM      2  H   LIG d   1       3.589   1.564  -9.675  0.00  0.00     0.096 H 
ATOM      3  C   LIG d   1       2.514  -0.284  -9.982  0.00  0.00     0.043 C 
ATOM      4  C   LIG d   1       3.162  -0.660 -11.290  0.00  0.00     0.073 A 
ATOM      5  C   LIG d   1       4.487  -0.537 -11.528  0.00  0.00     0.084 A 
ATOM      6  N   LIG d   1       4.722  -0.953 -12.773  0.00  0.00    -0.344 N 
ATOM      7  C   LIG d   1       3.595  -1.332 -13.317  0.00  0.00     0.094 A 
ATOM      8  N   LIG d   1       2.597  -1.163 -12.418  0.00  0.00    -0.240 NA
ATOM      9  H   LIG d   1       5.617  -0.973 -13.219  0.00  0.00     0.167 HD
ATOM     10  C   LIG d   1       5.466  -0.013 -10.506  0.00  0.00     0.012 C 
ATOM     11  H   LIG d   1       2.282  -1.183  -9.413  0.00  0.00     0.039 H 
ATOM     12  H   LIG d   1       1.600   0.280 -10.173  0.00  0.00     0.039 H 
ATOM     13  H   LIG d   1       3.479  -1.717 -14.320  0.00  0.00     0.103 H 
ATOM     14  H   LIG d   1       5.734   1.015 -10.747  0.00  0.00     0.088 H 
ATOM     15  H   LIG d   1       6.362  -0.635 -10.504  0.00  0.00     0.088 H 
ATOM     16  N   LIG d   1       4.821  -0.093  -9.174  0.00  0.00     0.252 N 
ATOM     17  H   LIG d   1       4.680  -1.081  -8.931  0.00  0.00     0.205 HD
ENDROOT
BRANCH   1  18
ATOM     18  C   LIG d   1       3.015   0.758  -7.784  0.00  0.00     0.276 A 
ATOM     19  N   LIG d   1       2.612  -0.194  -6.977  0.00  0.00    -0.191 NA
ATOM     20  C   LIG d   1       2.271   0.423  -5.831  0.00  0.00     0.176 A 
ATOM     21  N   LIG d   1       2.473   1.696  -6.000  0.00  0.00    -0.061 NA
ATOM     22  O   LIG d   1       2.900   1.909  -7.115  0.00  0.00    -0.332 OA
BRANCH  20  23
ATOM     23  C   LIG d   1       1.746  -0.238  -4.583  0.00  0.00     0.036 C 
ATOM     24  H   LIG d   1       0.878   0.311  -4.219  0.00  0.00     0.039 H 
ATOM     25  H   LIG d   1       1.457  -1.265  -4.810  0.00  0.00     0.039 H 
BRANCH  23  26
ATOM     26  C   LIG d   1       2.819  -0.239  -3.526  0.00  0.00    -0.040 A 
ATOM     27  C   LIG d   1       3.314   0.958  -3.042  0.00  0.00    -0.058 A 
ATOM     28  C   LIG d   1       4.299   0.956  -2.072  0.00  0.00    -0.061 A 
ATOM     29  H   LIG d   1       2.931   1.894  -3.422  0.00  0.00     0.062 H 
ATOM     30  C   LIG d   1       4.789  -0.241  -1.585  0.00  0.00    -0.062 A 
ATOM     31  H   LIG d   1       4.686   1.891  -1.694  0.00  0.00     0.062 H 
ATOM     32  C   LIG d   1       4.293  -1.438  -2.069  0.00  0.00    -0.061 A 
ATOM     33  H   LIG d   1       5.559  -0.242  -0.827  0.00  0.00     0.062 H 
ATOM     34  C   LIG d   1       3.306  -1.437  -3.036  0.00  0.00    -0.058 A 
ATOM     35  H   LIG d   1       4.676  -2.373  -1.689  0.00  0.00     0.062 H 
ATOM     36  H   LIG d   1       2.917  -2.372  -3.411  0.00  0.00     0.062 H 
ENDBRANCH  23  26
ENDBRANCH  20  23
ENDBRANCH   1  18
BRANCH  16  37
ATOM     37  C   LIG d   1       5.691   0.530  -8.155  0.00  0.00     0.002 C 
ATOM     38  H   LIG d   1       6.597   0.926  -8.613  0.00  0.00     0.087 H 
ATOM     39  H   LIG d   1       5.146   1.339  -7.669  0.00  0.00     0.087 H 
BRANCH  37  40
ATOM     40  C   LIG d   1       6.061  -0.512  -7.131  0.00  0.00     0.034 A 
ATOM     41  S   LIG d   1       6.184  -0.352  -5.357  0.00  0.00    -0.096 SA
ATOM     42  C   LIG d   1       6.660  -2.031  -4.984  0.00  0.00    -0.024 A 
ATOM     43  C   LIG d   1       6.692  -2.594  -6.217  0.00  0.00    -0.054 A 
ATOM     44  H   LIG d   1       6.868  -2.482  -4.026  0.00  0.00     0.069 H 
ATOM     45  C   LIG d   1       6.379  -1.817  -7.317  0.00  0.00    -0.046 A 
ATOM     46  H   LIG d   1       6.952  -3.635  -6.339  0.00  0.00     0.062 H 
ATOM     47  H   LIG d   1       6.391  -2.241  -8.310  0.00  0.00     0.063 H 
ENDBRANCH  37  40
ENDBRANCH  16  37
TORSDOF 5
ENDMDL
MODEL 5
REMARK VINA RESULT:      -7.0      3.271      7.542
REMARK  5 active torsions:
REMARK  status: ('A' for Active; 'I' for Inactive)
REMARK    1  A    between atoms: C_4  and  C_7 
REMARK    2  A    between atoms: C_7  and  C_8 
REMARK    3  A    between atoms: C_10  and  C_13 
REMARK    4  A    between atoms: C_23  and  C_24 
REMARK    5  A    between atoms: C_23  and  N_46 
ROOT
ATOM      1  C   LIG d   1       5.270  -2.754  -4.684  0.00  0.00     0.066 C 
ATOM      2  H   LIG d   1       6.343  -2.655  -4.515  0.00  0.00     0.096 H 
ATOM      3  C   LIG d   1       4.525  -2.583  -3.352  0.00  0.00     0.043 C 
ATOM      4  C   LIG d   1       4.618  -1.132  -2.953  0.00  0.00     0.073 A 
ATOM      5  C   LIG d   1       4.981  -0.147  -3.805  0.00  0.00     0.084 A 
ATOM      6  N   LIG d   1       4.963   1.005  -3.132  0.00  0.00    -0.344 N 
ATOM      7  C   LIG d   1       4.600   0.773  -1.897  0.00  0.00     0.094 A 
ATOM      8  N   LIG d   1       4.376  -0.554  -1.748  0.00  0.00    -0.240 NA
ATOM      9  H   LIG d   1       5.189   1.902  -3.512  0.00  0.00     0.167 HD
ATOM     10  C   LIG d   1       5.328  -0.390  -5.252  0.00  0.00     0.012 C 
ATOM     11  H   LIG d   1       3.480  -2.866  -3.474  0.00  0.00     0.039 H 
ATOM     12  H   LIG d   1       4.990  -3.206  -2.587  0.00  0.00     0.039 H 
ATOM     13  H   LIG d   1       4.498   1.518  -1.122  0.00  0.00     0.103 H 
ATOM     14  H   LIG d   1       6.410  -0.355  -5.382  0.00  0.00     0.088 H 
ATOM     15  H   LIG d   1       4.858   0.371  -5.876  0.00  0.00     0.088 H 
ATOM     16  N   LIG d   1       4.795  -1.721  -5.631  0.00  0.00     0.252 N 
ATOM     17  H   LIG d   1       3.769  -1.689  -5.601  0.00  0.00     0.205 HD
ENDROOT
BRANCH   1  18
ATOM     18  C   LIG d   1       4.974  -4.117  -5.253  0.00  0.00     0.276 A 
ATOM     19  N   LIG d   1       5.844  -5.069  -5.492  0.00  0.00    -0.191 NA
ATOM     20  C   LIG d   1       5.131  -6.095  -5.990  0.00  0.00     0.176 A 
ATOM     21  N   LIG d   1       3.887  -5.719  -6.034  0.00  0.00    -0.061 NA
ATOM     22  O   LIG d   1       3.776  -4.586  -5.615  0.00  0.00    -0.332 OA
BRANCH  20  23
ATOM     23  C   LIG d   1       5.673  -7.433  -6.422  0.00  0.00     0.036 C 
ATOM     24  H   LIG d   1       5.005  -7.873  -7.163  0.00  0.00     0.039 H 
ATOM     25  H   LIG d   1       6.663  -7.300  -6.858  0.00  0.00     0.039 H 
BRANCH  23  26
ATOM     26  C   LIG d   1       5.769  -8.346  -5.227  0.00  0.00    -0.040 A 
ATOM     27  C   LIG d   1       6.968  -8.477  -4.552  0.00  0.00    -0.058 A 
ATOM     28  C   LIG d   1       7.055  -9.314  -3.455  0.00  0.00    -0.061 A 
ATOM     29  H   LIG d   1       7.837  -7.926  -4.881  0.00  0.00     0.062 H 
ATOM     30  C   LIG d   1       5.943 -10.020  -3.033  0.00  0.00    -0.062 A 
ATOM     31  H   LIG d   1       7.991  -9.418  -2.928  0.00  0.00     0.062 H 
ATOM     32  C   LIG d   1       4.744  -9.888  -3.709  0.00  0.00    -0.061 A 
ATOM     33  H   LIG d   1       6.011 -10.675  -2.177  0.00  0.00     0.062 H 
ATOM     34  C   LIG d   1       4.655  -9.048  -4.803  0.00  0.00    -0.058 A 
ATOM     35  H   LIG d   1       3.876 -10.439  -3.380  0.00  0.00     0.062 H 
ATOM     36  H   LIG d   1       3.718  -8.942  -5.327  0.00  0.00     0.062 H 
ENDBRANCH  23  26
ENDBRANCH  20  23
ENDBRANCH   1  18
BRANCH  16  37
ATOM     37  C   LIG d   1       5.222  -2.062  -7.004  0.00  0.00     0.002 C 
ATOM     38  H   LIG d   1       6.045  -1.422  -7.321  0.00  0.00     0.087 H 
ATOM     39  H   LIG d   1       5.544  -3.104  -7.027  0.00  0.00     0.087 H 
BRANCH  37  40
ATOM     40  C   LIG d   1       4.053  -1.876  -7.936  0.00  0.00     0.034 A 
ATOM     41  S   LIG d   1       3.347  -3.032  -9.099  0.00  0.00    -0.096 SA
ATOM     42  C   LIG d   1       2.048  -1.987  -9.736  0.00  0.00    -0.024 A 
ATOM     43  C   LIG d   1       2.236  -0.845  -9.031  0.00  0.00    -0.054 A 
ATOM     44  H   LIG d   1       1.305  -2.207 -10.488  0.00  0.00     0.069 H 
ATOM     45  C   LIG d   1       3.260  -0.790  -8.104  0.00  0.00    -0.046 A 
ATOM     46  H   LIG d   1       1.592   0.009  -9.187  0.00  0.00     0.062 H 
ATOM     47  H   LIG d   1       3.428   0.106  -7.525  0.00  0.00     0.063 H 
ENDBRANCH  37  40
ENDBRANCH  16  37
TORSDOF 5
ENDMDL
MODEL 6
REMARK VINA RESULT:      -6.8      2.530      3.511
REMARK  5 active torsions:
REMARK  status: ('A' for Active; 'I' for Inactive)
REMARK    1  A    between atoms: C_4  and  C_7 
REMARK    2  A    between atoms: C_7  and  C_8 
REMARK    3  A    between atoms: C_10  and  C_13 
REMARK    4  A    between atoms: C_23  and  C_24 
REMARK    5  A    between atoms: C_23  and  N_46 
ROOT
ATOM      1  C   LIG d   1       3.158  -0.314  -9.654  0.00  0.00     0.066 C 
ATOM      2  H   LIG d   1       2.303   0.271  -9.994  0.00  0.00     0.096 H 
ATOM      3  C   LIG d   1       2.937  -1.793 -10.003  0.00  0.00     0.043 C 
ATOM      4  C   LIG d   1       3.070  -1.940 -11.498  0.00  0.00     0.073 A 
ATOM      5  C   LIG d   1       3.628  -0.999 -12.292  0.00  0.00     0.084 A 
ATOM      6  N   LIG d   1       3.582  -1.444 -13.550  0.00  0.00    -0.344 N 
ATOM      7  C   LIG d   1       3.019  -2.625 -13.566  0.00  0.00     0.094 A 
ATOM      8  N   LIG d   1       2.685  -2.967 -12.299  0.00  0.00    -0.240 NA
ATOM      9  H   LIG d   1       3.924  -0.953 -14.351  0.00  0.00     0.167 HD
ATOM     10  C   LIG d   1       4.187   0.301 -11.770  0.00  0.00     0.012 C 
ATOM     11  H   LIG d   1       3.688  -2.406  -9.504  0.00  0.00     0.039 H 
ATOM     12  H   LIG d   1       1.940  -2.102  -9.690  0.00  0.00     0.039 H 
ATOM     13  H   LIG d   1       2.848  -3.227 -14.446  0.00  0.00     0.103 H 
ATOM     14  H   LIG d   1       3.489   1.111 -11.979  0.00  0.00     0.088 H 
ATOM     15  H   LIG d   1       5.144   0.508 -12.249  0.00  0.00     0.088 H 
ATOM     16  N   LIG d   1       4.401   0.151 -10.310  0.00  0.00     0.252 N 
ATOM     17  H   LIG d   1       5.140  -0.544 -10.152  0.00  0.00     0.205 HD
ENDROOT
BRANCH   1  18
ATOM     18  C   LIG d   1       3.305  -0.168  -8.162  0.00  0.00     0.276 A 
ATOM     19  N   LIG d   1       2.407   0.308  -7.332  0.00  0.00    -0.191 NA
ATOM     20  C   LIG d   1       2.973   0.246  -6.113  0.00  0.00     0.176 A 
ATOM     21  N   LIG d   1       4.166  -0.247  -6.262  0.00  0.00    -0.061 NA
ATOM     22  O   LIG d   1       4.376  -0.492  -7.431  0.00  0.00    -0.332 OA
BRANCH  20  23
ATOM     23  C   LIG d   1       2.341   0.675  -4.814  0.00  0.00     0.036 C 
ATOM     24  H   LIG d   1       2.340   1.764  -4.753  0.00  0.00     0.039 H 
ATOM     25  H   LIG d   1       1.316   0.308  -4.769  0.00  0.00     0.039 H 
BRANCH  23  26
ATOM     26  C   LIG d   1       3.130   0.109  -3.661  0.00  0.00    -0.040 A 
ATOM     27  C   LIG d   1       3.876   0.949  -2.856  0.00  0.00    -0.058 A 
ATOM     28  C   LIG d   1       4.599   0.429  -1.799  0.00  0.00    -0.061 A 
ATOM     29  H   LIG d   1       3.894   2.011  -3.052  0.00  0.00     0.062 H 
ATOM     30  C   LIG d   1       4.576  -0.930  -1.546  0.00  0.00    -0.062 A 
ATOM     31  H   LIG d   1       5.182   1.084  -1.169  0.00  0.00     0.062 H 
ATOM     32  C   LIG d   1       3.829  -1.769  -2.352  0.00  0.00    -0.061 A 
ATOM     33  H   LIG d   1       5.141  -1.337  -0.720  0.00  0.00     0.062 H 
ATOM     34  C   LIG d   1       3.103  -1.250  -3.407  0.00  0.00    -0.058 A 
ATOM     35  H   LIG d   1       3.811  -2.831  -2.155  0.00  0.00     0.062 H 
ATOM     36  H   LIG d   1       2.516  -1.905  -4.033  0.00  0.00     0.062 H 
ENDBRANCH  23  26
ENDBRANCH  20  23
ENDBRANCH   1  18
BRANCH  16  37
ATOM     37  C   LIG d   1       4.825   1.441  -9.728  0.00  0.00     0.002 C 
ATOM     38  H   LIG d   1       4.623   2.259 -10.420  0.00  0.00     0.087 H 
ATOM     39  H   LIG d   1       4.280   1.608  -8.799  0.00  0.00     0.087 H 
BRANCH  37  40
ATOM     40  C   LIG d   1       6.303   1.380  -9.440  0.00  0.00     0.034 A 
ATOM     41  S   LIG d   1       7.489   0.130  -9.907  0.00  0.00    -0.096 SA
ATOM     42  C   LIG d   1       8.936   0.866  -9.163  0.00  0.00    -0.024 A 
ATOM     43  C   LIG d   1       8.426   1.997  -8.618  0.00  0.00    -0.054 A 
ATOM     44  H   LIG d   1       9.952   0.503  -9.151  0.00  0.00     0.069 H 
ATOM     45  C   LIG d   1       7.078   2.264  -8.764  0.00  0.00    -0.046 A 
ATOM     46  H   LIG d   1       9.064   2.683  -8.080  0.00  0.00     0.062 H 
ATOM     47  H   LIG d   1       6.647   3.160  -8.344  0.00  0.00     0.063 H 
ENDBRANCH  37  40
ENDBRANCH  16  37
TORSDOF 5
ENDMDL
MODEL 7
REMARK VINA RESULT:      -6.6      2.661      4.477
REMARK  5 active torsions:
REMARK  status: ('A' for Active; 'I' for Inactive)
REMARK    1  A    between atoms: C_4  and  C_7 
REMARK    2  A    between atoms: C_7  and  C_8 
REMARK    3  A    between atoms: C_10  and  C_13 
REMARK    4  A    between atoms: C_23  and  C_24 
REMARK    5  A    between atoms: C_23  and  N_46 
ROOT
ATOM      1  C   LIG d   1       4.593  -3.592  -8.130  0.00  0.00     0.066 C 
ATOM      2  H   LIG d   1       3.678  -4.137  -8.367  0.00  0.00     0.096 H 
ATOM      3  C   LIG d   1       5.799  -4.338  -8.718  0.00  0.00     0.043 C 
ATOM      4  C   LIG d   1       5.754  -4.180 -10.217  0.00  0.00     0.073 A 
ATOM      5  C   LIG d   1       4.992  -3.258 -10.847  0.00  0.00     0.084 A 
ATOM      6  N   LIG d   1       5.186  -3.393 -12.160  0.00  0.00    -0.344 N 
ATOM      7  C   LIG d   1       6.040  -4.361 -12.370  0.00  0.00     0.094 A 
ATOM      8  N   LIG d   1       6.417  -4.877 -11.175  0.00  0.00    -0.240 NA
ATOM      9  H   LIG d   1       4.749  -2.841 -12.870  0.00  0.00     0.167 HD
ATOM     10  C   LIG d   1       4.106  -2.279 -10.118  0.00  0.00     0.012 C 
ATOM     11  H   LIG d   1       6.723  -3.910  -8.330  0.00  0.00     0.039 H 
ATOM     12  H   LIG d   1       5.743  -5.395  -8.457  0.00  0.00     0.039 H 
ATOM     13  H   LIG d   1       6.387  -4.695 -13.336  0.00  0.00     0.103 H 
ATOM     14  H   LIG d   1       3.067  -2.601 -10.188  0.00  0.00     0.088 H 
ATOM     15  H   LIG d   1       4.214  -1.287 -10.559  0.00  0.00     0.088 H 
ATOM     16  N   LIG d   1       4.549  -2.228  -8.704  0.00  0.00     0.252 N 
ATOM     17  H   LIG d   1       5.491  -1.821  -8.665  0.00  0.00     0.205 HD
ENDROOT
BRANCH   1  18
ATOM     18  C   LIG d   1       4.745  -3.492  -6.635  0.00  0.00     0.276 A 
ATOM     19  N   LIG d   1       5.541  -2.678  -5.984  0.00  0.00    -0.191 NA
ATOM     20  C   LIG d   1       5.340  -2.941  -4.680  0.00  0.00     0.176 A 
ATOM     21  N   LIG d   1       4.455  -3.890  -4.606  0.00  0.00    -0.061 NA
ATOM     22  O   LIG d   1       4.101  -4.220  -5.718  0.00  0.00    -0.332 OA
BRANCH  20  23
ATOM     23  C   LIG d   1       6.021  -2.264  -3.518  0.00  0.00     0.036 C 
ATOM     24  H   LIG d   1       6.070  -2.953  -2.675  0.00  0.00     0.039 H 
ATOM     25  H   LIG d   1       7.030  -1.971  -3.808  0.00  0.00     0.039 H 
BRANCH  23  26
ATOM     26  C   LIG d   1       5.237  -1.040  -3.120  0.00  0.00    -0.040 A 
ATOM     27  C   LIG d   1       5.868   0.186  -3.030  0.00  0.00    -0.058 A 
ATOM     28  C   LIG d   1       5.148   1.308  -2.666  0.00  0.00    -0.061 A 
ATOM     29  H   LIG d   1       6.924   0.268  -3.245  0.00  0.00     0.062 H 
ATOM     30  C   LIG d   1       3.797   1.205  -2.392  0.00  0.00    -0.062 A 
ATOM     31  H   LIG d   1       5.641   2.267  -2.595  0.00  0.00     0.062 H 
ATOM     32  C   LIG d   1       3.166  -0.022  -2.483  0.00  0.00    -0.061 A 
ATOM     33  H   LIG d   1       3.234   2.082  -2.107  0.00  0.00     0.062 H 
ATOM     34  C   LIG d   1       3.884  -1.144  -2.851  0.00  0.00    -0.058 A 
ATOM     35  H   LIG d   1       2.111  -0.103  -2.268  0.00  0.00     0.062 H 
ATOM     36  H   LIG d   1       3.390  -2.100  -2.925  0.00  0.00     0.062 H 
ENDBRANCH  23  26
ENDBRANCH  20  23
ENDBRANCH   1  18
BRANCH  16  37
ATOM     37  C   LIG d   1       3.629  -1.381  -7.918  0.00  0.00     0.002 C 
ATOM     38  H   LIG d   1       2.598  -1.713  -8.043  0.00  0.00     0.087 H 
ATOM     39  H   LIG d   1       3.904  -1.440  -6.864  0.00  0.00     0.087 H 
BRANCH  37  40
ATOM     40  C   LIG d   1       3.759   0.044  -8.391  0.00  0.00     0.034 A 
ATOM     41  S   LIG d   1       5.236   0.977  -8.760  0.00  0.00    -0.096 SA
ATOM     42  C   LIG d   1       4.454   2.511  -9.232  0.00  0.00    -0.024 A 
ATOM     43  C   LIG d   1       3.140   2.214  -9.080  0.00  0.00    -0.054 A 
ATOM     44  H   LIG d   1       4.910   3.435  -9.554  0.00  0.00     0.069 H 
ATOM     45  C   LIG d   1       2.783   0.948  -8.655  0.00  0.00    -0.046 A 
ATOM     46  H   LIG d   1       2.382   2.954  -9.294  0.00  0.00     0.062 H 
ATOM     47  H   LIG d   1       1.744   0.684  -8.531  0.00  0.00     0.063 H 
ENDBRANCH  37  40
ENDBRANCH  16  37
TORSDOF 5
ENDMDL
MODEL 8
REMARK VINA RESULT:      -6.6      2.998      7.679
REMARK  5 active torsions:
REMARK  status: ('A' for Active; 'I' for Inactive)
REMARK    1  A    between atoms: C_4  and  C_7 
REMARK    2  A    between atoms: C_7  and  C_8 
REMARK    3  A    between atoms: C_10  and  C_13 
REMARK    4  A    between atoms: C_23  and  C_24 
REMARK    5  A    between atoms: C_23  and  N_46 
ROOT
ATOM      1  C   LIG d   1       3.651  -0.188  -5.993  0.00  0.00     0.066 C 
ATOM      2  H   LIG d   1       3.517  -1.251  -5.794  0.00  0.00     0.096 H 
ATOM      3  C   LIG d   1       2.944   0.630  -4.902  0.00  0.00     0.043 C 
ATOM      4  C   LIG d   1       3.732   0.478  -3.627  0.00  0.00     0.073 A 
ATOM      5  C   LIG d   1       4.997   0.003  -3.584  0.00  0.00     0.084 A 
ATOM      6  N   LIG d   1       5.392  -0.003  -2.309  0.00  0.00    -0.344 N 
ATOM      7  C   LIG d   1       4.421   0.451  -1.559  0.00  0.00     0.094 A 
ATOM      8  N   LIG d   1       3.366   0.762  -2.350  0.00  0.00    -0.240 NA
ATOM      9  H   LIG d   1       6.286  -0.306  -1.981  0.00  0.00     0.167 HD
ATOM     10  C   LIG d   1       5.764  -0.421  -4.812  0.00  0.00     0.012 C 
ATOM     11  H   LIG d   1       2.909   1.680  -5.192  0.00  0.00     0.039 H 
ATOM     12  H   LIG d   1       1.931   0.252  -4.757  0.00  0.00     0.039 H 
ATOM     13  H   LIG d   1       4.455   0.560  -0.485  0.00  0.00     0.103 H 
ATOM     14  H   LIG d   1       5.784  -1.509  -4.875  0.00  0.00     0.088 H 
ATOM     15  H   LIG d   1       6.783  -0.038  -4.760  0.00  0.00     0.088 H 
ATOM     16  N   LIG d   1       5.089   0.164  -5.996  0.00  0.00     0.252 N 
ATOM     17  H   LIG d   1       5.181   1.186  -5.959  0.00  0.00     0.205 HD
ENDROOT
BRANCH   1  18
ATOM     18  C   LIG d   1       3.059   0.151  -7.336  0.00  0.00     0.276 A 
ATOM     19  N   LIG d   1       2.511  -0.689  -8.182  0.00  0.00    -0.191 NA
ATOM     20  C   LIG d   1       2.126   0.056  -9.233  0.00  0.00     0.176 A 
ATOM     21  N   LIG d   1       2.460   1.287  -8.982  0.00  0.00    -0.061 NA
ATOM     22  O   LIG d   1       2.998   1.362  -7.897  0.00  0.00    -0.332 OA
BRANCH  20  23
ATOM     23  C   LIG d   1       1.438  -0.444 -10.478  0.00  0.00     0.036 C 
ATOM     24  H   LIG d   1       0.902  -1.366 -10.250  0.00  0.00     0.039 H 
ATOM     25  H   LIG d   1       0.733   0.309 -10.830  0.00  0.00     0.039 H 
BRANCH  23  26
ATOM     26  C   LIG d   1       2.465  -0.712 -11.547  0.00  0.00    -0.040 A 
ATOM     27  C   LIG d   1       2.180  -1.591 -12.574  0.00  0.00    -0.058 A 
ATOM     28  C   LIG d   1       3.123  -1.835 -13.555  0.00  0.00    -0.061 A 
ATOM     29  H   LIG d   1       1.221  -2.086 -12.612  0.00  0.00     0.062 H 
ATOM     30  C   LIG d   1       4.351  -1.201 -13.509  0.00  0.00    -0.062 A 
ATOM     31  H   LIG d   1       2.901  -2.522 -14.359  0.00  0.00     0.062 H 
ATOM     32  C   LIG d   1       4.635  -0.322 -12.480  0.00  0.00    -0.061 A 
ATOM     33  H   LIG d   1       5.088  -1.393 -14.275  0.00  0.00     0.062 H 
ATOM     34  C   LIG d   1       3.691  -0.074 -11.501  0.00  0.00    -0.058 A 
ATOM     35  H   LIG d   1       5.594   0.173 -12.443  0.00  0.00     0.062 H 
ATOM     36  H   LIG d   1       3.912   0.616 -10.701  0.00  0.00     0.062 H 
ENDBRANCH  23  26
ENDBRANCH  20  23
ENDBRANCH   1  18
BRANCH  16  37
ATOM     37  C   LIG d   1       5.726  -0.330  -7.234  0.00  0.00     0.002 C 
ATOM     38  H   LIG d   1       6.247  -1.270  -7.050  0.00  0.00     0.087 H 
ATOM     39  H   LIG d   1       4.957  -0.483  -7.992  0.00  0.00     0.087 H 
BRANCH  37  40
ATOM     40  C   LIG d   1       6.710   0.704  -7.718  0.00  0.00     0.034 A 
ATOM     41  S   LIG d   1       8.386   1.000  -7.179  0.00  0.00    -0.096 SA
ATOM     42  C   LIG d   1       8.764   2.363  -8.267  0.00  0.00    -0.024 A 
ATOM     43  C   LIG d   1       7.606   2.499  -8.959  0.00  0.00    -0.054 A 
ATOM     44  H   LIG d   1       9.677   2.932  -8.353  0.00  0.00     0.069 H 
ATOM     45  C   LIG d   1       6.555   1.645  -8.682  0.00  0.00    -0.046 A 
ATOM     46  H   LIG d   1       7.506   3.260  -9.719  0.00  0.00     0.062 H 
ATOM     47  H   LIG d   1       5.624   1.727  -9.221  0.00  0.00     0.063 H 
ENDBRANCH  37  40
ENDBRANCH  16  37
TORSDOF 5
ENDMDL
MODEL 9
REMARK VINA RESULT:      -6.5      2.949      7.018
REMARK  5 active torsions:
REMARK  status: ('A' for Active; 'I' for Inactive)
REMARK    1  A    between atoms: C_4  and  C_7 
REMARK    2  A    between atoms: C_7  and  C_8 
REMARK    3  A    between atoms: C_10  and  C_13 
REMARK    4  A    between atoms: C_23  and  C_24 
REMARK    5  A    between atoms: C_23  and  N_46 
ROOT
ATOM      1  C   LIG d   1       6.871  -1.460  -6.671  0.00  0.00     0.066 C 
ATOM      2  H   LIG d   1       7.919  -1.279  -6.911  0.00  0.00     0.096 H 
ATOM      3  C   LIG d   1       6.455  -2.838  -7.205  0.00  0.00     0.043 C 
ATOM      4  C   LIG d   1       7.126  -3.886  -6.354  0.00  0.00     0.073 A 
ATOM      5  C   LIG d   1       7.684  -3.623  -5.151  0.00  0.00     0.084 A 
ATOM      6  N   LIG d   1       8.187  -4.763  -4.673  0.00  0.00    -0.344 N 
ATOM      7  C   LIG d   1       7.962  -5.723  -5.532  0.00  0.00     0.094 A 
ATOM      8  N   LIG d   1       7.300  -5.210  -6.597  0.00  0.00    -0.240 NA
ATOM      9  H   LIG d   1       8.660  -4.866  -3.798  0.00  0.00     0.167 HD
ATOM     10  C   LIG d   1       7.690  -2.251  -4.523  0.00  0.00     0.012 C 
ATOM     11  H   LIG d   1       5.373  -2.948  -7.141  0.00  0.00     0.039 H 
ATOM     12  H   LIG d   1       6.777  -2.945  -8.242  0.00  0.00     0.039 H 
ATOM     13  H   LIG d   1       8.257  -6.755  -5.413  0.00  0.00     0.103 H 
ATOM     14  H   LIG d   1       8.677  -1.802  -4.630  0.00  0.00     0.088 H 
ATOM     15  H   LIG d   1       7.435  -2.330  -3.465  0.00  0.00     0.088 H 
ATOM     16  N   LIG d   1       6.660  -1.432  -5.207  0.00  0.00     0.252 N 
ATOM     17  H   LIG d   1       5.733  -1.821  -4.997  0.00  0.00     0.205 HD
ENDROOT
BRANCH   1  18
ATOM     18  C   LIG d   1       6.019  -0.396  -7.312  0.00  0.00     0.276 A 
ATOM     19  N   LIG d   1       4.754  -0.503  -7.642  0.00  0.00    -0.191 NA
ATOM     20  C   LIG d   1       4.417   0.685  -8.175  0.00  0.00     0.176 A 
ATOM     21  N   LIG d   1       5.477   1.438  -8.149  0.00  0.00    -0.061 NA
ATOM     22  O   LIG d   1       6.407   0.835  -7.657  0.00  0.00    -0.332 OA
BRANCH  20  23
ATOM     23  C   LIG d   1       3.062   1.072  -8.710  0.00  0.00     0.036 C 
ATOM     24  H   LIG d   1       2.307   0.901  -7.942  0.00  0.00     0.039 H 
ATOM     25  H   LIG d   1       3.068   2.126  -8.986  0.00  0.00     0.039 H 
BRANCH  23  26
ATOM     26  C   LIG d   1       2.743   0.236  -9.922  0.00  0.00    -0.040 A 
ATOM     27  C   LIG d   1       3.616   0.211 -10.993  0.00  0.00    -0.058 A 
ATOM     28  C   LIG d   1       3.323  -0.556 -12.105  0.00  0.00    -0.061 A 
ATOM     29  H   LIG d   1       4.527   0.791 -10.962  0.00  0.00     0.062 H 
ATOM     30  C   LIG d   1       2.158  -1.299 -12.146  0.00  0.00    -0.062 A 
ATOM     31  H   LIG d   1       4.004  -0.576 -12.943  0.00  0.00     0.062 H 
ATOM     32  C   LIG d   1       1.285  -1.274 -11.074  0.00  0.00    -0.061 A 
ATOM     33  H   LIG d   1       1.928  -1.898 -13.015  0.00  0.00     0.062 H 
ATOM     34  C   LIG d   1       1.579  -0.510  -9.960  0.00  0.00    -0.058 A 
ATOM     35  H   LIG d   1       0.375  -1.854 -11.105  0.00  0.00     0.062 H 
ATOM     36  H   LIG d   1       0.900  -0.494  -9.122  0.00  0.00     0.062 H 
ENDBRANCH  23  26
ENDBRANCH  20  23
ENDBRANCH   1  18
BRANCH  16  37
ATOM     37  C   LIG d   1       6.716  -0.040  -4.716  0.00  0.00     0.002 C 
ATOM     38  H   LIG d   1       7.639   0.135  -4.162  0.00  0.00     0.087 H 
ATOM     39  H   LIG d   1       6.670   0.639  -5.568  0.00  0.00     0.087 H 
BRANCH  37  40
ATOM     40  C   LIG d   1       5.534   0.205  -3.814  0.00  0.00     0.034 A 
ATOM     41  S   LIG d   1       3.851  -0.365  -3.987  0.00  0.00    -0.096 SA
ATOM     42  C   LIG d   1       3.180   0.380  -2.510  0.00  0.00    -0.024 A 
ATOM     43  C   LIG d   1       4.266   1.003  -1.992  0.00  0.00    -0.054 A 
ATOM     44  H   LIG d   1       2.170   0.344  -2.129  0.00  0.00     0.069 H 
ATOM     45  C   LIG d   1       5.474   0.908  -2.657  0.00  0.00    -0.046 A 
ATOM     46  H   LIG d   1       4.191   1.561  -1.070  0.00  0.00     0.062 H 
ATOM     47  H   LIG d   1       6.356   1.391  -2.263  0.00  0.00     0.063 H 
ENDBRANCH  37  40
ENDBRANCH  16  37
TORSDOF 5
ENDMDL
MODEL 10
REMARK VINA RESULT:      -6.5      5.069      6.478
REMARK  5 active torsions:
REMARK  status: ('A' for Active; 'I' for Inactive)
REMARK    1  A    between atoms: C_4  and  C_7 
REMARK    2  A    between atoms: C_7  and  C_8 
REMARK    3  A    between atoms: C_10  and  C_13 
REMARK    4  A    between atoms: C_23  and  C_24 
REMARK    5  A    between atoms: C_23  and  N_46 
ROOT
ATOM      1  C   LIG d   1       6.777   0.407  -7.329  0.00  0.00     0.066 C 
ATOM      2  H   LIG d   1       7.149  -0.482  -7.839  0.00  0.00     0.096 H 
ATOM      3  C   LIG d   1       6.480   1.503  -8.363  0.00  0.00     0.043 C 
ATOM      4  C   LIG d   1       5.256   1.087  -9.138  0.00  0.00     0.073 A 
ATOM      5  C   LIG d   1       4.410   0.115  -8.730  0.00  0.00     0.084 A 
ATOM      6  N   LIG d   1       3.443   0.001  -9.643  0.00  0.00    -0.344 N 
ATOM      7  C   LIG d   1       3.655   0.867 -10.600  0.00  0.00     0.094 A 
ATOM      8  N   LIG d   1       4.781   1.565 -10.317  0.00  0.00    -0.240 NA
ATOM      9  H   LIG d   1       2.680  -0.642  -9.601  0.00  0.00     0.167 HD
ATOM     10  C   LIG d   1       4.595  -0.660  -7.449  0.00  0.00     0.012 C 
ATOM     11  H   LIG d   1       6.292   2.448  -7.855  0.00  0.00     0.039 H 
ATOM     12  H   LIG d   1       7.327   1.609  -9.042  0.00  0.00     0.039 H 
ATOM     13  H   LIG d   1       3.034   1.003 -11.473  0.00  0.00     0.103 H 
ATOM     14  H   LIG d   1       4.991  -1.651  -7.673  0.00  0.00     0.088 H 
ATOM     15  H   LIG d   1       3.639  -0.754  -6.935  0.00  0.00     0.088 H 
ATOM     16  N   LIG d   1       5.533   0.101  -6.588  0.00  0.00     0.252 N 
ATOM     17  H   LIG d   1       5.087   0.982  -6.309  0.00  0.00     0.205 HD
ENDROOT
BRANCH   1  18
ATOM     18  C   LIG d   1       7.818   0.902  -6.359  0.00  0.00     0.276 A 
ATOM     19  N   LIG d   1       7.824   2.059  -5.743  0.00  0.00    -0.191 NA
ATOM     20  C   LIG d   1       8.935   2.060  -4.984  0.00  0.00     0.176 A 
ATOM     21  N   LIG d   1       9.541   0.927  -5.181  0.00  0.00    -0.061 NA
ATOM     22  O   LIG d   1       8.916   0.248  -5.967  0.00  0.00    -0.332 OA
BRANCH  20  23
ATOM     23  C   LIG d   1       9.395   3.172  -4.077  0.00  0.00     0.036 C 
ATOM     24  H   LIG d   1       8.661   3.323  -3.287  0.00  0.00     0.039 H 
ATOM     25  H   LIG d   1      10.356   2.907  -3.636  0.00  0.00     0.039 H 
BRANCH  23  26
ATOM     26  C   LIG d   1       9.543   4.442  -4.875  0.00  0.00    -0.040 A 
ATOM     27  C   LIG d   1      10.063   4.398  -6.155  0.00  0.00    -0.058 A 
ATOM     28  C   LIG d   1      10.197   5.564  -6.886  0.00  0.00    -0.061 A 
ATOM     29  H   LIG d   1      10.364   3.454  -6.584  0.00  0.00     0.062 H 
ATOM     30  C   LIG d   1       9.811   6.773  -6.339  0.00  0.00    -0.062 A 
ATOM     31  H   LIG d   1      10.604   5.530  -7.886  0.00  0.00     0.062 H 
ATOM     32  C   LIG d   1       9.290   6.816  -5.058  0.00  0.00    -0.061 A 
ATOM     33  H   LIG d   1       9.917   7.684  -6.910  0.00  0.00     0.062 H 
ATOM     34  C   LIG d   1       9.152   5.651  -4.328  0.00  0.00    -0.058 A 
ATOM     35  H   LIG d   1       8.989   7.761  -4.630  0.00  0.00     0.062 H 
ATOM     36  H   LIG d   1       8.742   5.685  -3.330  0.00  0.00     0.062 H 
ENDBRANCH  23  26
ENDBRANCH  20  23
ENDBRANCH   1  18
BRANCH  16  37
ATOM     37  C   LIG d   1       5.849  -0.681  -5.375  0.00  0.00     0.002 C 
ATOM     38  H   LIG d   1       5.505  -1.710  -5.480  0.00  0.00     0.087 H 
ATOM     39  H   LIG d   1       6.928  -0.673  -5.219  0.00  0.00     0.087 H 
BRANCH  37  40
ATOM     40  C   LIG d   1       5.166  -0.041  -4.194  0.00  0.00     0.034 A 
ATOM     41  S   LIG d   1       3.424   0.239  -3.919  0.00  0.00    -0.096 SA
ATOM     42  C   LIG d   1       3.544   1.019  -2.318  0.00  0.00    -0.024 A 
ATOM     43  C   LIG d   1       4.882   1.014  -2.103  0.00  0.00    -0.054 A 
ATOM     44  H   LIG d   1       2.756   1.397  -1.685  0.00  0.00     0.069 H 
ATOM     45  C   LIG d   1       5.713   0.465  -3.062  0.00  0.00    -0.046 A 
ATOM     46  H   LIG d   1       5.294   1.427  -1.194  0.00  0.00     0.062 H 
ATOM     47  H   LIG d   1       6.782   0.443  -2.914  0.00  0.00     0.063 H 
ENDBRANCH  37  40
ENDBRANCH  16  37
TORSDOF 5
ENDMDL
