MODEL 1
REMARK VINA RESULT:      -6.9      0.000      0.000
REMARK  11 active torsions:
REMARK  status: ('A' for Active; 'I' for Inactive)
REMARK    1  A    between atoms: C_1  and  C_2 
REMARK    2  A    between atoms: C_4  and  N_33 
REMARK    3  A    between atoms: C_8  and  C_32 
REMARK    4  A    between atoms: C_11  and  O_31 
REMARK    5  A    between atoms: C_13  and  C_17 
REMARK    6  A    between atoms: C_17  and  C_19 
REMARK    7  A    between atoms: C_17  and  C_20 
REMARK       I    between atoms: C_20  and  N_22 
REMARK    8  A    between atoms: N_22  and  C_23 
REMARK    9  A    between atoms: N_22  and  C_24 
REMARK   10  A    between atoms: C_24  and  C_25 
REMARK       I    between atoms: N_33  and  C_34 
REMARK   11  A    between atoms: C_34  and  C_36 
ROOT
ATOM      1  C   LIG d   1       9.385   3.194  -5.279  0.00  0.00    -0.020 C 
ATOM      2  H   LIG d   1      10.261   2.536  -5.174  0.00  0.00     0.032 H 
ATOM      3  C   LIG d   1       9.847   4.653  -5.325  0.00  0.00     0.026 C 
ATOM      4  H   LIG d   1       8.983   5.330  -5.392  0.00  0.00     0.050 H 
ATOM      5  C   LIG d   1      10.783   4.855  -6.517  0.00  0.00    -0.034 C 
ATOM      6  C   LIG d   1      10.041   4.513  -7.812  0.00  0.00    -0.046 C 
ATOM      7  C   LIG d   1       9.580   3.055  -7.766  0.00  0.00    -0.026 C 
ATOM      8  C   LIG d   1       8.644   2.854  -6.573  0.00  0.00    -0.005 C 
ATOM      9  H   LIG d   1       7.768   3.512  -6.679  0.00  0.00     0.033 H 
ATOM     10  C   LIG d   1       8.182   1.396  -6.528  0.00  0.00     0.062 C 
ATOM     11  H   LIG d   1       9.030   0.714  -6.363  0.00  0.00     0.060 H 
ATOM     12  C   LIG d   1       7.441   1.054  -7.822  0.00  0.00    -0.004 C 
ATOM     13  H   LIG d   1       6.566   1.712  -7.927  0.00  0.00     0.033 H 
ATOM     14  C   LIG d   1       8.377   1.256  -9.015  0.00  0.00    -0.047 C 
ATOM     15  C   LIG d   1       8.839   2.714  -9.060  0.00  0.00    -0.047 C 
ATOM     16  H   LIG d   1      11.114   5.903  -6.550  0.00  0.00     0.028 H 
ATOM     17  H   LIG d   1      11.658   4.196  -6.413  0.00  0.00     0.028 H 
ATOM     18  H   LIG d   1       9.167   5.172  -7.917  0.00  0.00     0.027 H 
ATOM     19  H   LIG d   1      10.714   4.659  -8.670  0.00  0.00     0.027 H 
ATOM     20  H   LIG d   1       9.253   0.598  -8.909  0.00  0.00     0.027 H 
ATOM     21  H   LIG d   1       7.844   1.011  -9.945  0.00  0.00     0.027 H 
ATOM     22  H   LIG d   1       7.963   3.373  -9.165  0.00  0.00     0.027 H 
ATOM     23  H   LIG d   1       9.511   2.859  -9.918  0.00  0.00     0.027 H 
ENDROOT
BRANCH  12  24
ATOM     24  C   LIG d   1       6.980  -0.404  -7.776  0.00  0.00     0.038 C 
ATOM     25  H   LIG d   1       7.730  -1.017  -7.257  0.00  0.00     0.040 H 
BRANCH  24  26
ATOM     26  C   LIG d   1       6.780  -0.921  -9.201  0.00  0.00    -0.054 C 
ATOM     27  H   LIG d   1       5.738  -0.749  -9.511  0.00  0.00     0.024 H 
ATOM     28  H   LIG d   1       6.999  -1.998  -9.235  0.00  0.00     0.024 H 
ATOM     29  H   LIG d   1       7.457  -0.386  -9.883  0.00  0.00     0.024 H 
ENDBRANCH  24  26
BRANCH  24  30
ATOM     30  C   LIG d   1       5.678  -0.494  -7.021  0.00  0.00     0.219 C 
ATOM     31  O   LIG d   1       4.789   0.298  -7.248  0.00  0.00    -0.275 OA
ATOM     32  N   LIG d   1       5.503  -1.457  -6.094  0.00  0.00    -0.300 N 
BRANCH  32  33
ATOM     33  C   LIG d   1       6.613  -2.347  -5.742  0.00  0.00     0.004 C 
ATOM     34  H   LIG d   1       7.304  -1.822  -5.067  0.00  0.00     0.043 H 
ATOM     35  H   LIG d   1       7.148  -2.643  -6.657  0.00  0.00     0.043 H 
ATOM     36  H   LIG d   1       6.220  -3.243  -5.241  0.00  0.00     0.043 H 
ENDBRANCH  32  33
BRANCH  32  37
ATOM     37  C   LIG d   1       4.203  -1.614  -5.437  0.00  0.00     0.039 C 
ATOM     38  H   LIG d   1       3.421  -1.148  -6.054  0.00  0.00     0.051 H 
ATOM     39  H   LIG d   1       3.982  -2.685  -5.313  0.00  0.00     0.051 H 
BRANCH  37  40
ATOM     40  C   LIG d   1       4.240  -0.950  -4.084  0.00  0.00    -0.030 A 
ATOM     41  C   LIG d   1       3.958   0.398  -3.970  0.00  0.00    -0.057 A 
ATOM     42  C   LIG d   1       3.991   1.008  -2.729  0.00  0.00    -0.061 A 
ATOM     43  H   LIG d   1       3.711   0.975  -4.848  0.00  0.00     0.062 H 
ATOM     44  C   LIG d   1       4.307   0.269  -1.604  0.00  0.00    -0.062 A 
ATOM     45  H   LIG d   1       3.772   2.061  -2.639  0.00  0.00     0.062 H 
ATOM     46  C   LIG d   1       4.588  -1.079  -1.719  0.00  0.00    -0.061 A 
ATOM     47  H   LIG d   1       4.334   0.745  -0.635  0.00  0.00     0.062 H 
ATOM     48  C   LIG d   1       4.550  -1.690  -2.959  0.00  0.00    -0.057 A 
ATOM     49  H   LIG d   1       4.834  -1.657  -0.840  0.00  0.00     0.062 H 
ATOM     50  H   LIG d   1       4.766  -2.745  -3.049  0.00  0.00     0.062 H 
ENDBRANCH  37  40
ENDBRANCH  32  37
ENDBRANCH  24  30
ENDBRANCH  12  24
BRANCH  10  51
ATOM     51  O   LIG d   1       7.308   1.207  -5.413  0.00  0.00    -0.391 OA
ATOM     52  H   LIG d   1       6.960   0.196  -5.152  0.00  0.00     0.210 HD
ENDBRANCH  10  51
BRANCH   1  53
ATOM     53  C   LIG d   1       8.450   2.992  -4.086  0.00  0.00    -0.060 C 
ATOM     54  H   LIG d   1       8.641   3.771  -3.333  0.00  0.00     0.023 H 
ATOM     55  H   LIG d   1       8.629   2.002  -3.644  0.00  0.00     0.023 H 
ATOM     56  H   LIG d   1       7.404   3.059  -4.425  0.00  0.00     0.023 H 
ENDBRANCH   1  53
BRANCH   7  57
ATOM     57  C   LIG d   1      10.798   2.140  -7.620  0.00  0.00    -0.059 C 
ATOM     58  H   LIG d   1      11.663   2.598  -8.123  0.00  0.00     0.024 H 
ATOM     59  H   LIG d   1      10.581   1.164  -8.078  0.00  0.00     0.024 H 
ATOM     60  H   LIG d   1      11.026   2.001  -6.553  0.00  0.00     0.024 H 
ENDBRANCH   7  57
BRANCH   3  61
ATOM     61  N   LIG d   1      10.557   4.979  -4.086  0.00  0.00    -0.312 N 
ATOM     62  C   LIG d   1      10.158   6.025  -3.336  0.00  0.00     0.216 C 
ATOM     63  O   LIG d   1       9.211   6.696  -3.686  0.00  0.00    -0.276 OA
ATOM     64  H   LIG d   1      11.416   4.370  -3.768  0.00  0.00     0.149 HD
BRANCH  62  65
ATOM     65  C   LIG d   1      10.888   6.360  -2.061  0.00  0.00     0.036 C 
ATOM     66  C   LIG d   1       9.983   7.203  -1.161  0.00  0.00    -0.042 C 
ATOM     67  C   LIG d   1      10.724   7.545   0.133  0.00  0.00    -0.052 C 
ATOM     68  H   LIG d   1       9.709   8.132  -1.683  0.00  0.00     0.027 H 
ATOM     69  H   LIG d   1       9.071   6.636  -0.923  0.00  0.00     0.027 H 
ATOM     70  C   LIG d   1      11.104   6.252   0.859  0.00  0.00    -0.053 C 
ATOM     71  H   LIG d   1      10.073   8.151   0.780  0.00  0.00     0.026 H 
ATOM     72  H   LIG d   1      11.636   8.113  -0.105  0.00  0.00     0.026 H 
ATOM     73  C   LIG d   1      12.010   5.409  -0.042  0.00  0.00    -0.052 C 
ATOM     74  H   LIG d   1      10.193   5.684   1.097  0.00  0.00     0.026 H 
ATOM     75  H   LIG d   1      11.637   6.497   1.789  0.00  0.00     0.026 H 
ATOM     76  C   LIG d   1      11.268   5.068  -1.335  0.00  0.00    -0.042 C 
ATOM     77  H   LIG d   1      12.282   4.480   0.481  0.00  0.00     0.026 H 
ATOM     78  H   LIG d   1      12.921   5.977  -0.280  0.00  0.00     0.026 H 
ATOM     79  H   LIG d   1      10.357   4.500  -1.098  0.00  0.00     0.027 H 
ATOM     80  H   LIG d   1      11.919   4.462  -1.982  0.00  0.00     0.027 H 
ATOM     81  H   LIG d   1      11.796   6.928  -2.315  0.00  0.00     0.039 H 
ENDBRANCH  62  65
ENDBRANCH   3  61
TORSDOF 11
ENDMDL
MODEL 2
REMARK VINA RESULT:      -6.6      1.433      1.705
REMARK  11 active torsions:
REMARK  status: ('A' for Active; 'I' for Inactive)
REMARK    1  A    between atoms: C_1  and  C_2 
REMARK    2  A    between atoms: C_4  and  N_33 
REMARK    3  A    between atoms: C_8  and  C_32 
REMARK    4  A    between atoms: C_11  and  O_31 
REMARK    5  A    between atoms: C_13  and  C_17 
REMARK    6  A    between atoms: C_17  and  C_19 
REMARK    7  A    between atoms: C_17  and  C_20 
REMARK       I    between atoms: C_20  and  N_22 
REMARK    8  A    between atoms: N_22  and  C_23 
REMARK    9  A    between atoms: N_22  and  C_24 
REMARK   10  A    between atoms: C_24  and  C_25 
REMARK       I    between atoms: N_33  and  C_34 
REMARK   11  A    between atoms: C_34  and  C_36 
ROOT
ATOM      1  C   LIG d   1      10.204   3.630  -4.426  0.00  0.00    -0.020 C 
ATOM      2  H   LIG d   1      11.254   3.320  -4.539  0.00  0.00     0.032 H 
ATOM      3  C   LIG d   1      10.111   5.155  -4.501  0.00  0.00     0.026 C 
ATOM      4  H   LIG d   1       9.073   5.488  -4.352  0.00  0.00     0.050 H 
ATOM      5  C   LIG d   1      10.641   5.634  -5.853  0.00  0.00    -0.034 C 
ATOM      6  C   LIG d   1       9.804   5.016  -6.976  0.00  0.00    -0.046 C 
ATOM      7  C   LIG d   1       9.898   3.491  -6.902  0.00  0.00    -0.026 C 
ATOM      8  C   LIG d   1       9.367   3.013  -5.549  0.00  0.00    -0.005 C 
ATOM      9  H   LIG d   1       8.317   3.322  -5.437  0.00  0.00     0.033 H 
ATOM     10  C   LIG d   1       9.460   1.488  -5.475  0.00  0.00     0.062 C 
ATOM     11  H   LIG d   1      10.506   1.149  -5.525  0.00  0.00     0.060 H 
ATOM     12  C   LIG d   1       8.624   0.870  -6.598  0.00  0.00    -0.004 C 
ATOM     13  H   LIG d   1       7.575   1.179  -6.485  0.00  0.00     0.033 H 
ATOM     14  C   LIG d   1       9.154   1.348  -7.951  0.00  0.00    -0.047 C 
ATOM     15  C   LIG d   1       9.061   2.874  -8.025  0.00  0.00    -0.047 C 
ATOM     16  H   LIG d   1      10.574   6.730  -5.907  0.00  0.00     0.028 H 
ATOM     17  H   LIG d   1      11.691   5.324  -5.967  0.00  0.00     0.028 H 
ATOM     18  H   LIG d   1       8.755   5.326  -6.864  0.00  0.00     0.027 H 
ATOM     19  H   LIG d   1      10.186   5.361  -7.949  0.00  0.00     0.027 H 
ATOM     20  H   LIG d   1      10.204   1.039  -8.063  0.00  0.00     0.027 H 
ATOM     21  H   LIG d   1       8.553   0.905  -8.758  0.00  0.00     0.027 H 
ATOM     22  H   LIG d   1       8.011   3.183  -7.912  0.00  0.00     0.027 H 
ATOM     23  H   LIG d   1       9.442   3.217  -8.998  0.00  0.00     0.027 H 
ENDROOT
BRANCH  12  24
ATOM     24  C   LIG d   1       8.717  -0.655  -6.523  0.00  0.00     0.038 C 
ATOM     25  H   LIG d   1       9.228  -0.954  -5.596  0.00  0.00     0.040 H 
BRANCH  24  26
ATOM     26  C   LIG d   1       9.490  -1.179  -7.735  0.00  0.00    -0.054 C 
ATOM     27  H   LIG d   1       8.847  -1.856  -8.315  0.00  0.00     0.024 H 
ATOM     28  H   LIG d   1      10.382  -1.723  -7.393  0.00  0.00     0.024 H 
ATOM     29  H   LIG d   1       9.796  -0.333  -8.368  0.00  0.00     0.024 H 
ENDBRANCH  24  26
BRANCH  24  30
ATOM     30  C   LIG d   1       7.329  -1.243  -6.520  0.00  0.00     0.219 C 
ATOM     31  O   LIG d   1       6.567  -1.003  -7.432  0.00  0.00    -0.275 OA
ATOM     32  N   LIG d   1       6.936  -2.036  -5.504  0.00  0.00    -0.300 N 
BRANCH  32  33
ATOM     33  C   LIG d   1       7.816  -2.239  -4.350  0.00  0.00     0.004 C 
ATOM     34  H   LIG d   1       8.633  -1.504  -4.378  0.00  0.00     0.043 H 
ATOM     35  H   LIG d   1       8.235  -3.256  -4.384  0.00  0.00     0.043 H 
ATOM     36  H   LIG d   1       7.240  -2.111  -3.422  0.00  0.00     0.043 H 
ENDBRANCH  32  33
BRANCH  32  37
ATOM     37  C   LIG d   1       5.628  -2.694  -5.552  0.00  0.00     0.039 C 
ATOM     38  H   LIG d   1       5.227  -2.641  -6.574  0.00  0.00     0.051 H 
ATOM     39  H   LIG d   1       5.738  -3.748  -5.254  0.00  0.00     0.051 H 
BRANCH  37  40
ATOM     40  C   LIG d   1       4.682  -2.002  -4.604  0.00  0.00    -0.030 A 
ATOM     41  C   LIG d   1       4.028  -0.850  -5.000  0.00  0.00    -0.057 A 
ATOM     42  C   LIG d   1       3.161  -0.215  -4.131  0.00  0.00    -0.061 A 
ATOM     43  H   LIG d   1       4.196  -0.446  -5.987  0.00  0.00     0.062 H 
ATOM     44  C   LIG d   1       2.946  -0.731  -2.867  0.00  0.00    -0.062 A 
ATOM     45  H   LIG d   1       2.651   0.686  -4.440  0.00  0.00     0.062 H 
ATOM     46  C   LIG d   1       3.599  -1.884  -2.471  0.00  0.00    -0.061 A 
ATOM     47  H   LIG d   1       2.268  -0.235  -2.189  0.00  0.00     0.062 H 
ATOM     48  C   LIG d   1       4.464  -2.522  -3.342  0.00  0.00    -0.057 A 
ATOM     49  H   LIG d   1       3.431  -2.288  -1.485  0.00  0.00     0.062 H 
ATOM     50  H   LIG d   1       4.971  -3.425  -3.034  0.00  0.00     0.062 H 
ENDBRANCH  37  40
ENDBRANCH  32  37
ENDBRANCH  24  30
ENDBRANCH  12  24
BRANCH  10  51
ATOM     51  O   LIG d   1       8.966   1.041  -4.211  0.00  0.00    -0.391 OA
ATOM     52  H   LIG d   1       9.116  -0.004  -3.899  0.00  0.00     0.210 HD
ENDBRANCH  10  51
BRANCH   1  53
ATOM     53  C   LIG d   1       9.674   3.151  -3.073  0.00  0.00    -0.060 C 
ATOM     54  H   LIG d   1       9.953   2.098  -2.922  0.00  0.00     0.023 H 
ATOM     55  H   LIG d   1       8.579   3.248  -3.053  0.00  0.00     0.023 H 
ATOM     56  H   LIG d   1      10.112   3.765  -2.271  0.00  0.00     0.023 H 
ENDBRANCH   1  53
BRANCH   7  57
ATOM     57  C   LIG d   1      11.358   3.061  -7.059  0.00  0.00    -0.059 C 
ATOM     58  H   LIG d   1      12.013   3.935  -6.922  0.00  0.00     0.024 H 
ATOM     59  H   LIG d   1      11.511   2.642  -8.064  0.00  0.00     0.024 H 
ATOM     60  H   LIG d   1      11.600   2.301  -6.303  0.00  0.00     0.024 H 
ENDBRANCH   7  57
BRANCH   3  61
ATOM     61  N   LIG d   1      10.912   5.746  -3.426  0.00  0.00    -0.312 N 
ATOM     62  C   LIG d   1      10.330   6.553  -2.517  0.00  0.00     0.216 C 
ATOM     63  O   LIG d   1       9.143   6.790  -2.589  0.00  0.00    -0.276 OA
ATOM     64  H   LIG d   1      11.989   5.531  -3.360  0.00  0.00     0.149 HD
BRANCH  62  65
ATOM     65  C   LIG d   1      11.154   7.160  -1.411  0.00  0.00     0.036 C 
ATOM     66  C   LIG d   1      11.094   8.686  -1.510  0.00  0.00    -0.042 C 
ATOM     67  C   LIG d   1      11.931   9.304  -0.387  0.00  0.00    -0.052 C 
ATOM     68  H   LIG d   1      11.492   9.007  -2.484  0.00  0.00     0.027 H 
ATOM     69  H   LIG d   1      10.050   9.019  -1.414  0.00  0.00     0.027 H 
ATOM     70  C   LIG d   1      11.376   8.858   0.967  0.00  0.00    -0.053 C 
ATOM     71  H   LIG d   1      11.888  10.400  -0.458  0.00  0.00     0.026 H 
ATOM     72  H   LIG d   1      12.976   8.971  -0.484  0.00  0.00     0.026 H 
ATOM     73  C   LIG d   1      11.435   7.332   1.065  0.00  0.00    -0.052 C 
ATOM     74  H   LIG d   1      10.332   9.191   1.062  0.00  0.00     0.026 H 
ATOM     75  H   LIG d   1      11.978   9.301   1.773  0.00  0.00     0.026 H 
ATOM     76  C   LIG d   1      10.599   6.715  -0.057  0.00  0.00    -0.042 C 
ATOM     77  H   LIG d   1      11.037   7.012   2.039  0.00  0.00     0.026 H 
ATOM     78  H   LIG d   1      12.480   6.999   0.969  0.00  0.00     0.026 H 
ATOM     79  H   LIG d   1       9.555   7.047   0.038  0.00  0.00     0.027 H 
ATOM     80  H   LIG d   1      10.642   5.619   0.014  0.00  0.00     0.027 H 
ATOM     81  H   LIG d   1      12.195   6.820  -1.520  0.00  0.00     0.039 H 
ENDBRANCH  62  65
ENDBRANCH   3  61
TORSDOF 11
ENDMDL
MODEL 3
REMARK VINA RESULT:      -6.6      2.417      4.117
REMARK  11 active torsions:
REMARK  status: ('A' for Active; 'I' for Inactive)
REMARK    1  A    between atoms: C_1  and  C_2 
REMARK    2  A    between atoms: C_4  and  N_33 
REMARK    3  A    between atoms: C_8  and  C_32 
REMARK    4  A    between atoms: C_11  and  O_31 
REMARK    5  A    between atoms: C_13  and  C_17 
REMARK    6  A    between atoms: C_17  and  C_19 
REMARK    7  A    between atoms: C_17  and  C_20 
REMARK       I    between atoms: C_20  and  N_22 
REMARK    8  A    between atoms: N_22  and  C_23 
REMARK    9  A    between atoms: N_22  and  C_24 
REMARK   10  A    between atoms: C_24  and  C_25 
REMARK       I    between atoms: N_33  and  C_34 
REMARK   11  A    between atoms: C_34  and  C_36 
ROOT
ATOM      1  C   LIG d   1      10.389   6.681  -2.850  0.00  0.00    -0.020 C 
ATOM      2  H   LIG d   1      11.477   6.523  -2.910  0.00  0.00     0.032 H 
ATOM      3  C   LIG d   1      10.097   8.177  -2.715  0.00  0.00     0.026 C 
ATOM      4  H   LIG d   1       9.016   8.353  -2.616  0.00  0.00     0.050 H 
ATOM      5  C   LIG d   1      10.654   8.918  -3.932  0.00  0.00    -0.034 C 
ATOM      6  C   LIG d   1       9.991   8.381  -5.203  0.00  0.00    -0.046 C 
ATOM      7  C   LIG d   1      10.283   6.885  -5.338  0.00  0.00    -0.026 C 
ATOM      8  C   LIG d   1       9.726   6.145  -4.120  0.00  0.00    -0.005 C 
ATOM      9  H   LIG d   1       8.639   6.302  -4.062  0.00  0.00     0.033 H 
ATOM     10  C   LIG d   1      10.018   4.649  -4.256  0.00  0.00     0.062 C 
ATOM     11  H   LIG d   1      11.100   4.452  -4.258  0.00  0.00     0.060 H 
ATOM     12  C   LIG d   1       9.355   4.112  -5.527  0.00  0.00    -0.004 C 
ATOM     13  H   LIG d   1       8.268   4.270  -5.466  0.00  0.00     0.033 H 
ATOM     14  C   LIG d   1       9.912   4.853  -6.743  0.00  0.00    -0.047 C 
ATOM     15  C   LIG d   1       9.620   6.349  -6.608  0.00  0.00    -0.047 C 
ATOM     16  H   LIG d   1      10.443   9.993  -3.835  0.00  0.00     0.028 H 
ATOM     17  H   LIG d   1      11.741   8.760  -3.992  0.00  0.00     0.028 H 
ATOM     18  H   LIG d   1       8.904   8.539  -5.143  0.00  0.00     0.027 H 
ATOM     19  H   LIG d   1      10.391   8.914  -6.078  0.00  0.00     0.027 H 
ATOM     20  H   LIG d   1      10.999   4.696  -6.803  0.00  0.00     0.027 H 
ATOM     21  H   LIG d   1       9.436   4.468  -7.657  0.00  0.00     0.027 H 
ATOM     22  H   LIG d   1       8.533   6.507  -6.549  0.00  0.00     0.027 H 
ATOM     23  H   LIG d   1      10.020   6.881  -7.484  0.00  0.00     0.027 H 
ENDROOT
BRANCH  12  24
ATOM     24  C   LIG d   1       9.647   2.617  -5.661  0.00  0.00     0.038 C 
ATOM     25  H   LIG d   1      10.119   2.244  -4.741  0.00  0.00     0.040 H 
BRANCH  24  26
ATOM     26  C   LIG d   1      10.576   2.384  -6.854  0.00  0.00    -0.054 C 
ATOM     27  H   LIG d   1      10.051   2.646  -7.784  0.00  0.00     0.024 H 
ATOM     28  H   LIG d   1      10.873   1.326  -6.886  0.00  0.00     0.024 H 
ATOM     29  H   LIG d   1      11.471   3.015  -6.749  0.00  0.00     0.024 H 
ENDBRANCH  24  26
BRANCH  24  30
ATOM     30  C   LIG d   1       8.355   1.871  -5.877  0.00  0.00     0.219 C 
ATOM     31  O   LIG d   1       7.636   2.160  -6.809  0.00  0.00    -0.275 OA
ATOM     32  N   LIG d   1       8.000   0.882  -5.034  0.00  0.00    -0.300 N 
BRANCH  32  33
ATOM     33  C   LIG d   1       8.813   0.603  -3.847  0.00  0.00     0.004 C 
ATOM     34  H   LIG d   1       9.867   0.495  -4.141  0.00  0.00     0.043 H 
ATOM     35  H   LIG d   1       8.466  -0.330  -3.376  0.00  0.00     0.043 H 
ATOM     36  H   LIG d   1       8.715   1.433  -3.132  0.00  0.00     0.043 H 
ENDBRANCH  32  33
BRANCH  32  37
ATOM     37  C   LIG d   1       6.801   0.084  -5.303  0.00  0.00     0.039 C 
ATOM     38  H   LIG d   1       6.205   0.571  -6.088  0.00  0.00     0.051 H 
ATOM     39  H   LIG d   1       7.097  -0.921  -5.637  0.00  0.00     0.051 H 
BRANCH  37  40
ATOM     40  C   LIG d   1       5.979  -0.027  -4.044  0.00  0.00    -0.030 A 
ATOM     41  C   LIG d   1       5.631   1.113  -3.344  0.00  0.00    -0.057 A 
ATOM     42  C   LIG d   1       4.877   1.011  -2.189  0.00  0.00    -0.061 A 
ATOM     43  H   LIG d   1       5.948   2.082  -3.698  0.00  0.00     0.062 H 
ATOM     44  C   LIG d   1       4.471  -0.230  -1.735  0.00  0.00    -0.062 A 
ATOM     45  H   LIG d   1       4.606   1.901  -1.641  0.00  0.00     0.062 H 
ATOM     46  C   LIG d   1       4.818  -1.370  -2.436  0.00  0.00    -0.061 A 
ATOM     47  H   LIG d   1       3.883  -0.310  -0.834  0.00  0.00     0.062 H 
ATOM     48  C   LIG d   1       5.569  -1.268  -3.594  0.00  0.00    -0.057 A 
ATOM     49  H   LIG d   1       4.500  -2.340  -2.083  0.00  0.00     0.062 H 
ATOM     50  H   LIG d   1       5.836  -2.158  -4.144  0.00  0.00     0.062 H 
ENDBRANCH  37  40
ENDBRANCH  32  37
ENDBRANCH  24  30
ENDBRANCH  12  24
BRANCH  10  51
ATOM     51  O   LIG d   1       9.498   3.957  -3.118  0.00  0.00    -0.391 OA
ATOM     52  H   LIG d   1       8.597   4.332  -2.611  0.00  0.00     0.210 HD
ENDBRANCH  10  51
BRANCH   1  53
ATOM     53  C   LIG d   1       9.833   5.940  -1.633  0.00  0.00    -0.060 C 
ATOM     54  H   LIG d   1       8.747   6.100  -1.570  0.00  0.00     0.023 H 
ATOM     55  H   LIG d   1      10.314   6.322  -0.720  0.00  0.00     0.023 H 
ATOM     56  H   LIG d   1      10.039   4.864  -1.733  0.00  0.00     0.023 H 
ENDBRANCH   1  53
BRANCH   7  57
ATOM     57  C   LIG d   1      11.795   6.667  -5.421  0.00  0.00    -0.059 C 
ATOM     58  H   LIG d   1      12.106   6.650  -6.476  0.00  0.00     0.024 H 
ATOM     59  H   LIG d   1      12.054   5.709  -4.947  0.00  0.00     0.024 H 
ATOM     60  H   LIG d   1      12.313   7.485  -4.900  0.00  0.00     0.024 H 
ENDBRANCH   7  57
BRANCH   3  61
ATOM     61  N   LIG d   1      10.732   8.690  -1.499  0.00  0.00    -0.312 N 
ATOM     62  C   LIG d   1      10.026   9.451  -0.640  0.00  0.00     0.216 C 
ATOM     63  O   LIG d   1       8.865   9.711  -0.873  0.00  0.00    -0.276 OA
ATOM     64  H   LIG d   1      11.786   8.454  -1.286  0.00  0.00     0.149 HD
BRANCH  62  65
ATOM     65  C   LIG d   1      10.679   9.979   0.612  0.00  0.00     0.036 C 
ATOM     66  C   LIG d   1      11.475   8.858   1.283  0.00  0.00    -0.042 C 
ATOM     67  C   LIG d   1      12.138   9.393   2.554  0.00  0.00    -0.052 C 
ATOM     68  H   LIG d   1      10.797   8.031   1.543  0.00  0.00     0.027 H 
ATOM     69  H   LIG d   1      12.248   8.492   0.592  0.00  0.00     0.027 H 
ATOM     70  C   LIG d   1      13.082  10.541   2.192  0.00  0.00    -0.053 C 
ATOM     71  H   LIG d   1      12.710   8.587   3.037  0.00  0.00     0.026 H 
ATOM     72  H   LIG d   1      11.364   9.758   3.246  0.00  0.00     0.026 H 
ATOM     73  C   LIG d   1      12.286  11.663   1.520  0.00  0.00    -0.052 C 
ATOM     74  H   LIG d   1      13.855  10.176   1.500  0.00  0.00     0.026 H 
ATOM     75  H   LIG d   1      13.558  10.926   3.105  0.00  0.00     0.026 H 
ATOM     76  C   LIG d   1      11.623  11.127   0.249  0.00  0.00    -0.042 C 
ATOM     77  H   LIG d   1      12.965  12.488   1.260  0.00  0.00     0.026 H 
ATOM     78  H   LIG d   1      11.512  12.028   2.211  0.00  0.00     0.026 H 
ATOM     79  H   LIG d   1      12.396  10.762  -0.442  0.00  0.00     0.027 H 
ATOM     80  H   LIG d   1      11.052  11.933  -0.233  0.00  0.00     0.027 H 
ATOM     81  H   LIG d   1       9.894  10.340   1.293  0.00  0.00     0.039 H 
ENDBRANCH  62  65
ENDBRANCH   3  61
TORSDOF 11
ENDMDL
MODEL 4
REMARK VINA RESULT:      -6.4      7.187     13.164
REMARK  11 active torsions:
REMARK  status: ('A' for Active; 'I' for Inactive)
REMARK    1  A    between atoms: C_1  and  C_2 
REMARK    2  A    between atoms: C_4  and  N_33 
REMARK    3  A    between atoms: C_8  and  C_32 
REMARK    4  A    between atoms: C_11  and  O_31 
REMARK    5  A    between atoms: C_13  and  C_17 
REMARK    6  A    between atoms: C_17  and  C_19 
REMARK    7  A    between atoms: C_17  and  C_20 
REMARK       I    between atoms: C_20  and  N_22 
REMARK    8  A    between atoms: N_22  and  C_23 
REMARK    9  A    between atoms: N_22  and  C_24 
REMARK   10  A    between atoms: C_24  and  C_25 
REMARK       I    between atoms: N_33  and  C_34 
REMARK   11  A    between atoms: C_34  and  C_36 
ROOT
ATOM      1  C   LIG d   1       6.329  -9.083  -5.733  0.00  0.00    -0.020 C 
ATOM      2  H   LIG d   1       7.055  -9.340  -6.519  0.00  0.00     0.032 H 
ATOM      3  C   LIG d   1       5.947 -10.347  -4.960  0.00  0.00     0.026 C 
ATOM      4  H   LIG d   1       5.192 -10.118  -4.192  0.00  0.00     0.050 H 
ATOM      5  C   LIG d   1       7.198 -10.952  -4.320  0.00  0.00    -0.034 C 
ATOM      6  C   LIG d   1       7.822  -9.935  -3.361  0.00  0.00    -0.046 C 
ATOM      7  C   LIG d   1       8.205  -8.672  -4.135  0.00  0.00    -0.026 C 
ATOM      8  C   LIG d   1       6.953  -8.068  -4.775  0.00  0.00    -0.005 C 
ATOM      9  H   LIG d   1       6.228  -7.810  -3.988  0.00  0.00     0.033 H 
ATOM     10  C   LIG d   1       7.336  -6.804  -5.548  0.00  0.00     0.062 C 
ATOM     11  H   LIG d   1       8.016  -7.037  -6.381  0.00  0.00     0.060 H 
ATOM     12  C   LIG d   1       7.961  -5.788  -4.590  0.00  0.00    -0.004 C 
ATOM     13  H   LIG d   1       7.235  -5.532  -3.804  0.00  0.00     0.033 H 
ATOM     14  C   LIG d   1       9.212  -6.393  -3.950  0.00  0.00    -0.047 C 
ATOM     15  C   LIG d   1       8.830  -7.656  -3.177  0.00  0.00    -0.047 C 
ATOM     16  H   LIG d   1       6.923 -11.859  -3.763  0.00  0.00     0.028 H 
ATOM     17  H   LIG d   1       7.924 -11.208  -5.106  0.00  0.00     0.028 H 
ATOM     18  H   LIG d   1       7.097  -9.679  -2.576  0.00  0.00     0.027 H 
ATOM     19  H   LIG d   1       8.722 -10.370  -2.901  0.00  0.00     0.027 H 
ATOM     20  H   LIG d   1       9.938  -6.650  -4.736  0.00  0.00     0.027 H 
ATOM     21  H   LIG d   1       9.661  -5.663  -3.261  0.00  0.00     0.027 H 
ATOM     22  H   LIG d   1       8.103  -7.400  -2.391  0.00  0.00     0.027 H 
ATOM     23  H   LIG d   1       9.729  -8.090  -2.717  0.00  0.00     0.027 H 
ENDROOT
BRANCH  12  24
ATOM     24  C   LIG d   1       8.342  -4.525  -5.364  0.00  0.00     0.038 C 
ATOM     25  H   LIG d   1       7.779  -4.480  -6.307  0.00  0.00     0.040 H 
BRANCH  24  26
ATOM     26  C   LIG d   1       9.844  -4.540  -5.654  0.00  0.00    -0.054 C 
ATOM     27  H   LIG d   1      10.008  -4.495  -6.741  0.00  0.00     0.024 H 
ATOM     28  H   LIG d   1      10.286  -5.463  -5.254  0.00  0.00     0.024 H 
ATOM     29  H   LIG d   1      10.318  -3.669  -5.177  0.00  0.00     0.024 H 
ENDBRANCH  24  26
BRANCH  24  30
ATOM     30  C   LIG d   1       8.001  -3.309  -4.540  0.00  0.00     0.219 C 
ATOM     31  O   LIG d   1       8.472  -3.177  -3.431  0.00  0.00    -0.275 OA
ATOM     32  N   LIG d   1       7.174  -2.370  -5.038  0.00  0.00    -0.300 N 
BRANCH  32  33
ATOM     33  C   LIG d   1       6.520  -2.579  -6.332  0.00  0.00     0.004 C 
ATOM     34  H   LIG d   1       5.884  -3.474  -6.281  0.00  0.00     0.043 H 
ATOM     35  H   LIG d   1       7.285  -2.717  -7.111  0.00  0.00     0.043 H 
ATOM     36  H   LIG d   1       5.902  -1.703  -6.577  0.00  0.00     0.043 H 
ENDBRANCH  32  33
BRANCH  32  37
ATOM     37  C   LIG d   1       6.927  -1.137  -4.284  0.00  0.00     0.039 C 
ATOM     38  H   LIG d   1       7.602  -1.096  -3.417  0.00  0.00     0.051 H 
ATOM     39  H   LIG d   1       7.110  -0.268  -4.934  0.00  0.00     0.051 H 
BRANCH  37  40
ATOM     40  C   LIG d   1       5.496  -1.117  -3.810  0.00  0.00    -0.030 A 
ATOM     41  C   LIG d   1       4.609  -0.194  -4.331  0.00  0.00    -0.057 A 
ATOM     42  C   LIG d   1       3.297  -0.175  -3.898  0.00  0.00    -0.061 A 
ATOM     43  H   LIG d   1       4.942   0.514  -5.076  0.00  0.00     0.062 H 
ATOM     44  C   LIG d   1       2.871  -1.081  -2.944  0.00  0.00    -0.062 A 
ATOM     45  H   LIG d   1       2.604   0.547  -4.303  0.00  0.00     0.062 H 
ATOM     46  C   LIG d   1       3.757  -2.006  -2.424  0.00  0.00    -0.061 A 
ATOM     47  H   LIG d   1       1.846  -1.067  -2.605  0.00  0.00     0.062 H 
ATOM     48  C   LIG d   1       5.069  -2.027  -2.862  0.00  0.00    -0.057 A 
ATOM     49  H   LIG d   1       3.425  -2.714  -1.680  0.00  0.00     0.062 H 
ATOM     50  H   LIG d   1       5.761  -2.752  -2.459  0.00  0.00     0.062 H 
ENDBRANCH  37  40
ENDBRANCH  32  37
ENDBRANCH  24  30
ENDBRANCH  12  24
BRANCH  10  51
ATOM     51  O   LIG d   1       6.167  -6.239  -6.146  0.00  0.00    -0.391 OA
ATOM     52  H   LIG d   1       5.808  -6.617  -7.115  0.00  0.00     0.210 HD
ENDBRANCH  10  51
BRANCH   1  53
ATOM     53  C   LIG d   1       5.078  -8.478  -6.373  0.00  0.00    -0.060 C 
ATOM     54  H   LIG d   1       4.227  -8.580  -5.683  0.00  0.00     0.023 H 
ATOM     55  H   LIG d   1       4.855  -9.006  -7.312  0.00  0.00     0.023 H 
ATOM     56  H   LIG d   1       5.253  -7.412  -6.584  0.00  0.00     0.023 H 
ENDBRANCH   1  53
BRANCH   7  57
ATOM     57  C   LIG d   1       9.214  -9.030  -5.228  0.00  0.00    -0.059 C 
ATOM     58  H   LIG d   1       9.249 -10.123  -5.351  0.00  0.00     0.024 H 
ATOM     59  H   LIG d   1      10.210  -8.661  -4.943  0.00  0.00     0.024 H 
ATOM     60  H   LIG d   1       8.909  -8.564  -6.176  0.00  0.00     0.024 H 
ENDBRANCH   7  57
BRANCH   3  61
ATOM     61  N   LIG d   1       5.349 -11.319  -5.877  0.00  0.00    -0.312 N 
ATOM     62  C   LIG d   1       4.091 -11.757  -5.670  0.00  0.00     0.216 C 
ATOM     63  O   LIG d   1       3.455 -11.346  -4.723  0.00  0.00    -0.276 OA
ATOM     64  H   LIG d   1       5.926 -11.692  -6.737  0.00  0.00     0.149 HD
BRANCH  62  65
ATOM     65  C   LIG d   1       3.476 -12.757  -6.614  0.00  0.00     0.036 C 
ATOM     66  C   LIG d   1       2.036 -13.045  -6.186  0.00  0.00    -0.042 C 
ATOM     67  C   LIG d   1       1.411 -14.061  -7.144  0.00  0.00    -0.052 C 
ATOM     68  H   LIG d   1       2.032 -13.453  -5.164  0.00  0.00     0.027 H 
ATOM     69  H   LIG d   1       1.453 -12.113  -6.208  0.00  0.00     0.027 H 
ATOM     70  C   LIG d   1       1.416 -13.492  -8.564  0.00  0.00    -0.053 C 
ATOM     71  H   LIG d   1       0.376 -14.268  -6.836  0.00  0.00     0.026 H 
ATOM     72  H   LIG d   1       1.994 -14.994  -7.120  0.00  0.00     0.026 H 
ATOM     73  C   LIG d   1       2.857 -13.203  -8.993  0.00  0.00    -0.052 C 
ATOM     74  H   LIG d   1       0.833 -12.559  -8.587  0.00  0.00     0.026 H 
ATOM     75  H   LIG d   1       0.967 -14.222  -9.253  0.00  0.00     0.026 H 
ATOM     76  C   LIG d   1       3.481 -12.188  -8.035  0.00  0.00    -0.042 C 
ATOM     77  H   LIG d   1       2.860 -12.795 -10.014  0.00  0.00     0.026 H 
ATOM     78  H   LIG d   1       3.439 -14.137  -8.969  0.00  0.00     0.026 H 
ATOM     79  H   LIG d   1       2.899 -11.255  -8.058  0.00  0.00     0.027 H 
ATOM     80  H   LIG d   1       4.516 -11.981  -8.343  0.00  0.00     0.027 H 
ATOM     81  H   LIG d   1       4.068 -13.684  -6.580  0.00  0.00     0.039 H 
ENDBRANCH  62  65
ENDBRANCH   3  61
TORSDOF 11
ENDMDL
MODEL 5
REMARK VINA RESULT:      -6.4      1.871      8.538
REMARK  11 active torsions:
REMARK  status: ('A' for Active; 'I' for Inactive)
REMARK    1  A    between atoms: C_1  and  C_2 
REMARK    2  A    between atoms: C_4  and  N_33 
REMARK    3  A    between atoms: C_8  and  C_32 
REMARK    4  A    between atoms: C_11  and  O_31 
REMARK    5  A    between atoms: C_13  and  C_17 
REMARK    6  A    between atoms: C_17  and  C_19 
REMARK    7  A    between atoms: C_17  and  C_20 
REMARK       I    between atoms: C_20  and  N_22 
REMARK    8  A    between atoms: N_22  and  C_23 
REMARK    9  A    between atoms: N_22  and  C_24 
REMARK   10  A    between atoms: C_24  and  C_25 
REMARK       I    between atoms: N_33  and  C_34 
REMARK   11  A    between atoms: C_34  and  C_36 
ROOT
ATOM      1  C   LIG d   1       8.404   2.256  -5.350  0.00  0.00    -0.020 C 
ATOM      2  H   LIG d   1       7.683   2.826  -5.956  0.00  0.00     0.032 H 
ATOM      3  C   LIG d   1       8.260   0.764  -5.655  0.00  0.00     0.026 C 
ATOM      4  H   LIG d   1       8.947   0.173  -5.031  0.00  0.00     0.050 H 
ATOM      5  C   LIG d   1       8.534   0.517  -7.139  0.00  0.00    -0.034 C 
ATOM      6  C   LIG d   1       9.955   0.972  -7.477  0.00  0.00    -0.046 C 
ATOM      7  C   LIG d   1      10.099   2.465  -7.174  0.00  0.00    -0.026 C 
ATOM      8  C   LIG d   1       9.824   2.711  -5.688  0.00  0.00    -0.005 C 
ATOM      9  H   LIG d   1      10.546   2.142  -5.083  0.00  0.00     0.033 H 
ATOM     10  C   LIG d   1       9.969   4.203  -5.384  0.00  0.00     0.062 C 
ATOM     11  H   LIG d   1       9.220   4.796  -5.930  0.00  0.00     0.060 H 
ATOM     12  C   LIG d   1      11.390   4.659  -5.723  0.00  0.00    -0.004 C 
ATOM     13  H   LIG d   1      12.110   4.090  -5.117  0.00  0.00     0.033 H 
ATOM     14  C   LIG d   1      11.664   4.412  -7.207  0.00  0.00    -0.047 C 
ATOM     15  C   LIG d   1      11.520   2.920  -7.512  0.00  0.00    -0.047 C 
ATOM     16  H   LIG d   1       8.431  -0.556  -7.357  0.00  0.00     0.028 H 
ATOM     17  H   LIG d   1       7.813   1.086  -7.745  0.00  0.00     0.028 H 
ATOM     18  H   LIG d   1      10.676   0.403  -6.873  0.00  0.00     0.027 H 
ATOM     19  H   LIG d   1      10.152   0.795  -8.546  0.00  0.00     0.027 H 
ATOM     20  H   LIG d   1      10.942   4.981  -7.813  0.00  0.00     0.027 H 
ATOM     21  H   LIG d   1      12.685   4.739  -7.451  0.00  0.00     0.027 H 
ATOM     22  H   LIG d   1      12.241   2.350  -6.906  0.00  0.00     0.027 H 
ATOM     23  H   LIG d   1      11.718   2.743  -8.579  0.00  0.00     0.027 H 
ENDROOT
BRANCH  12  24
ATOM     24  C   LIG d   1      11.533   6.151  -5.418  0.00  0.00     0.038 C 
ATOM     25  H   LIG d   1      10.547   6.584  -5.198  0.00  0.00     0.040 H 
BRANCH  24  26
ATOM     26  C   LIG d   1      12.156   6.860  -6.622  0.00  0.00    -0.054 C 
ATOM     27  H   LIG d   1      12.231   7.937  -6.414  0.00  0.00     0.024 H 
ATOM     28  H   LIG d   1      11.525   6.701  -7.508  0.00  0.00     0.024 H 
ATOM     29  H   LIG d   1      13.160   6.452  -6.808  0.00  0.00     0.024 H 
ENDBRANCH  24  26
BRANCH  24  30
ATOM     30  C   LIG d   1      12.420   6.334  -4.213  0.00  0.00     0.219 C 
ATOM     31  O   LIG d   1      13.426   5.669  -4.094  0.00  0.00    -0.275 OA
ATOM     32  N   LIG d   1      12.094   7.238  -3.268  0.00  0.00    -0.300 N 
BRANCH  32  33
ATOM     33  C   LIG d   1      10.825   7.966  -3.356  0.00  0.00     0.004 C 
ATOM     34  H   LIG d   1      10.344   7.749  -4.321  0.00  0.00     0.043 H 
ATOM     35  H   LIG d   1      11.016   9.046  -3.276  0.00  0.00     0.043 H 
ATOM     36  H   LIG d   1      10.163   7.649  -2.537  0.00  0.00     0.043 H 
ENDBRANCH  32  33
BRANCH  32  37
ATOM     37  C   LIG d   1      13.009   7.494  -2.152  0.00  0.00     0.039 C 
ATOM     38  H   LIG d   1      13.916   6.885  -2.274  0.00  0.00     0.051 H 
ATOM     39  H   LIG d   1      13.281   8.560  -2.139  0.00  0.00     0.051 H 
BRANCH  37  40
ATOM     40  C   LIG d   1      12.330   7.133  -0.855  0.00  0.00    -0.030 A 
ATOM     41  C   LIG d   1      12.006   5.816  -0.589  0.00  0.00    -0.057 A 
ATOM     42  C   LIG d   1      11.385   5.485   0.601  0.00  0.00    -0.061 A 
ATOM     43  H   LIG d   1      12.237   5.047  -1.310  0.00  0.00     0.062 H 
ATOM     44  C   LIG d   1      11.088   6.470   1.524  0.00  0.00    -0.062 A 
ATOM     45  H   LIG d   1      11.130   4.456   0.809  0.00  0.00     0.062 H 
ATOM     46  C   LIG d   1      11.414   7.787   1.258  0.00  0.00    -0.061 A 
ATOM     47  H   LIG d   1      10.603   6.212   2.453  0.00  0.00     0.062 H 
ATOM     48  C   LIG d   1      12.040   8.118   0.070  0.00  0.00    -0.057 A 
ATOM     49  H   LIG d   1      11.184   8.557   1.980  0.00  0.00     0.062 H 
ATOM     50  H   LIG d   1      12.298   9.146  -0.136  0.00  0.00     0.062 H 
ENDBRANCH  37  40
ENDBRANCH  32  37
ENDBRANCH  24  30
ENDBRANCH  12  24
BRANCH  10  51
ATOM     51  O   LIG d   1       9.712   4.434  -3.997  0.00  0.00    -0.391 OA
ATOM     52  H   LIG d   1       8.675   4.493  -3.632  0.00  0.00     0.210 HD
ENDBRANCH  10  51
BRANCH   1  53
ATOM     53  C   LIG d   1       8.129   2.503  -3.865  0.00  0.00    -0.060 C 
ATOM     54  H   LIG d   1       8.828   3.262  -3.484  0.00  0.00     0.023 H 
ATOM     55  H   LIG d   1       8.264   1.566  -3.307  0.00  0.00     0.023 H 
ATOM     56  H   LIG d   1       7.096   2.861  -3.739  0.00  0.00     0.023 H 
ENDBRANCH   1  53
BRANCH   7  57
ATOM     57  C   LIG d   1       9.096   3.256  -8.016  0.00  0.00    -0.059 C 
ATOM     58  H   LIG d   1       8.724   2.621  -8.834  0.00  0.00     0.024 H 
ATOM     59  H   LIG d   1       9.589   4.144  -8.436  0.00  0.00     0.024 H 
ATOM     60  H   LIG d   1       8.253   3.569  -7.383  0.00  0.00     0.024 H 
ENDBRANCH   7  57
BRANCH   3  61
ATOM     61  N   LIG d   1       6.899   0.328  -5.331  0.00  0.00    -0.312 N 
ATOM     62  C   LIG d   1       6.705  -0.773  -4.578  0.00  0.00     0.216 C 
ATOM     63  O   LIG d   1       7.657  -1.403  -4.169  0.00  0.00    -0.276 OA
ATOM     64  H   LIG d   1       6.035   0.900  -5.701  0.00  0.00     0.149 HD
BRANCH  62  65
ATOM     65  C   LIG d   1       5.305  -1.221  -4.245  0.00  0.00     0.036 C 
ATOM     66  C   LIG d   1       5.252  -1.684  -2.788  0.00  0.00    -0.042 C 
ATOM     67  C   LIG d   1       3.831  -2.139  -2.448  0.00  0.00    -0.052 C 
ATOM     68  H   LIG d   1       5.950  -2.522  -2.643  0.00  0.00     0.027 H 
ATOM     69  H   LIG d   1       5.538  -0.852  -2.127  0.00  0.00     0.027 H 
ATOM     70  C   LIG d   1       2.861  -0.973  -2.648  0.00  0.00    -0.053 C 
ATOM     71  H   LIG d   1       3.792  -2.472  -1.401  0.00  0.00     0.026 H 
ATOM     72  H   LIG d   1       3.545  -2.972  -3.108  0.00  0.00     0.026 H 
ATOM     73  C   LIG d   1       2.915  -0.509  -4.106  0.00  0.00    -0.052 C 
ATOM     74  H   LIG d   1       3.147  -0.140  -1.988  0.00  0.00     0.026 H 
ATOM     75  H   LIG d   1       1.840  -1.300  -2.405  0.00  0.00     0.026 H 
ATOM     76  C   LIG d   1       4.335  -0.054  -4.445  0.00  0.00    -0.042 C 
ATOM     77  H   LIG d   1       2.217   0.329  -4.249  0.00  0.00     0.026 H 
ATOM     78  H   LIG d   1       2.629  -1.342  -4.766  0.00  0.00     0.026 H 
ATOM     79  H   LIG d   1       4.621   0.778  -3.785  0.00  0.00     0.027 H 
ATOM     80  H   LIG d   1       4.374   0.278  -5.492  0.00  0.00     0.027 H 
ATOM     81  H   LIG d   1       5.034  -2.053  -4.911  0.00  0.00     0.039 H 
ENDBRANCH  62  65
ENDBRANCH   3  61
TORSDOF 11
ENDMDL
MODEL 6
REMARK VINA RESULT:      -6.3      4.541      9.986
REMARK  11 active torsions:
REMARK  status: ('A' for Active; 'I' for Inactive)
REMARK    1  A    between atoms: C_1  and  C_2 
REMARK    2  A    between atoms: C_4  and  N_33 
REMARK    3  A    between atoms: C_8  and  C_32 
REMARK    4  A    between atoms: C_11  and  O_31 
REMARK    5  A    between atoms: C_13  and  C_17 
REMARK    6  A    between atoms: C_17  and  C_19 
REMARK    7  A    between atoms: C_17  and  C_20 
REMARK       I    between atoms: C_20  and  N_22 
REMARK    8  A    between atoms: N_22  and  C_23 
REMARK    9  A    between atoms: N_22  and  C_24 
REMARK   10  A    between atoms: C_24  and  C_25 
REMARK       I    between atoms: N_33  and  C_34 
REMARK   11  A    between atoms: C_34  and  C_36 
ROOT
ATOM      1  C   LIG d   1      10.295   6.244  -6.408  0.00  0.00    -0.020 C 
ATOM      2  H   LIG d   1      11.384   6.093  -6.459  0.00  0.00     0.032 H 
ATOM      3  C   LIG d   1       9.622   5.485  -7.554  0.00  0.00     0.026 C 
ATOM      4  H   LIG d   1       8.535   5.654  -7.544  0.00  0.00     0.050 H 
ATOM      5  C   LIG d   1       9.937   3.993  -7.434  0.00  0.00    -0.034 C 
ATOM      6  C   LIG d   1       9.411   3.468  -6.096  0.00  0.00    -0.046 C 
ATOM      7  C   LIG d   1      10.085   4.226  -4.950  0.00  0.00    -0.026 C 
ATOM      8  C   LIG d   1       9.770   5.718  -5.071  0.00  0.00    -0.005 C 
ATOM      9  H   LIG d   1       8.681   5.868  -5.020  0.00  0.00     0.033 H 
ATOM     10  C   LIG d   1      10.443   6.475  -3.925  0.00  0.00     0.062 C 
ATOM     11  H   LIG d   1      11.538   6.394  -3.982  0.00  0.00     0.060 H 
ATOM     12  C   LIG d   1       9.918   5.950  -2.587  0.00  0.00    -0.004 C 
ATOM     13  H   LIG d   1       8.829   6.101  -2.537  0.00  0.00     0.033 H 
ATOM     14  C   LIG d   1      10.233   4.458  -2.467  0.00  0.00    -0.047 C 
ATOM     15  C   LIG d   1       9.560   3.700  -3.613  0.00  0.00    -0.047 C 
ATOM     16  H   LIG d   1       9.452   3.449  -8.257  0.00  0.00     0.028 H 
ATOM     17  H   LIG d   1      11.025   3.843  -7.484  0.00  0.00     0.028 H 
ATOM     18  H   LIG d   1       8.323   3.618  -6.046  0.00  0.00     0.027 H 
ATOM     19  H   LIG d   1       9.638   2.394  -6.009  0.00  0.00     0.027 H 
ATOM     20  H   LIG d   1      11.321   4.307  -2.518  0.00  0.00     0.027 H 
ATOM     21  H   LIG d   1       9.855   4.080  -1.506  0.00  0.00     0.027 H 
ATOM     22  H   LIG d   1       8.470   3.850  -3.563  0.00  0.00     0.027 H 
ATOM     23  H   LIG d   1       9.785   2.627  -3.525  0.00  0.00     0.027 H 
ENDROOT
BRANCH  12  24
ATOM     24  C   LIG d   1      10.591   6.708  -1.442  0.00  0.00     0.038 C 
ATOM     25  H   LIG d   1      11.586   7.054  -1.757  0.00  0.00     0.040 H 
BRANCH  24  26
ATOM     26  C   LIG d   1      10.720   5.788  -0.227  0.00  0.00    -0.054 C 
ATOM     27  H   LIG d   1      11.619   5.163  -0.335  0.00  0.00     0.024 H 
ATOM     28  H   LIG d   1       9.832   5.143  -0.160  0.00  0.00     0.024 H 
ATOM     29  H   LIG d   1      10.804   6.396   0.685  0.00  0.00     0.024 H 
ENDBRANCH  24  26
BRANCH  24  30
ATOM     30  C   LIG d   1       9.756   7.909  -1.076  0.00  0.00     0.219 C 
ATOM     31  O   LIG d   1       8.560   7.790  -0.916  0.00  0.00    -0.275 OA
ATOM     32  N   LIG d   1      10.340   9.114  -0.926  0.00  0.00    -0.300 N 
BRANCH  32  33
ATOM     33  C   LIG d   1      11.765   9.281  -1.223  0.00  0.00     0.004 C 
ATOM     34  H   LIG d   1      11.891  10.062  -1.987  0.00  0.00     0.043 H 
ATOM     35  H   LIG d   1      12.174   8.331  -1.599  0.00  0.00     0.043 H 
ATOM     36  H   LIG d   1      12.299   9.574  -0.308  0.00  0.00     0.043 H 
ENDBRANCH  32  33
BRANCH  32  37
ATOM     37  C   LIG d   1       9.549  10.259  -0.466  0.00  0.00     0.039 C 
ATOM     38  H   LIG d   1       8.518   9.936  -0.263  0.00  0.00     0.051 H 
ATOM     39  H   LIG d   1       9.995  10.664   0.455  0.00  0.00     0.051 H 
BRANCH  37  40
ATOM     40  C   LIG d   1       9.543  11.325  -1.531  0.00  0.00    -0.030 A 
ATOM     41  C   LIG d   1      10.278  12.483  -1.354  0.00  0.00    -0.057 A 
ATOM     42  C   LIG d   1      10.272  13.460  -2.331  0.00  0.00    -0.061 A 
ATOM     43  H   LIG d   1      10.855  12.624  -0.452  0.00  0.00     0.062 H 
ATOM     44  C   LIG d   1       9.534  13.281  -3.486  0.00  0.00    -0.062 A 
ATOM     45  H   LIG d   1      10.845  14.365  -2.193  0.00  0.00     0.062 H 
ATOM     46  C   LIG d   1       8.800  12.122  -3.664  0.00  0.00    -0.061 A 
ATOM     47  H   LIG d   1       9.529  14.044  -4.249  0.00  0.00     0.062 H 
ATOM     48  C   LIG d   1       8.809  11.142  -2.688  0.00  0.00    -0.057 A 
ATOM     49  H   LIG d   1       8.224  11.980  -4.566  0.00  0.00     0.062 H 
ATOM     50  H   LIG d   1       8.239  10.235  -2.829  0.00  0.00     0.062 H 
ENDBRANCH  37  40
ENDBRANCH  32  37
ENDBRANCH  24  30
ENDBRANCH  12  24
BRANCH  10  51
ATOM     51  O   LIG d   1      10.149   7.870  -4.038  0.00  0.00    -0.391 OA
ATOM     52  H   LIG d   1      10.114   8.346  -5.030  0.00  0.00     0.210 HD
ENDBRANCH  10  51
BRANCH   1  53
ATOM     53  C   LIG d   1       9.981   7.736  -6.529  0.00  0.00    -0.060 C 
ATOM     54  H   LIG d   1       9.995   8.029  -7.589  0.00  0.00     0.023 H 
ATOM     55  H   LIG d   1      10.735   8.315  -5.978  0.00  0.00     0.023 H 
ATOM     56  H   LIG d   1       8.984   7.936  -6.108  0.00  0.00     0.023 H 
ENDBRANCH   1  53
BRANCH   7  57
ATOM     57  C   LIG d   1      11.599   4.016  -5.021  0.00  0.00    -0.059 C 
ATOM     58  H   LIG d   1      11.820   3.154  -5.669  0.00  0.00     0.024 H 
ATOM     59  H   LIG d   1      11.991   3.826  -4.012  0.00  0.00     0.024 H 
ATOM     60  H   LIG d   1      12.075   4.917  -5.435  0.00  0.00     0.024 H 
ENDBRANCH   7  57
BRANCH   3  61
ATOM     61  N   LIG d   1      10.125   5.988  -8.835  0.00  0.00    -0.312 N 
ATOM     62  C   LIG d   1       9.310   6.036  -9.907  0.00  0.00     0.216 C 
ATOM     63  O   LIG d   1       8.161   5.663  -9.813  0.00  0.00    -0.276 OA
ATOM     64  H   LIG d   1      11.168   6.327  -8.921  0.00  0.00     0.149 HD
BRANCH  62  65
ATOM     65  C   LIG d   1       9.828   6.554 -11.224  0.00  0.00     0.036 C 
ATOM     66  C   LIG d   1       8.793   6.290 -12.319  0.00  0.00    -0.042 C 
ATOM     67  C   LIG d   1       9.318   6.815 -13.657  0.00  0.00    -0.052 C 
ATOM     68  H   LIG d   1       8.609   5.208 -12.396  0.00  0.00     0.027 H 
ATOM     69  H   LIG d   1       7.853   6.803 -12.067  0.00  0.00     0.027 H 
ATOM     70  C   LIG d   1       9.573   8.320 -13.549  0.00  0.00    -0.053 C 
ATOM     71  H   LIG d   1       8.574   6.625 -14.443  0.00  0.00     0.026 H 
ATOM     72  H   LIG d   1      10.258   6.301 -13.909  0.00  0.00     0.026 H 
ATOM     73  C   LIG d   1      10.608   8.585 -12.453  0.00  0.00    -0.052 C 
ATOM     74  H   LIG d   1       8.633   8.833 -13.297  0.00  0.00     0.026 H 
ATOM     75  H   LIG d   1       9.950   8.697 -14.510  0.00  0.00     0.026 H 
ATOM     76  C   LIG d   1      10.083   8.059 -11.117  0.00  0.00    -0.042 C 
ATOM     77  H   LIG d   1      10.791   9.667 -12.376  0.00  0.00     0.026 H 
ATOM     78  H   LIG d   1      11.548   8.071 -12.706  0.00  0.00     0.026 H 
ATOM     79  H   LIG d   1       9.143   8.573 -10.864  0.00  0.00     0.027 H 
ATOM     80  H   LIG d   1      10.827   8.250 -10.330  0.00  0.00     0.027 H 
ATOM     81  H   LIG d   1      10.767   6.032 -11.463  0.00  0.00     0.039 H 
ENDBRANCH  62  65
ENDBRANCH   3  61
TORSDOF 11
ENDMDL
MODEL 7
REMARK VINA RESULT:      -6.2      2.719      3.755
REMARK  11 active torsions:
REMARK  status: ('A' for Active; 'I' for Inactive)
REMARK    1  A    between atoms: C_1  and  C_2 
REMARK    2  A    between atoms: C_4  and  N_33 
REMARK    3  A    between atoms: C_8  and  C_32 
REMARK    4  A    between atoms: C_11  and  O_31 
REMARK    5  A    between atoms: C_13  and  C_17 
REMARK    6  A    between atoms: C_17  and  C_19 
REMARK    7  A    between atoms: C_17  and  C_20 
REMARK       I    between atoms: C_20  and  N_22 
REMARK    8  A    between atoms: N_22  and  C_23 
REMARK    9  A    between atoms: N_22  and  C_24 
REMARK   10  A    between atoms: C_24  and  C_25 
REMARK       I    between atoms: N_33  and  C_34 
REMARK   11  A    between atoms: C_34  and  C_36 
ROOT
ATOM      1  C   LIG d   1      10.170   6.247  -4.221  0.00  0.00    -0.020 C 
ATOM      2  H   LIG d   1      11.252   6.071  -4.127  0.00  0.00     0.032 H 
ATOM      3  C   LIG d   1       9.929   7.602  -4.889  0.00  0.00     0.026 C 
ATOM      4  H   LIG d   1       8.851   7.814  -4.958  0.00  0.00     0.050 H 
ATOM      5  C   LIG d   1      10.569   7.608  -6.278  0.00  0.00    -0.034 C 
ATOM      6  C   LIG d   1       9.946   6.501  -7.131  0.00  0.00    -0.046 C 
ATOM      7  C   LIG d   1      10.188   5.145  -6.464  0.00  0.00    -0.026 C 
ATOM      8  C   LIG d   1       9.547   5.140  -5.074  0.00  0.00    -0.005 C 
ATOM      9  H   LIG d   1       8.465   5.314  -5.169  0.00  0.00     0.033 H 
ATOM     10  C   LIG d   1       9.788   3.784  -4.408  0.00  0.00     0.062 C 
ATOM     11  H   LIG d   1      10.862   3.606  -4.244  0.00  0.00     0.060 H 
ATOM     12  C   LIG d   1       9.166   2.677  -5.261  0.00  0.00    -0.004 C 
ATOM     13  H   LIG d   1       8.084   2.853  -5.355  0.00  0.00     0.033 H 
ATOM     14  C   LIG d   1       9.806   2.683  -6.650  0.00  0.00    -0.047 C 
ATOM     15  C   LIG d   1       9.566   4.039  -7.317  0.00  0.00    -0.047 C 
ATOM     16  H   LIG d   1      10.395   8.582  -6.758  0.00  0.00     0.028 H 
ATOM     17  H   LIG d   1      11.651   7.433  -6.184  0.00  0.00     0.028 H 
ATOM     18  H   LIG d   1       8.865   6.676  -7.226  0.00  0.00     0.027 H 
ATOM     19  H   LIG d   1      10.407   6.505  -8.131  0.00  0.00     0.027 H 
ATOM     20  H   LIG d   1      10.889   2.509  -6.556  0.00  0.00     0.027 H 
ATOM     21  H   LIG d   1       9.359   1.888  -7.263  0.00  0.00     0.027 H 
ATOM     22  H   LIG d   1       8.483   4.214  -7.412  0.00  0.00     0.027 H 
ATOM     23  H   LIG d   1      10.025   4.042  -8.316  0.00  0.00     0.027 H 
ENDROOT
BRANCH  12  24
ATOM     24  C   LIG d   1       9.407   1.323  -4.593  0.00  0.00     0.038 C 
ATOM     25  H   LIG d   1       9.225   1.400  -3.512  0.00  0.00     0.040 H 
BRANCH  24  26
ATOM     26  C   LIG d   1      10.849   0.879  -4.846  0.00  0.00    -0.054 C 
ATOM     27  H   LIG d   1      11.495   1.251  -4.037  0.00  0.00     0.024 H 
ATOM     28  H   LIG d   1      11.195   1.286  -5.807  0.00  0.00     0.024 H 
ATOM     29  H   LIG d   1      10.895  -0.220  -4.874  0.00  0.00     0.024 H 
ENDBRANCH  24  26
BRANCH  24  30
ATOM     30  C   LIG d   1       8.459   0.303  -5.170  0.00  0.00     0.219 C 
ATOM     31  O   LIG d   1       8.783  -0.345  -6.142  0.00  0.00    -0.275 OA
ATOM     32  N   LIG d   1       7.251   0.110  -4.604  0.00  0.00    -0.300 N 
BRANCH  32  33
ATOM     33  C   LIG d   1       6.816   0.966  -3.497  0.00  0.00     0.004 C 
ATOM     34  H   LIG d   1       7.581   0.961  -2.707  0.00  0.00     0.043 H 
ATOM     35  H   LIG d   1       5.867   0.584  -3.091  0.00  0.00     0.043 H 
ATOM     36  H   LIG d   1       6.672   1.993  -3.861  0.00  0.00     0.043 H 
ENDBRANCH  32  33
BRANCH  32  37
ATOM     37  C   LIG d   1       6.372  -0.954  -5.096  0.00  0.00     0.039 C 
ATOM     38  H   LIG d   1       6.111  -0.758  -6.146  0.00  0.00     0.051 H 
ATOM     39  H   LIG d   1       6.891  -1.921  -5.020  0.00  0.00     0.051 H 
BRANCH  37  40
ATOM     40  C   LIG d   1       5.116  -0.992  -4.263  0.00  0.00    -0.030 A 
ATOM     41  C   LIG d   1       4.027  -0.219  -4.621  0.00  0.00    -0.057 A 
ATOM     42  C   LIG d   1       2.875  -0.254  -3.858  0.00  0.00    -0.061 A 
ATOM     43  H   LIG d   1       4.077   0.413  -5.495  0.00  0.00     0.062 H 
ATOM     44  C   LIG d   1       2.811  -1.062  -2.738  0.00  0.00    -0.062 A 
ATOM     45  H   LIG d   1       2.025   0.351  -4.136  0.00  0.00     0.062 H 
ATOM     46  C   LIG d   1       3.899  -1.836  -2.381  0.00  0.00    -0.061 A 
ATOM     47  H   LIG d   1       1.911  -1.090  -2.142  0.00  0.00     0.062 H 
ATOM     48  C   LIG d   1       5.051  -1.805  -3.147  0.00  0.00    -0.057 A 
ATOM     49  H   LIG d   1       3.850  -2.469  -1.508  0.00  0.00     0.062 H 
ATOM     50  H   LIG d   1       5.900  -2.413  -2.871  0.00  0.00     0.062 H 
ENDBRANCH  37  40
ENDBRANCH  32  37
ENDBRANCH  24  30
ENDBRANCH  12  24
BRANCH  10  51
ATOM     51  O   LIG d   1       9.191   3.779  -3.109  0.00  0.00    -0.391 OA
ATOM     52  H   LIG d   1       9.820   3.663  -2.214  0.00  0.00     0.210 HD
ENDBRANCH  10  51
BRANCH   1  53
ATOM     53  C   LIG d   1       9.530   6.241  -2.832  0.00  0.00    -0.060 C 
ATOM     54  H   LIG d   1      10.295   6.469  -2.075  0.00  0.00     0.023 H 
ATOM     55  H   LIG d   1       9.099   5.249  -2.631  0.00  0.00     0.023 H 
ATOM     56  H   LIG d   1       8.736   7.002  -2.791  0.00  0.00     0.023 H 
ENDBRANCH   1  53
BRANCH   7  57
ATOM     57  C   LIG d   1      11.693   4.903  -6.333  0.00  0.00    -0.059 C 
ATOM     58  H   LIG d   1      11.890   4.301  -5.432  0.00  0.00     0.024 H 
ATOM     59  H   LIG d   1      12.214   5.868  -6.250  0.00  0.00     0.024 H 
ATOM     60  H   LIG d   1      12.057   4.364  -7.220  0.00  0.00     0.024 H 
ENDBRANCH   7  57
BRANCH   3  61
ATOM     61  N   LIG d   1      10.525   8.662  -4.072  0.00  0.00    -0.312 N 
ATOM     62  C   LIG d   1      10.021   9.911  -4.116  0.00  0.00     0.216 C 
ATOM     63  O   LIG d   1       9.073  10.158  -4.830  0.00  0.00    -0.276 OA
ATOM     64  H   LIG d   1      11.385   8.438  -3.423  0.00  0.00     0.149 HD
BRANCH  62  65
ATOM     65  C   LIG d   1      10.634  11.001  -3.275  0.00  0.00     0.036 C 
ATOM     66  C   LIG d   1       9.570  12.048  -2.941  0.00  0.00    -0.042 C 
ATOM     67  C   LIG d   1      10.192  13.155  -2.087  0.00  0.00    -0.052 C 
ATOM     68  H   LIG d   1       9.175  12.480  -3.873  0.00  0.00     0.027 H 
ATOM     69  H   LIG d   1       8.749  11.572  -2.383  0.00  0.00     0.027 H 
ATOM     70  C   LIG d   1      10.739  12.553  -0.791  0.00  0.00    -0.053 C 
ATOM     71  H   LIG d   1       9.427  13.907  -1.848  0.00  0.00     0.026 H 
ATOM     72  H   LIG d   1      11.012  13.631  -2.646  0.00  0.00     0.026 H 
ATOM     73  C   LIG d   1      11.803  11.505  -1.125  0.00  0.00    -0.052 C 
ATOM     74  H   LIG d   1       9.919  12.077  -0.234  0.00  0.00     0.026 H 
ATOM     75  H   LIG d   1      11.186  13.348  -0.179  0.00  0.00     0.026 H 
ATOM     76  C   LIG d   1      11.181  10.399  -1.979  0.00  0.00    -0.042 C 
ATOM     77  H   LIG d   1      12.196  11.073  -0.193  0.00  0.00     0.026 H 
ATOM     78  H   LIG d   1      12.623  11.981  -1.684  0.00  0.00     0.026 H 
ATOM     79  H   LIG d   1      10.361   9.923  -1.421  0.00  0.00     0.027 H 
ATOM     80  H   LIG d   1      11.946   9.647  -2.218  0.00  0.00     0.027 H 
ATOM     81  H   LIG d   1      11.451  11.467  -3.845  0.00  0.00     0.039 H 
ENDBRANCH  62  65
ENDBRANCH   3  61
TORSDOF 11
ENDMDL
MODEL 8
REMARK VINA RESULT:      -6.2      3.930      6.489
REMARK  11 active torsions:
REMARK  status: ('A' for Active; 'I' for Inactive)
REMARK    1  A    between atoms: C_1  and  C_2 
REMARK    2  A    between atoms: C_4  and  N_33 
REMARK    3  A    between atoms: C_8  and  C_32 
REMARK    4  A    between atoms: C_11  and  O_31 
REMARK    5  A    between atoms: C_13  and  C_17 
REMARK    6  A    between atoms: C_17  and  C_19 
REMARK    7  A    between atoms: C_17  and  C_20 
REMARK       I    between atoms: C_20  and  N_22 
REMARK    8  A    between atoms: N_22  and  C_23 
REMARK    9  A    between atoms: N_22  and  C_24 
REMARK   10  A    between atoms: C_24  and  C_25 
REMARK       I    between atoms: N_33  and  C_34 
REMARK   11  A    between atoms: C_34  and  C_36 
ROOT
ATOM      1  C   LIG d   1       6.883  -0.135  -5.163  0.00  0.00    -0.020 C 
ATOM      2  H   LIG d   1       6.102   0.287  -5.814  0.00  0.00     0.032 H 
ATOM      3  C   LIG d   1       7.169   0.834  -4.015  0.00  0.00     0.026 C 
ATOM      4  H   LIG d   1       7.974   0.448  -3.373  0.00  0.00     0.050 H 
ATOM      5  C   LIG d   1       5.892   1.054  -3.202  0.00  0.00    -0.034 C 
ATOM      6  C   LIG d   1       5.413  -0.285  -2.634  0.00  0.00    -0.046 C 
ATOM      7  C   LIG d   1       5.126  -1.254  -3.783  0.00  0.00    -0.026 C 
ATOM      8  C   LIG d   1       6.405  -1.472  -4.595  0.00  0.00    -0.005 C 
ATOM      9  H   LIG d   1       7.185  -1.895  -3.945  0.00  0.00     0.033 H 
ATOM     10  C   LIG d   1       6.119  -2.442  -5.744  0.00  0.00     0.062 C 
ATOM     11  H   LIG d   1       5.384  -2.022  -6.447  0.00  0.00     0.060 H 
ATOM     12  C   LIG d   1       5.640  -3.780  -5.176  0.00  0.00    -0.004 C 
ATOM     13  H   LIG d   1       6.421  -4.201  -4.526  0.00  0.00     0.033 H 
ATOM     14  C   LIG d   1       4.363  -3.561  -4.363  0.00  0.00    -0.047 C 
ATOM     15  C   LIG d   1       4.648  -2.591  -3.215  0.00  0.00    -0.047 C 
ATOM     16  H   LIG d   1       6.098   1.750  -2.376  0.00  0.00     0.028 H 
ATOM     17  H   LIG d   1       5.111   1.475  -3.852  0.00  0.00     0.028 H 
ATOM     18  H   LIG d   1       6.193  -0.706  -1.983  0.00  0.00     0.027 H 
ATOM     19  H   LIG d   1       4.494  -0.127  -2.049  0.00  0.00     0.027 H 
ATOM     20  H   LIG d   1       3.582  -3.138  -5.013  0.00  0.00     0.027 H 
ATOM     21  H   LIG d   1       4.018  -4.522  -3.955  0.00  0.00     0.027 H 
ATOM     22  H   LIG d   1       5.429  -3.013  -2.564  0.00  0.00     0.027 H 
ATOM     23  H   LIG d   1       3.730  -2.435  -2.630  0.00  0.00     0.027 H 
ENDROOT
BRANCH  12  24
ATOM     24  C   LIG d   1       5.354  -4.748  -6.325  0.00  0.00     0.038 C 
ATOM     25  H   LIG d   1       6.054  -4.564  -7.152  0.00  0.00     0.040 H 
BRANCH  24  26
ATOM     26  C   LIG d   1       3.916  -4.556  -6.808  0.00  0.00    -0.054 C 
ATOM     27  H   LIG d   1       3.740  -3.492  -7.022  0.00  0.00     0.024 H 
ATOM     28  H   LIG d   1       3.219  -4.894  -6.027  0.00  0.00     0.024 H 
ATOM     29  H   LIG d   1       3.755  -5.145  -7.723  0.00  0.00     0.024 H 
ENDBRANCH  24  26
BRANCH  24  30
ATOM     30  C   LIG d   1       5.538  -6.165  -5.844  0.00  0.00     0.219 C 
ATOM     31  O   LIG d   1       4.664  -6.706  -5.202  0.00  0.00    -0.275 OA
ATOM     32  N   LIG d   1       6.675  -6.831  -6.129  0.00  0.00    -0.300 N 
BRANCH  32  33
ATOM     33  C   LIG d   1       7.775  -6.144  -6.811  0.00  0.00     0.004 C 
ATOM     34  H   LIG d   1       8.052  -6.704  -7.716  0.00  0.00     0.043 H 
ATOM     35  H   LIG d   1       8.643  -6.084  -6.138  0.00  0.00     0.043 H 
ATOM     36  H   LIG d   1       7.457  -5.129  -7.091  0.00  0.00     0.043 H 
ENDBRANCH  32  33
BRANCH  32  37
ATOM     37  C   LIG d   1       6.811  -8.241  -5.757  0.00  0.00     0.039 C 
ATOM     38  H   LIG d   1       5.816  -8.706  -5.708  0.00  0.00     0.051 H 
ATOM     39  H   LIG d   1       7.423  -8.760  -6.509  0.00  0.00     0.051 H 
BRANCH  37  40
ATOM     40  C   LIG d   1       7.481  -8.342  -4.410  0.00  0.00    -0.030 A 
ATOM     41  C   LIG d   1       8.545  -7.515  -4.104  0.00  0.00    -0.057 A 
ATOM     42  C   LIG d   1       9.159  -7.607  -2.869  0.00  0.00    -0.061 A 
ATOM     43  H   LIG d   1       8.898  -6.798  -4.830  0.00  0.00     0.062 H 
ATOM     44  C   LIG d   1       8.707  -8.524  -1.939  0.00  0.00    -0.062 A 
ATOM     45  H   LIG d   1       9.992  -6.962  -2.630  0.00  0.00     0.062 H 
ATOM     46  C   LIG d   1       7.641  -9.350  -2.244  0.00  0.00    -0.061 A 
ATOM     47  H   LIG d   1       9.186  -8.596  -0.974  0.00  0.00     0.062 H 
ATOM     48  C   LIG d   1       7.024  -9.255  -3.478  0.00  0.00    -0.057 A 
ATOM     49  H   LIG d   1       7.287 -10.066  -1.517  0.00  0.00     0.062 H 
ATOM     50  H   LIG d   1       6.189  -9.898  -3.715  0.00  0.00     0.062 H 
ENDBRANCH  37  40
ENDBRANCH  32  37
ENDBRANCH  24  30
ENDBRANCH  12  24
BRANCH  10  51
ATOM     51  O   LIG d   1       7.312  -2.646  -6.504  0.00  0.00    -0.391 OA
ATOM     52  H   LIG d   1       8.021  -1.817  -6.647  0.00  0.00     0.210 HD
ENDBRANCH  10  51
BRANCH   1  53
ATOM     53  C   LIG d   1       8.160  -0.354  -5.977  0.00  0.00    -0.060 C 
ATOM     54  H   LIG d   1       8.246   0.430  -6.743  0.00  0.00     0.023 H 
ATOM     55  H   LIG d   1       8.121  -1.340  -6.462  0.00  0.00     0.023 H 
ATOM     56  H   LIG d   1       9.033  -0.308  -5.308  0.00  0.00     0.023 H 
ENDBRANCH   1  53
BRANCH   7  57
ATOM     57  C   LIG d   1       4.041  -0.666  -4.687  0.00  0.00    -0.059 C 
ATOM     58  H   LIG d   1       4.004   0.426  -4.552  0.00  0.00     0.024 H 
ATOM     59  H   LIG d   1       3.067  -1.101  -4.421  0.00  0.00     0.024 H 
ATOM     60  H   LIG d   1       4.273  -0.898  -5.736  0.00  0.00     0.024 H 
ENDBRANCH   7  57
BRANCH   3  61
ATOM     61  N   LIG d   1       7.627   2.115  -4.559  0.00  0.00    -0.312 N 
ATOM     62  C   LIG d   1       8.702   2.728  -4.025  0.00  0.00     0.216 C 
ATOM     63  O   LIG d   1       9.290   2.220  -3.094  0.00  0.00    -0.276 OA
ATOM     64  H   LIG d   1       7.093   2.576  -5.403  0.00  0.00     0.149 HD
BRANCH  62  65
ATOM     65  C   LIG d   1       9.173   4.045  -4.585  0.00  0.00     0.036 C 
ATOM     66  C   LIG d   1      10.355   4.557  -3.759  0.00  0.00    -0.042 C 
ATOM     67  C   LIG d   1      10.833   5.895  -4.327  0.00  0.00    -0.052 C 
ATOM     68  H   LIG d   1      10.040   4.694  -2.714  0.00  0.00     0.027 H 
ATOM     69  H   LIG d   1      11.176   3.827  -3.801  0.00  0.00     0.027 H 
ATOM     70  C   LIG d   1      11.272   5.704  -5.781  0.00  0.00    -0.053 C 
ATOM     71  H   LIG d   1      11.683   6.263  -3.734  0.00  0.00     0.026 H 
ATOM     72  H   LIG d   1      10.012   6.626  -4.284  0.00  0.00     0.026 H 
ATOM     73  C   LIG d   1      10.089   5.192  -6.607  0.00  0.00    -0.052 C 
ATOM     74  H   LIG d   1      12.092   4.973  -5.823  0.00  0.00     0.026 H 
ATOM     75  H   LIG d   1      11.615   6.665  -6.189  0.00  0.00     0.026 H 
ATOM     76  C   LIG d   1       9.611   3.855  -6.038  0.00  0.00    -0.042 C 
ATOM     77  H   LIG d   1      10.405   5.055  -7.651  0.00  0.00     0.026 H 
ATOM     78  H   LIG d   1       9.268   5.923  -6.564  0.00  0.00     0.026 H 
ATOM     79  H   LIG d   1      10.431   3.123  -6.081  0.00  0.00     0.027 H 
ATOM     80  H   LIG d   1       8.762   3.487  -6.632  0.00  0.00     0.027 H 
ATOM     81  H   LIG d   1       8.343   4.766  -4.536  0.00  0.00     0.039 H 
ENDBRANCH  62  65
ENDBRANCH   3  61
TORSDOF 11
ENDMDL
MODEL 9
REMARK VINA RESULT:      -6.2      6.484     11.941
REMARK  11 active torsions:
REMARK  status: ('A' for Active; 'I' for Inactive)
REMARK    1  A    between atoms: C_1  and  C_2 
REMARK    2  A    between atoms: C_4  and  N_33 
REMARK    3  A    between atoms: C_8  and  C_32 
REMARK    4  A    between atoms: C_11  and  O_31 
REMARK    5  A    between atoms: C_13  and  C_17 
REMARK    6  A    between atoms: C_17  and  C_19 
REMARK    7  A    between atoms: C_17  and  C_20 
REMARK       I    between atoms: C_20  and  N_22 
REMARK    8  A    between atoms: N_22  and  C_23 
REMARK    9  A    between atoms: N_22  and  C_24 
REMARK   10  A    between atoms: C_24  and  C_25 
REMARK       I    between atoms: N_33  and  C_34 
REMARK   11  A    between atoms: C_34  and  C_36 
ROOT
ATOM      1  C   LIG d   1       1.676  -2.586 -10.904  0.00  0.00    -0.020 C 
ATOM      2  H   LIG d   1       2.481  -2.284 -11.592  0.00  0.00     0.032 H 
ATOM      3  C   LIG d   1       0.487  -3.114 -11.710  0.00  0.00     0.026 C 
ATOM      4  H   LIG d   1      -0.343  -3.386 -11.041  0.00  0.00     0.050 H 
ATOM      5  C   LIG d   1       0.928  -4.321 -12.539  0.00  0.00    -0.034 C 
ATOM      6  C   LIG d   1       1.441  -5.420 -11.605  0.00  0.00    -0.046 C 
ATOM      7  C   LIG d   1       2.631  -4.893 -10.800  0.00  0.00    -0.026 C 
ATOM      8  C   LIG d   1       2.188  -3.685  -9.971  0.00  0.00    -0.005 C 
ATOM      9  H   LIG d   1       1.385  -3.987  -9.283  0.00  0.00     0.033 H 
ATOM     10  C   LIG d   1       3.377  -3.158  -9.166  0.00  0.00     0.062 C 
ATOM     11  H   LIG d   1       4.177  -2.792  -9.827  0.00  0.00     0.060 H 
ATOM     12  C   LIG d   1       3.890  -4.257  -8.233  0.00  0.00    -0.004 C 
ATOM     13  H   LIG d   1       3.086  -4.558  -7.546  0.00  0.00     0.033 H 
ATOM     14  C   LIG d   1       4.332  -5.464  -9.062  0.00  0.00    -0.047 C 
ATOM     15  C   LIG d   1       3.143  -5.992  -9.868  0.00  0.00    -0.047 C 
ATOM     16  H   LIG d   1       0.073  -4.701 -13.117  0.00  0.00     0.028 H 
ATOM     17  H   LIG d   1       1.733  -4.020 -13.226  0.00  0.00     0.028 H 
ATOM     18  H   LIG d   1       0.637  -5.722 -10.919  0.00  0.00     0.027 H 
ATOM     19  H   LIG d   1       1.758  -6.289 -12.202  0.00  0.00     0.027 H 
ATOM     20  H   LIG d   1       5.135  -5.163  -9.750  0.00  0.00     0.027 H 
ATOM     21  H   LIG d   1       4.700  -6.254  -8.392  0.00  0.00     0.027 H 
ATOM     22  H   LIG d   1       2.338  -6.293  -9.180  0.00  0.00     0.027 H 
ATOM     23  H   LIG d   1       3.460  -6.860 -10.463  0.00  0.00     0.027 H 
ENDROOT
BRANCH  12  24
ATOM     24  C   LIG d   1       5.079  -3.729  -7.428  0.00  0.00     0.038 C 
ATOM     25  H   LIG d   1       5.301  -2.693  -7.724  0.00  0.00     0.040 H 
BRANCH  24  26
ATOM     26  C   LIG d   1       6.300  -4.615  -7.679  0.00  0.00    -0.054 C 
ATOM     27  H   LIG d   1       6.025  -5.433  -8.361  0.00  0.00     0.024 H 
ATOM     28  H   LIG d   1       6.650  -5.035  -6.726  0.00  0.00     0.024 H 
ATOM     29  H   LIG d   1       7.101  -4.014  -8.133  0.00  0.00     0.024 H 
ENDBRANCH  24  26
BRANCH  24  30
ATOM     30  C   LIG d   1       4.738  -3.747  -5.960  0.00  0.00     0.219 C 
ATOM     31  O   LIG d   1       4.059  -4.643  -5.506  0.00  0.00    -0.275 OA
ATOM     32  N   LIG d   1       5.189  -2.768  -5.151  0.00  0.00    -0.300 N 
BRANCH  32  33
ATOM     33  C   LIG d   1       5.917  -1.628  -5.716  0.00  0.00     0.004 C 
ATOM     34  H   LIG d   1       6.905  -1.552  -5.239  0.00  0.00     0.043 H 
ATOM     35  H   LIG d   1       5.350  -0.704  -5.533  0.00  0.00     0.043 H 
ATOM     36  H   LIG d   1       6.043  -1.773  -6.798  0.00  0.00     0.043 H 
ENDBRANCH  32  33
BRANCH  32  37
ATOM     37  C   LIG d   1       4.950  -2.841  -3.708  0.00  0.00     0.039 C 
ATOM     38  H   LIG d   1       4.196  -3.613  -3.499  0.00  0.00     0.051 H 
ATOM     39  H   LIG d   1       5.889  -3.096  -3.194  0.00  0.00     0.051 H 
BRANCH  37  40
ATOM     40  C   LIG d   1       4.454  -1.506  -3.213  0.00  0.00    -0.030 A 
ATOM     41  C   LIG d   1       3.185  -1.073  -3.550  0.00  0.00    -0.057 A 
ATOM     42  C   LIG d   1       2.730   0.151  -3.096  0.00  0.00    -0.061 A 
ATOM     43  H   LIG d   1       2.551  -1.690  -4.169  0.00  0.00     0.062 H 
ATOM     44  C   LIG d   1       3.542   0.941  -2.304  0.00  0.00    -0.062 A 
ATOM     45  H   LIG d   1       1.739   0.490  -3.361  0.00  0.00     0.062 H 
ATOM     46  C   LIG d   1       4.810   0.507  -1.966  0.00  0.00    -0.061 A 
ATOM     47  H   LIG d   1       3.186   1.897  -1.950  0.00  0.00     0.062 H 
ATOM     48  C   LIG d   1       5.264  -0.719  -2.416  0.00  0.00    -0.057 A 
ATOM     49  H   LIG d   1       5.445   1.123  -1.346  0.00  0.00     0.062 H 
ATOM     50  H   LIG d   1       6.254  -1.060  -2.148  0.00  0.00     0.062 H 
ENDBRANCH  37  40
ENDBRANCH  32  37
ENDBRANCH  24  30
ENDBRANCH  12  24
BRANCH  10  51
ATOM     51  O   LIG d   1       2.965  -2.029  -8.392  0.00  0.00    -0.391 OA
ATOM     52  H   LIG d   1       1.901  -1.883  -8.155  0.00  0.00     0.210 HD
ENDBRANCH  10  51
BRANCH   1  53
ATOM     53  C   LIG d   1       1.235  -1.378 -10.075  0.00  0.00    -0.060 C 
ATOM     54  H   LIG d   1       2.122  -0.864  -9.675  0.00  0.00     0.023 H 
ATOM     55  H   LIG d   1       0.600  -1.716  -9.244  0.00  0.00     0.023 H 
ATOM     56  H   LIG d   1       0.667  -0.684 -10.713  0.00  0.00     0.023 H 
ENDBRANCH   1  53
BRANCH   7  57
ATOM     57  C   LIG d   1       3.748  -4.473 -11.757  0.00  0.00    -0.059 C 
ATOM     58  H   LIG d   1       3.504  -4.812 -12.776  0.00  0.00     0.024 H 
ATOM     59  H   LIG d   1       4.696  -4.930 -11.437  0.00  0.00     0.024 H 
ATOM     60  H   LIG d   1       3.847  -3.378 -11.749  0.00  0.00     0.024 H 
ENDBRANCH   7  57
BRANCH   3  61
ATOM     61  N   LIG d   1      -0.003  -2.061 -12.603  0.00  0.00    -0.312 N 
ATOM     62  C   LIG d   1      -1.257  -2.124 -13.093  0.00  0.00     0.216 C 
ATOM     63  O   LIG d   1      -1.980  -3.050 -12.794  0.00  0.00    -0.276 OA
ATOM     64  H   LIG d   1       0.652  -1.220 -12.873  0.00  0.00     0.149 HD
BRANCH  62  65
ATOM     65  C   LIG d   1      -1.762  -1.041 -14.011  0.00  0.00     0.036 C 
ATOM     66  C   LIG d   1      -2.770  -1.636 -14.996  0.00  0.00    -0.042 C 
ATOM     67  C   LIG d   1      -3.282  -0.537 -15.929  0.00  0.00    -0.052 C 
ATOM     68  H   LIG d   1      -2.282  -2.423 -15.590  0.00  0.00     0.027 H 
ATOM     69  H   LIG d   1      -3.615  -2.068 -14.440  0.00  0.00     0.027 H 
ATOM     70  C   LIG d   1      -3.962   0.558 -15.104  0.00  0.00    -0.053 C 
ATOM     71  H   LIG d   1      -4.007  -0.965 -16.637  0.00  0.00     0.026 H 
ATOM     72  H   LIG d   1      -2.437  -0.105 -16.486  0.00  0.00     0.026 H 
ATOM     73  C   LIG d   1      -2.953   1.153 -14.118  0.00  0.00    -0.052 C 
ATOM     74  H   LIG d   1      -4.806   0.125 -14.547  0.00  0.00     0.026 H 
ATOM     75  H   LIG d   1      -4.329   1.347 -15.774  0.00  0.00     0.026 H 
ATOM     76  C   LIG d   1      -2.441   0.054 -13.185  0.00  0.00    -0.042 C 
ATOM     77  H   LIG d   1      -3.442   1.939 -13.525  0.00  0.00     0.026 H 
ATOM     78  H   LIG d   1      -2.108   1.584 -14.675  0.00  0.00     0.026 H 
ATOM     79  H   LIG d   1      -3.286  -0.378 -12.629  0.00  0.00     0.027 H 
ATOM     80  H   LIG d   1      -1.717   0.482 -12.477  0.00  0.00     0.027 H 
ATOM     81  H   LIG d   1      -0.907  -0.619 -14.561  0.00  0.00     0.039 H 
ENDBRANCH  62  65
ENDBRANCH   3  61
TORSDOF 11
ENDMDL
