MODEL 1
REMARK VINA RESULT:      -8.3      0.000      0.000
REMARK  6 active torsions:
REMARK  status: ('A' for Active; 'I' for Inactive)
REMARK    1  A    between atoms: C_1  and  N_54 
REMARK    2  A    between atoms: C_2  and  N_54 
REMARK    3  A    between atoms: C_3  and  C_4 
REMARK    4  A    between atoms: C_3  and  N_54 
REMARK       I    between atoms: C_4  and  N_6 
REMARK    5  A    between atoms: C_17  and  C_22 
REMARK    6  A    between atoms: C_26  and  C_28 
ROOT
ATOM      1  C   LIG d   1       6.421   0.926  -3.371  0.00  0.00     0.261 C 
ATOM      2  O   LIG d   1       6.028   2.072  -3.329  0.00  0.00    -0.270 OA
ATOM      3  N   LIG d   1       5.731  -0.047  -2.742  0.00  0.00    -0.296 N 
ATOM      4  C   LIG d   1       4.503   0.264  -2.001  0.00  0.00     0.019 C 
ATOM      5  C   LIG d   1       3.380  -0.673  -2.425  0.00  0.00    -0.006 C 
ATOM      6  H   LIG d   1       2.561  -0.562  -1.716  0.00  0.00     0.033 H 
ATOM      7  C   LIG d   1       3.836  -2.132  -2.378  0.00  0.00    -0.037 C 
ATOM      8  C   LIG d   1       5.030  -2.296  -3.322  0.00  0.00     0.016 C 
ATOM      9  H   LIG d   1       5.331  -3.341  -3.387  0.00  0.00     0.038 H 
ATOM     10  C   LIG d   1       6.193  -1.444  -2.783  0.00  0.00     0.023 C 
ATOM     11  C   LIG d   1       4.673  -1.771  -4.694  0.00  0.00     0.027 C 
ATOM     12  C   LIG d   1       5.339  -2.304  -5.755  0.00  0.00    -0.041 C 
ATOM     13  C   LIG d   1       5.144  -1.803  -7.044  0.00  0.00    -0.047 C 
ATOM     14  C   LIG d   1       4.265  -0.745  -7.220  0.00  0.00     0.047 C 
ATOM     15  C   LIG d   1       3.596  -0.224  -6.092  0.00  0.00     0.259 C 
ATOM     16  O   LIG d   1       2.864   0.745  -6.216  0.00  0.00    -0.267 OA
ATOM     17  N   LIG d   1       3.754  -0.794  -4.873  0.00  0.00    -0.311 N 
ATOM     18  C   LIG d   1       2.855  -0.341  -3.810  0.00  0.00     0.031 C 
ATOM     19  H   LIG d   1       4.686   0.148  -0.933  0.00  0.00     0.047 H 
ATOM     20  H   LIG d   1       4.208   1.293  -2.207  0.00  0.00     0.047 H 
ATOM     21  H   LIG d   1       3.022  -2.781  -2.701  0.00  0.00     0.028 H 
ATOM     22  H   LIG d   1       4.133  -2.391  -1.363  0.00  0.00     0.028 H 
ATOM     23  H   LIG d   1       6.461  -1.775  -1.780  0.00  0.00     0.047 H 
ATOM     24  H   LIG d   1       7.054  -1.531  -3.445  0.00  0.00     0.047 H 
ATOM     25  H   LIG d   1       6.025  -3.122  -5.599  0.00  0.00     0.064 H 
ATOM     26  H   LIG d   1       5.664  -2.234  -7.886  0.00  0.00     0.063 H 
ATOM     27  H   LIG d   1       2.729   0.738  -3.890  0.00  0.00     0.050 H 
ATOM     28  H   LIG d   1       1.884  -0.818  -3.943  0.00  0.00     0.050 H 
ENDROOT
BRANCH   1  29
ATOM     29  C   LIG d   1       7.681   0.587  -4.127  0.00  0.00     0.046 C 
ATOM     30  H   LIG d   1       8.541   0.692  -3.466  0.00  0.00     0.091 H 
ATOM     31  H   LIG d   1       7.623  -0.440  -4.487  0.00  0.00     0.091 H 
BRANCH  29  32
ATOM     32  N   LIG d   1       7.802   1.499  -5.283  0.00  0.00     0.237 N 
ATOM     33  H   LIG d   1       7.016   2.159  -5.271  0.00  0.00     0.203 HD
BRANCH  32  34
ATOM     34  C   LIG d   1       9.067   2.258  -5.199  0.00  0.00    -0.043 C 
ATOM     35  H   LIG d   1       9.346   2.419  -4.158  0.00  0.00     0.078 H 
ATOM     36  H   LIG d   1       9.853   1.694  -5.703  0.00  0.00     0.078 H 
ATOM     37  H   LIG d   1       8.935   3.220  -5.693  0.00  0.00     0.078 H 
ENDBRANCH  32  34
BRANCH  32  38
ATOM     38  C   LIG d   1       7.759   0.726  -6.543  0.00  0.00    -0.043 C 
ATOM     39  H   LIG d   1       8.622   0.060  -6.578  0.00  0.00     0.078 H 
ATOM     40  H   LIG d   1       6.844   0.135  -6.565  0.00  0.00     0.078 H 
ATOM     41  H   LIG d   1       7.782   1.396  -7.403  0.00  0.00     0.078 H 
ENDBRANCH  32  38
ENDBRANCH  29  32
ENDBRANCH   1  29
BRANCH  14  42
ATOM     42  C   LIG d   1       4.039  -0.169  -8.567  0.00  0.00    -0.012 A 
ATOM     43  C   LIG d   1       3.309  -0.881  -9.519  0.00  0.00    -0.042 A 
ATOM     44  C   LIG d   1       3.101  -0.339 -10.770  0.00  0.00     0.055 A 
ATOM     45  H   LIG d   1       2.909  -1.855  -9.277  0.00  0.00     0.063 H 
ATOM     46  C   LIG d   1       3.613   0.908 -11.082  0.00  0.00    -0.050 A 
ATOM     47  C   LIG d   1       4.338   1.619 -10.141  0.00  0.00    -0.061 A 
ATOM     48  H   LIG d   1       3.447   1.328 -12.062  0.00  0.00     0.062 H 
ATOM     49  C   LIG d   1       4.548   1.089  -8.884  0.00  0.00    -0.054 A 
ATOM     50  H   LIG d   1       4.735   2.592 -10.390  0.00  0.00     0.062 H 
ATOM     51  H   LIG d   1       5.109   1.648  -8.150  0.00  0.00     0.062 H 
BRANCH  44  52
ATOM     52  C   LIG d   1       2.313  -1.106 -11.800  0.00  0.00     0.417 C 
ATOM     53  F   LIG d   1       2.841  -0.858 -13.072  0.00  0.00    -0.166 F 
ATOM     54  F   LIG d   1       2.388  -2.474 -11.523  0.00  0.00    -0.166 F 
ATOM     55  F   LIG d   1       0.975  -0.696 -11.764  0.00  0.00    -0.166 F 
ENDBRANCH  44  52
ENDBRANCH  14  42
TORSDOF 6
ENDMDL
MODEL 2
REMARK VINA RESULT:      -7.4      1.504      1.870
REMARK  6 active torsions:
REMARK  status: ('A' for Active; 'I' for Inactive)
REMARK    1  A    between atoms: C_1  and  N_54 
REMARK    2  A    between atoms: C_2  and  N_54 
REMARK    3  A    between atoms: C_3  and  C_4 
REMARK    4  A    between atoms: C_3  and  N_54 
REMARK       I    between atoms: C_4  and  N_6 
REMARK    5  A    between atoms: C_17  and  C_22 
REMARK    6  A    between atoms: C_26  and  C_28 
ROOT
ATOM      1  C   LIG d   1       7.156   0.651  -4.327  0.00  0.00     0.261 C 
ATOM      2  O   LIG d   1       7.076   1.837  -4.569  0.00  0.00    -0.270 OA
ATOM      3  N   LIG d   1       6.414   0.113  -3.338  0.00  0.00    -0.296 N 
ATOM      4  C   LIG d   1       5.505   0.948  -2.544  0.00  0.00     0.019 C 
ATOM      5  C   LIG d   1       4.121   0.315  -2.491  0.00  0.00    -0.006 C 
ATOM      6  H   LIG d   1       3.540   0.836  -1.730  0.00  0.00     0.033 H 
ATOM      7  C   LIG d   1       4.204  -1.155  -2.081  0.00  0.00    -0.037 C 
ATOM      8  C   LIG d   1       5.071  -1.893  -3.105  0.00  0.00     0.016 C 
ATOM      9  H   LIG d   1       5.084  -2.963  -2.900  0.00  0.00     0.038 H 
ATOM     10  C   LIG d   1       6.499  -1.324  -3.031  0.00  0.00     0.023 C 
ATOM     11  C   LIG d   1       4.546  -1.637  -4.499  0.00  0.00     0.027 C 
ATOM     12  C   LIG d   1       4.798  -2.586  -5.442  0.00  0.00    -0.041 C 
ATOM     13  C   LIG d   1       4.438  -2.380  -6.775  0.00  0.00    -0.047 C 
ATOM     14  C   LIG d   1       3.827  -1.183  -7.122  0.00  0.00     0.047 C 
ATOM     15  C   LIG d   1       3.586  -0.228  -6.112  0.00  0.00     0.259 C 
ATOM     16  O   LIG d   1       3.104   0.855  -6.406  0.00  0.00    -0.267 OA
ATOM     17  N   LIG d   1       3.877  -0.504  -4.818  0.00  0.00    -0.311 N 
ATOM     18  C   LIG d   1       3.387   0.442  -3.814  0.00  0.00     0.031 C 
ATOM     19  H   LIG d   1       5.896   1.046  -1.532  0.00  0.00     0.047 H 
ATOM     20  H   LIG d   1       5.431   1.936  -3.000  0.00  0.00     0.047 H 
ATOM     21  H   LIG d   1       3.205  -1.589  -2.066  0.00  0.00     0.028 H 
ATOM     22  H   LIG d   1       4.655  -1.236  -1.093  0.00  0.00     0.028 H 
ATOM     23  H   LIG d   1       6.902  -1.465  -2.029  0.00  0.00     0.047 H 
ATOM     24  H   LIG d   1       7.136  -1.823  -3.760  0.00  0.00     0.047 H 
ATOM     25  H   LIG d   1       5.280  -3.508  -5.156  0.00  0.00     0.064 H 
ATOM     26  H   LIG d   1       4.627  -3.138  -7.520  0.00  0.00     0.063 H 
ATOM     27  H   LIG d   1       3.513   1.456  -4.192  0.00  0.00     0.050 H 
ATOM     28  H   LIG d   1       2.325   0.260  -3.647  0.00  0.00     0.050 H 
ENDROOT
BRANCH   1  29
ATOM     29  C   LIG d   1       8.085  -0.222  -5.132  0.00  0.00     0.046 C 
ATOM     30  H   LIG d   1       9.032  -0.328  -4.604  0.00  0.00     0.091 H 
ATOM     31  H   LIG d   1       7.633  -1.204  -5.267  0.00  0.00     0.091 H 
BRANCH  29  32
ATOM     32  N   LIG d   1       8.296   0.401  -6.455  0.00  0.00     0.237 N 
ATOM     33  H   LIG d   1       7.995   1.381  -6.415  0.00  0.00     0.203 HD
BRANCH  32  34
ATOM     34  C   LIG d   1       9.728   0.352  -6.814  0.00  0.00    -0.043 C 
ATOM     35  H   LIG d   1      10.128  -0.649  -6.656  0.00  0.00     0.078 H 
ATOM     36  H   LIG d   1       9.841   0.627  -7.864  0.00  0.00     0.078 H 
ATOM     37  H   LIG d   1      10.272   1.062  -6.192  0.00  0.00     0.078 H 
ENDBRANCH  32  34
BRANCH  32  38
ATOM     38  C   LIG d   1       7.494  -0.305  -7.479  0.00  0.00    -0.043 C 
ATOM     39  H   LIG d   1       8.128  -1.033  -7.984  0.00  0.00     0.078 H 
ATOM     40  H   LIG d   1       6.669  -0.821  -6.988  0.00  0.00     0.078 H 
ATOM     41  H   LIG d   1       7.099   0.403  -8.208  0.00  0.00     0.078 H 
ENDBRANCH  32  38
ENDBRANCH  29  32
ENDBRANCH   1  29
BRANCH  14  42
ATOM     42  C   LIG d   1       3.444  -0.913  -8.527  0.00  0.00    -0.012 A 
ATOM     43  C   LIG d   1       4.409  -0.935  -9.534  0.00  0.00    -0.042 A 
ATOM     44  C   LIG d   1       4.045  -0.683 -10.840  0.00  0.00     0.055 A 
ATOM     45  H   LIG d   1       5.440  -1.147  -9.290  0.00  0.00     0.063 H 
ATOM     46  C   LIG d   1       2.725  -0.410 -11.154  0.00  0.00    -0.050 A 
ATOM     47  C   LIG d   1       1.763  -0.387 -10.160  0.00  0.00    -0.061 A 
ATOM     48  H   LIG d   1       2.445  -0.214 -12.178  0.00  0.00     0.062 H 
ATOM     49  C   LIG d   1       2.114  -0.642  -8.850  0.00  0.00    -0.054 A 
ATOM     50  H   LIG d   1       0.735  -0.174 -10.411  0.00  0.00     0.062 H 
ATOM     51  H   LIG d   1       1.361  -0.629  -8.076  0.00  0.00     0.062 H 
BRANCH  44  52
ATOM     52  C   LIG d   1       5.086  -0.706 -11.929  0.00  0.00     0.417 C 
ATOM     53  F   LIG d   1       4.618   0.006 -13.038  0.00  0.00    -0.166 F 
ATOM     54  F   LIG d   1       6.265  -0.119 -11.461  0.00  0.00    -0.166 F 
ATOM     55  F   LIG d   1       5.342  -2.031 -12.301  0.00  0.00    -0.166 F 
ENDBRANCH  44  52
ENDBRANCH  14  42
TORSDOF 6
ENDMDL
MODEL 3
REMARK VINA RESULT:      -7.4      4.294      7.754
REMARK  6 active torsions:
REMARK  status: ('A' for Active; 'I' for Inactive)
REMARK    1  A    between atoms: C_1  and  N_54 
REMARK    2  A    between atoms: C_2  and  N_54 
REMARK    3  A    between atoms: C_3  and  C_4 
REMARK    4  A    between atoms: C_3  and  N_54 
REMARK       I    between atoms: C_4  and  N_6 
REMARK    5  A    between atoms: C_17  and  C_22 
REMARK    6  A    between atoms: C_26  and  C_28 
ROOT
ATOM      1  C   LIG d   1       2.789  -3.231 -10.314  0.00  0.00     0.261 C 
ATOM      2  O   LIG d   1       1.620  -3.259  -9.994  0.00  0.00    -0.270 OA
ATOM      3  N   LIG d   1       3.273  -2.178 -11.004  0.00  0.00    -0.296 N 
ATOM      4  C   LIG d   1       2.399  -1.059 -11.375  0.00  0.00     0.019 C 
ATOM      5  C   LIG d   1       3.036   0.264 -10.969  0.00  0.00    -0.006 C 
ATOM      6  H   LIG d   1       2.476   1.068 -11.444  0.00  0.00     0.033 H 
ATOM      7  C   LIG d   1       4.479   0.353 -11.463  0.00  0.00    -0.037 C 
ATOM      8  C   LIG d   1       5.271  -0.809 -10.858  0.00  0.00     0.016 C 
ATOM      9  H   LIG d   1       6.327  -0.733 -11.113  0.00  0.00     0.038 H 
ATOM     10  C   LIG d   1       4.690  -2.127 -11.401  0.00  0.00     0.023 C 
ATOM     11  C   LIG d   1       5.098  -0.817  -9.356  0.00  0.00     0.027 C 
ATOM     12  C   LIG d   1       6.098  -1.373  -8.618  0.00  0.00    -0.041 C 
ATOM     13  C   LIG d   1       5.971  -1.513  -7.235  0.00  0.00    -0.047 C 
ATOM     14  C   LIG d   1       4.801  -1.083  -6.627  0.00  0.00     0.047 C 
ATOM     15  C   LIG d   1       3.790  -0.513  -7.430  0.00  0.00     0.259 C 
ATOM     16  O   LIG d   1       2.729  -0.184  -6.925  0.00  0.00    -0.267 OA
ATOM     17  N   LIG d   1       3.989  -0.322  -8.757  0.00  0.00    -0.311 N 
ATOM     18  C   LIG d   1       2.990   0.478  -9.467  0.00  0.00     0.031 C 
ATOM     19  H   LIG d   1       2.240  -1.067 -12.453  0.00  0.00     0.047 H 
ATOM     20  H   LIG d   1       1.440  -1.167 -10.868  0.00  0.00     0.047 H 
ATOM     21  H   LIG d   1       4.918   1.299 -11.147  0.00  0.00     0.028 H 
ATOM     22  H   LIG d   1       4.500   0.283 -12.550  0.00  0.00     0.028 H 
ATOM     23  H   LIG d   1       4.770  -2.146 -12.488  0.00  0.00     0.047 H 
ATOM     24  H   LIG d   1       5.226  -2.973 -10.975  0.00  0.00     0.047 H 
ATOM     25  H   LIG d   1       7.000  -1.708  -9.108  0.00  0.00     0.064 H 
ATOM     26  H   LIG d   1       6.770  -1.942  -6.649  0.00  0.00     0.063 H 
ATOM     27  H   LIG d   1       1.999   0.210  -9.102  0.00  0.00     0.050 H 
ATOM     28  H   LIG d   1       3.168   1.533  -9.256  0.00  0.00     0.050 H 
ENDROOT
BRANCH   1  29
ATOM     29  C   LIG d   1       3.702  -4.371  -9.943  0.00  0.00     0.046 C 
ATOM     30  H   LIG d   1       3.810  -5.043 -10.794  0.00  0.00     0.091 H 
ATOM     31  H   LIG d   1       4.679  -3.978  -9.664  0.00  0.00     0.091 H 
BRANCH  29  32
ATOM     32  N   LIG d   1       3.121  -5.088  -8.788  0.00  0.00     0.237 N 
ATOM     33  H   LIG d   1       2.125  -4.853  -8.715  0.00  0.00     0.203 HD
BRANCH  32  34
ATOM     34  C   LIG d   1       3.257  -6.547  -8.978  0.00  0.00    -0.043 C 
ATOM     35  H   LIG d   1       3.385  -6.784 -10.034  0.00  0.00     0.078 H 
ATOM     36  H   LIG d   1       4.125  -6.898  -8.419  0.00  0.00     0.078 H 
ATOM     37  H   LIG d   1       2.360  -7.037  -8.602  0.00  0.00     0.078 H 
ENDBRANCH  32  34
BRANCH  32  38
ATOM     38  C   LIG d   1       3.803  -4.675  -7.542  0.00  0.00    -0.043 C 
ATOM     39  H   LIG d   1       4.518  -5.448  -7.258  0.00  0.00     0.078 H 
ATOM     40  H   LIG d   1       4.332  -3.739  -7.722  0.00  0.00     0.078 H 
ATOM     41  H   LIG d   1       3.079  -4.536  -6.739  0.00  0.00     0.078 H 
ENDBRANCH  32  38
ENDBRANCH  29  32
ENDBRANCH   1  29
BRANCH  14  42
ATOM     42  C   LIG d   1       4.614  -1.227  -5.164  0.00  0.00    -0.012 A 
ATOM     43  C   LIG d   1       4.616  -0.099  -4.344  0.00  0.00    -0.042 A 
ATOM     44  C   LIG d   1       4.440  -0.239  -2.983  0.00  0.00     0.055 A 
ATOM     45  H   LIG d   1       4.757   0.882  -4.773  0.00  0.00     0.063 H 
ATOM     46  C   LIG d   1       4.261  -1.495  -2.431  0.00  0.00    -0.050 A 
ATOM     47  C   LIG d   1       4.258  -2.618  -3.240  0.00  0.00    -0.061 A 
ATOM     48  H   LIG d   1       4.124  -1.600  -1.366  0.00  0.00     0.062 H 
ATOM     49  C   LIG d   1       4.427  -2.490  -4.603  0.00  0.00    -0.054 A 
ATOM     50  H   LIG d   1       4.117  -3.596  -2.804  0.00  0.00     0.062 H 
ATOM     51  H   LIG d   1       4.419  -3.366  -5.234  0.00  0.00     0.062 H 
BRANCH  44  52
ATOM     52  C   LIG d   1       4.442   0.978  -2.095  0.00  0.00     0.417 C 
ATOM     53  F   LIG d   1       5.358   1.913  -2.587  0.00  0.00    -0.166 F 
ATOM     54  F   LIG d   1       3.163   1.543  -2.074  0.00  0.00    -0.166 F 
ATOM     55  F   LIG d   1       4.807   0.607  -0.796  0.00  0.00    -0.166 F 
ENDBRANCH  44  52
ENDBRANCH  14  42
TORSDOF 6
ENDMDL
MODEL 4
REMARK VINA RESULT:      -6.7      4.300      7.311
REMARK  6 active torsions:
REMARK  status: ('A' for Active; 'I' for Inactive)
REMARK    1  A    between atoms: C_1  and  N_54 
REMARK    2  A    between atoms: C_2  and  N_54 
REMARK    3  A    between atoms: C_3  and  C_4 
REMARK    4  A    between atoms: C_3  and  N_54 
REMARK       I    between atoms: C_4  and  N_6 
REMARK    5  A    between atoms: C_17  and  C_22 
REMARK    6  A    between atoms: C_26  and  C_28 
ROOT
ATOM      1  C   LIG d   1       5.414  -1.619 -11.480  0.00  0.00     0.261 C 
ATOM      2  O   LIG d   1       6.138  -2.575 -11.300  0.00  0.00    -0.270 OA
ATOM      3  N   LIG d   1       4.090  -1.800 -11.660  0.00  0.00    -0.296 N 
ATOM      4  C   LIG d   1       3.508  -3.148 -11.640  0.00  0.00     0.019 C 
ATOM      5  C   LIG d   1       2.314  -3.193 -10.696  0.00  0.00    -0.006 C 
ATOM      6  H   LIG d   1       1.783  -4.128 -10.866  0.00  0.00     0.033 H 
ATOM      7  C   LIG d   1       1.341  -2.051 -10.988  0.00  0.00    -0.037 C 
ATOM      8  C   LIG d   1       2.086  -0.724 -10.817  0.00  0.00     0.016 C 
ATOM      9  H   LIG d   1       1.405   0.119 -10.929  0.00  0.00     0.038 H 
ATOM     10  C   LIG d   1       3.196  -0.652 -11.880  0.00  0.00     0.023 C 
ATOM     11  C   LIG d   1       2.747  -0.682  -9.458  0.00  0.00     0.027 C 
ATOM     12  C   LIG d   1       2.965   0.546  -8.912  0.00  0.00    -0.041 C 
ATOM     13  C   LIG d   1       3.662   0.678  -7.709  0.00  0.00    -0.047 C 
ATOM     14  C   LIG d   1       4.138  -0.467  -7.087  0.00  0.00     0.047 C 
ATOM     15  C   LIG d   1       3.890  -1.719  -7.689  0.00  0.00     0.259 C 
ATOM     16  O   LIG d   1       4.350  -2.733  -7.190  0.00  0.00    -0.267 OA
ATOM     17  N   LIG d   1       3.138  -1.806  -8.814  0.00  0.00    -0.311 N 
ATOM     18  C   LIG d   1       2.739  -3.149  -9.240  0.00  0.00     0.031 C 
ATOM     19  H   LIG d   1       3.184  -3.416 -12.645  0.00  0.00     0.047 H 
ATOM     20  H   LIG d   1       4.261  -3.860 -11.301  0.00  0.00     0.047 H 
ATOM     21  H   LIG d   1       0.505  -2.094 -10.291  0.00  0.00     0.028 H 
ATOM     22  H   LIG d   1       0.972  -2.135 -12.010  0.00  0.00     0.028 H 
ATOM     23  H   LIG d   1       2.759  -0.709 -12.876  0.00  0.00     0.047 H 
ATOM     24  H   LIG d   1       3.753   0.278 -11.772  0.00  0.00     0.047 H 
ATOM     25  H   LIG d   1       2.593   1.427  -9.412  0.00  0.00     0.064 H 
ATOM     26  H   LIG d   1       3.823   1.651  -7.270  0.00  0.00     0.063 H 
ATOM     27  H   LIG d   1       3.579  -3.828  -9.096  0.00  0.00     0.050 H 
ATOM     28  H   LIG d   1       1.908  -3.483  -8.619  0.00  0.00     0.050 H 
ENDROOT
BRANCH   1  29
ATOM     29  C   LIG d   1       5.993  -0.227 -11.504  0.00  0.00     0.046 C 
ATOM     30  H   LIG d   1       6.447  -0.039 -12.477  0.00  0.00     0.091 H 
ATOM     31  H   LIG d   1       5.200   0.499 -11.328  0.00  0.00     0.091 H 
BRANCH  29  32
ATOM     32  N   LIG d   1       7.001  -0.113 -10.430  0.00  0.00     0.237 N 
ATOM     33  H   LIG d   1       6.955  -0.950  -9.838  0.00  0.00     0.203 HD
BRANCH  32  34
ATOM     34  C   LIG d   1       8.354  -0.014 -11.016  0.00  0.00    -0.043 C 
ATOM     35  H   LIG d   1       8.376   0.742 -11.801  0.00  0.00     0.078 H 
ATOM     36  H   LIG d   1       9.062   0.257 -10.231  0.00  0.00     0.078 H 
ATOM     37  H   LIG d   1       8.629  -0.981 -11.435  0.00  0.00     0.078 H 
ENDBRANCH  32  34
BRANCH  32  38
ATOM     38  C   LIG d   1       6.722   1.078  -9.599  0.00  0.00    -0.043 C 
ATOM     39  H   LIG d   1       7.337   1.906  -9.951  0.00  0.00     0.078 H 
ATOM     40  H   LIG d   1       5.669   1.340  -9.699  0.00  0.00     0.078 H 
ATOM     41  H   LIG d   1       6.949   0.875  -8.552  0.00  0.00     0.078 H 
ENDBRANCH  32  38
ENDBRANCH  29  32
ENDBRANCH   1  29
BRANCH  14  42
ATOM     42  C   LIG d   1       4.898  -0.375  -5.818  0.00  0.00    -0.012 A 
ATOM     43  C   LIG d   1       4.223  -0.321  -4.600  0.00  0.00    -0.042 A 
ATOM     44  C   LIG d   1       4.936  -0.237  -3.422  0.00  0.00     0.055 A 
ATOM     45  H   LIG d   1       3.143  -0.343  -4.578  0.00  0.00     0.063 H 
ATOM     46  C   LIG d   1       6.319  -0.207  -3.448  0.00  0.00    -0.050 A 
ATOM     47  C   LIG d   1       6.995  -0.261  -4.654  0.00  0.00    -0.061 A 
ATOM     48  H   LIG d   1       6.873  -0.142  -2.524  0.00  0.00     0.062 H 
ATOM     49  C   LIG d   1       6.292  -0.350  -5.838  0.00  0.00    -0.054 A 
ATOM     50  H   LIG d   1       8.074  -0.238  -4.668  0.00  0.00     0.062 H 
ATOM     51  H   LIG d   1       6.821  -0.398  -6.779  0.00  0.00     0.062 H 
BRANCH  44  52
ATOM     52  C   LIG d   1       4.208  -0.178  -2.104  0.00  0.00     0.417 C 
ATOM     53  F   LIG d   1       4.765   0.828  -1.308  0.00  0.00    -0.166 F 
ATOM     54  F   LIG d   1       2.856   0.099  -2.329  0.00  0.00    -0.166 F 
ATOM     55  F   LIG d   1       4.329  -1.409  -1.450  0.00  0.00    -0.166 F 
ENDBRANCH  44  52
ENDBRANCH  14  42
TORSDOF 6
ENDMDL
MODEL 5
REMARK VINA RESULT:      -6.4      4.947      7.060
REMARK  6 active torsions:
REMARK  status: ('A' for Active; 'I' for Inactive)
REMARK    1  A    between atoms: C_1  and  N_54 
REMARK    2  A    between atoms: C_2  and  N_54 
REMARK    3  A    between atoms: C_3  and  C_4 
REMARK    4  A    between atoms: C_3  and  N_54 
REMARK       I    between atoms: C_4  and  N_6 
REMARK    5  A    between atoms: C_17  and  C_22 
REMARK    6  A    between atoms: C_26  and  C_28 
ROOT
ATOM      1  C   LIG d   1      11.099  -0.421  -5.760  0.00  0.00     0.261 C 
ATOM      2  O   LIG d   1      11.492  -0.166  -4.642  0.00  0.00    -0.270 OA
ATOM      3  N   LIG d   1      11.364  -1.623  -6.310  0.00  0.00    -0.296 N 
ATOM      4  C   LIG d   1      12.128  -2.634  -5.569  0.00  0.00     0.019 C 
ATOM      5  C   LIG d   1      11.394  -3.968  -5.589  0.00  0.00    -0.006 C 
ATOM      6  H   LIG d   1      12.076  -4.735  -5.225  0.00  0.00     0.033 H 
ATOM      7  C   LIG d   1      10.988  -4.350  -7.012  0.00  0.00    -0.037 C 
ATOM      8  C   LIG d   1      10.078  -3.251  -7.567  0.00  0.00     0.016 C 
ATOM      9  H   LIG d   1       9.693  -3.526  -8.548  0.00  0.00     0.038 H 
ATOM     10  C   LIG d   1      10.895  -1.950  -7.666  0.00  0.00     0.023 C 
ATOM     11  C   LIG d   1       8.935  -3.003  -6.610  0.00  0.00     0.027 C 
ATOM     12  C   LIG d   1       7.780  -2.511  -7.137  0.00  0.00    -0.041 C 
ATOM     13  C   LIG d   1       6.712  -2.157  -6.309  0.00  0.00    -0.047 C 
ATOM     14  C   LIG d   1       6.855  -2.309  -4.938  0.00  0.00     0.047 C 
ATOM     15  C   LIG d   1       8.069  -2.823  -4.435  0.00  0.00     0.259 C 
ATOM     16  O   LIG d   1       8.238  -2.909  -3.230  0.00  0.00    -0.267 OA
ATOM     17  N   LIG d   1       9.048  -3.229  -5.281  0.00  0.00    -0.311 N 
ATOM     18  C   LIG d   1      10.172  -3.957  -4.689  0.00  0.00     0.031 C 
ATOM     19  H   LIG d   1      13.109  -2.755  -6.029  0.00  0.00     0.047 H 
ATOM     20  H   LIG d   1      12.252  -2.308  -4.536  0.00  0.00     0.047 H 
ATOM     21  H   LIG d   1      10.451  -5.298  -6.999  0.00  0.00     0.028 H 
ATOM     22  H   LIG d   1      11.877  -4.440  -7.636  0.00  0.00     0.028 H 
ATOM     23  H   LIG d   1      11.748  -2.098  -8.327  0.00  0.00     0.047 H 
ATOM     24  H   LIG d   1      10.267  -1.145  -8.046  0.00  0.00     0.047 H 
ATOM     25  H   LIG d   1       7.688  -2.393  -8.206  0.00  0.00     0.064 H 
ATOM     26  H   LIG d   1       5.792  -1.778  -6.729  0.00  0.00     0.063 H 
ATOM     27  H   LIG d   1      10.435  -3.490  -3.741  0.00  0.00     0.050 H 
ATOM     28  H   LIG d   1       9.864  -4.986  -4.499  0.00  0.00     0.050 H 
ENDROOT
BRANCH   1  29
ATOM     29  C   LIG d   1      10.314   0.605  -6.537  0.00  0.00     0.046 C 
ATOM     30  H   LIG d   1      10.988   1.165  -7.184  0.00  0.00     0.091 H 
ATOM     31  H   LIG d   1       9.561   0.103  -7.144  0.00  0.00     0.091 H 
BRANCH  29  32
ATOM     32  N   LIG d   1       9.640   1.511  -5.582  0.00  0.00     0.237 N 
ATOM     33  H   LIG d   1      10.049   1.377  -4.650  0.00  0.00     0.203 HD
BRANCH  32  34
ATOM     34  C   LIG d   1       9.836   2.916  -5.995  0.00  0.00    -0.043 C 
ATOM     35  H   LIG d   1      10.384   2.965  -6.935  0.00  0.00     0.078 H 
ATOM     36  H   LIG d   1       8.861   3.388  -6.117  0.00  0.00     0.078 H 
ATOM     37  H   LIG d   1      10.397   3.436  -5.220  0.00  0.00     0.078 H 
ENDBRANCH  32  34
BRANCH  32  38
ATOM     38  C   LIG d   1       8.196   1.198  -5.522  0.00  0.00    -0.043 C 
ATOM     39  H   LIG d   1       7.751   1.399  -6.497  0.00  0.00     0.078 H 
ATOM     40  H   LIG d   1       8.072   0.143  -5.277  0.00  0.00     0.078 H 
ATOM     41  H   LIG d   1       7.705   1.809  -4.764  0.00  0.00     0.078 H 
ENDBRANCH  32  38
ENDBRANCH  29  32
ENDBRANCH   1  29
BRANCH  14  42
ATOM     42  C   LIG d   1       5.755  -1.932  -4.019  0.00  0.00    -0.012 A 
ATOM     43  C   LIG d   1       5.672  -0.631  -3.524  0.00  0.00    -0.042 A 
ATOM     44  C   LIG d   1       4.645  -0.285  -2.670  0.00  0.00     0.055 A 
ATOM     45  H   LIG d   1       6.411   0.105  -3.808  0.00  0.00     0.063 H 
ATOM     46  C   LIG d   1       3.698  -1.225  -2.305  0.00  0.00    -0.050 A 
ATOM     47  C   LIG d   1       3.776  -2.518  -2.793  0.00  0.00    -0.061 A 
ATOM     48  H   LIG d   1       2.897  -0.950  -1.637  0.00  0.00     0.062 H 
ATOM     49  C   LIG d   1       4.795  -2.874  -3.652  0.00  0.00    -0.054 A 
ATOM     50  H   LIG d   1       3.034  -3.247  -2.505  0.00  0.00     0.062 H 
ATOM     51  H   LIG d   1       4.851  -3.882  -4.037  0.00  0.00     0.062 H 
BRANCH  44  52
ATOM     52  C   LIG d   1       4.554   1.120  -2.134  0.00  0.00     0.417 C 
ATOM     53  F   LIG d   1       3.243   1.588  -2.273  0.00  0.00    -0.166 F 
ATOM     54  F   LIG d   1       4.911   1.129  -0.782  0.00  0.00    -0.166 F 
ATOM     55  F   LIG d   1       5.423   1.950  -2.850  0.00  0.00    -0.166 F 
ENDBRANCH  44  52
ENDBRANCH  14  42
TORSDOF 6
ENDMDL
MODEL 6
REMARK VINA RESULT:      -6.3      4.530      7.572
REMARK  6 active torsions:
REMARK  status: ('A' for Active; 'I' for Inactive)
REMARK    1  A    between atoms: C_1  and  N_54 
REMARK    2  A    between atoms: C_2  and  N_54 
REMARK    3  A    between atoms: C_3  and  C_4 
REMARK    4  A    between atoms: C_3  and  N_54 
REMARK       I    between atoms: C_4  and  N_6 
REMARK    5  A    between atoms: C_17  and  C_22 
REMARK    6  A    between atoms: C_26  and  C_28 
ROOT
ATOM      1  C   LIG d   1       4.646  -0.965 -11.599  0.00  0.00     0.261 C 
ATOM      2  O   LIG d   1       4.546   0.228 -11.792  0.00  0.00    -0.270 OA
ATOM      3  N   LIG d   1       5.865  -1.542 -11.563  0.00  0.00    -0.296 N 
ATOM      4  C   LIG d   1       7.079  -0.740 -11.756  0.00  0.00     0.019 C 
ATOM      5  C   LIG d   1       8.079  -1.022 -10.642  0.00  0.00    -0.006 C 
ATOM      6  H   LIG d   1       9.035  -0.586 -10.927  0.00  0.00     0.033 H 
ATOM      7  C   LIG d   1       8.293  -2.525 -10.464  0.00  0.00    -0.037 C 
ATOM      8  C   LIG d   1       6.946  -3.169 -10.126  0.00  0.00     0.016 C 
ATOM      9  H   LIG d   1       7.069  -4.228  -9.903  0.00  0.00     0.038 H 
ATOM     10  C   LIG d   1       6.006  -2.988 -11.331  0.00  0.00     0.023 C 
ATOM     11  C   LIG d   1       6.323  -2.458  -8.946  0.00  0.00     0.027 C 
ATOM     12  C   LIG d   1       5.461  -3.175  -8.174  0.00  0.00    -0.041 C 
ATOM     13  C   LIG d   1       4.764  -2.566  -7.128  0.00  0.00    -0.047 C 
ATOM     14  C   LIG d   1       4.959  -1.212  -6.898  0.00  0.00     0.047 C 
ATOM     15  C   LIG d   1       5.862  -0.508  -7.724  0.00  0.00     0.259 C 
ATOM     16  O   LIG d   1       6.004   0.695  -7.577  0.00  0.00    -0.267 OA
ATOM     17  N   LIG d   1       6.578  -1.158  -8.674  0.00  0.00    -0.311 N 
ATOM     18  C   LIG d   1       7.650  -0.402  -9.324  0.00  0.00     0.031 C 
ATOM     19  H   LIG d   1       7.529  -0.991 -12.716  0.00  0.00     0.047 H 
ATOM     20  H   LIG d   1       6.818   0.318 -11.745  0.00  0.00     0.047 H 
ATOM     21  H   LIG d   1       8.998  -2.702  -9.652  0.00  0.00     0.028 H 
ATOM     22  H   LIG d   1       8.681  -2.952 -11.388  0.00  0.00     0.028 H 
ATOM     23  H   LIG d   1       6.437  -3.464 -12.211  0.00  0.00     0.047 H 
ATOM     24  H   LIG d   1       5.033  -3.426 -11.111  0.00  0.00     0.047 H 
ATOM     25  H   LIG d   1       5.315  -4.226  -8.371  0.00  0.00     0.064 H 
ATOM     26  H   LIG d   1       4.090  -3.138  -6.509  0.00  0.00     0.063 H 
ATOM     27  H   LIG d   1       7.305   0.614  -9.508  0.00  0.00     0.050 H 
ATOM     28  H   LIG d   1       8.511  -0.365  -8.656  0.00  0.00     0.050 H 
ENDROOT
BRANCH   1  29
ATOM     29  C   LIG d   1       3.410  -1.805 -11.400  0.00  0.00     0.046 C 
ATOM     30  H   LIG d   1       3.130  -2.270 -12.345  0.00  0.00     0.091 H 
ATOM     31  H   LIG d   1       3.613  -2.579 -10.660  0.00  0.00     0.091 H 
BRANCH  29  32
ATOM     32  N   LIG d   1       2.321  -0.937 -10.906  0.00  0.00     0.237 N 
ATOM     33  H   LIG d   1       2.596   0.045 -11.023  0.00  0.00     0.203 HD
BRANCH  32  34
ATOM     34  C   LIG d   1       1.087  -1.185 -11.680  0.00  0.00    -0.043 C 
ATOM     35  H   LIG d   1       1.325  -1.625 -12.648  0.00  0.00     0.078 H 
ATOM     36  H   LIG d   1       0.447  -1.867 -11.118  0.00  0.00     0.078 H 
ATOM     37  H   LIG d   1       0.567  -0.239 -11.828  0.00  0.00     0.078 H 
ENDBRANCH  32  34
BRANCH  32  38
ATOM     38  C   LIG d   1       2.078  -1.199  -9.470  0.00  0.00    -0.043 C 
ATOM     39  H   LIG d   1       3.018  -1.491  -9.001  0.00  0.00     0.078 H 
ATOM     40  H   LIG d   1       1.706  -0.288  -9.003  0.00  0.00     0.078 H 
ATOM     41  H   LIG d   1       1.346  -1.997  -9.347  0.00  0.00     0.078 H 
ENDBRANCH  32  38
ENDBRANCH  29  32
ENDBRANCH   1  29
BRANCH  14  42
ATOM     42  C   LIG d   1       4.229  -0.519  -5.812  0.00  0.00    -0.012 A 
ATOM     43  C   LIG d   1       4.779  -0.448  -4.532  0.00  0.00    -0.042 A 
ATOM     44  C   LIG d   1       4.095   0.200  -3.525  0.00  0.00     0.055 A 
ATOM     45  H   LIG d   1       5.739  -0.902  -4.330  0.00  0.00     0.063 H 
ATOM     46  C   LIG d   1       2.865   0.781  -3.781  0.00  0.00    -0.050 A 
ATOM     47  C   LIG d   1       2.315   0.714  -5.050  0.00  0.00    -0.061 A 
ATOM     48  H   LIG d   1       2.334   1.287  -2.990  0.00  0.00     0.062 H 
ATOM     49  C   LIG d   1       2.992   0.073  -6.066  0.00  0.00    -0.054 A 
ATOM     50  H   LIG d   1       1.355   1.169  -5.244  0.00  0.00     0.062 H 
ATOM     51  H   LIG d   1       2.563   0.027  -7.056  0.00  0.00     0.062 H 
BRANCH  44  52
ATOM     52  C   LIG d   1       4.687   0.277  -2.142  0.00  0.00     0.417 C 
ATOM     53  F   LIG d   1       6.062   0.518  -2.236  0.00  0.00    -0.166 F 
ATOM     54  F   LIG d   1       4.079   1.316  -1.430  0.00  0.00    -0.166 F 
ATOM     55  F   LIG d   1       4.471  -0.933  -1.474  0.00  0.00    -0.166 F 
ENDBRANCH  44  52
ENDBRANCH  14  42
TORSDOF 6
ENDMDL
MODEL 7
REMARK VINA RESULT:      -6.2      5.093      8.005
REMARK  6 active torsions:
REMARK  status: ('A' for Active; 'I' for Inactive)
REMARK    1  A    between atoms: C_1  and  N_54 
REMARK    2  A    between atoms: C_2  and  N_54 
REMARK    3  A    between atoms: C_3  and  C_4 
REMARK    4  A    between atoms: C_3  and  N_54 
REMARK       I    between atoms: C_4  and  N_6 
REMARK    5  A    between atoms: C_17  and  C_22 
REMARK    6  A    between atoms: C_26  and  C_28 
ROOT
ATOM      1  C   LIG d   1      12.321   2.071  -7.130  0.00  0.00     0.261 C 
ATOM      2  O   LIG d   1      12.256   1.130  -7.892  0.00  0.00    -0.270 OA
ATOM      3  N   LIG d   1      11.845   3.276  -7.504  0.00  0.00    -0.296 N 
ATOM      4  C   LIG d   1      11.245   3.466  -8.831  0.00  0.00     0.019 C 
ATOM      5  C   LIG d   1       9.890   4.148  -8.703  0.00  0.00    -0.006 C 
ATOM      6  H   LIG d   1       9.576   4.465  -9.697  0.00  0.00     0.033 H 
ATOM      7  C   LIG d   1       9.985   5.399  -7.829  0.00  0.00    -0.037 C 
ATOM      8  C   LIG d   1      10.487   4.983  -6.444  0.00  0.00     0.016 C 
ATOM      9  H   LIG d   1      10.484   5.832  -5.761  0.00  0.00     0.038 H 
ATOM     10  C   LIG d   1      11.915   4.429  -6.592  0.00  0.00     0.023 C 
ATOM     11  C   LIG d   1       9.618   3.874  -5.897  0.00  0.00     0.027 C 
ATOM     12  C   LIG d   1       9.538   3.757  -4.543  0.00  0.00    -0.041 C 
ATOM     13  C   LIG d   1       8.841   2.698  -3.958  0.00  0.00    -0.047 C 
ATOM     14  C   LIG d   1       8.240   1.761  -4.784  0.00  0.00     0.047 C 
ATOM     15  C   LIG d   1       8.348   1.920  -6.182  0.00  0.00     0.259 C 
ATOM     16  O   LIG d   1       7.878   1.075  -6.926  0.00  0.00    -0.267 OA
ATOM     17  N   LIG d   1       8.964   3.008  -6.706  0.00  0.00    -0.311 N 
ATOM     18  C   LIG d   1       8.832   3.211  -8.150  0.00  0.00     0.031 C 
ATOM     19  H   LIG d   1      11.904   4.084  -9.440  0.00  0.00     0.047 H 
ATOM     20  H   LIG d   1      11.115   2.495  -9.310  0.00  0.00     0.047 H 
ATOM     21  H   LIG d   1       9.002   5.859  -7.739  0.00  0.00     0.028 H 
ATOM     22  H   LIG d   1      10.683   6.106  -8.275  0.00  0.00     0.028 H 
ATOM     23  H   LIG d   1      12.567   5.194  -7.012  0.00  0.00     0.047 H 
ATOM     24  H   LIG d   1      12.293   4.112  -5.621  0.00  0.00     0.047 H 
ATOM     25  H   LIG d   1      10.018   4.492  -3.915  0.00  0.00     0.064 H 
ATOM     26  H   LIG d   1       8.768   2.613  -2.884  0.00  0.00     0.063 H 
ATOM     27  H   LIG d   1       8.916   2.247  -8.651  0.00  0.00     0.050 H 
ATOM     28  H   LIG d   1       7.846   3.629  -8.358  0.00  0.00     0.050 H 
ENDROOT
BRANCH   1  29
ATOM     29  C   LIG d   1      12.934   1.895  -5.764  0.00  0.00     0.046 C 
ATOM     30  H   LIG d   1      13.971   2.229  -5.785  0.00  0.00     0.091 H 
ATOM     31  H   LIG d   1      12.377   2.486  -5.038  0.00  0.00     0.091 H 
BRANCH  29  32
ATOM     32  N   LIG d   1      12.856   0.468  -5.388  0.00  0.00     0.237 N 
ATOM     33  H   LIG d   1      12.824  -0.101  -6.242  0.00  0.00     0.203 HD
BRANCH  32  34
ATOM     34  C   LIG d   1      14.047   0.087  -4.601  0.00  0.00    -0.043 C 
ATOM     35  H   LIG d   1      14.213  -0.988  -4.656  0.00  0.00     0.078 H 
ATOM     36  H   LIG d   1      14.917   0.610  -5.000  0.00  0.00     0.078 H 
ATOM     37  H   LIG d   1      13.892   0.379  -3.563  0.00  0.00     0.078 H 
ENDBRANCH  32  34
BRANCH  32  38
ATOM     38  C   LIG d   1      11.629   0.220  -4.600  0.00  0.00    -0.043 C 
ATOM     39  H   LIG d   1      11.910  -0.192  -3.631  0.00  0.00     0.078 H 
ATOM     40  H   LIG d   1      11.104   1.164  -4.455  0.00  0.00     0.078 H 
ATOM     41  H   LIG d   1      10.978  -0.483  -5.120  0.00  0.00     0.078 H 
ENDBRANCH  32  38
ENDBRANCH  29  32
ENDBRANCH   1  29
BRANCH  14  42
ATOM     42  C   LIG d   1       7.504   0.610  -4.209  0.00  0.00    -0.012 A 
ATOM     43  C   LIG d   1       6.393   0.826  -3.394  0.00  0.00    -0.042 A 
ATOM     44  C   LIG d   1       5.712  -0.249  -2.863  0.00  0.00     0.055 A 
ATOM     45  H   LIG d   1       6.068   1.833  -3.178  0.00  0.00     0.063 H 
ATOM     46  C   LIG d   1       6.128  -1.540  -3.137  0.00  0.00    -0.050 A 
ATOM     47  C   LIG d   1       7.229  -1.760  -3.945  0.00  0.00    -0.061 A 
ATOM     48  H   LIG d   1       5.591  -2.378  -2.719  0.00  0.00     0.062 H 
ATOM     49  C   LIG d   1       7.916  -0.693  -4.486  0.00  0.00    -0.054 A 
ATOM     50  H   LIG d   1       7.549  -2.770  -4.155  0.00  0.00     0.062 H 
ATOM     51  H   LIG d   1       8.772  -0.867  -5.121  0.00  0.00     0.062 H 
BRANCH  44  52
ATOM     52  C   LIG d   1       4.511  -0.018  -1.982  0.00  0.00     0.417 C 
ATOM     53  F   LIG d   1       4.280  -1.155  -1.201  0.00  0.00    -0.166 F 
ATOM     54  F   LIG d   1       4.747   1.080  -1.149  0.00  0.00    -0.166 F 
ATOM     55  F   LIG d   1       3.390   0.235  -2.780  0.00  0.00    -0.166 F 
ENDBRANCH  44  52
ENDBRANCH  14  42
TORSDOF 6
ENDMDL
MODEL 8
REMARK VINA RESULT:      -6.2      3.795      6.537
REMARK  6 active torsions:
REMARK  status: ('A' for Active; 'I' for Inactive)
REMARK    1  A    between atoms: C_1  and  N_54 
REMARK    2  A    between atoms: C_2  and  N_54 
REMARK    3  A    between atoms: C_3  and  C_4 
REMARK    4  A    between atoms: C_3  and  N_54 
REMARK       I    between atoms: C_4  and  N_6 
REMARK    5  A    between atoms: C_17  and  C_22 
REMARK    6  A    between atoms: C_26  and  C_28 
ROOT
ATOM      1  C   LIG d   1       8.253  -3.024  -8.029  0.00  0.00     0.261 C 
ATOM      2  O   LIG d   1       7.999  -2.135  -8.814  0.00  0.00    -0.270 OA
ATOM      3  N   LIG d   1       9.459  -3.067  -7.428  0.00  0.00    -0.296 N 
ATOM      4  C   LIG d   1      10.476  -2.048  -7.713  0.00  0.00     0.019 C 
ATOM      5  C   LIG d   1      11.027  -1.475  -6.414  0.00  0.00    -0.006 C 
ATOM      6  H   LIG d   1      11.914  -0.891  -6.651  0.00  0.00     0.033 H 
ATOM      7  C   LIG d   1      11.450  -2.590  -5.458  0.00  0.00    -0.037 C 
ATOM      8  C   LIG d   1      10.228  -3.463  -5.162  0.00  0.00     0.016 C 
ATOM      9  H   LIG d   1      10.465  -4.218  -4.413  0.00  0.00     0.038 H 
ATOM     10  C   LIG d   1       9.785  -4.138  -6.472  0.00  0.00     0.023 C 
ATOM     11  C   LIG d   1       9.086  -2.596  -4.682  0.00  0.00     0.027 C 
ATOM     12  C   LIG d   1       8.158  -3.182  -3.876  0.00  0.00    -0.041 C 
ATOM     13  C   LIG d   1       7.019  -2.482  -3.474  0.00  0.00    -0.047 C 
ATOM     14  C   LIG d   1       6.846  -1.180  -3.921  0.00  0.00     0.047 C 
ATOM     15  C   LIG d   1       7.832  -0.613  -4.755  0.00  0.00     0.259 C 
ATOM     16  O   LIG d   1       7.671   0.509  -5.207  0.00  0.00    -0.267 OA
ATOM     17  N   LIG d   1       8.962  -1.301  -5.053  0.00  0.00    -0.311 N 
ATOM     18  C   LIG d   1      10.028  -0.559  -5.729  0.00  0.00     0.031 C 
ATOM     19  H   LIG d   1      11.289  -2.498  -8.282  0.00  0.00     0.047 H 
ATOM     20  H   LIG d   1      10.027  -1.244  -8.298  0.00  0.00     0.047 H 
ATOM     21  H   LIG d   1      11.824  -2.157  -4.531  0.00  0.00     0.028 H 
ATOM     22  H   LIG d   1      12.228  -3.195  -5.922  0.00  0.00     0.028 H 
ATOM     23  H   LIG d   1      10.595  -4.751  -6.865  0.00  0.00     0.047 H 
ATOM     24  H   LIG d   1       8.906  -4.756  -6.292  0.00  0.00     0.047 H 
ATOM     25  H   LIG d   1       8.305  -4.198  -3.543  0.00  0.00     0.064 H 
ATOM     26  H   LIG d   1       6.290  -2.943  -2.825  0.00  0.00     0.063 H 
ATOM     27  H   LIG d   1       9.583   0.099  -6.474  0.00  0.00     0.050 H 
ATOM     28  H   LIG d   1      10.554   0.049  -4.993  0.00  0.00     0.050 H 
ENDROOT
BRANCH   1  29
ATOM     29  C   LIG d   1       7.222  -4.080  -7.724  0.00  0.00     0.046 C 
ATOM     30  H   LIG d   1       7.392  -4.949  -8.359  0.00  0.00     0.091 H 
ATOM     31  H   LIG d   1       7.301  -4.374  -6.678  0.00  0.00     0.091 H 
BRANCH  29  32
ATOM     32  N   LIG d   1       5.877  -3.516  -7.967  0.00  0.00     0.237 N 
ATOM     33  H   LIG d   1       5.972  -2.646  -8.503  0.00  0.00     0.203 HD
BRANCH  32  34
ATOM     34  C   LIG d   1       5.060  -4.472  -8.742  0.00  0.00    -0.043 C 
ATOM     35  H   LIG d   1       5.001  -5.430  -8.226  0.00  0.00     0.078 H 
ATOM     36  H   LIG d   1       4.057  -4.063  -8.867  0.00  0.00     0.078 H 
ATOM     37  H   LIG d   1       5.518  -4.614  -9.721  0.00  0.00     0.078 H 
ENDBRANCH  32  34
BRANCH  32  38
ATOM     38  C   LIG d   1       5.215  -3.215  -6.678  0.00  0.00    -0.043 C 
ATOM     39  H   LIG d   1       5.364  -4.055  -6.000  0.00  0.00     0.078 H 
ATOM     40  H   LIG d   1       5.665  -2.319  -6.251  0.00  0.00     0.078 H 
ATOM     41  H   LIG d   1       4.148  -3.052  -6.827  0.00  0.00     0.078 H 
ENDBRANCH  32  38
ENDBRANCH  29  32
ENDBRANCH   1  29
BRANCH  14  42
ATOM     42  C   LIG d   1       5.644  -0.404  -3.534  0.00  0.00    -0.012 A 
ATOM     43  C   LIG d   1       4.590  -0.251  -4.434  0.00  0.00    -0.042 A 
ATOM     44  C   LIG d   1       3.474   0.472  -4.068  0.00  0.00     0.055 A 
ATOM     45  H   LIG d   1       4.649  -0.696  -5.417  0.00  0.00     0.063 H 
ATOM     46  C   LIG d   1       3.397   1.044  -2.811  0.00  0.00    -0.050 A 
ATOM     47  C   LIG d   1       4.440   0.895  -1.913  0.00  0.00    -0.061 A 
ATOM     48  H   LIG d   1       2.522   1.608  -2.529  0.00  0.00     0.062 H 
ATOM     49  C   LIG d   1       5.559   0.170  -2.266  0.00  0.00    -0.054 A 
ATOM     50  H   LIG d   1       4.375   1.343  -0.933  0.00  0.00     0.062 H 
ATOM     51  H   LIG d   1       6.370   0.050  -1.562  0.00  0.00     0.062 H 
BRANCH  44  52
ATOM     52  C   LIG d   1       2.334   0.639  -5.039  0.00  0.00     0.417 C 
ATOM     53  F   LIG d   1       1.208  -0.038  -4.559  0.00  0.00    -0.166 F 
ATOM     54  F   LIG d   1       2.035   1.998  -5.181  0.00  0.00    -0.166 F 
ATOM     55  F   LIG d   1       2.699   0.111  -6.282  0.00  0.00    -0.166 F 
ENDBRANCH  44  52
ENDBRANCH  14  42
TORSDOF 6
ENDMDL
MODEL 9
REMARK VINA RESULT:      -6.1      4.232      6.902
REMARK  6 active torsions:
REMARK  status: ('A' for Active; 'I' for Inactive)
REMARK    1  A    between atoms: C_1  and  N_54 
REMARK    2  A    between atoms: C_2  and  N_54 
REMARK    3  A    between atoms: C_3  and  C_4 
REMARK    4  A    between atoms: C_3  and  N_54 
REMARK       I    between atoms: C_4  and  N_6 
REMARK    5  A    between atoms: C_17  and  C_22 
REMARK    6  A    between atoms: C_26  and  C_28 
ROOT
ATOM      1  C   LIG d   1      10.322   3.383  -7.159  0.00  0.00     0.261 C 
ATOM      2  O   LIG d   1       9.551   4.318  -7.175  0.00  0.00    -0.270 OA
ATOM      3  N   LIG d   1      11.202   3.253  -6.145  0.00  0.00    -0.296 N 
ATOM      4  C   LIG d   1      11.239   4.234  -5.054  0.00  0.00     0.019 C 
ATOM      5  C   LIG d   1      11.196   3.526  -3.707  0.00  0.00    -0.006 C 
ATOM      6  H   LIG d   1      11.440   4.254  -2.934  0.00  0.00     0.033 H 
ATOM      7  C   LIG d   1      12.241   2.413  -3.638  0.00  0.00    -0.037 C 
ATOM      8  C   LIG d   1      11.954   1.410  -4.759  0.00  0.00     0.016 C 
ATOM      9  H   LIG d   1      12.623   0.553  -4.691  0.00  0.00     0.038 H 
ATOM     10  C   LIG d   1      12.146   2.124  -6.109  0.00  0.00     0.023 C 
ATOM     11  C   LIG d   1      10.515   0.955  -4.680  0.00  0.00     0.027 C 
ATOM     12  C   LIG d   1      10.224  -0.275  -5.187  0.00  0.00    -0.041 C 
ATOM     13  C   LIG d   1       8.904  -0.728  -5.247  0.00  0.00    -0.047 C 
ATOM     14  C   LIG d   1       7.894   0.105  -4.790  0.00  0.00     0.047 C 
ATOM     15  C   LIG d   1       8.241   1.372  -4.273  0.00  0.00     0.259 C 
ATOM     16  O   LIG d   1       7.363   2.143  -3.921  0.00  0.00    -0.267 OA
ATOM     17  N   LIG d   1       9.541   1.736  -4.158  0.00  0.00    -0.311 N 
ATOM     18  C   LIG d   1       9.819   2.961  -3.406  0.00  0.00     0.031 C 
ATOM     19  H   LIG d   1      12.156   4.819  -5.125  0.00  0.00     0.047 H 
ATOM     20  H   LIG d   1      10.379   4.900  -5.138  0.00  0.00     0.047 H 
ATOM     21  H   LIG d   1      12.180   1.911  -2.673  0.00  0.00     0.028 H 
ATOM     22  H   LIG d   1      13.237   2.835  -3.771  0.00  0.00     0.028 H 
ATOM     23  H   LIG d   1      13.167   2.494  -6.190  0.00  0.00     0.047 H 
ATOM     24  H   LIG d   1      11.933   1.436  -6.926  0.00  0.00     0.047 H 
ATOM     25  H   LIG d   1      11.022  -0.907  -5.545  0.00  0.00     0.064 H 
ATOM     26  H   LIG d   1       8.676  -1.708  -5.638  0.00  0.00     0.063 H 
ATOM     27  H   LIG d   1       9.068   3.709  -3.658  0.00  0.00     0.050 H 
ATOM     28  H   LIG d   1       9.753   2.742  -2.340  0.00  0.00     0.050 H 
ENDROOT
BRANCH   1  29
ATOM     29  C   LIG d   1      10.299   2.366  -8.271  0.00  0.00     0.046 C 
ATOM     30  H   LIG d   1      11.286   2.306  -8.730  0.00  0.00     0.091 H 
ATOM     31  H   LIG d   1      10.028   1.391  -7.866  0.00  0.00     0.091 H 
BRANCH  29  32
ATOM     32  N   LIG d   1       9.287   2.774  -9.268  0.00  0.00     0.237 N 
ATOM     33  H   LIG d   1       8.792   3.603  -8.920  0.00  0.00     0.203 HD
BRANCH  32  34
ATOM     34  C   LIG d   1       9.945   3.108 -10.548  0.00  0.00    -0.043 C 
ATOM     35  H   LIG d   1      10.949   2.688 -10.582  0.00  0.00     0.078 H 
ATOM     36  H   LIG d   1       9.352   2.701 -11.368  0.00  0.00     0.078 H 
ATOM     37  H   LIG d   1      10.000   4.192 -10.643  0.00  0.00     0.078 H 
ENDBRANCH  32  34
BRANCH  32  38
ATOM     38  C   LIG d   1       8.310   1.682  -9.471  0.00  0.00    -0.043 C 
ATOM     39  H   LIG d   1       7.464   2.067 -10.040  0.00  0.00     0.078 H 
ATOM     40  H   LIG d   1       8.789   0.879 -10.031  0.00  0.00     0.078 H 
ATOM     41  H   LIG d   1       7.960   1.299  -8.512  0.00  0.00     0.078 H 
ENDBRANCH  32  38
ENDBRANCH  29  32
ENDBRANCH   1  29
BRANCH  14  42
ATOM     42  C   LIG d   1       6.477  -0.325  -4.850  0.00  0.00    -0.012 A 
ATOM     43  C   LIG d   1       5.804  -0.682  -3.682  0.00  0.00    -0.042 A 
ATOM     44  C   LIG d   1       4.485  -1.081  -3.745  0.00  0.00     0.055 A 
ATOM     45  H   LIG d   1       6.315  -0.649  -2.731  0.00  0.00     0.063 H 
ATOM     46  C   LIG d   1       3.828  -1.126  -4.962  0.00  0.00    -0.050 A 
ATOM     47  C   LIG d   1       4.492  -0.773  -6.124  0.00  0.00    -0.061 A 
ATOM     48  H   LIG d   1       2.797  -1.439  -5.006  0.00  0.00     0.062 H 
ATOM     49  C   LIG d   1       5.810  -0.368  -6.074  0.00  0.00    -0.054 A 
ATOM     50  H   LIG d   1       3.975  -0.810  -7.071  0.00  0.00     0.062 H 
ATOM     51  H   LIG d   1       6.324  -0.087  -6.981  0.00  0.00     0.062 H 
BRANCH  44  52
ATOM     52  C   LIG d   1       3.755  -1.467  -2.484  0.00  0.00     0.417 C 
ATOM     53  F   LIG d   1       3.766  -2.859  -2.346  0.00  0.00    -0.166 F 
ATOM     54  F   LIG d   1       4.387  -0.885  -1.381  0.00  0.00    -0.166 F 
ATOM     55  F   LIG d   1       2.432  -1.017  -2.554  0.00  0.00    -0.166 F 
ENDBRANCH  44  52
ENDBRANCH  14  42
TORSDOF 6
ENDMDL
