MODEL 1
REMARK VINA RESULT:      -6.6      0.000      0.000
REMARK  4 active torsions:
REMARK  status: ('A' for Active; 'I' for Inactive)
REMARK    1  A    between atoms: C_1  and  N_2 
REMARK    2  A    between atoms: C_9  and  C_11 
REMARK       I    between atoms: C_11  and  N_13 
REMARK    3  A    between atoms: N_13  and  C_14 
REMARK    4  A    between atoms: N_24  and  C_25 
ROOT
ATOM      1  C   LIG d   1       3.506  -0.011  -5.266  0.00  0.00     0.034 C 
ATOM      2  C   LIG d   1       4.994  -0.131  -4.972  0.00  0.00     0.009 C 
ATOM      3  C   LIG d   1       5.326  -0.054  -3.493  0.00  0.00    -0.019 C 
ATOM      4  H   LIG d   1       6.080   0.723  -3.337  0.00  0.00     0.085 H 
ATOM      5  C   LIG d   1       5.928  -1.393  -3.039  0.00  0.00    -0.009 C 
ATOM      6  C   LIG d   1       4.877  -2.495  -3.172  0.00  0.00    -0.043 C 
ATOM      7  C   LIG d   1       3.619  -2.115  -2.388  0.00  0.00    -0.009 C 
ATOM      8  C   LIG d   1       3.114  -0.745  -2.864  0.00  0.00    -0.019 C 
ATOM      9  H   LIG d   1       2.252  -0.473  -2.248  0.00  0.00     0.085 H 
ATOM     10  C   LIG d   1       2.668  -0.852  -4.313  0.00  0.00     0.009 C 
ATOM     11  N   LIG d   1       4.171   0.236  -2.653  0.00  0.00     0.237 N 
ATOM     12  H   LIG d   1       3.193   1.036  -5.224  0.00  0.00     0.050 H 
ATOM     13  H   LIG d   1       5.364  -1.083  -5.377  0.00  0.00     0.034 H 
ATOM     14  H   LIG d   1       5.528   0.671  -5.500  0.00  0.00     0.034 H 
ATOM     15  H   LIG d   1       6.788  -1.627  -3.666  0.00  0.00     0.032 H 
ATOM     16  H   LIG d   1       6.244  -1.307  -2.000  0.00  0.00     0.032 H 
ATOM     17  H   LIG d   1       4.626  -2.639  -4.223  0.00  0.00     0.027 H 
ATOM     18  H   LIG d   1       5.281  -3.429  -2.773  0.00  0.00     0.027 H 
ATOM     19  H   LIG d   1       2.841  -2.860  -2.556  0.00  0.00     0.032 H 
ATOM     20  H   LIG d   1       3.851  -2.060  -1.326  0.00  0.00     0.032 H 
ATOM     21  H   LIG d   1       1.618  -0.541  -4.388  0.00  0.00     0.034 H 
ATOM     22  H   LIG d   1       2.715  -1.904  -4.627  0.00  0.00     0.034 H 
ATOM     23  H   LIG d   1       4.485   0.119  -1.677  0.00  0.00     0.204 HD
ENDROOT
BRANCH   1  24
ATOM     24  N   LIG d   1       3.258  -0.476  -6.645  0.00  0.00    -0.307 N 
ATOM     25  C   LIG d   1       3.062   0.419  -7.633  0.00  0.00     0.265 C 
ATOM     26  O   LIG d   1       3.088   1.609  -7.389  0.00  0.00    -0.268 OA
ATOM     27  H   LIG d   1       3.238  -1.426  -6.839  0.00  0.00     0.149 HD
BRANCH  25  28
ATOM     28  C   LIG d   1       2.815  -0.047  -9.010  0.00  0.00     0.155 A 
ATOM     29  C   LIG d   1       3.815  -0.222 -10.072  0.00  0.00     0.032 A 
ATOM     30  C   LIG d   1       3.073  -0.681 -11.178  0.00  0.00     0.069 A 
ATOM     31  C   LIG d   1       5.190  -0.041 -10.182  0.00  0.00    -0.050 A 
ATOM     32  N   LIG d   1       1.771  -0.754 -10.758  0.00  0.00    -0.266 N 
ATOM     33  C   LIG d   1       3.732  -0.949 -12.373  0.00  0.00    -0.036 A 
ATOM     34  N   LIG d   1       1.657  -0.385  -9.532  0.00  0.00    -0.166 NA
ATOM     35  C   LIG d   1       5.083  -0.766 -12.460  0.00  0.00    -0.060 A 
ATOM     36  H   LIG d   1       3.177  -1.303 -13.231  0.00  0.00     0.064 H 
ATOM     37  C   LIG d   1       5.813  -0.312 -11.368  0.00  0.00    -0.061 A 
ATOM     38  H   LIG d   1       5.591  -0.975 -13.390  0.00  0.00     0.062 H 
ATOM     39  H   LIG d   1       6.880  -0.174 -11.458  0.00  0.00     0.062 H 
ATOM     40  H   LIG d   1       5.762   0.310  -9.336  0.00  0.00     0.062 H 
BRANCH  32  41
ATOM     41  C   LIG d   1       0.653  -1.189 -11.598  0.00  0.00     0.031 C 
ATOM     42  H   LIG d   1       0.278  -0.341 -12.172  0.00  0.00     0.047 H 
ATOM     43  H   LIG d   1       0.994  -1.968 -12.280  0.00  0.00     0.047 H 
ATOM     44  H   LIG d   1      -0.145  -1.582 -10.967  0.00  0.00     0.047 H 
ENDBRANCH  32  41
ENDBRANCH  25  28
ENDBRANCH   1  24
BRANCH  11  45
ATOM     45  C   LIG d   1       3.706   1.610  -2.782  0.00  0.00    -0.043 C 
ATOM     46  H   LIG d   1       4.414   2.280  -2.294  0.00  0.00     0.078 H 
ATOM     47  H   LIG d   1       3.628   1.869  -3.837  0.00  0.00     0.078 H 
ATOM     48  H   LIG d   1       2.728   1.708  -2.310  0.00  0.00     0.078 H 
ENDBRANCH  11  45
TORSDOF 4
ENDMDL
MODEL 2
REMARK VINA RESULT:      -6.6      5.833      8.562
REMARK  4 active torsions:
REMARK  status: ('A' for Active; 'I' for Inactive)
REMARK    1  A    between atoms: C_1  and  N_2 
REMARK    2  A    between atoms: C_9  and  C_11 
REMARK       I    between atoms: C_11  and  N_13 
REMARK    3  A    between atoms: N_13  and  C_14 
REMARK    4  A    between atoms: N_24  and  C_25 
ROOT
ATOM      1  C   LIG d   1      10.037   3.251  -3.978  0.00  0.00     0.034 C 
ATOM      2  C   LIG d   1      11.390   3.199  -3.285  0.00  0.00     0.009 C 
ATOM      3  C   LIG d   1      12.098   4.541  -3.240  0.00  0.00    -0.019 C 
ATOM      4  H   LIG d   1      13.102   4.429  -3.660  0.00  0.00     0.085 H 
ATOM      5  C   LIG d   1      12.246   4.987  -1.777  0.00  0.00    -0.009 C 
ATOM      6  C   LIG d   1      10.861   5.228  -1.176  0.00  0.00    -0.043 C 
ATOM      7  C   LIG d   1      10.089   6.238  -2.028  0.00  0.00    -0.009 C 
ATOM      8  C   LIG d   1      10.034   5.744  -3.481  0.00  0.00    -0.019 C 
ATOM      9  H   LIG d   1       9.530   6.511  -4.077  0.00  0.00     0.085 H 
ATOM     10  C   LIG d   1       9.222   4.461  -3.543  0.00  0.00     0.009 C 
ATOM     11  N   LIG d   1      11.398   5.592  -3.970  0.00  0.00     0.237 N 
ATOM     12  H   LIG d   1      10.164   3.249  -5.064  0.00  0.00     0.050 H 
ATOM     13  H   LIG d   1      11.255   2.828  -2.261  0.00  0.00     0.034 H 
ATOM     14  H   LIG d   1      12.031   2.475  -3.807  0.00  0.00     0.034 H 
ATOM     15  H   LIG d   1      12.760   4.206  -1.218  0.00  0.00     0.032 H 
ATOM     16  H   LIG d   1      12.828   5.907  -1.743  0.00  0.00     0.032 H 
ATOM     17  H   LIG d   1      10.311   4.287  -1.131  0.00  0.00     0.027 H 
ATOM     18  H   LIG d   1      10.971   5.621  -0.163  0.00  0.00     0.027 H 
ATOM     19  H   LIG d   1       9.073   6.340  -1.647  0.00  0.00     0.032 H 
ATOM     20  H   LIG d   1      10.591   7.203  -1.998  0.00  0.00     0.032 H 
ATOM     21  H   LIG d   1       8.386   4.601  -4.242  0.00  0.00     0.034 H 
ATOM     22  H   LIG d   1       8.785   4.264  -2.555  0.00  0.00     0.034 H 
ATOM     23  H   LIG d   1      11.886   6.474  -3.749  0.00  0.00     0.204 HD
ENDROOT
BRANCH   1  24
ATOM     24  N   LIG d   1       9.284   2.029  -3.633  0.00  0.00    -0.307 N 
ATOM     25  C   LIG d   1       8.318   1.578  -4.457  0.00  0.00     0.265 C 
ATOM     26  O   LIG d   1       8.067   2.177  -5.485  0.00  0.00    -0.268 OA
ATOM     27  H   LIG d   1       9.485   1.551  -2.813  0.00  0.00     0.149 HD
BRANCH  25  28
ATOM     28  C   LIG d   1       7.567   0.357  -4.112  0.00  0.00     0.155 A 
ATOM     29  C   LIG d   1       6.354   0.274  -3.287  0.00  0.00     0.032 A 
ATOM     30  C   LIG d   1       6.039  -1.099  -3.265  0.00  0.00     0.069 A 
ATOM     31  C   LIG d   1       5.553   1.184  -2.603  0.00  0.00    -0.050 A 
ATOM     32  N   LIG d   1       7.000  -1.721  -4.019  0.00  0.00    -0.266 N 
ATOM     33  C   LIG d   1       4.923  -1.528  -2.555  0.00  0.00    -0.036 A 
ATOM     34  N   LIG d   1       7.850  -0.874  -4.479  0.00  0.00    -0.166 NA
ATOM     35  C   LIG d   1       4.149  -0.619  -1.891  0.00  0.00    -0.060 A 
ATOM     36  H   LIG d   1       4.667  -2.578  -2.530  0.00  0.00     0.064 H 
ATOM     37  C   LIG d   1       4.462   0.734  -1.912  0.00  0.00    -0.061 A 
ATOM     38  H   LIG d   1       3.283  -0.957  -1.341  0.00  0.00     0.062 H 
ATOM     39  H   LIG d   1       3.838   1.437  -1.380  0.00  0.00     0.062 H 
ATOM     40  H   LIG d   1       5.791   2.237  -2.617  0.00  0.00     0.062 H 
BRANCH  32  41
ATOM     41  C   LIG d   1       7.055  -3.163  -4.264  0.00  0.00     0.031 C 
ATOM     42  H   LIG d   1       6.476  -3.684  -3.501  0.00  0.00     0.047 H 
ATOM     43  H   LIG d   1       6.638  -3.381  -5.248  0.00  0.00     0.047 H 
ATOM     44  H   LIG d   1       8.092  -3.499  -4.227  0.00  0.00     0.047 H 
ENDBRANCH  32  41
ENDBRANCH  25  28
ENDBRANCH   1  24
BRANCH  11  45
ATOM     45  C   LIG d   1      11.470   5.424  -5.415  0.00  0.00    -0.043 C 
ATOM     46  H   LIG d   1      11.134   6.338  -5.904  0.00  0.00     0.078 H 
ATOM     47  H   LIG d   1      12.499   5.213  -5.704  0.00  0.00     0.078 H 
ATOM     48  H   LIG d   1      10.831   4.594  -5.716  0.00  0.00     0.078 H 
ENDBRANCH  11  45
TORSDOF 4
ENDMDL
MODEL 3
REMARK VINA RESULT:      -6.5      4.461      6.826
REMARK  4 active torsions:
REMARK  status: ('A' for Active; 'I' for Inactive)
REMARK    1  A    between atoms: C_1  and  N_2 
REMARK    2  A    between atoms: C_9  and  C_11 
REMARK       I    between atoms: C_11  and  N_13 
REMARK    3  A    between atoms: N_13  and  C_14 
REMARK    4  A    between atoms: N_24  and  C_25 
ROOT
ATOM      1  C   LIG d   1       5.879  -0.498  -4.952  0.00  0.00     0.034 C 
ATOM      2  C   LIG d   1       4.406  -0.174  -5.158  0.00  0.00     0.009 C 
ATOM      3  C   LIG d   1       3.471  -1.239  -4.614  0.00  0.00    -0.019 C 
ATOM      4  H   LIG d   1       2.785  -1.551  -5.406  0.00  0.00     0.085 H 
ATOM      5  C   LIG d   1       2.634  -0.642  -3.472  0.00  0.00    -0.009 C 
ATOM      6  C   LIG d   1       3.553  -0.263  -2.310  0.00  0.00    -0.043 C 
ATOM      7  C   LIG d   1       4.370  -1.480  -1.872  0.00  0.00    -0.009 C 
ATOM      8  C   LIG d   1       5.133  -2.046  -3.079  0.00  0.00    -0.019 C 
ATOM      9  H   LIG d   1       5.659  -2.947  -2.750  0.00  0.00     0.085 H 
ATOM     10  C   LIG d   1       6.154  -1.024  -3.550  0.00  0.00     0.009 C 
ATOM     11  N   LIG d   1       4.166  -2.416  -4.104  0.00  0.00     0.237 N 
ATOM     12  H   LIG d   1       6.220  -1.217  -5.701  0.00  0.00     0.050 H 
ATOM     13  H   LIG d   1       4.179   0.786  -4.677  0.00  0.00     0.034 H 
ATOM     14  H   LIG d   1       4.216  -0.048  -6.233  0.00  0.00     0.034 H 
ATOM     15  H   LIG d   1       2.117   0.244  -3.837  0.00  0.00     0.032 H 
ATOM     16  H   LIG d   1       1.906  -1.381  -3.140  0.00  0.00     0.032 H 
ATOM     17  H   LIG d   1       4.225   0.539  -2.619  0.00  0.00     0.027 H 
ATOM     18  H   LIG d   1       2.948   0.086  -1.471  0.00  0.00     0.027 H 
ATOM     19  H   LIG d   1       5.086  -1.185  -1.104  0.00  0.00     0.032 H 
ATOM     20  H   LIG d   1       3.705  -2.247  -1.478  0.00  0.00     0.032 H 
ATOM     21  H   LIG d   1       7.153  -1.481  -3.528  0.00  0.00     0.034 H 
ATOM     22  H   LIG d   1       6.170  -0.181  -2.847  0.00  0.00     0.034 H 
ATOM     23  H   LIG d   1       3.451  -2.994  -3.635  0.00  0.00     0.204 HD
ENDROOT
BRANCH   1  24
ATOM     24  N   LIG d   1       6.665   0.735  -5.153  0.00  0.00    -0.307 N 
ATOM     25  C   LIG d   1       7.706   0.738  -6.008  0.00  0.00     0.265 C 
ATOM     26  O   LIG d   1       7.999  -0.275  -6.613  0.00  0.00    -0.268 OA
ATOM     27  H   LIG d   1       6.430   1.543  -4.671  0.00  0.00     0.149 HD
BRANCH  25  28
ATOM     28  C   LIG d   1       8.491   1.970  -6.209  0.00  0.00     0.155 A 
ATOM     29  C   LIG d   1       9.061   2.831  -5.163  0.00  0.00     0.032 A 
ATOM     30  C   LIG d   1       9.708   3.861  -5.872  0.00  0.00     0.069 A 
ATOM     31  C   LIG d   1       9.081   2.824  -3.771  0.00  0.00    -0.050 A 
ATOM     32  N   LIG d   1       9.510   3.589  -7.201  0.00  0.00    -0.266 N 
ATOM     33  C   LIG d   1      10.362   4.865  -5.166  0.00  0.00    -0.036 A 
ATOM     34  N   LIG d   1       8.817   2.519  -7.358  0.00  0.00    -0.166 NA
ATOM     35  C   LIG d   1      10.370   4.839  -3.800  0.00  0.00    -0.060 A 
ATOM     36  H   LIG d   1      10.864   5.662  -5.696  0.00  0.00     0.064 H 
ATOM     37  C   LIG d   1       9.731   3.822  -3.102  0.00  0.00    -0.061 A 
ATOM     38  H   LIG d   1      10.880   5.620  -3.255  0.00  0.00     0.062 H 
ATOM     39  H   LIG d   1       9.749   3.820  -2.022  0.00  0.00     0.062 H 
ATOM     40  H   LIG d   1       8.586   2.035  -3.224  0.00  0.00     0.062 H 
BRANCH  32  41
ATOM     41  C   LIG d   1      10.019   4.413  -8.299  0.00  0.00     0.031 C 
ATOM     42  H   LIG d   1      10.966   4.866  -8.005  0.00  0.00     0.047 H 
ATOM     43  H   LIG d   1      10.173   3.789  -9.180  0.00  0.00     0.047 H 
ATOM     44  H   LIG d   1       9.297   5.197  -8.530  0.00  0.00     0.047 H 
ENDBRANCH  32  41
ENDBRANCH  25  28
ENDBRANCH   1  24
BRANCH  11  45
ATOM     45  C   LIG d   1       4.741  -3.237  -5.160  0.00  0.00    -0.043 C 
ATOM     46  H   LIG d   1       5.468  -2.650  -5.721  0.00  0.00     0.078 H 
ATOM     47  H   LIG d   1       5.236  -4.102  -4.718  0.00  0.00     0.078 H 
ATOM     48  H   LIG d   1       3.950  -3.573  -5.830  0.00  0.00     0.078 H 
ENDBRANCH  11  45
TORSDOF 4
ENDMDL
MODEL 4
REMARK VINA RESULT:      -6.4      2.536      3.298
REMARK  4 active torsions:
REMARK  status: ('A' for Active; 'I' for Inactive)
REMARK    1  A    between atoms: C_1  and  N_2 
REMARK    2  A    between atoms: C_9  and  C_11 
REMARK       I    between atoms: C_11  and  N_13 
REMARK    3  A    between atoms: N_13  and  C_14 
REMARK    4  A    between atoms: N_24  and  C_25 
ROOT
ATOM      1  C   LIG d   1       4.736  -1.667  -5.577  0.00  0.00     0.034 C 
ATOM      2  C   LIG d   1       4.609  -2.640  -4.415  0.00  0.00     0.009 C 
ATOM      3  C   LIG d   1       5.144  -2.089  -3.105  0.00  0.00    -0.019 C 
ATOM      4  H   LIG d   1       5.871  -2.794  -2.692  0.00  0.00     0.085 H 
ATOM      5  C   LIG d   1       3.988  -1.962  -2.100  0.00  0.00    -0.009 C 
ATOM      6  C   LIG d   1       2.984  -0.926  -2.607  0.00  0.00    -0.043 C 
ATOM      7  C   LIG d   1       3.693   0.405  -2.867  0.00  0.00    -0.009 C 
ATOM      8  C   LIG d   1       4.863   0.181  -3.836  0.00  0.00    -0.019 C 
ATOM      9  H   LIG d   1       5.386   1.134  -3.957  0.00  0.00     0.085 H 
ATOM     10  C   LIG d   1       4.318  -0.256  -5.186  0.00  0.00     0.009 C 
ATOM     11  N   LIG d   1       5.778  -0.784  -3.240  0.00  0.00     0.237 N 
ATOM     12  H   LIG d   1       5.758  -1.667  -5.965  0.00  0.00     0.050 H 
ATOM     13  H   LIG d   1       3.553  -2.912  -4.287  0.00  0.00     0.034 H 
ATOM     14  H   LIG d   1       5.151  -3.564  -4.661  0.00  0.00     0.034 H 
ATOM     15  H   LIG d   1       3.499  -2.929  -1.996  0.00  0.00     0.032 H 
ATOM     16  H   LIG d   1       4.388  -1.647  -1.136  0.00  0.00     0.032 H 
ATOM     17  H   LIG d   1       2.521  -1.282  -3.528  0.00  0.00     0.027 H 
ATOM     18  H   LIG d   1       2.207  -0.779  -1.854  0.00  0.00     0.027 H 
ATOM     19  H   LIG d   1       2.994   1.114  -3.311  0.00  0.00     0.032 H 
ATOM     20  H   LIG d   1       4.077   0.806  -1.931  0.00  0.00     0.032 H 
ATOM     21  H   LIG d   1       4.665   0.447  -5.956  0.00  0.00     0.034 H 
ATOM     22  H   LIG d   1       3.222  -0.198  -5.167  0.00  0.00     0.034 H 
ATOM     23  H   LIG d   1       5.967  -0.452  -2.281  0.00  0.00     0.204 HD
ENDROOT
BRANCH   1  24
ATOM     24  N   LIG d   1       3.862  -2.128  -6.675  0.00  0.00    -0.307 N 
ATOM     25  C   LIG d   1       4.382  -2.830  -7.700  0.00  0.00     0.265 C 
ATOM     26  O   LIG d   1       5.571  -3.084  -7.722  0.00  0.00    -0.268 OA
ATOM     27  H   LIG d   1       2.913  -1.926  -6.656  0.00  0.00     0.149 HD
BRANCH  25  28
ATOM     28  C   LIG d   1       3.509  -3.290  -8.796  0.00  0.00     0.155 A 
ATOM     29  C   LIG d   1       2.698  -2.449  -9.687  0.00  0.00     0.032 A 
ATOM     30  C   LIG d   1       2.059  -3.364 -10.546  0.00  0.00     0.069 A 
ATOM     31  C   LIG d   1       2.467  -1.083  -9.827  0.00  0.00    -0.050 A 
ATOM     32  N   LIG d   1       2.485  -4.608 -10.159  0.00  0.00    -0.266 N 
ATOM     33  C   LIG d   1       1.201  -2.886 -11.530  0.00  0.00    -0.036 A 
ATOM     34  N   LIG d   1       3.298  -4.533  -9.167  0.00  0.00    -0.166 NA
ATOM     35  C   LIG d   1       0.988  -1.542 -11.652  0.00  0.00    -0.060 A 
ATOM     36  H   LIG d   1       0.704  -3.576 -12.198  0.00  0.00     0.064 H 
ATOM     37  C   LIG d   1       1.618  -0.641 -10.803  0.00  0.00    -0.061 A 
ATOM     38  H   LIG d   1       0.320  -1.175 -12.417  0.00  0.00     0.062 H 
ATOM     39  H   LIG d   1       1.436   0.418 -10.916  0.00  0.00     0.062 H 
ATOM     40  H   LIG d   1       2.955  -0.379  -9.171  0.00  0.00     0.062 H 
BRANCH  32  41
ATOM     41  C   LIG d   1       2.065  -5.861 -10.791  0.00  0.00     0.031 C 
ATOM     42  H   LIG d   1       2.876  -6.246 -11.409  0.00  0.00     0.047 H 
ATOM     43  H   LIG d   1       1.817  -6.591 -10.020  0.00  0.00     0.047 H 
ATOM     44  H   LIG d   1       1.189  -5.678 -11.413  0.00  0.00     0.047 H 
ENDBRANCH  32  41
ENDBRANCH  25  28
ENDBRANCH   1  24
BRANCH  11  45
ATOM     45  C   LIG d   1       7.064  -0.845  -3.921  0.00  0.00    -0.043 C 
ATOM     46  H   LIG d   1       7.477   0.159  -4.009  0.00  0.00     0.078 H 
ATOM     47  H   LIG d   1       7.748  -1.472  -3.349  0.00  0.00     0.078 H 
ATOM     48  H   LIG d   1       6.928  -1.270  -4.916  0.00  0.00     0.078 H 
ENDBRANCH  11  45
TORSDOF 4
ENDMDL
MODEL 5
REMARK VINA RESULT:      -6.3      5.233      7.975
REMARK  4 active torsions:
REMARK  status: ('A' for Active; 'I' for Inactive)
REMARK    1  A    between atoms: C_1  and  N_2 
REMARK    2  A    between atoms: C_9  and  C_11 
REMARK       I    between atoms: C_11  and  N_13 
REMARK    3  A    between atoms: N_13  and  C_14 
REMARK    4  A    between atoms: N_24  and  C_25 
ROOT
ATOM      1  C   LIG d   1       9.461   2.807  -4.418  0.00  0.00     0.034 C 
ATOM      2  C   LIG d   1       9.515   3.715  -3.198  0.00  0.00     0.009 C 
ATOM      3  C   LIG d   1      10.577   4.796  -3.297  0.00  0.00    -0.019 C 
ATOM      4  H   LIG d   1      11.217   4.750  -2.412  0.00  0.00     0.085 H 
ATOM      5  C   LIG d   1       9.896   6.174  -3.316  0.00  0.00    -0.009 C 
ATOM      6  C   LIG d   1       9.049   6.306  -4.582  0.00  0.00    -0.043 C 
ATOM      7  C   LIG d   1       9.915   6.056  -5.819  0.00  0.00    -0.009 C 
ATOM      8  C   LIG d   1      10.598   4.686  -5.696  0.00  0.00    -0.019 C 
ATOM      9  H   LIG d   1      11.255   4.561  -6.563  0.00  0.00     0.085 H 
ATOM     10  C   LIG d   1       9.541   3.595  -5.718  0.00  0.00     0.009 C 
ATOM     11  N   LIG d   1      11.412   4.683  -4.487  0.00  0.00     0.237 N 
ATOM     12  H   LIG d   1      10.260   2.062  -4.375  0.00  0.00     0.050 H 
ATOM     13  H   LIG d   1       8.533   4.185  -3.056  0.00  0.00     0.034 H 
ATOM     14  H   LIG d   1       9.711   3.104  -2.306  0.00  0.00     0.034 H 
ATOM     15  H   LIG d   1       9.261   6.268  -2.436  0.00  0.00     0.032 H 
ATOM     16  H   LIG d   1      10.661   6.949  -3.302  0.00  0.00     0.032 H 
ATOM     17  H   LIG d   1       8.230   5.586  -4.554  0.00  0.00     0.027 H 
ATOM     18  H   LIG d   1       8.631   7.314  -4.633  0.00  0.00     0.027 H 
ATOM     19  H   LIG d   1       9.290   6.064  -6.713  0.00  0.00     0.032 H 
ATOM     20  H   LIG d   1      10.677   6.830  -5.896  0.00  0.00     0.032 H 
ATOM     21  H   LIG d   1       9.757   2.904  -6.544  0.00  0.00     0.034 H 
ATOM     22  H   LIG d   1       8.562   4.047  -5.925  0.00  0.00     0.034 H 
ATOM     23  H   LIG d   1      11.987   5.539  -4.521  0.00  0.00     0.204 HD
ENDROOT
BRANCH   1  24
ATOM     24  N   LIG d   1       8.184   2.066  -4.396  0.00  0.00    -0.307 N 
ATOM     25  C   LIG d   1       8.170   0.740  -4.634  0.00  0.00     0.265 C 
ATOM     26  O   LIG d   1       9.209   0.154  -4.867  0.00  0.00    -0.268 OA
ATOM     27  H   LIG d   1       7.355   2.535  -4.210  0.00  0.00     0.149 HD
BRANCH  25  28
ATOM     28  C   LIG d   1       6.895   0.001  -4.612  0.00  0.00     0.155 A 
ATOM     29  C   LIG d   1       5.755   0.239  -3.715  0.00  0.00     0.032 A 
ATOM     30  C   LIG d   1       4.801  -0.723  -4.100  0.00  0.00     0.069 A 
ATOM     31  C   LIG d   1       5.472   1.127  -2.681  0.00  0.00    -0.050 A 
ATOM     32  N   LIG d   1       5.369  -1.433  -5.126  0.00  0.00    -0.266 N 
ATOM     33  C   LIG d   1       3.580  -0.773  -3.435  0.00  0.00    -0.036 A 
ATOM     34  N   LIG d   1       6.551  -1.004  -5.388  0.00  0.00    -0.166 NA
ATOM     35  C   LIG d   1       3.322   0.108  -2.423  0.00  0.00    -0.060 A 
ATOM     36  H   LIG d   1       2.837  -1.504  -3.719  0.00  0.00     0.064 H 
ATOM     37  C   LIG d   1       4.265   1.056  -2.045  0.00  0.00    -0.061 A 
ATOM     38  H   LIG d   1       2.373   0.067  -1.909  0.00  0.00     0.062 H 
ATOM     39  H   LIG d   1       4.041   1.743  -1.242  0.00  0.00     0.062 H 
ATOM     40  H   LIG d   1       6.201   1.866  -2.384  0.00  0.00     0.062 H 
BRANCH  32  41
ATOM     41  C   LIG d   1       4.717  -2.539  -5.828  0.00  0.00     0.031 C 
ATOM     42  H   LIG d   1       4.428  -3.307  -5.109  0.00  0.00     0.047 H 
ATOM     43  H   LIG d   1       3.828  -2.170  -6.341  0.00  0.00     0.047 H 
ATOM     44  H   LIG d   1       5.407  -2.965  -6.557  0.00  0.00     0.047 H 
ENDBRANCH  32  41
ENDBRANCH  25  28
ENDBRANCH   1  24
BRANCH  11  45
ATOM     45  C   LIG d   1      12.337   3.560  -4.426  0.00  0.00    -0.043 C 
ATOM     46  H   LIG d   1      11.776   2.625  -4.462  0.00  0.00     0.078 H 
ATOM     47  H   LIG d   1      13.020   3.606  -5.274  0.00  0.00     0.078 H 
ATOM     48  H   LIG d   1      12.905   3.607  -3.498  0.00  0.00     0.078 H 
ENDBRANCH  11  45
TORSDOF 4
ENDMDL
MODEL 6
REMARK VINA RESULT:      -6.3      5.343      8.159
REMARK  4 active torsions:
REMARK  status: ('A' for Active; 'I' for Inactive)
REMARK    1  A    between atoms: C_1  and  N_2 
REMARK    2  A    between atoms: C_9  and  C_11 
REMARK       I    between atoms: C_11  and  N_13 
REMARK    3  A    between atoms: N_13  and  C_14 
REMARK    4  A    between atoms: N_24  and  C_25 
ROOT
ATOM      1  C   LIG d   1       9.524   2.804  -3.562  0.00  0.00     0.034 C 
ATOM      2  C   LIG d   1       9.634   3.548  -4.885  0.00  0.00     0.009 C 
ATOM      3  C   LIG d   1      10.539   4.766  -4.819  0.00  0.00    -0.019 C 
ATOM      4  H   LIG d   1       9.990   5.638  -5.186  0.00  0.00     0.085 H 
ATOM      5  C   LIG d   1      11.749   4.547  -5.742  0.00  0.00    -0.009 C 
ATOM      6  C   LIG d   1      12.584   3.379  -5.218  0.00  0.00    -0.043 C 
ATOM      7  C   LIG d   1      12.987   3.635  -3.764  0.00  0.00    -0.009 C 
ATOM      8  C   LIG d   1      11.728   3.896  -2.923  0.00  0.00    -0.019 C 
ATOM      9  H   LIG d   1      12.049   4.133  -1.904  0.00  0.00     0.085 H 
ATOM     10  C   LIG d   1      10.879   2.636  -2.890  0.00  0.00     0.009 C 
ATOM     11  N   LIG d   1      11.033   5.050  -3.477  0.00  0.00     0.237 N 
ATOM     12  H   LIG d   1       8.828   3.317  -2.893  0.00  0.00     0.050 H 
ATOM     13  H   LIG d   1      10.009   2.860  -5.654  0.00  0.00     0.034 H 
ATOM     14  H   LIG d   1       8.630   3.867  -5.200  0.00  0.00     0.034 H 
ATOM     15  H   LIG d   1      11.393   4.324  -6.747  0.00  0.00     0.032 H 
ATOM     16  H   LIG d   1      12.352   5.454  -5.758  0.00  0.00     0.032 H 
ATOM     17  H   LIG d   1      12.008   2.456  -5.283  0.00  0.00     0.027 H 
ATOM     18  H   LIG d   1      13.485   3.278  -5.828  0.00  0.00     0.027 H 
ATOM     19  H   LIG d   1      13.506   2.763  -3.367  0.00  0.00     0.032 H 
ATOM     20  H   LIG d   1      13.638   4.506  -3.711  0.00  0.00     0.032 H 
ATOM     21  H   LIG d   1      10.726   2.335  -1.844  0.00  0.00     0.034 H 
ATOM     22  H   LIG d   1      11.425   1.821  -3.382  0.00  0.00     0.034 H 
ATOM     23  H   LIG d   1      11.741   5.794  -3.580  0.00  0.00     0.204 HD
ENDROOT
BRANCH   1  24
ATOM     24  N   LIG d   1       8.959   1.465  -3.822  0.00  0.00    -0.307 N 
ATOM     25  C   LIG d   1       7.626   1.274  -3.769  0.00  0.00     0.265 C 
ATOM     26  O   LIG d   1       6.888   2.205  -3.508  0.00  0.00    -0.268 OA
ATOM     27  H   LIG d   1       9.547   0.722  -4.030  0.00  0.00     0.149 HD
BRANCH  25  28
ATOM     28  C   LIG d   1       7.062  -0.064  -4.028  0.00  0.00     0.155 A 
ATOM     29  C   LIG d   1       5.895  -0.669  -3.372  0.00  0.00     0.032 A 
ATOM     30  C   LIG d   1       5.777  -1.938  -3.971  0.00  0.00     0.069 A 
ATOM     31  C   LIG d   1       4.992  -0.275  -2.389  0.00  0.00    -0.050 A 
ATOM     32  N   LIG d   1       6.796  -2.023  -4.883  0.00  0.00    -0.266 N 
ATOM     33  C   LIG d   1       4.750  -2.786  -3.568  0.00  0.00    -0.036 A 
ATOM     34  N   LIG d   1       7.506  -0.953  -4.888  0.00  0.00    -0.166 NA
ATOM     35  C   LIG d   1       3.874  -2.380  -2.601  0.00  0.00    -0.060 A 
ATOM     36  H   LIG d   1       4.645  -3.763  -4.019  0.00  0.00     0.064 H 
ATOM     37  C   LIG d   1       3.993  -1.128  -2.011  0.00  0.00    -0.061 A 
ATOM     38  H   LIG d   1       3.079  -3.042  -2.291  0.00  0.00     0.062 H 
ATOM     39  H   LIG d   1       3.290  -0.827  -1.248  0.00  0.00     0.062 H 
ATOM     40  H   LIG d   1       5.080   0.697  -1.927  0.00  0.00     0.062 H 
BRANCH  32  41
ATOM     41  C   LIG d   1       7.046  -3.186  -5.738  0.00  0.00     0.031 C 
ATOM     42  H   LIG d   1       6.629  -3.005  -6.729  0.00  0.00     0.047 H 
ATOM     43  H   LIG d   1       8.121  -3.351  -5.821  0.00  0.00     0.047 H 
ATOM     44  H   LIG d   1       6.576  -4.067  -5.301  0.00  0.00     0.047 H 
ENDBRANCH  32  41
ENDBRANCH  25  28
ENDBRANCH   1  24
BRANCH  11  45
ATOM     45  C   LIG d   1      10.002   5.573  -2.592  0.00  0.00    -0.043 C 
ATOM     46  H   LIG d   1       9.091   4.985  -2.708  0.00  0.00     0.078 H 
ATOM     47  H   LIG d   1      10.345   5.512  -1.560  0.00  0.00     0.078 H 
ATOM     48  H   LIG d   1       9.798   6.613  -2.847  0.00  0.00     0.078 H 
ENDBRANCH  11  45
TORSDOF 4
ENDMDL
MODEL 7
REMARK VINA RESULT:      -6.3      4.836      7.437
REMARK  4 active torsions:
REMARK  status: ('A' for Active; 'I' for Inactive)
REMARK    1  A    between atoms: C_1  and  N_2 
REMARK    2  A    between atoms: C_9  and  C_11 
REMARK       I    between atoms: C_11  and  N_13 
REMARK    3  A    between atoms: N_13  and  C_14 
REMARK    4  A    between atoms: N_24  and  C_25 
ROOT
ATOM      1  C   LIG d   1       6.291  -0.120  -4.406  0.00  0.00     0.034 C 
ATOM      2  C   LIG d   1       4.889   0.152  -4.930  0.00  0.00     0.009 C 
ATOM      3  C   LIG d   1       3.964  -1.049  -4.832  0.00  0.00    -0.019 C 
ATOM      4  H   LIG d   1       3.528  -1.245  -5.815  0.00  0.00     0.085 H 
ATOM      5  C   LIG d   1       2.816  -0.726  -3.863  0.00  0.00    -0.009 C 
ATOM      6  C   LIG d   1       3.379  -0.518  -2.457  0.00  0.00    -0.043 C 
ATOM      7  C   LIG d   1       4.186  -1.747  -2.030  0.00  0.00    -0.009 C 
ATOM      8  C   LIG d   1       5.275  -2.032  -3.075  0.00  0.00    -0.019 C 
ATOM      9  H   LIG d   1       5.795  -2.946  -2.776  0.00  0.00     0.085 H 
ATOM     10  C   LIG d   1       6.269  -0.882  -3.089  0.00  0.00     0.009 C 
ATOM     11  N   LIG d   1       4.631  -2.258  -4.363  0.00  0.00     0.237 N 
ATOM     12  H   LIG d   1       6.878  -0.664  -5.151  0.00  0.00     0.050 H 
ATOM     13  H   LIG d   1       4.452   0.990  -4.371  0.00  0.00     0.034 H 
ATOM     14  H   LIG d   1       4.954   0.466  -5.981  0.00  0.00     0.034 H 
ATOM     15  H   LIG d   1       2.315   0.182  -4.197  0.00  0.00     0.032 H 
ATOM     16  H   LIG d   1       2.110  -1.555  -3.859  0.00  0.00     0.032 H 
ATOM     17  H   LIG d   1       4.019   0.365  -2.443  0.00  0.00     0.027 H 
ATOM     18  H   LIG d   1       2.554  -0.369  -1.756  0.00  0.00     0.027 H 
ATOM     19  H   LIG d   1       4.658  -1.560  -1.065  0.00  0.00     0.032 H 
ATOM     20  H   LIG d   1       3.528  -2.611  -1.956  0.00  0.00     0.032 H 
ATOM     21  H   LIG d   1       7.273  -1.276  -2.885  0.00  0.00     0.034 H 
ATOM     22  H   LIG d   1       6.025  -0.186  -2.275  0.00  0.00     0.034 H 
ATOM     23  H   LIG d   1       3.887  -2.954  -4.198  0.00  0.00     0.204 HD
ENDROOT
BRANCH   1  24
ATOM     24  N   LIG d   1       6.971   1.173  -4.189  0.00  0.00    -0.307 N 
ATOM     25  C   LIG d   1       8.274   1.310  -4.503  0.00  0.00     0.265 C 
ATOM     26  O   LIG d   1       8.890   0.370  -4.965  0.00  0.00    -0.268 OA
ATOM     27  H   LIG d   1       6.478   1.923  -3.821  0.00  0.00     0.149 HD
BRANCH  25  28
ATOM     28  C   LIG d   1       8.951   2.602  -4.286  0.00  0.00     0.155 A 
ATOM     29  C   LIG d   1       9.421   3.534  -5.320  0.00  0.00     0.032 A 
ATOM     30  C   LIG d   1       9.989   4.600  -4.597  0.00  0.00     0.069 A 
ATOM     31  C   LIG d   1       9.414   3.561  -6.711  0.00  0.00    -0.050 A 
ATOM     32  N   LIG d   1       9.843   4.281  -3.272  0.00  0.00    -0.266 N 
ATOM     33  C   LIG d   1      10.539   5.674  -5.290  0.00  0.00    -0.036 A 
ATOM     34  N   LIG d   1       9.259   3.146  -3.129  0.00  0.00    -0.166 NA
ATOM     35  C   LIG d   1      10.521   5.681  -6.656  0.00  0.00    -0.060 A 
ATOM     36  H   LIG d   1      10.978   6.501  -4.749  0.00  0.00     0.064 H 
ATOM     37  C   LIG d   1       9.961   4.628  -7.367  0.00  0.00    -0.061 A 
ATOM     38  H   LIG d   1      10.948   6.517  -7.190  0.00  0.00     0.062 H 
ATOM     39  H   LIG d   1       9.957   4.653  -8.447  0.00  0.00     0.062 H 
ATOM     40  H   LIG d   1       8.979   2.745  -7.269  0.00  0.00     0.062 H 
BRANCH  32  41
ATOM     41  C   LIG d   1      10.299   5.122  -2.163  0.00  0.00     0.031 C 
ATOM     42  H   LIG d   1      11.048   5.827  -2.525  0.00  0.00     0.047 H 
ATOM     43  H   LIG d   1       9.451   5.672  -1.752  0.00  0.00     0.047 H 
ATOM     44  H   LIG d   1      10.736   4.494  -1.386  0.00  0.00     0.047 H 
ENDBRANCH  32  41
ENDBRANCH  25  28
ENDBRANCH   1  24
BRANCH  11  45
ATOM     45  C   LIG d   1       5.529  -2.832  -5.355  0.00  0.00    -0.043 C 
ATOM     46  H   LIG d   1       6.450  -3.153  -4.869  0.00  0.00     0.078 H 
ATOM     47  H   LIG d   1       5.048  -3.689  -5.827  0.00  0.00     0.078 H 
ATOM     48  H   LIG d   1       5.760  -2.083  -6.112  0.00  0.00     0.078 H 
ENDBRANCH  11  45
TORSDOF 4
ENDMDL
MODEL 8
REMARK VINA RESULT:      -6.3      4.863      8.065
REMARK  4 active torsions:
REMARK  status: ('A' for Active; 'I' for Inactive)
REMARK    1  A    between atoms: C_1  and  N_2 
REMARK    2  A    between atoms: C_9  and  C_11 
REMARK       I    between atoms: C_11  and  N_13 
REMARK    3  A    between atoms: N_13  and  C_14 
REMARK    4  A    between atoms: N_24  and  C_25 
ROOT
ATOM      1  C   LIG d   1       6.213   0.059  -4.507  0.00  0.00     0.034 C 
ATOM      2  C   LIG d   1       5.228   0.766  -3.587  0.00  0.00     0.009 C 
ATOM      3  C   LIG d   1       3.819   0.207  -3.667  0.00  0.00    -0.019 C 
ATOM      4  H   LIG d   1       3.122   1.024  -3.874  0.00  0.00     0.085 H 
ATOM      5  C   LIG d   1       3.440  -0.404  -2.309  0.00  0.00    -0.009 C 
ATOM      6  C   LIG d   1       4.346  -1.600  -2.017  0.00  0.00    -0.043 C 
ATOM      7  C   LIG d   1       4.264  -2.610  -3.164  0.00  0.00    -0.009 C 
ATOM      8  C   LIG d   1       4.605  -1.909  -4.488  0.00  0.00    -0.019 C 
ATOM      9  H   LIG d   1       4.481  -2.637  -5.294  0.00  0.00     0.085 H 
ATOM     10  C   LIG d   1       6.054  -1.453  -4.454  0.00  0.00     0.009 C 
ATOM     11  N   LIG d   1       3.659  -0.819  -4.690  0.00  0.00     0.237 N 
ATOM     12  H   LIG d   1       6.101   0.418  -5.534  0.00  0.00     0.050 H 
ATOM     13  H   LIG d   1       5.588   0.694  -2.552  0.00  0.00     0.034 H 
ATOM     14  H   LIG d   1       5.203   1.834  -3.845  0.00  0.00     0.034 H 
ATOM     15  H   LIG d   1       3.564   0.351  -1.533  0.00  0.00     0.032 H 
ATOM     16  H   LIG d   1       2.400  -0.728  -2.342  0.00  0.00     0.032 H 
ATOM     17  H   LIG d   1       5.376  -1.261  -1.898  0.00  0.00     0.027 H 
ATOM     18  H   LIG d   1       4.022  -2.080  -1.091  0.00  0.00     0.027 H 
ATOM     19  H   LIG d   1       4.977  -3.417  -2.995  0.00  0.00     0.032 H 
ATOM     20  H   LIG d   1       3.256  -3.016  -3.225  0.00  0.00     0.032 H 
ATOM     21  H   LIG d   1       6.589  -1.900  -5.304  0.00  0.00     0.034 H 
ATOM     22  H   LIG d   1       6.530  -1.833  -3.540  0.00  0.00     0.034 H 
ATOM     23  H   LIG d   1       2.718  -1.222  -4.553  0.00  0.00     0.204 HD
ENDROOT
BRANCH   1  24
ATOM     24  N   LIG d   1       7.584   0.403  -4.081  0.00  0.00    -0.307 N 
ATOM     25  C   LIG d   1       8.296   1.315  -4.773  0.00  0.00     0.265 C 
ATOM     26  O   LIG d   1       7.809   1.855  -5.747  0.00  0.00    -0.268 OA
ATOM     27  H   LIG d   1       7.973  -0.028  -3.304  0.00  0.00     0.149 HD
BRANCH  25  28
ATOM     28  C   LIG d   1       9.665   1.657  -4.347  0.00  0.00     0.155 A 
ATOM     29  C   LIG d   1      10.096   2.893  -3.678  0.00  0.00     0.032 A 
ATOM     30  C   LIG d   1      11.481   2.724  -3.491  0.00  0.00     0.069 A 
ATOM     31  C   LIG d   1       9.471   4.060  -3.247  0.00  0.00    -0.050 A 
ATOM     32  N   LIG d   1      11.788   1.495  -4.013  0.00  0.00    -0.266 N 
ATOM     33  C   LIG d   1      12.211   3.734  -2.873  0.00  0.00    -0.036 A 
ATOM     34  N   LIG d   1      10.744   0.920  -4.492  0.00  0.00    -0.166 NA
ATOM     35  C   LIG d   1      11.578   4.872  -2.456  0.00  0.00    -0.060 A 
ATOM     36  H   LIG d   1      13.275   3.620  -2.720  0.00  0.00     0.064 H 
ATOM     37  C   LIG d   1      10.212   5.036  -2.643  0.00  0.00    -0.061 A 
ATOM     38  H   LIG d   1      12.148   5.654  -1.976  0.00  0.00     0.062 H 
ATOM     39  H   LIG d   1       9.730   5.943  -2.306  0.00  0.00     0.062 H 
ATOM     40  H   LIG d   1       8.408   4.192  -3.389  0.00  0.00     0.062 H 
BRANCH  32  41
ATOM     41  C   LIG d   1      13.132   0.914  -4.028  0.00  0.00     0.031 C 
ATOM     42  H   LIG d   1      13.829   1.597  -3.541  0.00  0.00     0.047 H 
ATOM     43  H   LIG d   1      13.123  -0.037  -3.494  0.00  0.00     0.047 H 
ATOM     44  H   LIG d   1      13.446   0.749  -5.059  0.00  0.00     0.047 H 
ENDBRANCH  32  41
ENDBRANCH  25  28
ENDBRANCH   1  24
BRANCH  11  45
ATOM     45  C   LIG d   1       3.691  -0.281  -6.043  0.00  0.00    -0.043 C 
ATOM     46  H   LIG d   1       2.879   0.436  -6.168  0.00  0.00     0.078 H 
ATOM     47  H   LIG d   1       4.645   0.216  -6.213  0.00  0.00     0.078 H 
ATOM     48  H   LIG d   1       3.572  -1.094  -6.760  0.00  0.00     0.078 H 
ENDBRANCH  11  45
TORSDOF 4
ENDMDL
MODEL 9
REMARK VINA RESULT:      -6.2      4.795      7.929
REMARK  4 active torsions:
REMARK  status: ('A' for Active; 'I' for Inactive)
REMARK    1  A    between atoms: C_1  and  N_2 
REMARK    2  A    between atoms: C_9  and  C_11 
REMARK       I    between atoms: C_11  and  N_13 
REMARK    3  A    between atoms: N_13  and  C_14 
REMARK    4  A    between atoms: N_24  and  C_25 
ROOT
ATOM      1  C   LIG d   1       6.408  -0.666  -4.285  0.00  0.00     0.034 C 
ATOM      2  C   LIG d   1       5.169   0.130  -4.667  0.00  0.00     0.009 C 
ATOM      3  C   LIG d   1       3.934  -0.731  -4.864  0.00  0.00    -0.019 C 
ATOM      4  H   LIG d   1       3.506  -0.521  -5.849  0.00  0.00     0.085 H 
ATOM      5  C   LIG d   1       2.884  -0.361  -3.805  0.00  0.00    -0.009 C 
ATOM      6  C   LIG d   1       3.417  -0.711  -2.416  0.00  0.00    -0.043 C 
ATOM      7  C   LIG d   1       3.814  -2.188  -2.365  0.00  0.00    -0.009 C 
ATOM      8  C   LIG d   1       4.822  -2.485  -3.485  0.00  0.00    -0.019 C 
ATOM      9  H   LIG d   1       5.042  -3.556  -3.462  0.00  0.00     0.085 H 
ATOM     10  C   LIG d   1       6.105  -1.713  -3.222  0.00  0.00     0.009 C 
ATOM     11  N   LIG d   1       4.201  -2.161  -4.763  0.00  0.00     0.237 N 
ATOM     12  H   LIG d   1       6.846  -1.137  -5.168  0.00  0.00     0.050 H 
ATOM     13  H   LIG d   1       4.967   0.877  -3.888  0.00  0.00     0.034 H 
ATOM     14  H   LIG d   1       5.371   0.681  -5.596  0.00  0.00     0.034 H 
ATOM     15  H   LIG d   1       2.682   0.708  -3.864  0.00  0.00     0.032 H 
ATOM     16  H   LIG d   1       1.969  -0.919  -4.001  0.00  0.00     0.032 H 
ATOM     17  H   LIG d   1       4.283  -0.089  -2.186  0.00  0.00     0.027 H 
ATOM     18  H   LIG d   1       2.638  -0.522  -1.673  0.00  0.00     0.027 H 
ATOM     19  H   LIG d   1       4.275  -2.412  -1.403  0.00  0.00     0.032 H 
ATOM     20  H   LIG d   1       2.932  -2.811  -2.504  0.00  0.00     0.032 H 
ATOM     21  H   LIG d   1       6.943  -2.422  -3.167  0.00  0.00     0.034 H 
ATOM     22  H   LIG d   1       6.034  -1.222  -2.243  0.00  0.00     0.034 H 
ATOM     23  H   LIG d   1       3.282  -2.629  -4.767  0.00  0.00     0.204 HD
ENDROOT
BRANCH   1  24
ATOM     24  N   LIG d   1       7.420   0.266  -3.750  0.00  0.00    -0.307 N 
ATOM     25  C   LIG d   1       8.330   0.819  -4.576  0.00  0.00     0.265 C 
ATOM     26  O   LIG d   1       8.317   0.550  -5.762  0.00  0.00    -0.268 OA
ATOM     27  H   LIG d   1       7.429   0.481  -2.804  0.00  0.00     0.149 HD
BRANCH  25  28
ATOM     28  C   LIG d   1       9.340   1.750  -4.041  0.00  0.00     0.155 A 
ATOM     29  C   LIG d   1      10.800   1.628  -4.161  0.00  0.00     0.032 A 
ATOM     30  C   LIG d   1      11.301   2.759  -3.489  0.00  0.00     0.069 A 
ATOM     31  C   LIG d   1      11.677   0.716  -4.742  0.00  0.00    -0.050 A 
ATOM     32  N   LIG d   1      10.206   3.449  -3.037  0.00  0.00    -0.266 N 
ATOM     33  C   LIG d   1      12.677   2.951  -3.415  0.00  0.00    -0.036 A 
ATOM     34  N   LIG d   1       9.116   2.851  -3.360  0.00  0.00    -0.166 NA
ATOM     35  C   LIG d   1      13.521   2.045  -3.992  0.00  0.00    -0.060 A 
ATOM     36  H   LIG d   1      13.077   3.815  -2.904  0.00  0.00     0.064 H 
ATOM     37  C   LIG d   1      13.024   0.929  -4.654  0.00  0.00    -0.061 A 
ATOM     38  H   LIG d   1      14.588   2.197  -3.933  0.00  0.00     0.062 H 
ATOM     39  H   LIG d   1      13.708   0.224  -5.104  0.00  0.00     0.062 H 
ATOM     40  H   LIG d   1      11.296  -0.152  -5.258  0.00  0.00     0.062 H 
BRANCH  32  41
ATOM     41  C   LIG d   1      10.270   4.700  -2.279  0.00  0.00     0.031 C 
ATOM     42  H   LIG d   1       9.364   4.811  -1.682  0.00  0.00     0.047 H 
ATOM     43  H   LIG d   1      11.139   4.681  -1.620  0.00  0.00     0.047 H 
ATOM     44  H   LIG d   1      10.356   5.539  -2.970  0.00  0.00     0.047 H 
ENDBRANCH  32  41
ENDBRANCH  25  28
ENDBRANCH   1  24
BRANCH  11  45
ATOM     45  C   LIG d   1       4.941  -2.682  -5.904  0.00  0.00    -0.043 C 
ATOM     46  H   LIG d   1       4.250  -2.890  -6.721  0.00  0.00     0.078 H 
ATOM     47  H   LIG d   1       5.676  -1.945  -6.227  0.00  0.00     0.078 H 
ATOM     48  H   LIG d   1       5.451  -3.602  -5.617  0.00  0.00     0.078 H 
ENDBRANCH  11  45
TORSDOF 4
ENDMDL
MODEL 10
REMARK VINA RESULT:      -6.2      2.214      7.662
REMARK  4 active torsions:
REMARK  status: ('A' for Active; 'I' for Inactive)
REMARK    1  A    between atoms: C_1  and  N_2 
REMARK    2  A    between atoms: C_9  and  C_11 
REMARK       I    between atoms: C_11  and  N_13 
REMARK    3  A    between atoms: N_13  and  C_14 
REMARK    4  A    between atoms: N_24  and  C_25 
ROOT
ATOM      1  C   LIG d   1       3.547  -2.037  -8.687  0.00  0.00     0.034 C 
ATOM      2  C   LIG d   1       4.538  -2.229  -9.826  0.00  0.00     0.009 C 
ATOM      3  C   LIG d   1       3.899  -2.754 -11.099  0.00  0.00    -0.019 C 
ATOM      4  H   LIG d   1       4.436  -3.650 -11.424  0.00  0.00     0.085 H 
ATOM      5  C   LIG d   1       4.033  -1.697 -12.206  0.00  0.00    -0.009 C 
ATOM      6  C   LIG d   1       3.231  -0.453 -11.822  0.00  0.00    -0.043 C 
ATOM      7  C   LIG d   1       1.776  -0.835 -11.541  0.00  0.00    -0.009 C 
ATOM      8  C   LIG d   1       1.734  -1.931 -10.465  0.00  0.00    -0.019 C 
ATOM      9  H   LIG d   1       0.690  -2.225 -10.328  0.00  0.00     0.085 H 
ATOM     10  C   LIG d   1       2.263  -1.368  -9.156  0.00  0.00     0.009 C 
ATOM     11  N   LIG d   1       2.487  -3.081 -10.948  0.00  0.00     0.237 N 
ATOM     12  H   LIG d   1       3.325  -2.995  -8.210  0.00  0.00     0.050 H 
ATOM     13  H   LIG d   1       5.032  -1.271 -10.038  0.00  0.00     0.034 H 
ATOM     14  H   LIG d   1       5.321  -2.929  -9.504  0.00  0.00     0.034 H 
ATOM     15  H   LIG d   1       5.084  -1.436 -12.323  0.00  0.00     0.032 H 
ATOM     16  H   LIG d   1       3.651  -2.108 -13.140  0.00  0.00     0.032 H 
ATOM     17  H   LIG d   1       3.669   0.008 -10.936  0.00  0.00     0.027 H 
ATOM     18  H   LIG d   1       3.262   0.264 -12.646  0.00  0.00     0.027 H 
ATOM     19  H   LIG d   1       1.230   0.037 -11.183  0.00  0.00     0.032 H 
ATOM     20  H   LIG d   1       1.313  -1.211 -12.451  0.00  0.00     0.032 H 
ATOM     21  H   LIG d   1       1.494  -1.483  -8.381  0.00  0.00     0.034 H 
ATOM     22  H   LIG d   1       2.442  -0.291  -9.274  0.00  0.00     0.034 H 
ATOM     23  H   LIG d   1       2.132  -3.284 -11.896  0.00  0.00     0.204 HD
ENDROOT
BRANCH   1  24
ATOM     24  N   LIG d   1       4.173  -1.183  -7.658  0.00  0.00    -0.307 N 
ATOM     25  C   LIG d   1       4.701  -1.739  -6.550  0.00  0.00     0.265 C 
ATOM     26  O   LIG d   1       4.662  -2.945  -6.398  0.00  0.00    -0.268 OA
ATOM     27  H   LIG d   1       4.204  -0.221  -7.781  0.00  0.00     0.149 HD
BRANCH  25  28
ATOM     28  C   LIG d   1       5.325  -0.885  -5.523  0.00  0.00     0.155 A 
ATOM     29  C   LIG d   1       4.684  -0.352  -4.313  0.00  0.00     0.032 A 
ATOM     30  C   LIG d   1       5.699   0.391  -3.679  0.00  0.00     0.069 A 
ATOM     31  C   LIG d   1       3.417  -0.431  -3.742  0.00  0.00    -0.050 A 
ATOM     32  N   LIG d   1       6.809   0.275  -4.475  0.00  0.00    -0.266 N 
ATOM     33  C   LIG d   1       5.418   1.040  -2.481  0.00  0.00    -0.036 A 
ATOM     34  N   LIG d   1       6.565  -0.446  -5.509  0.00  0.00    -0.166 NA
ATOM     35  C   LIG d   1       4.167   0.950  -1.937  0.00  0.00    -0.060 A 
ATOM     36  H   LIG d   1       6.186   1.613  -1.981  0.00  0.00     0.064 H 
ATOM     37  C   LIG d   1       3.168   0.217  -2.565  0.00  0.00    -0.061 A 
ATOM     38  H   LIG d   1       3.953   1.455  -1.007  0.00  0.00     0.062 H 
ATOM     39  H   LIG d   1       2.186   0.158  -2.118  0.00  0.00     0.062 H 
ATOM     40  H   LIG d   1       2.637  -1.000  -4.226  0.00  0.00     0.062 H 
BRANCH  32  41
ATOM     41  C   LIG d   1       8.103   0.897  -4.187  0.00  0.00     0.031 C 
ATOM     42  H   LIG d   1       8.805   0.135  -3.849  0.00  0.00     0.047 H 
ATOM     43  H   LIG d   1       8.487   1.370  -5.091  0.00  0.00     0.047 H 
ATOM     44  H   LIG d   1       7.979   1.649  -3.408  0.00  0.00     0.047 H 
ENDBRANCH  32  41
ENDBRANCH  25  28
ENDBRANCH   1  24
BRANCH  11  45
ATOM     45  C   LIG d   1       2.264  -4.281 -10.154  0.00  0.00    -0.043 C 
ATOM     46  H   LIG d   1       3.206  -4.815 -10.030  0.00  0.00     0.078 H 
ATOM     47  H   LIG d   1       1.874  -4.001  -9.176  0.00  0.00     0.078 H 
ATOM     48  H   LIG d   1       1.546  -4.925 -10.661  0.00  0.00     0.078 H 
ENDBRANCH  11  45
TORSDOF 4
ENDMDL
