MODEL 1
REMARK VINA RESULT:      -9.0      0.000      0.000
REMARK  3 active torsions:
REMARK  status: ('A' for Active; 'I' for Inactive)
REMARK       I    between atoms: N_15  and  C_17 
REMARK    1  A    between atoms: C_17  and  C_19 
REMARK    2  A    between atoms: C_19  and  O_20 
REMARK    3  A    between atoms: O_20  and  C_21 
ROOT
ATOM      1  C   LIG d   1       4.367  -1.141  -7.267  0.00  0.00    -0.055 C 
ATOM      2  C   LIG d   1       4.788  -1.885  -6.160  0.00  0.00    -0.042 C 
ATOM      3  C   LIG d   1       4.355  -1.569  -4.910  0.00  0.00     0.027 C 
ATOM      4  N   LIG d   1       3.468  -0.564  -4.726  0.00  0.00    -0.312 N 
ATOM      5  C   LIG d   1       3.123   0.233  -5.767  0.00  0.00     0.252 C 
ATOM      6  O   LIG d   1       2.443   1.227  -5.568  0.00  0.00    -0.268 OA
ATOM      7  C   LIG d   1       3.542  -0.072  -7.070  0.00  0.00     0.003 C 
ATOM      8  C   LIG d   1       2.794  -0.316  -3.451  0.00  0.00     0.031 C 
ATOM      9  C   LIG d   1       3.536  -0.930  -2.277  0.00  0.00    -0.006 C 
ATOM     10  H   LIG d   1       2.864  -0.939  -1.419  0.00  0.00     0.033 H 
ATOM     11  C   LIG d   1       3.915  -2.375  -2.599  0.00  0.00    -0.037 C 
ATOM     12  C   LIG d   1       4.917  -2.366  -3.756  0.00  0.00     0.016 C 
ATOM     13  H   LIG d   1       5.131  -3.386  -4.076  0.00  0.00     0.038 H 
ATOM     14  C   LIG d   1       6.198  -1.660  -3.281  0.00  0.00     0.023 C 
ATOM     15  N   LIG d   1       5.825  -0.293  -2.887  0.00  0.00    -0.298 N 
ATOM     16  C   LIG d   1       4.772  -0.125  -1.901  0.00  0.00     0.019 C 
ATOM     17  C   LIG d   1       6.446   0.774  -3.430  0.00  0.00     0.253 C 
ATOM     18  O   LIG d   1       6.127   1.895  -3.095  0.00  0.00    -0.272 OA
ATOM     19  H   LIG d   1       4.695  -1.404  -8.263  0.00  0.00     0.062 H 
ATOM     20  H   LIG d   1       5.461  -2.717  -6.298  0.00  0.00     0.064 H 
ATOM     21  H   LIG d   1       3.216   0.530  -7.905  0.00  0.00     0.067 H 
ATOM     22  H   LIG d   1       2.715   0.759  -3.296  0.00  0.00     0.050 H 
ATOM     23  H   LIG d   1       1.790  -0.739  -3.493  0.00  0.00     0.050 H 
ATOM     24  H   LIG d   1       4.369  -2.839  -1.724  0.00  0.00     0.028 H 
ATOM     25  H   LIG d   1       3.025  -2.933  -2.889  0.00  0.00     0.028 H 
ATOM     26  H   LIG d   1       6.618  -2.192  -2.426  0.00  0.00     0.047 H 
ATOM     27  H   LIG d   1       6.926  -1.628  -4.092  0.00  0.00     0.047 H 
ATOM     28  H   LIG d   1       4.514   0.933  -1.848  0.00  0.00     0.047 H 
ATOM     29  H   LIG d   1       5.135  -0.453  -0.927  0.00  0.00     0.047 H 
ENDROOT
BRANCH  17  30
ATOM     30  C   LIG d   1       7.534   0.573  -4.452  0.00  0.00     0.165 C 
ATOM     31  H   LIG d   1       7.667  -0.493  -4.637  0.00  0.00     0.080 H 
ATOM     32  H   LIG d   1       7.257   1.071  -5.381  0.00  0.00     0.080 H 
BRANCH  30  33
ATOM     33  O   LIG d   1       8.757   1.127  -3.961  0.00  0.00    -0.483 OA
BRANCH  33  34
ATOM     34  C   LIG d   1       9.095   2.366  -4.405  0.00  0.00     0.122 A 
ATOM     35  C   LIG d   1       9.371   3.371  -3.497  0.00  0.00    -0.005 A 
ATOM     36  C   LIG d   1       9.720   4.636  -3.962  0.00  0.00     0.068 A 
ATOM     37  H   LIG d   1       9.321   3.174  -2.435  0.00  0.00     0.066 H 
ATOM     38  C   LIG d   1       9.779   4.888  -5.350  0.00  0.00     0.078 A 
ATOM     39  C   LIG d   1      10.032   5.744  -3.052  0.00  0.00     0.262 A 
ATOM     40  C   LIG d   1       9.490   3.855  -6.247  0.00  0.00    -0.032 A 
ATOM     41  N   LIG d   1      10.114   6.128  -5.776  0.00  0.00    -0.234 NA
ATOM     42  C   LIG d   1       9.154   2.618  -5.774  0.00  0.00    -0.018 A 
ATOM     43  H   LIG d   1       9.533   4.035  -7.311  0.00  0.00     0.064 H 
ATOM     44  H   LIG d   1       8.934   1.824  -6.472  0.00  0.00     0.066 H 
ATOM     45  C   LIG d   1      10.385   7.103  -4.950  0.00  0.00     0.113 A 
ATOM     46  N   LIG d   1      10.357   6.944  -3.599  0.00  0.00    -0.296 N 
ATOM     47  C   LIG d   1      10.767   8.536  -5.284  0.00  0.00     0.007 C 
ATOM     48  C   LIG d   1      10.711   8.199  -2.913  0.00  0.00     0.028 C 
ATOM     49  C   LIG d   1      10.541   9.311  -3.968  0.00  0.00    -0.028 C 
ATOM     50  H   LIG d   1      10.039   8.371  -2.072  0.00  0.00     0.049 H 
ATOM     51  H   LIG d   1      11.744   8.161  -2.569  0.00  0.00     0.049 H 
ATOM     52  H   LIG d   1      11.293  10.089  -3.840  0.00  0.00     0.029 H 
ATOM     53  H   LIG d   1       9.537   9.732  -3.932  0.00  0.00     0.029 H 
ATOM     54  H   LIG d   1      11.813   8.591  -5.584  0.00  0.00     0.034 H 
ATOM     55  H   LIG d   1      10.123   8.928  -6.072  0.00  0.00     0.034 H 
ATOM     56  O   LIG d   1      10.001   5.593  -1.844  0.00  0.00    -0.267 OA
ENDBRANCH  33  34
ENDBRANCH  30  33
ENDBRANCH  17  30
TORSDOF 3
ENDMDL
MODEL 2
REMARK VINA RESULT:      -8.9      2.541      3.106
REMARK  3 active torsions:
REMARK  status: ('A' for Active; 'I' for Inactive)
REMARK       I    between atoms: N_15  and  C_17 
REMARK    1  A    between atoms: C_17  and  C_19 
REMARK    2  A    between atoms: C_19  and  O_20 
REMARK    3  A    between atoms: O_20  and  C_21 
ROOT
ATOM      1  C   LIG d   1       4.389  -1.791  -7.125  0.00  0.00    -0.055 C 
ATOM      2  C   LIG d   1       4.704  -2.337  -5.876  0.00  0.00    -0.042 C 
ATOM      3  C   LIG d   1       4.312  -1.715  -4.732  0.00  0.00     0.027 C 
ATOM      4  N   LIG d   1       3.566  -0.588  -4.785  0.00  0.00    -0.312 N 
ATOM      5  C   LIG d   1       3.335   0.014  -5.977  0.00  0.00     0.252 C 
ATOM      6  O   LIG d   1       2.793   1.107  -6.008  0.00  0.00    -0.268 OA
ATOM      7  C   LIG d   1       3.714  -0.606  -7.176  0.00  0.00     0.003 C 
ATOM      8  C   LIG d   1       2.928   0.005  -3.609  0.00  0.00     0.031 C 
ATOM      9  C   LIG d   1       3.577  -0.443  -2.312  0.00  0.00    -0.006 C 
ATOM     10  H   LIG d   1       2.907  -0.187  -1.491  0.00  0.00     0.033 H 
ATOM     11  C   LIG d   1       3.761  -1.960  -2.319  0.00  0.00    -0.037 C 
ATOM     12  C   LIG d   1       4.759  -2.322  -3.422  0.00  0.00     0.016 C 
ATOM     13  H   LIG d   1       4.836  -3.405  -3.518  0.00  0.00     0.038 H 
ATOM     14  C   LIG d   1       6.121  -1.706  -3.062  0.00  0.00     0.023 C 
ATOM     15  N   LIG d   1       5.933  -0.250  -2.969  0.00  0.00    -0.298 N 
ATOM     16  C   LIG d   1       4.909   0.255  -2.071  0.00  0.00     0.019 C 
ATOM     17  C   LIG d   1       6.692   0.592  -3.699  0.00  0.00     0.253 C 
ATOM     18  O   LIG d   1       6.525   1.790  -3.612  0.00  0.00    -0.272 OA
ATOM     19  H   LIG d   1       4.682  -2.295  -8.035  0.00  0.00     0.062 H 
ATOM     20  H   LIG d   1       5.260  -3.260  -5.820  0.00  0.00     0.064 H 
ATOM     21  H   LIG d   1       3.474  -0.153  -8.127  0.00  0.00     0.067 H 
ATOM     22  H   LIG d   1       2.993   1.090  -3.681  0.00  0.00     0.050 H 
ATOM     23  H   LIG d   1       1.876  -0.284  -3.595  0.00  0.00     0.050 H 
ATOM     24  H   LIG d   1       4.146  -2.288  -1.354  0.00  0.00     0.028 H 
ATOM     25  H   LIG d   1       2.805  -2.445  -2.516  0.00  0.00     0.028 H 
ATOM     26  H   LIG d   1       6.464  -2.098  -2.104  0.00  0.00     0.047 H 
ATOM     27  H   LIG d   1       6.849  -1.937  -3.840  0.00  0.00     0.047 H 
ATOM     28  H   LIG d   1       4.793   1.325  -2.245  0.00  0.00     0.047 H 
ATOM     29  H   LIG d   1       5.221   0.091  -1.039  0.00  0.00     0.047 H 
ENDROOT
BRANCH  17  30
ATOM     30  C   LIG d   1       7.748   0.043  -4.624  0.00  0.00     0.165 C 
ATOM     31  H   LIG d   1       8.602   0.719  -4.643  0.00  0.00     0.080 H 
ATOM     32  H   LIG d   1       8.068  -0.937  -4.270  0.00  0.00     0.080 H 
BRANCH  30  33
ATOM     33  O   LIG d   1       7.208  -0.080  -5.942  0.00  0.00    -0.483 OA
BRANCH  33  34
ATOM     34  C   LIG d   1       7.512   0.904  -6.828  0.00  0.00     0.122 A 
ATOM     35  C   LIG d   1       8.486   1.834  -6.515  0.00  0.00    -0.005 A 
ATOM     36  C   LIG d   1       8.794   2.837  -7.431  0.00  0.00     0.068 A 
ATOM     37  H   LIG d   1       9.007   1.780  -5.570  0.00  0.00     0.066 H 
ATOM     38  C   LIG d   1       8.105   2.905  -8.662  0.00  0.00     0.078 A 
ATOM     39  C   LIG d   1       9.821   3.851  -7.165  0.00  0.00     0.262 A 
ATOM     40  C   LIG d   1       7.122   1.955  -8.951  0.00  0.00    -0.032 A 
ATOM     41  N   LIG d   1       8.418   3.894  -9.532  0.00  0.00    -0.234 NA
ATOM     42  C   LIG d   1       6.836   0.974  -8.044  0.00  0.00    -0.018 A 
ATOM     43  H   LIG d   1       6.590   1.996  -9.890  0.00  0.00     0.064 H 
ATOM     44  H   LIG d   1       6.075   0.243  -8.274  0.00  0.00     0.066 H 
ATOM     45  C   LIG d   1       9.334   4.789  -9.276  0.00  0.00     0.113 A 
ATOM     46  N   LIG d   1      10.047   4.793  -8.116  0.00  0.00    -0.296 N 
ATOM     47  C   LIG d   1       9.782   5.950 -10.149  0.00  0.00     0.007 C 
ATOM     48  C   LIG d   1      11.014   5.903  -8.096  0.00  0.00     0.028 C 
ATOM     49  C   LIG d   1      10.540   6.887  -9.185  0.00  0.00    -0.028 C 
ATOM     50  H   LIG d   1      11.008   6.390  -7.120  0.00  0.00     0.049 H 
ATOM     51  H   LIG d   1      12.014   5.537  -8.328  0.00  0.00     0.049 H 
ATOM     52  H   LIG d   1      11.388   7.356  -9.683  0.00  0.00     0.029 H 
ATOM     53  H   LIG d   1       9.872   7.639  -8.766  0.00  0.00     0.029 H 
ATOM     54  H   LIG d   1      10.445   5.598 -10.939  0.00  0.00     0.034 H 
ATOM     55  H   LIG d   1       8.918   6.461 -10.576  0.00  0.00     0.034 H 
ATOM     56  O   LIG d   1      10.451   3.847  -6.123  0.00  0.00    -0.267 OA
ENDBRANCH  33  34
ENDBRANCH  30  33
ENDBRANCH  17  30
TORSDOF 3
ENDMDL
MODEL 3
REMARK VINA RESULT:      -8.7      1.666      2.713
REMARK  3 active torsions:
REMARK  status: ('A' for Active; 'I' for Inactive)
REMARK       I    between atoms: N_15  and  C_17 
REMARK    1  A    between atoms: C_17  and  C_19 
REMARK    2  A    between atoms: C_19  and  O_20 
REMARK    3  A    between atoms: O_20  and  C_21 
ROOT
ATOM      1  C   LIG d   1       4.566  -1.415  -7.204  0.00  0.00    -0.055 C 
ATOM      2  C   LIG d   1       4.917  -2.066  -6.017  0.00  0.00    -0.042 C 
ATOM      3  C   LIG d   1       4.433  -1.632  -4.822  0.00  0.00     0.027 C 
ATOM      4  N   LIG d   1       3.564  -0.597  -4.770  0.00  0.00    -0.312 N 
ATOM      5  C   LIG d   1       3.288   0.112  -5.891  0.00  0.00     0.252 C 
ATOM      6  O   LIG d   1       2.624   1.133  -5.814  0.00  0.00    -0.268 OA
ATOM      7  C   LIG d   1       3.760  -0.316  -7.141  0.00  0.00     0.003 C 
ATOM      8  C   LIG d   1       2.838  -0.224  -3.555  0.00  0.00     0.031 C 
ATOM      9  C   LIG d   1       3.509  -0.746  -2.297  0.00  0.00    -0.006 C 
ATOM     10  H   LIG d   1       2.797  -0.665  -1.475  0.00  0.00     0.033 H 
ATOM     11  C   LIG d   1       3.867  -2.221  -2.473  0.00  0.00    -0.037 C 
ATOM     12  C   LIG d   1       4.921  -2.336  -3.576  0.00  0.00     0.016 C 
ATOM     13  H   LIG d   1       5.125  -3.384  -3.794  0.00  0.00     0.038 H 
ATOM     14  C   LIG d   1       6.196  -1.617  -3.103  0.00  0.00     0.023 C 
ATOM     15  N   LIG d   1       5.839  -0.213  -2.849  0.00  0.00    -0.298 N 
ATOM     16  C   LIG d   1       4.746   0.064  -1.933  0.00  0.00     0.019 C 
ATOM     17  C   LIG d   1       6.510   0.789  -3.452  0.00  0.00     0.253 C 
ATOM     18  O   LIG d   1       6.204   1.942  -3.233  0.00  0.00    -0.272 OA
ATOM     19  H   LIG d   1       4.933  -1.772  -8.155  0.00  0.00     0.062 H 
ATOM     20  H   LIG d   1       5.574  -2.922  -6.049  0.00  0.00     0.064 H 
ATOM     21  H   LIG d   1       3.488   0.216  -8.040  0.00  0.00     0.067 H 
ATOM     22  H   LIG d   1       2.779   0.863  -3.499  0.00  0.00     0.050 H 
ATOM     23  H   LIG d   1       1.826  -0.628  -3.609  0.00  0.00     0.050 H 
ATOM     24  H   LIG d   1       4.268  -2.615  -1.539  0.00  0.00     0.028 H 
ATOM     25  H   LIG d   1       2.977  -2.784  -2.756  0.00  0.00     0.028 H 
ATOM     26  H   LIG d   1       6.562  -2.079  -2.186  0.00  0.00     0.047 H 
ATOM     27  H   LIG d   1       6.961  -1.671  -3.878  0.00  0.00     0.047 H 
ATOM     28  H   LIG d   1       4.511   1.127  -1.986  0.00  0.00     0.047 H 
ATOM     29  H   LIG d   1       5.054  -0.185  -0.918  0.00  0.00     0.047 H 
ENDROOT
BRANCH  17  30
ATOM     30  C   LIG d   1       7.640   0.476  -4.399  0.00  0.00     0.165 C 
ATOM     31  H   LIG d   1       7.804  -0.601  -4.426  0.00  0.00     0.080 H 
ATOM     32  H   LIG d   1       7.386   0.830  -5.398  0.00  0.00     0.080 H 
BRANCH  30  33
ATOM     33  O   LIG d   1       8.831   1.128  -3.951  0.00  0.00    -0.483 OA
BRANCH  33  34
ATOM     34  C   LIG d   1       9.109   2.343  -4.491  0.00  0.00     0.122 A 
ATOM     35  C   LIG d   1       9.117   2.500  -5.865  0.00  0.00    -0.005 A 
ATOM     36  C   LIG d   1       9.398   3.751  -6.408  0.00  0.00     0.068 A 
ATOM     37  H   LIG d   1       8.902   1.660  -6.510  0.00  0.00     0.066 H 
ATOM     38  C   LIG d   1       9.683   4.843  -5.559  0.00  0.00     0.078 A 
ATOM     39  C   LIG d   1       9.417   3.988  -7.856  0.00  0.00     0.262 A 
ATOM     40  C   LIG d   1       9.673   4.656  -4.174  0.00  0.00    -0.032 A 
ATOM     41  N   LIG d   1       9.961   6.047  -6.113  0.00  0.00    -0.234 NA
ATOM     42  C   LIG d   1       9.389   3.423  -3.657  0.00  0.00    -0.018 A 
ATOM     43  H   LIG d   1       9.888   5.483  -3.515  0.00  0.00     0.064 H 
ATOM     44  H   LIG d   1       9.382   3.286  -2.586  0.00  0.00     0.066 H 
ATOM     45  C   LIG d   1       9.975   6.237  -7.405  0.00  0.00     0.113 A 
ATOM     46  N   LIG d   1       9.707   5.241  -8.293  0.00  0.00    -0.296 N 
ATOM     47  C   LIG d   1      10.274   7.522  -8.161  0.00  0.00     0.007 C 
ATOM     48  C   LIG d   1       9.785   5.734  -9.679  0.00  0.00     0.028 C 
ATOM     49  C   LIG d   1      10.569   7.059  -9.604  0.00  0.00    -0.028 C 
ATOM     50  H   LIG d   1      10.316   5.016 -10.305  0.00  0.00     0.049 H 
ATOM     51  H   LIG d   1       8.784   5.910 -10.072  0.00  0.00     0.049 H 
ATOM     52  H   LIG d   1      10.190   7.779 -10.329  0.00  0.00     0.029 H 
ATOM     53  H   LIG d   1      11.636   6.889  -9.747  0.00  0.00     0.029 H 
ATOM     54  H   LIG d   1       9.408   8.184  -8.143  0.00  0.00     0.034 H 
ATOM     55  H   LIG d   1      11.144   8.021  -7.735  0.00  0.00     0.034 H 
ATOM     56  O   LIG d   1       9.179   3.089  -8.643  0.00  0.00    -0.267 OA
ENDBRANCH  33  34
ENDBRANCH  30  33
ENDBRANCH  17  30
TORSDOF 3
ENDMDL
MODEL 4
REMARK VINA RESULT:      -8.6      2.005      2.280
REMARK  3 active torsions:
REMARK  status: ('A' for Active; 'I' for Inactive)
REMARK       I    between atoms: N_15  and  C_17 
REMARK    1  A    between atoms: C_17  and  C_19 
REMARK    2  A    between atoms: C_19  and  O_20 
REMARK    3  A    between atoms: O_20  and  C_21 
ROOT
ATOM      1  C   LIG d   1       4.807  -1.381  -7.238  0.00  0.00    -0.055 C 
ATOM      2  C   LIG d   1       5.112  -2.039  -6.042  0.00  0.00    -0.042 C 
ATOM      3  C   LIG d   1       4.535  -1.650  -4.873  0.00  0.00     0.027 C 
ATOM      4  N   LIG d   1       3.619  -0.655  -4.859  0.00  0.00    -0.312 N 
ATOM      5  C   LIG d   1       3.382   0.062  -5.984  0.00  0.00     0.252 C 
ATOM      6  O   LIG d   1       2.670   1.051  -5.932  0.00  0.00    -0.268 OA
ATOM      7  C   LIG d   1       3.950  -0.321  -7.208  0.00  0.00     0.003 C 
ATOM      8  C   LIG d   1       2.803  -0.337  -3.687  0.00  0.00     0.031 C 
ATOM      9  C   LIG d   1       3.417  -0.853  -2.398  0.00  0.00    -0.006 C 
ATOM     10  H   LIG d   1       2.652  -0.820  -1.621  0.00  0.00     0.033 H 
ATOM     11  C   LIG d   1       3.851  -2.308  -2.575  0.00  0.00    -0.037 C 
ATOM     12  C   LIG d   1       4.976  -2.355  -3.611  0.00  0.00     0.016 C 
ATOM     13  H   LIG d   1       5.240  -3.389  -3.833  0.00  0.00     0.038 H 
ATOM     14  C   LIG d   1       6.185  -1.591  -3.046  0.00  0.00     0.023 C 
ATOM     15  N   LIG d   1       5.750  -0.209  -2.792  0.00  0.00    -0.298 N 
ATOM     16  C   LIG d   1       4.591   0.003  -1.943  0.00  0.00     0.019 C 
ATOM     17  C   LIG d   1       6.412   0.833  -3.335  0.00  0.00     0.253 C 
ATOM     18  O   LIG d   1       6.042   1.967  -3.117  0.00  0.00    -0.272 OA
ATOM     19  H   LIG d   1       5.248  -1.704  -8.170  0.00  0.00     0.062 H 
ATOM     20  H   LIG d   1       5.808  -2.864  -6.046  0.00  0.00     0.064 H 
ATOM     21  H   LIG d   1       3.711   0.216  -8.114  0.00  0.00     0.067 H 
ATOM     22  H   LIG d   1       2.691   0.745  -3.616  0.00  0.00     0.050 H 
ATOM     23  H   LIG d   1       1.816  -0.784  -3.811  0.00  0.00     0.050 H 
ATOM     24  H   LIG d   1       4.210  -2.702  -1.624  0.00  0.00     0.028 H 
ATOM     25  H   LIG d   1       3.007  -2.904  -2.922  0.00  0.00     0.028 H 
ATOM     26  H   LIG d   1       6.514  -2.054  -2.115  0.00  0.00     0.047 H 
ATOM     27  H   LIG d   1       6.999  -1.597  -3.772  0.00  0.00     0.047 H 
ATOM     28  H   LIG d   1       4.313   1.055  -1.993  0.00  0.00     0.047 H 
ATOM     29  H   LIG d   1       4.846  -0.252  -0.914  0.00  0.00     0.047 H 
ENDROOT
BRANCH  17  30
ATOM     30  C   LIG d   1       7.612   0.588  -4.214  0.00  0.00     0.165 C 
ATOM     31  H   LIG d   1       8.412   0.144  -3.621  0.00  0.00     0.080 H 
ATOM     32  H   LIG d   1       7.338  -0.092  -5.021  0.00  0.00     0.080 H 
BRANCH  30  33
ATOM     33  O   LIG d   1       8.059   1.828  -4.766  0.00  0.00    -0.483 OA
BRANCH  33  34
ATOM     34  C   LIG d   1       9.312   2.236  -4.433  0.00  0.00     0.122 A 
ATOM     35  C   LIG d   1       9.482   3.246  -3.505  0.00  0.00    -0.005 A 
ATOM     36  C   LIG d   1      10.771   3.654  -3.167  0.00  0.00     0.068 A 
ATOM     37  H   LIG d   1       8.624   3.713  -3.044  0.00  0.00     0.066 H 
ATOM     38  C   LIG d   1      11.888   3.045  -3.779  0.00  0.00     0.078 A 
ATOM     39  C   LIG d   1      11.022   4.716  -2.187  0.00  0.00     0.262 A 
ATOM     40  C   LIG d   1      11.687   2.028  -4.717  0.00  0.00    -0.032 A 
ATOM     41  N   LIG d   1      13.129   3.464  -3.438  0.00  0.00    -0.234 NA
ATOM     42  C   LIG d   1      10.417   1.636  -5.033  0.00  0.00    -0.018 A 
ATOM     43  H   LIG d   1      12.534   1.553  -5.189  0.00  0.00     0.064 H 
ATOM     44  H   LIG d   1      10.269   0.849  -5.758  0.00  0.00     0.066 H 
ATOM     45  C   LIG d   1      13.333   4.413  -2.564  0.00  0.00     0.113 A 
ATOM     46  N   LIG d   1      12.312   5.049  -1.926  0.00  0.00    -0.296 N 
ATOM     47  C   LIG d   1      14.660   4.986  -2.093  0.00  0.00     0.007 C 
ATOM     48  C   LIG d   1      12.827   6.065  -0.991  0.00  0.00     0.028 C 
ATOM     49  C   LIG d   1      14.284   6.324  -1.422  0.00  0.00    -0.028 C 
ATOM     50  H   LIG d   1      12.241   6.981  -1.072  0.00  0.00     0.049 H 
ATOM     51  H   LIG d   1      12.796   5.687   0.030  0.00  0.00     0.049 H 
ATOM     52  H   LIG d   1      14.918   6.518  -0.556  0.00  0.00     0.029 H 
ATOM     53  H   LIG d   1      14.340   7.147  -2.135  0.00  0.00     0.029 H 
ATOM     54  H   LIG d   1      15.128   4.316  -1.372  0.00  0.00     0.034 H 
ATOM     55  H   LIG d   1      15.323   5.158  -2.941  0.00  0.00     0.034 H 
ATOM     56  O   LIG d   1      10.102   5.281  -1.623  0.00  0.00    -0.267 OA
ENDBRANCH  33  34
ENDBRANCH  30  33
ENDBRANCH  17  30
TORSDOF 3
ENDMDL
MODEL 5
REMARK VINA RESULT:      -8.6      4.325      6.861
REMARK  3 active torsions:
REMARK  status: ('A' for Active; 'I' for Inactive)
REMARK       I    between atoms: N_15  and  C_17 
REMARK    1  A    between atoms: C_17  and  C_19 
REMARK    2  A    between atoms: C_19  and  O_20 
REMARK    3  A    between atoms: O_20  and  C_21 
ROOT
ATOM      1  C   LIG d   1       4.354  -2.134  -6.923  0.00  0.00    -0.055 C 
ATOM      2  C   LIG d   1       4.700  -2.471  -5.610  0.00  0.00    -0.042 C 
ATOM      3  C   LIG d   1       4.408  -1.629  -4.581  0.00  0.00     0.027 C 
ATOM      4  N   LIG d   1       3.732  -0.480  -4.807  0.00  0.00    -0.312 N 
ATOM      5  C   LIG d   1       3.476  -0.084  -6.078  0.00  0.00     0.252 C 
ATOM      6  O   LIG d   1       3.002   1.021  -6.284  0.00  0.00    -0.268 OA
ATOM      7  C   LIG d   1       3.752  -0.933  -7.159  0.00  0.00     0.003 C 
ATOM      8  C   LIG d   1       3.194   0.356  -3.733  0.00  0.00     0.031 C 
ATOM      9  C   LIG d   1       3.882   0.101  -2.403  0.00  0.00    -0.006 C 
ATOM     10  H   LIG d   1       3.273   0.546  -1.616  0.00  0.00     0.033 H 
ATOM     11  C   LIG d   1       3.971  -1.403  -2.144  0.00  0.00    -0.037 C 
ATOM     12  C   LIG d   1       4.885  -2.024  -3.202  0.00  0.00     0.016 C 
ATOM     13  H   LIG d   1       4.890  -3.109  -3.105  0.00  0.00     0.038 H 
ATOM     14  C   LIG d   1       6.300  -1.451  -3.016  0.00  0.00     0.023 C 
ATOM     15  N   LIG d   1       6.207   0.008  -3.180  0.00  0.00    -0.298 N 
ATOM     16  C   LIG d   1       5.265   0.735  -2.347  0.00  0.00     0.019 C 
ATOM     17  C   LIG d   1       6.978   0.651  -4.080  0.00  0.00     0.253 C 
ATOM     18  O   LIG d   1       6.890   1.854  -4.204  0.00  0.00    -0.272 OA
ATOM     19  H   LIG d   1       4.567  -2.811  -7.737  0.00  0.00     0.062 H 
ATOM     20  H   LIG d   1       5.200  -3.406  -5.410  0.00  0.00     0.064 H 
ATOM     21  H   LIG d   1       3.491  -0.640  -8.166  0.00  0.00     0.067 H 
ATOM     22  H   LIG d   1       3.323   1.404  -4.002  0.00  0.00     0.050 H 
ATOM     23  H   LIG d   1       2.129   0.149  -3.623  0.00  0.00     0.050 H 
ATOM     24  H   LIG d   1       4.386  -1.580  -1.151  0.00  0.00     0.028 H 
ATOM     25  H   LIG d   1       2.978  -1.846  -2.210  0.00  0.00     0.028 H 
ATOM     26  H   LIG d   1       6.667  -1.690  -2.017  0.00  0.00     0.047 H 
ATOM     27  H   LIG d   1       6.970  -1.867  -3.768  0.00  0.00     0.047 H 
ATOM     28  H   LIG d   1       5.207   1.762  -2.706  0.00  0.00     0.047 H 
ATOM     29  H   LIG d   1       5.621   0.736  -1.316  0.00  0.00     0.047 H 
ENDROOT
BRANCH  17  30
ATOM     30  C   LIG d   1       7.947  -0.127  -4.934  0.00  0.00     0.165 C 
ATOM     31  H   LIG d   1       8.906  -0.196  -4.422  0.00  0.00     0.080 H 
ATOM     32  H   LIG d   1       7.555  -1.129  -5.108  0.00  0.00     0.080 H 
BRANCH  30  33
ATOM     33  O   LIG d   1       8.121   0.542  -6.185  0.00  0.00    -0.483 OA
BRANCH  33  34
ATOM     34  C   LIG d   1       7.690  -0.109  -7.297  0.00  0.00     0.122 A 
ATOM     35  C   LIG d   1       6.811   0.515  -8.162  0.00  0.00    -0.005 A 
ATOM     36  C   LIG d   1       6.377  -0.159  -9.301  0.00  0.00     0.068 A 
ATOM     37  H   LIG d   1       6.466   1.519  -7.958  0.00  0.00     0.066 H 
ATOM     38  C   LIG d   1       6.827  -1.473  -9.559  0.00  0.00     0.078 A 
ATOM     39  C   LIG d   1       5.450   0.448 -10.263  0.00  0.00     0.262 A 
ATOM     40  C   LIG d   1       7.712  -2.082  -8.666  0.00  0.00    -0.032 A 
ATOM     41  N   LIG d   1       6.385  -2.108 -10.670  0.00  0.00    -0.234 NA
ATOM     42  C   LIG d   1       8.132  -1.405  -7.556  0.00  0.00    -0.018 A 
ATOM     43  H   LIG d   1       8.064  -3.086  -8.853  0.00  0.00     0.064 H 
ATOM     44  H   LIG d   1       8.817  -1.882  -6.870  0.00  0.00     0.066 H 
ATOM     45  C   LIG d   1       5.558  -1.552 -11.513  0.00  0.00     0.113 A 
ATOM     46  N   LIG d   1       5.080  -0.289 -11.342  0.00  0.00    -0.296 N 
ATOM     47  C   LIG d   1       4.978  -2.144 -12.787  0.00  0.00     0.007 C 
ATOM     48  C   LIG d   1       4.176   0.086 -12.443  0.00  0.00     0.028 C 
ATOM     49  C   LIG d   1       3.771  -1.239 -13.118  0.00  0.00    -0.028 C 
ATOM     50  H   LIG d   1       3.294   0.593 -12.049  0.00  0.00     0.049 H 
ATOM     51  H   LIG d   1       4.695   0.729 -13.154  0.00  0.00     0.049 H 
ATOM     52  H   LIG d   1       3.663  -1.112 -14.195  0.00  0.00     0.029 H 
ATOM     53  H   LIG d   1       2.856  -1.636 -12.680  0.00  0.00     0.029 H 
ATOM     54  H   LIG d   1       5.712  -2.109 -13.592  0.00  0.00     0.034 H 
ATOM     55  H   LIG d   1       4.649  -3.170 -12.616  0.00  0.00     0.034 H 
ATOM     56  O   LIG d   1       5.027   1.578 -10.099  0.00  0.00    -0.267 OA
ENDBRANCH  33  34
ENDBRANCH  30  33
ENDBRANCH  17  30
TORSDOF 3
ENDMDL
MODEL 6
REMARK VINA RESULT:      -8.4      2.577      3.242
REMARK  3 active torsions:
REMARK  status: ('A' for Active; 'I' for Inactive)
REMARK       I    between atoms: N_15  and  C_17 
REMARK    1  A    between atoms: C_17  and  C_19 
REMARK    2  A    between atoms: C_19  and  O_20 
REMARK    3  A    between atoms: O_20  and  C_21 
ROOT
ATOM      1  C   LIG d   1       4.828  -1.290  -7.247  0.00  0.00    -0.055 C 
ATOM      2  C   LIG d   1       5.143  -1.962  -6.062  0.00  0.00    -0.042 C 
ATOM      3  C   LIG d   1       4.539  -1.621  -4.892  0.00  0.00     0.027 C 
ATOM      4  N   LIG d   1       3.585  -0.662  -4.868  0.00  0.00    -0.312 N 
ATOM      5  C   LIG d   1       3.334   0.070  -5.980  0.00  0.00     0.252 C 
ATOM      6  O   LIG d   1       2.583   1.030  -5.916  0.00  0.00    -0.268 OA
ATOM      7  C   LIG d   1       3.930  -0.263  -7.205  0.00  0.00     0.003 C 
ATOM      8  C   LIG d   1       2.743  -0.402  -3.700  0.00  0.00     0.031 C 
ATOM      9  C   LIG d   1       3.361  -0.923  -2.414  0.00  0.00    -0.006 C 
ATOM     10  H   LIG d   1       2.587  -0.936  -1.647  0.00  0.00     0.033 H 
ATOM     11  C   LIG d   1       3.853  -2.355  -2.617  0.00  0.00    -0.037 C 
ATOM     12  C   LIG d   1       4.991  -2.337  -3.640  0.00  0.00     0.016 C 
ATOM     13  H   LIG d   1       5.297  -3.355  -3.881  0.00  0.00     0.038 H 
ATOM     14  C   LIG d   1       6.163  -1.539  -3.044  0.00  0.00     0.023 C 
ATOM     15  N   LIG d   1       5.673  -0.181  -2.765  0.00  0.00    -0.298 N 
ATOM     16  C   LIG d   1       4.496  -0.033  -1.926  0.00  0.00     0.019 C 
ATOM     17  C   LIG d   1       6.301   0.897  -3.277  0.00  0.00     0.253 C 
ATOM     18  O   LIG d   1       5.884   2.011  -3.039  0.00  0.00    -0.272 OA
ATOM     19  H   LIG d   1       5.292  -1.574  -8.180  0.00  0.00     0.062 H 
ATOM     20  H   LIG d   1       5.871  -2.759  -6.075  0.00  0.00     0.064 H 
ATOM     21  H   LIG d   1       3.682   0.284  -8.102  0.00  0.00     0.067 H 
ATOM     22  H   LIG d   1       2.589   0.673  -3.607  0.00  0.00     0.050 H 
ATOM     23  H   LIG d   1       1.775  -0.883  -3.846  0.00  0.00     0.050 H 
ATOM     24  H   LIG d   1       4.216  -2.756  -1.671  0.00  0.00     0.028 H 
ATOM     25  H   LIG d   1       3.036  -2.975  -2.989  0.00  0.00     0.028 H 
ATOM     26  H   LIG d   1       6.499  -2.010  -2.119  0.00  0.00     0.047 H 
ATOM     27  H   LIG d   1       6.985  -1.498  -3.759  0.00  0.00     0.047 H 
ATOM     28  H   LIG d   1       4.178   1.009  -1.958  0.00  0.00     0.047 H 
ATOM     29  H   LIG d   1       4.749  -0.300  -0.900  0.00  0.00     0.047 H 
ENDROOT
BRANCH  17  30
ATOM     30  C   LIG d   1       7.519   0.717  -4.145  0.00  0.00     0.165 C 
ATOM     31  H   LIG d   1       8.375   0.460  -3.522  0.00  0.00     0.080 H 
ATOM     32  H   LIG d   1       7.339  -0.083  -4.863  0.00  0.00     0.080 H 
BRANCH  30  33
ATOM     33  O   LIG d   1       7.788   1.934  -4.846  0.00  0.00    -0.483 OA
BRANCH  33  34
ATOM     34  C   LIG d   1       8.998   2.514  -4.632  0.00  0.00     0.122 A 
ATOM     35  C   LIG d   1      10.096   1.727  -4.340  0.00  0.00    -0.005 A 
ATOM     36  C   LIG d   1      11.334   2.330  -4.127  0.00  0.00     0.068 A 
ATOM     37  H   LIG d   1       9.996   0.652  -4.281  0.00  0.00     0.066 H 
ATOM     38  C   LIG d   1      11.456   3.735  -4.199  0.00  0.00     0.078 A 
ATOM     39  C   LIG d   1      12.539   1.553  -3.819  0.00  0.00     0.262 A 
ATOM     40  C   LIG d   1      10.329   4.508  -4.492  0.00  0.00    -0.032 A 
ATOM     41  N   LIG d   1      12.668   4.298  -3.981  0.00  0.00    -0.234 NA
ATOM     42  C   LIG d   1       9.124   3.900  -4.704  0.00  0.00    -0.018 A 
ATOM     43  H   LIG d   1      10.411   5.583  -4.552  0.00  0.00     0.064 H 
ATOM     44  H   LIG d   1       8.257   4.503  -4.931  0.00  0.00     0.066 H 
ATOM     45  C   LIG d   1      13.730   3.589  -3.706  0.00  0.00     0.113 A 
ATOM     46  N   LIG d   1      13.700   2.231  -3.622  0.00  0.00    -0.296 N 
ATOM     47  C   LIG d   1      15.142   4.082  -3.434  0.00  0.00     0.007 C 
ATOM     48  C   LIG d   1      15.034   1.692  -3.308  0.00  0.00     0.028 C 
ATOM     49  C   LIG d   1      15.844   2.884  -2.760  0.00  0.00    -0.028 C 
ATOM     50  H   LIG d   1      14.957   0.910  -2.553  0.00  0.00     0.049 H 
ATOM     51  H   LIG d   1      15.504   1.300  -4.210  0.00  0.00     0.049 H 
ATOM     52  H   LIG d   1      16.888   2.821  -3.066  0.00  0.00     0.029 H 
ATOM     53  H   LIG d   1      15.762   2.944  -1.675  0.00  0.00     0.029 H 
ATOM     54  H   LIG d   1      15.641   4.340  -4.368  0.00  0.00     0.034 H 
ATOM     55  H   LIG d   1      15.123   4.940  -2.762  0.00  0.00     0.034 H 
ATOM     56  O   LIG d   1      12.501   0.338  -3.744  0.00  0.00    -0.267 OA
ENDBRANCH  33  34
ENDBRANCH  30  33
ENDBRANCH  17  30
TORSDOF 3
ENDMDL
MODEL 7
REMARK VINA RESULT:      -8.2      3.707      4.361
REMARK  3 active torsions:
REMARK  status: ('A' for Active; 'I' for Inactive)
REMARK       I    between atoms: N_15  and  C_17 
REMARK    1  A    between atoms: C_17  and  C_19 
REMARK    2  A    between atoms: C_19  and  O_20 
REMARK    3  A    between atoms: O_20  and  C_21 
ROOT
ATOM      1  C   LIG d   1       4.566  -1.367  -7.208  0.00  0.00    -0.055 C 
ATOM      2  C   LIG d   1       4.902  -2.023  -6.019  0.00  0.00    -0.042 C 
ATOM      3  C   LIG d   1       4.405  -1.593  -4.828  0.00  0.00     0.027 C 
ATOM      4  N   LIG d   1       3.536  -0.557  -4.783  0.00  0.00    -0.312 N 
ATOM      5  C   LIG d   1       3.274   0.156  -5.905  0.00  0.00     0.252 C 
ATOM      6  O   LIG d   1       2.610   1.177  -5.832  0.00  0.00    -0.268 OA
ATOM      7  C   LIG d   1       3.760  -0.268  -7.151  0.00  0.00     0.003 C 
ATOM      8  C   LIG d   1       2.795  -0.188  -3.576  0.00  0.00     0.031 C 
ATOM      9  C   LIG d   1       3.451  -0.715  -2.312  0.00  0.00    -0.006 C 
ATOM     10  H   LIG d   1       2.730  -0.637  -1.498  0.00  0.00     0.033 H 
ATOM     11  C   LIG d   1       3.810  -2.190  -2.489  0.00  0.00    -0.037 C 
ATOM     12  C   LIG d   1       4.877  -2.301  -3.580  0.00  0.00     0.016 C 
ATOM     13  H   LIG d   1       5.083  -3.349  -3.799  0.00  0.00     0.038 H 
ATOM     14  C   LIG d   1       6.147  -1.585  -3.089  0.00  0.00     0.023 C 
ATOM     15  N   LIG d   1       5.788  -0.182  -2.834  0.00  0.00    -0.298 N 
ATOM     16  C   LIG d   1       4.684   0.092  -1.930  0.00  0.00     0.019 C 
ATOM     17  C   LIG d   1       6.467   0.822  -3.425  0.00  0.00     0.253 C 
ATOM     18  O   LIG d   1       6.159   1.974  -3.205  0.00  0.00    -0.272 OA
ATOM     19  H   LIG d   1       4.944  -1.721  -8.156  0.00  0.00     0.062 H 
ATOM     20  H   LIG d   1       5.560  -2.878  -6.046  0.00  0.00     0.064 H 
ATOM     21  H   LIG d   1       3.500   0.268  -8.051  0.00  0.00     0.067 H 
ATOM     22  H   LIG d   1       2.736   0.899  -3.516  0.00  0.00     0.050 H 
ATOM     23  H   LIG d   1       1.784  -0.591  -3.643  0.00  0.00     0.050 H 
ATOM     24  H   LIG d   1       4.200  -2.588  -1.552  0.00  0.00     0.028 H 
ATOM     25  H   LIG d   1       2.923  -2.751  -2.785  0.00  0.00     0.028 H 
ATOM     26  H   LIG d   1       6.502  -2.051  -2.169  0.00  0.00     0.047 H 
ATOM     27  H   LIG d   1       6.922  -1.637  -3.855  0.00  0.00     0.047 H 
ATOM     28  H   LIG d   1       4.451   1.156  -1.982  0.00  0.00     0.047 H 
ATOM     29  H   LIG d   1       4.980  -0.160  -0.912  0.00  0.00     0.047 H 
ENDROOT
BRANCH  17  30
ATOM     30  C   LIG d   1       7.608   0.511  -4.359  0.00  0.00     0.165 C 
ATOM     31  H   LIG d   1       8.454   1.157  -4.127  0.00  0.00     0.080 H 
ATOM     32  H   LIG d   1       7.903  -0.532  -4.239  0.00  0.00     0.080 H 
BRANCH  30  33
ATOM     33  O   LIG d   1       7.193   0.736  -5.709  0.00  0.00    -0.483 OA
BRANCH  33  34
ATOM     34  C   LIG d   1       8.170   0.963  -6.625  0.00  0.00     0.122 A 
ATOM     35  C   LIG d   1       8.047   2.013  -7.516  0.00  0.00    -0.005 A 
ATOM     36  C   LIG d   1       9.056   2.241  -8.448  0.00  0.00     0.068 A 
ATOM     37  H   LIG d   1       7.177   2.654  -7.486  0.00  0.00     0.066 H 
ATOM     38  C   LIG d   1      10.188   1.397  -8.486  0.00  0.00     0.078 A 
ATOM     39  C   LIG d   1       8.991   3.340  -9.417  0.00  0.00     0.262 A 
ATOM     40  C   LIG d   1      10.285   0.340  -7.576  0.00  0.00    -0.032 A 
ATOM     41  N   LIG d   1      11.151   1.635  -9.406  0.00  0.00    -0.234 NA
ATOM     42  C   LIG d   1       9.289   0.133  -6.664  0.00  0.00    -0.018 A 
ATOM     43  H   LIG d   1      11.146  -0.311  -7.594  0.00  0.00     0.064 H 
ATOM     44  H   LIG d   1       9.371  -0.684  -5.964  0.00  0.00     0.066 H 
ATOM     45  C   LIG d   1      11.074   2.618 -10.263  0.00  0.00     0.113 A 
ATOM     46  N   LIG d   1      10.021   3.480 -10.292  0.00  0.00    -0.296 N 
ATOM     47  C   LIG d   1      12.069   2.998 -11.347  0.00  0.00     0.007 C 
ATOM     48  C   LIG d   1      10.197   4.492 -11.347  0.00  0.00     0.028 C 
ATOM     49  C   LIG d   1      11.273   3.922 -12.293  0.00  0.00    -0.028 C 
ATOM     50  H   LIG d   1       9.261   4.640 -11.887  0.00  0.00     0.049 H 
ATOM     51  H   LIG d   1      10.535   5.433 -10.915  0.00  0.00     0.049 H 
ATOM     52  H   LIG d   1      11.907   4.716 -12.687  0.00  0.00     0.029 H 
ATOM     53  H   LIG d   1      10.817   3.352 -13.103  0.00  0.00     0.029 H 
ATOM     54  H   LIG d   1      12.916   3.532 -10.916  0.00  0.00     0.034 H 
ATOM     55  H   LIG d   1      12.409   2.110 -11.880  0.00  0.00     0.034 H 
ATOM     56  O   LIG d   1       8.043   4.105  -9.437  0.00  0.00    -0.267 OA
ENDBRANCH  33  34
ENDBRANCH  30  33
ENDBRANCH  17  30
TORSDOF 3
ENDMDL
MODEL 8
REMARK VINA RESULT:      -7.9      1.936      9.270
REMARK  3 active torsions:
REMARK  status: ('A' for Active; 'I' for Inactive)
REMARK       I    between atoms: N_15  and  C_17 
REMARK    1  A    between atoms: C_17  and  C_19 
REMARK    2  A    between atoms: C_19  and  O_20 
REMARK    3  A    between atoms: O_20  and  C_21 
ROOT
ATOM      1  C   LIG d   1      11.815   5.487  -0.000  0.00  0.00    -0.055 C 
ATOM      2  C   LIG d   1      12.562   5.603  -1.177  0.00  0.00    -0.042 C 
ATOM      3  C   LIG d   1      12.168   6.453  -2.164  0.00  0.00     0.027 C 
ATOM      4  N   LIG d   1      11.079   7.238  -1.998  0.00  0.00    -0.312 N 
ATOM      5  C   LIG d   1      10.284   7.071  -0.913  0.00  0.00     0.252 C 
ATOM      6  O   LIG d   1       9.225   7.673  -0.841  0.00  0.00    -0.268 OA
ATOM      7  C   LIG d   1      10.667   6.213   0.128  0.00  0.00     0.003 C 
ATOM      8  C   LIG d   1      10.729   8.324  -2.914  0.00  0.00     0.031 C 
ATOM      9  C   LIG d   1      11.375   8.160  -4.279  0.00  0.00    -0.006 C 
ATOM     10  H   LIG d   1      11.294   9.109  -4.808  0.00  0.00     0.033 H 
ATOM     11  C   LIG d   1      12.859   7.831  -4.116  0.00  0.00    -0.037 C 
ATOM     12  C   LIG d   1      12.981   6.464  -3.438  0.00  0.00     0.016 C 
ATOM     13  H   LIG d   1      14.025   6.246  -3.218  0.00  0.00     0.038 H 
ATOM     14  C   LIG d   1      12.386   5.403  -4.380  0.00  0.00     0.023 C 
ATOM     15  N   LIG d   1      10.978   5.762  -4.611  0.00  0.00    -0.298 N 
ATOM     16  C   LIG d   1      10.680   7.092  -5.113  0.00  0.00     0.019 C 
ATOM     17  C   LIG d   1       9.992   4.877  -4.361  0.00  0.00     0.253 C 
ATOM     18  O   LIG d   1       8.835   5.187  -4.556  0.00  0.00    -0.272 OA
ATOM     19  H   LIG d   1      12.138   4.828   0.792  0.00  0.00     0.062 H 
ATOM     20  H   LIG d   1      13.458   5.016  -1.304  0.00  0.00     0.064 H 
ATOM     21  H   LIG d   1      10.062   6.129   1.018  0.00  0.00     0.067 H 
ATOM     22  H   LIG d   1       9.647   8.349  -3.036  0.00  0.00     0.050 H 
ATOM     23  H   LIG d   1      11.056   9.271  -2.482  0.00  0.00     0.050 H 
ATOM     24  H   LIG d   1      13.337   7.800  -5.094  0.00  0.00     0.028 H 
ATOM     25  H   LIG d   1      13.337   8.591  -3.498  0.00  0.00     0.028 H 
ATOM     26  H   LIG d   1      12.928   5.402  -5.326  0.00  0.00     0.047 H 
ATOM     27  H   LIG d   1      12.447   4.419  -3.915  0.00  0.00     0.047 H 
ATOM     28  H   LIG d   1       9.602   7.244  -5.070  0.00  0.00     0.047 H 
ATOM     29  H   LIG d   1      11.012   7.170  -6.148  0.00  0.00     0.047 H 
ENDROOT
BRANCH  17  30
ATOM     30  C   LIG d   1      10.327   3.503  -3.840  0.00  0.00     0.165 C 
ATOM     31  H   LIG d   1      11.327   3.512  -3.409  0.00  0.00     0.080 H 
ATOM     32  H   LIG d   1       9.604   3.218  -3.075  0.00  0.00     0.080 H 
BRANCH  30  33
ATOM     33  O   LIG d   1      10.278   2.561  -4.914  0.00  0.00    -0.483 OA
BRANCH  33  34
ATOM     34  C   LIG d   1       9.420   1.516  -4.780  0.00  0.00     0.122 A 
ATOM     35  C   LIG d   1       8.246   1.677  -4.068  0.00  0.00    -0.005 A 
ATOM     36  C   LIG d   1       7.371   0.601  -3.940  0.00  0.00     0.068 A 
ATOM     37  H   LIG d   1       8.007   2.631  -3.619  0.00  0.00     0.066 H 
ATOM     38  C   LIG d   1       7.692  -0.644  -4.524  0.00  0.00     0.078 A 
ATOM     39  C   LIG d   1       6.106   0.706  -3.204  0.00  0.00     0.262 A 
ATOM     40  C   LIG d   1       8.888  -0.781  -5.234  0.00  0.00    -0.032 A 
ATOM     41  N   LIG d   1       6.828  -1.676  -4.378  0.00  0.00    -0.234 NA
ATOM     42  C   LIG d   1       9.732   0.286  -5.355  0.00  0.00    -0.018 A 
ATOM     43  H   LIG d   1       9.143  -1.728  -5.686  0.00  0.00     0.064 H 
ATOM     44  H   LIG d   1      10.654   0.174  -5.907  0.00  0.00     0.066 H 
ATOM     45  C   LIG d   1       5.707  -1.564  -3.717  0.00  0.00     0.113 A 
ATOM     46  N   LIG d   1       5.321  -0.400  -3.128  0.00  0.00    -0.296 N 
ATOM     47  C   LIG d   1       4.653  -2.631  -3.469  0.00  0.00     0.007 C 
ATOM     48  C   LIG d   1       4.017  -0.554  -2.460  0.00  0.00     0.028 C 
ATOM     49  C   LIG d   1       3.808  -2.074  -2.304  0.00  0.00    -0.028 C 
ATOM     50  H   LIG d   1       4.036  -0.074  -1.482  0.00  0.00     0.049 H 
ATOM     51  H   LIG d   1       3.226  -0.126  -3.075  0.00  0.00     0.049 H 
ATOM     52  H   LIG d   1       2.757  -2.338  -2.423  0.00  0.00     0.029 H 
ATOM     53  H   LIG d   1       4.189  -2.423  -1.345  0.00  0.00     0.029 H 
ATOM     54  H   LIG d   1       4.035  -2.768  -4.357  0.00  0.00     0.034 H 
ATOM     55  H   LIG d   1       5.124  -3.572  -3.183  0.00  0.00     0.034 H 
ATOM     56  O   LIG d   1       5.771   1.752  -2.678  0.00  0.00    -0.267 OA
ENDBRANCH  33  34
ENDBRANCH  30  33
ENDBRANCH  17  30
TORSDOF 3
ENDMDL
MODEL 9
REMARK VINA RESULT:      -7.9      4.786     10.815
REMARK  3 active torsions:
REMARK  status: ('A' for Active; 'I' for Inactive)
REMARK       I    between atoms: N_15  and  C_17 
REMARK    1  A    between atoms: C_17  and  C_19 
REMARK    2  A    between atoms: C_19  and  O_20 
REMARK    3  A    between atoms: O_20  and  C_21 
ROOT
ATOM      1  C   LIG d   1       2.855  -1.062  -2.789  0.00  0.00    -0.055 C 
ATOM      2  C   LIG d   1       3.828  -1.953  -3.253  0.00  0.00    -0.042 C 
ATOM      3  C   LIG d   1       5.077  -1.513  -3.565  0.00  0.00     0.027 C 
ATOM      4  N   LIG d   1       5.411  -0.216  -3.380  0.00  0.00    -0.312 N 
ATOM      5  C   LIG d   1       4.461   0.685  -3.029  0.00  0.00     0.252 C 
ATOM      6  O   LIG d   1       4.733   1.874  -3.009  0.00  0.00    -0.268 OA
ATOM      7  C   LIG d   1       3.168   0.262  -2.688  0.00  0.00     0.003 C 
ATOM      8  C   LIG d   1       6.786   0.278  -3.481  0.00  0.00     0.031 C 
ATOM      9  C   LIG d   1       7.676  -0.653  -4.285  0.00  0.00    -0.006 C 
ATOM     10  H   LIG d   1       8.713  -0.373  -4.101  0.00  0.00     0.033 H 
ATOM     11  C   LIG d   1       7.482  -2.094  -3.814  0.00  0.00    -0.037 C 
ATOM     12  C   LIG d   1       6.047  -2.520  -4.136  0.00  0.00     0.016 C 
ATOM     13  H   LIG d   1       5.847  -3.509  -3.723  0.00  0.00     0.038 H 
ATOM     14  C   LIG d   1       5.875  -2.520  -5.664  0.00  0.00     0.023 C 
ATOM     15  N   LIG d   1       6.145  -1.153  -6.136  0.00  0.00    -0.298 N 
ATOM     16  C   LIG d   1       7.414  -0.541  -5.781  0.00  0.00     0.019 C 
ATOM     17  C   LIG d   1       5.237  -0.488  -6.878  0.00  0.00     0.253 C 
ATOM     18  O   LIG d   1       5.473   0.639  -7.259  0.00  0.00    -0.272 OA
ATOM     19  H   LIG d   1       1.870  -1.414  -2.522  0.00  0.00     0.062 H 
ATOM     20  H   LIG d   1       3.587  -3.000  -3.362  0.00  0.00     0.064 H 
ATOM     21  H   LIG d   1       2.431   0.975  -2.350  0.00  0.00     0.067 H 
ATOM     22  H   LIG d   1       6.775   1.257  -3.959  0.00  0.00     0.050 H 
ATOM     23  H   LIG d   1       7.199   0.381  -2.477  0.00  0.00     0.050 H 
ATOM     24  H   LIG d   1       8.184  -2.748  -4.331  0.00  0.00     0.028 H 
ATOM     25  H   LIG d   1       7.649  -2.155  -2.738  0.00  0.00     0.028 H 
ATOM     26  H   LIG d   1       6.583  -3.216  -6.117  0.00  0.00     0.047 H 
ATOM     27  H   LIG d   1       4.856  -2.808  -5.922  0.00  0.00     0.047 H 
ATOM     28  H   LIG d   1       7.381   0.511  -6.065  0.00  0.00     0.047 H 
ATOM     29  H   LIG d   1       8.218  -1.035  -6.326  0.00  0.00     0.047 H 
ENDROOT
BRANCH  17  30
ATOM     30  C   LIG d   1       3.927  -1.145  -7.232  0.00  0.00     0.165 C 
ATOM     31  H   LIG d   1       3.779  -2.022  -6.603  0.00  0.00     0.080 H 
ATOM     32  H   LIG d   1       3.112  -0.440  -7.071  0.00  0.00     0.080 H 
BRANCH  30  33
ATOM     33  O   LIG d   1       3.950  -1.541  -8.605  0.00  0.00    -0.483 OA
BRANCH  33  34
ATOM     34  C   LIG d   1       3.449  -2.769  -8.901  0.00  0.00     0.122 A 
ATOM     35  C   LIG d   1       2.416  -2.890  -9.811  0.00  0.00    -0.005 A 
ATOM     36  C   LIG d   1       1.913  -4.154 -10.111  0.00  0.00     0.068 A 
ATOM     37  H   LIG d   1       2.006  -2.012 -10.290  0.00  0.00     0.066 H 
ATOM     38  C   LIG d   1       2.449  -5.297  -9.478  0.00  0.00     0.078 A 
ATOM     39  C   LIG d   1       0.822  -4.353 -11.072  0.00  0.00     0.262 A 
ATOM     40  C   LIG d   1       3.490  -5.146  -8.558  0.00  0.00    -0.032 A 
ATOM     41  N   LIG d   1       1.938  -6.513  -9.782  0.00  0.00    -0.234 NA
ATOM     42  C   LIG d   1       3.977  -3.899  -8.280  0.00  0.00    -0.018 A 
ATOM     43  H   LIG d   1       3.910  -6.012  -8.069  0.00  0.00     0.064 H 
ATOM     44  H   LIG d   1       4.782  -3.790  -7.568  0.00  0.00     0.066 H 
ATOM     45  C   LIG d   1       0.964  -6.669 -10.639  0.00  0.00     0.113 A 
ATOM     46  N   LIG d   1       0.394  -5.622 -11.295  0.00  0.00    -0.296 N 
ATOM     47  C   LIG d   1       0.292  -7.963 -11.068  0.00  0.00     0.007 C 
ATOM     48  C   LIG d   1      -0.669  -6.086 -12.204  0.00  0.00     0.028 C 
ATOM     49  C   LIG d   1      -1.026  -7.510 -11.733  0.00  0.00    -0.028 C 
ATOM     50  H   LIG d   1      -1.540  -5.434 -12.127  0.00  0.00     0.049 H 
ATOM     51  H   LIG d   1      -0.304  -6.108 -13.230  0.00  0.00     0.049 H 
ATOM     52  H   LIG d   1      -1.276  -8.149 -12.579  0.00  0.00     0.029 H 
ATOM     53  H   LIG d   1      -1.840  -7.488 -11.009  0.00  0.00     0.029 H 
ATOM     54  H   LIG d   1       0.916  -8.497 -11.785  0.00  0.00     0.034 H 
ATOM     55  H   LIG d   1       0.085  -8.591 -10.201  0.00  0.00     0.034 H 
ATOM     56  O   LIG d   1       0.317  -3.409 -11.653  0.00  0.00    -0.267 OA
ENDBRANCH  33  34
ENDBRANCH  30  33
ENDBRANCH  17  30
TORSDOF 3
ENDMDL
MODEL 10
REMARK VINA RESULT:      -7.8      4.885     10.373
REMARK  3 active torsions:
REMARK  status: ('A' for Active; 'I' for Inactive)
REMARK       I    between atoms: N_15  and  C_17 
REMARK    1  A    between atoms: C_17  and  C_19 
REMARK    2  A    between atoms: C_19  and  O_20 
REMARK    3  A    between atoms: O_20  and  C_21 
ROOT
ATOM      1  C   LIG d   1       2.898  -0.644  -2.666  0.00  0.00    -0.055 C 
ATOM      2  C   LIG d   1       3.649  -1.711  -3.170  0.00  0.00    -0.042 C 
ATOM      3  C   LIG d   1       4.952  -1.535  -3.519  0.00  0.00     0.027 C 
ATOM      4  N   LIG d   1       5.555  -0.338  -3.334  0.00  0.00    -0.312 N 
ATOM      5  C   LIG d   1       4.824   0.734  -2.943  0.00  0.00     0.252 C 
ATOM      6  O   LIG d   1       5.338   1.841  -2.922  0.00  0.00    -0.268 OA
ATOM      7  C   LIG d   1       3.483   0.584  -2.563  0.00  0.00     0.003 C 
ATOM      8  C   LIG d   1       6.998  -0.140  -3.477  0.00  0.00     0.031 C 
ATOM      9  C   LIG d   1       7.649  -1.222  -4.319  0.00  0.00    -0.006 C 
ATOM     10  H   LIG d   1       8.728  -1.167  -4.168  0.00  0.00     0.033 H 
ATOM     11  C   LIG d   1       7.174  -2.599  -3.854  0.00  0.00    -0.037 C 
ATOM     12  C   LIG d   1       5.674  -2.713  -4.132  0.00  0.00     0.016 C 
ATOM     13  H   LIG d   1       5.285  -3.645  -3.721  0.00  0.00     0.038 H 
ATOM     14  C   LIG d   1       5.458  -2.653  -5.654  0.00  0.00     0.023 C 
ATOM     15  N   LIG d   1       5.991  -1.364  -6.122  0.00  0.00    -0.298 N 
ATOM     16  C   LIG d   1       7.370  -1.035  -5.804  0.00  0.00     0.019 C 
ATOM     17  C   LIG d   1       5.219  -0.513  -6.827  0.00  0.00     0.253 C 
ATOM     18  O   LIG d   1       5.672   0.546  -7.205  0.00  0.00    -0.272 OA
ATOM     19  H   LIG d   1       1.870  -0.789  -2.368  0.00  0.00     0.062 H 
ATOM     20  H   LIG d   1       3.193  -2.683  -3.280  0.00  0.00     0.064 H 
ATOM     21  H   LIG d   1       2.921   1.429  -2.194  0.00  0.00     0.067 H 
ATOM     22  H   LIG d   1       7.177   0.828  -3.946  0.00  0.00     0.050 H 
ATOM     23  H   LIG d   1       7.455  -0.140  -2.487  0.00  0.00     0.050 H 
ATOM     24  H   LIG d   1       7.709  -3.375  -4.401  0.00  0.00     0.028 H 
ATOM     25  H   LIG d   1       7.359  -2.710  -2.786  0.00  0.00     0.028 H 
ATOM     26  H   LIG d   1       5.991  -3.473  -6.136  0.00  0.00     0.047 H 
ATOM     27  H   LIG d   1       4.393  -2.718  -5.880  0.00  0.00     0.047 H 
ATOM     28  H   LIG d   1       7.548   0.005  -6.077  0.00  0.00     0.047 H 
ATOM     29  H   LIG d   1       8.036  -1.676  -6.381  0.00  0.00     0.047 H 
ENDROOT
BRANCH  17  30
ATOM     30  C   LIG d   1       3.791  -0.878  -7.142  0.00  0.00     0.165 C 
ATOM     31  H   LIG d   1       3.280  -1.175  -6.226  0.00  0.00     0.080 H 
ATOM     32  H   LIG d   1       3.284  -0.018  -7.579  0.00  0.00     0.080 H 
BRANCH  30  33
ATOM     33  O   LIG d   1       3.771  -1.964  -8.072  0.00  0.00    -0.483 OA
BRANCH  33  34
ATOM     34  C   LIG d   1       2.930  -1.853  -9.133  0.00  0.00     0.122 A 
ATOM     35  C   LIG d   1       2.488  -2.991  -9.782  0.00  0.00    -0.005 A 
ATOM     36  C   LIG d   1       1.622  -2.866 -10.866  0.00  0.00     0.068 A 
ATOM     37  H   LIG d   1       2.808  -3.968  -9.449  0.00  0.00     0.066 H 
ATOM     38  C   LIG d   1       1.212  -1.587 -11.300  0.00  0.00     0.078 A 
ATOM     39  C   LIG d   1       1.111  -4.032 -11.595  0.00  0.00     0.262 A 
ATOM     40  C   LIG d   1       1.677  -0.453 -10.628  0.00  0.00    -0.032 A 
ATOM     41  N   LIG d   1       0.375  -1.493 -12.360  0.00  0.00    -0.234 NA
ATOM     42  C   LIG d   1       2.522  -0.593  -9.563  0.00  0.00    -0.018 A 
ATOM     43  H   LIG d   1       1.369   0.531 -10.950  0.00  0.00     0.064 H 
ATOM     44  H   LIG d   1       2.877   0.288  -9.048  0.00  0.00     0.066 H 
ATOM     45  C   LIG d   1      -0.068  -2.543 -12.998  0.00  0.00     0.113 A 
ATOM     46  N   LIG d   1       0.275  -3.812 -12.643  0.00  0.00    -0.296 N 
ATOM     47  C   LIG d   1      -0.998  -2.587 -14.199  0.00  0.00     0.007 C 
ATOM     48  C   LIG d   1      -0.372  -4.799 -13.524  0.00  0.00     0.028 C 
ATOM     49  C   LIG d   1      -0.821  -4.010 -14.771  0.00  0.00    -0.028 C 
ATOM     50  H   LIG d   1       0.340  -5.575 -13.806  0.00  0.00     0.049 H 
ATOM     51  H   LIG d   1      -1.234  -5.241 -13.026  0.00  0.00     0.049 H 
ATOM     52  H   LIG d   1      -1.764  -4.396 -15.157  0.00  0.00     0.029 H 
ATOM     53  H   LIG d   1      -0.050  -4.027 -15.541  0.00  0.00     0.029 H 
ATOM     54  H   LIG d   1      -2.030  -2.429 -13.886  0.00  0.00     0.034 H 
ATOM     55  H   LIG d   1      -0.704  -1.841 -14.937  0.00  0.00     0.034 H 
ATOM     56  O   LIG d   1       1.425  -5.163 -11.271  0.00  0.00    -0.267 OA
ENDBRANCH  33  34
ENDBRANCH  30  33
ENDBRANCH  17  30
TORSDOF 3
ENDMDL
