MODEL 1
REMARK VINA RESULT:      -7.4      0.000      0.000
REMARK  8 active torsions:
REMARK  status: ('A' for Active; 'I' for Inactive)
REMARK    1  A    between atoms: C_1  and  C_2 
REMARK    2  A    between atoms: C_4  and  C_42 
REMARK    3  A    between atoms: C_22  and  C_30 
REMARK    4  A    between atoms: C_30  and  C_32 
REMARK    5  A    between atoms: C_35  and  O_40 
REMARK    6  A    between atoms: C_36  and  O_38 
REMARK    7  A    between atoms: O_38  and  C_39 
REMARK    8  A    between atoms: O_40  and  C_41 
ROOT
ATOM      1  C   LIG d   1       3.655  -2.193  -9.922  0.00  0.00    -0.050 A 
ATOM      2  C   LIG d   1       3.018  -0.968  -9.849  0.00  0.00    -0.054 A 
ATOM      3  C   LIG d   1       3.413  -0.031  -8.915  0.00  0.00    -0.029 A 
ATOM      4  C   LIG d   1       4.457  -0.314  -8.039  0.00  0.00     0.042 A 
ATOM      5  C   LIG d   1       5.091  -1.550  -8.122  0.00  0.00     0.005 A 
ATOM      6  C   LIG d   1       4.690  -2.483  -9.051  0.00  0.00    -0.052 A 
ATOM      7  C   LIG d   1       6.156  -1.543  -7.059  0.00  0.00     0.145 A 
ATOM      8  C   LIG d   1       6.033  -0.192  -6.402  0.00  0.00     0.244 A 
ATOM      9  O   LIG d   1       6.709   0.231  -5.487  0.00  0.00    -0.273 OA
ATOM     10  N   LIG d   1       5.030   0.455  -7.024  0.00  0.00    -0.283 N 
ATOM     11  C   LIG d   1       5.946  -2.669  -6.052  0.00  0.00     0.116 A 
ATOM     12  C   LIG d   1       5.695  -2.147  -4.667  0.00  0.00    -0.008 A 
ATOM     13  C   LIG d   1       6.415  -1.342  -3.813  0.00  0.00    -0.056 A 
ATOM     14  C   LIG d   1       5.909  -1.027  -2.564  0.00  0.00    -0.061 A 
ATOM     15  C   LIG d   1       4.678  -1.524  -2.177  0.00  0.00    -0.060 A 
ATOM     16  C   LIG d   1       3.952  -2.331  -3.028  0.00  0.00    -0.040 A 
ATOM     17  C   LIG d   1       4.454  -2.652  -4.287  0.00  0.00     0.038 A 
ATOM     18  N   LIG d   1       3.920  -3.437  -5.311  0.00  0.00    -0.284 N 
ATOM     19  C   LIG d   1       4.732  -3.497  -6.383  0.00  0.00     0.231 A 
ATOM     20  O   LIG d   1       4.526  -4.099  -7.414  0.00  0.00    -0.274 OA
ATOM     21  C   LIG d   1       7.225  -3.521  -6.103  0.00  0.00     0.058 C 
ATOM     22  H   LIG d   1       6.984  -4.584  -6.050  0.00  0.00     0.041 H 
ATOM     23  C   LIG d   1       7.826  -3.165  -7.485  0.00  0.00     0.023 C 
ATOM     24  H   LIG d   1       7.423  -3.784  -8.287  0.00  0.00     0.047 H 
ATOM     25  N   LIG d   1       7.494  -1.717  -7.653  0.00  0.00    -0.281 N 
ATOM     26  C   LIG d   1       8.499  -1.003  -6.830  0.00  0.00     0.001 C 
ATOM     27  C   LIG d   1       9.806  -1.804  -6.994  0.00  0.00    -0.039 C 
ATOM     28  C   LIG d   1       9.360  -3.238  -7.402  0.00  0.00    -0.035 C 
ATOM     29  H   LIG d   1       2.207  -0.742 -10.526  0.00  0.00     0.062 H 
ATOM     30  H   LIG d   1       5.187  -3.441  -9.103  0.00  0.00     0.062 H 
ATOM     31  H   LIG d   1       4.740   1.351  -6.795  0.00  0.00     0.155 HD
ATOM     32  H   LIG d   1       7.377  -0.956  -4.118  0.00  0.00     0.062 H 
ATOM     33  H   LIG d   1       6.473  -0.396  -1.894  0.00  0.00     0.062 H 
ATOM     34  H   LIG d   1       4.282  -1.279  -1.202  0.00  0.00     0.062 H 
ATOM     35  H   LIG d   1       2.992  -2.714  -2.718  0.00  0.00     0.064 H 
ATOM     36  H   LIG d   1       3.062  -3.886  -5.256  0.00  0.00     0.155 HD
ATOM     37  H   LIG d   1       8.632   0.016  -7.196  0.00  0.00     0.043 H 
ATOM     38  H   LIG d   1       8.191  -0.992  -5.784  0.00  0.00     0.043 H 
ATOM     39  H   LIG d   1      10.423  -1.364  -7.777  0.00  0.00     0.028 H 
ATOM     40  H   LIG d   1      10.352  -1.833  -6.051  0.00  0.00     0.028 H 
ATOM     41  H   LIG d   1       9.663  -3.966  -6.649  0.00  0.00     0.028 H 
ATOM     42  H   LIG d   1       9.777  -3.504  -8.373  0.00  0.00     0.028 H 
ENDROOT
BRANCH  21  43
ATOM     43  C   LIG d   1       8.167  -3.136  -4.993  0.00  0.00     0.169 C 
ATOM     44  O   LIG d   1       8.482  -1.974  -4.840  0.00  0.00    -0.292 OA
BRANCH  43  45
ATOM     45  C   LIG d   1       8.704  -4.165  -4.094  0.00  0.00     0.021 A 
ATOM     46  C   LIG d   1       8.624  -5.518  -4.449  0.00  0.00    -0.006 A 
ATOM     47  C   LIG d   1       9.135  -6.481  -3.602  0.00  0.00     0.162 A 
ATOM     48  H   LIG d   1       8.169  -5.807  -5.385  0.00  0.00     0.066 H 
ATOM     49  C   LIG d   1       9.717  -6.108  -2.391  0.00  0.00     0.162 A 
ATOM     50  C   LIG d   1       9.791  -4.767  -2.035  0.00  0.00    -0.016 A 
ATOM     51  C   LIG d   1       9.291  -3.799  -2.877  0.00  0.00    -0.048 A 
ATOM     52  H   LIG d   1      10.243  -4.483  -1.097  0.00  0.00     0.066 H 
ATOM     53  H   LIG d   1       9.349  -2.758  -2.598  0.00  0.00     0.063 H 
BRANCH  47  54
ATOM     54  O   LIG d   1       9.065  -7.795  -3.946  0.00  0.00    -0.491 OA
BRANCH  54  55
ATOM     55  C   LIG d   1       7.764  -8.335  -4.185  0.00  0.00     0.079 C 
ATOM     56  H   LIG d   1       7.514  -9.045  -3.397  0.00  0.00     0.066 H 
ATOM     57  H   LIG d   1       7.032  -7.527  -4.191  0.00  0.00     0.066 H 
ATOM     58  H   LIG d   1       7.753  -8.843  -5.149  0.00  0.00     0.066 H 
ENDBRANCH  54  55
ENDBRANCH  47  54
BRANCH  49  59
ATOM     59  O   LIG d   1      10.214  -7.057  -1.558  0.00  0.00    -0.491 OA
BRANCH  59  60
ATOM     60  C   LIG d   1      11.595  -7.390  -1.703  0.00  0.00     0.079 C 
ATOM     61  H   LIG d   1      11.739  -8.449  -1.482  0.00  0.00     0.066 H 
ATOM     62  H   LIG d   1      11.913  -7.187  -2.726  0.00  0.00     0.066 H 
ATOM     63  H   LIG d   1      12.189  -6.791  -1.013  0.00  0.00     0.066 H 
ENDBRANCH  59  60
ENDBRANCH  49  59
ENDBRANCH  43  45
ENDBRANCH  21  43
BRANCH   3  64
ATOM     64  C   LIG d   1       2.711   1.300  -8.845  0.00  0.00    -0.038 C 
ATOM     65  H   LIG d   1       2.844   1.832  -9.787  0.00  0.00     0.028 H 
ATOM     66  H   LIG d   1       1.647   1.141  -8.665  0.00  0.00     0.028 H 
ATOM     67  H   LIG d   1       3.134   1.891  -8.032  0.00  0.00     0.028 H 
ENDBRANCH   3  64
BRANCH   1  68
ATOM     68  C   LIG d   1       3.219  -3.210 -10.944  0.00  0.00    -0.040 C 
ATOM     69  H   LIG d   1       2.607  -3.971 -10.461  0.00  0.00     0.028 H 
ATOM     70  H   LIG d   1       2.638  -2.717 -11.723  0.00  0.00     0.028 H 
ATOM     71  H   LIG d   1       4.097  -3.679 -11.388  0.00  0.00     0.028 H 
ENDBRANCH   1  68
TORSDOF 8
ENDMDL
MODEL 2
REMARK VINA RESULT:      -7.1      2.770      5.041
REMARK  8 active torsions:
REMARK  status: ('A' for Active; 'I' for Inactive)
REMARK    1  A    between atoms: C_1  and  C_2 
REMARK    2  A    between atoms: C_4  and  C_42 
REMARK    3  A    between atoms: C_22  and  C_30 
REMARK    4  A    between atoms: C_30  and  C_32 
REMARK    5  A    between atoms: C_35  and  O_40 
REMARK    6  A    between atoms: C_36  and  O_38 
REMARK    7  A    between atoms: O_38  and  C_39 
REMARK    8  A    between atoms: O_40  and  C_41 
ROOT
ATOM      1  C   LIG d   1       8.537   2.156  -7.351  0.00  0.00    -0.050 A 
ATOM      2  C   LIG d   1       8.793   2.951  -6.248  0.00  0.00    -0.054 A 
ATOM      3  C   LIG d   1       8.572   2.468  -4.975  0.00  0.00    -0.029 A 
ATOM      4  C   LIG d   1       8.091   1.174  -4.790  0.00  0.00     0.042 A 
ATOM      5  C   LIG d   1       7.838   0.384  -5.906  0.00  0.00     0.005 A 
ATOM      6  C   LIG d   1       8.054   0.872  -7.176  0.00  0.00    -0.052 A 
ATOM      7  C   LIG d   1       7.337  -0.934  -5.378  0.00  0.00     0.145 A 
ATOM      8  C   LIG d   1       7.347  -0.774  -3.880  0.00  0.00     0.244 A 
ATOM      9  O   LIG d   1       7.015  -1.607  -3.062  0.00  0.00    -0.273 OA
ATOM     10  N   LIG d   1       7.793   0.469  -3.622  0.00  0.00    -0.283 N 
ATOM     11  C   LIG d   1       5.936  -1.244  -5.893  0.00  0.00     0.116 A 
ATOM     12  C   LIG d   1       4.934  -1.335  -4.779  0.00  0.00    -0.008 A 
ATOM     13  C   LIG d   1       4.836  -2.122  -3.653  0.00  0.00    -0.056 A 
ATOM     14  C   LIG d   1       3.765  -1.969  -2.791  0.00  0.00    -0.061 A 
ATOM     15  C   LIG d   1       2.794  -1.023  -3.062  0.00  0.00    -0.060 A 
ATOM     16  C   LIG d   1       2.886  -0.231  -4.189  0.00  0.00    -0.040 A 
ATOM     17  C   LIG d   1       3.961  -0.379  -5.062  0.00  0.00     0.038 A 
ATOM     18  N   LIG d   1       4.273   0.290  -6.247  0.00  0.00    -0.284 N 
ATOM     19  C   LIG d   1       5.418  -0.158  -6.797  0.00  0.00     0.231 A 
ATOM     20  O   LIG d   1       5.932   0.239  -7.821  0.00  0.00    -0.274 OA
ATOM     21  C   LIG d   1       6.052  -2.579  -6.647  0.00  0.00     0.058 C 
ATOM     22  H   LIG d   1       5.456  -2.561  -7.560  0.00  0.00     0.041 H 
ATOM     23  C   LIG d   1       7.562  -2.660  -6.981  0.00  0.00     0.023 C 
ATOM     24  H   LIG d   1       7.810  -2.152  -7.913  0.00  0.00     0.047 H 
ATOM     25  N   LIG d   1       8.222  -2.038  -5.793  0.00  0.00    -0.281 N 
ATOM     26  C   LIG d   1       8.211  -3.098  -4.757  0.00  0.00     0.001 C 
ATOM     27  C   LIG d   1       8.452  -4.416  -5.519  0.00  0.00    -0.039 C 
ATOM     28  C   LIG d   1       8.001  -4.134  -6.982  0.00  0.00    -0.035 C 
ATOM     29  H   LIG d   1       9.166   3.955  -6.384  0.00  0.00     0.062 H 
ATOM     30  H   LIG d   1       7.849   0.250  -8.035  0.00  0.00     0.062 H 
ATOM     31  H   LIG d   1       7.897   0.833  -2.729  0.00  0.00     0.155 HD
ATOM     32  H   LIG d   1       5.597  -2.860  -3.444  0.00  0.00     0.062 H 
ATOM     33  H   LIG d   1       3.688  -2.586  -1.908  0.00  0.00     0.062 H 
ATOM     34  H   LIG d   1       1.957  -0.904  -2.390  0.00  0.00     0.062 H 
ATOM     35  H   LIG d   1       2.123   0.504  -4.393  0.00  0.00     0.064 H 
ATOM     36  H   LIG d   1       3.728   0.995  -6.630  0.00  0.00     0.155 HD
ATOM     37  H   LIG d   1       9.008  -2.929  -4.034  0.00  0.00     0.043 H 
ATOM     38  H   LIG d   1       7.243  -3.125  -4.255  0.00  0.00     0.043 H 
ATOM     39  H   LIG d   1       9.510  -4.679  -5.496  0.00  0.00     0.028 H 
ATOM     40  H   LIG d   1       7.853  -5.218  -5.089  0.00  0.00     0.028 H 
ATOM     41  H   LIG d   1       7.165  -4.776  -7.259  0.00  0.00     0.028 H 
ATOM     42  H   LIG d   1       8.833  -4.279  -7.671  0.00  0.00     0.028 H 
ENDROOT
BRANCH  21  43
ATOM     43  C   LIG d   1       5.637  -3.728  -5.765  0.00  0.00     0.169 C 
ATOM     44  O   LIG d   1       5.754  -3.641  -4.560  0.00  0.00    -0.292 OA
BRANCH  43  45
ATOM     45  C   LIG d   1       5.088  -4.952  -6.363  0.00  0.00     0.021 A 
ATOM     46  C   LIG d   1       5.190  -6.172  -5.683  0.00  0.00    -0.006 A 
ATOM     47  C   LIG d   1       4.668  -7.318  -6.249  0.00  0.00     0.162 A 
ATOM     48  H   LIG d   1       5.672  -6.216  -4.718  0.00  0.00     0.066 H 
ATOM     49  C   LIG d   1       4.051  -7.262  -7.498  0.00  0.00     0.162 A 
ATOM     50  C   LIG d   1       3.954  -6.053  -8.175  0.00  0.00    -0.016 A 
ATOM     51  C   LIG d   1       4.466  -4.903  -7.616  0.00  0.00    -0.048 A 
ATOM     52  H   LIG d   1       3.475  -6.014  -9.142  0.00  0.00     0.066 H 
ATOM     53  H   LIG d   1       4.389  -3.965  -8.145  0.00  0.00     0.063 H 
BRANCH  47  54
ATOM     54  O   LIG d   1       4.760  -8.504  -5.589  0.00  0.00    -0.491 OA
BRANCH  54  55
ATOM     55  C   LIG d   1       6.003  -8.793  -4.944  0.00  0.00     0.079 C 
ATOM     56  H   LIG d   1       5.840  -8.900  -3.872  0.00  0.00     0.066 H 
ATOM     57  H   LIG d   1       6.412  -9.721  -5.345  0.00  0.00     0.066 H 
ATOM     58  H   LIG d   1       6.704  -7.978  -5.126  0.00  0.00     0.066 H 
ENDBRANCH  54  55
ENDBRANCH  47  54
BRANCH  49  59
ATOM     59  O   LIG d   1       3.543  -8.391  -8.053  0.00  0.00    -0.491 OA
BRANCH  59  60
ATOM     60  C   LIG d   1       3.253  -8.352  -9.452  0.00  0.00     0.079 C 
ATOM     61  H   LIG d   1       4.100  -7.920  -9.987  0.00  0.00     0.066 H 
ATOM     62  H   LIG d   1       3.073  -9.365  -9.814  0.00  0.00     0.066 H 
ATOM     63  H   LIG d   1       2.366  -7.742  -9.623  0.00  0.00     0.066 H 
ENDBRANCH  59  60
ENDBRANCH  49  59
ENDBRANCH  43  45
ENDBRANCH  21  43
BRANCH   3  64
ATOM     64  C   LIG d   1       8.854   3.343  -3.781  0.00  0.00    -0.038 C 
ATOM     65  H   LIG d   1       9.682   2.923  -3.209  0.00  0.00     0.028 H 
ATOM     66  H   LIG d   1       9.119   4.345  -4.119  0.00  0.00     0.028 H 
ATOM     67  H   LIG d   1       7.967   3.394  -3.150  0.00  0.00     0.028 H 
ENDBRANCH   3  64
BRANCH   1  68
ATOM     68  C   LIG d   1       8.780   2.690  -8.738  0.00  0.00    -0.040 C 
ATOM     69  H   LIG d   1       9.713   3.254  -8.752  0.00  0.00     0.028 H 
ATOM     70  H   LIG d   1       8.847   1.860  -9.441  0.00  0.00     0.028 H 
ATOM     71  H   LIG d   1       7.957   3.343  -9.026  0.00  0.00     0.028 H 
ENDBRANCH   1  68
TORSDOF 8
ENDMDL
MODEL 3
REMARK VINA RESULT:      -6.8      1.051      1.613
REMARK  8 active torsions:
REMARK  status: ('A' for Active; 'I' for Inactive)
REMARK    1  A    between atoms: C_1  and  C_2 
REMARK    2  A    between atoms: C_4  and  C_42 
REMARK    3  A    between atoms: C_22  and  C_30 
REMARK    4  A    between atoms: C_30  and  C_32 
REMARK    5  A    between atoms: C_35  and  O_40 
REMARK    6  A    between atoms: C_36  and  O_38 
REMARK    7  A    between atoms: O_38  and  C_39 
REMARK    8  A    between atoms: O_40  and  C_41 
ROOT
ATOM      1  C   LIG d   1       3.400  -2.254  -9.947  0.00  0.00    -0.050 A 
ATOM      2  C   LIG d   1       2.735  -1.043  -9.883  0.00  0.00    -0.054 A 
ATOM      3  C   LIG d   1       3.150  -0.066  -9.001  0.00  0.00    -0.029 A 
ATOM      4  C   LIG d   1       4.242  -0.293  -8.168  0.00  0.00     0.042 A 
ATOM      5  C   LIG d   1       4.903  -1.515  -8.241  0.00  0.00     0.005 A 
ATOM      6  C   LIG d   1       4.483  -2.489  -9.119  0.00  0.00    -0.052 A 
ATOM      7  C   LIG d   1       6.018  -1.446  -7.232  0.00  0.00     0.145 A 
ATOM      8  C   LIG d   1       5.891  -0.077  -6.615  0.00  0.00     0.244 A 
ATOM      9  O   LIG d   1       6.599   0.393  -5.748  0.00  0.00    -0.273 OA
ATOM     10  N   LIG d   1       4.843   0.524  -7.208  0.00  0.00    -0.283 N 
ATOM     11  C   LIG d   1       5.885  -2.542  -6.180  0.00  0.00     0.116 A 
ATOM     12  C   LIG d   1       5.688  -1.979  -4.802  0.00  0.00    -0.008 A 
ATOM     13  C   LIG d   1       6.427  -1.128  -4.011  0.00  0.00    -0.056 A 
ATOM     14  C   LIG d   1       5.973  -0.784  -2.750  0.00  0.00    -0.061 A 
ATOM     15  C   LIG d   1       4.775  -1.297  -2.287  0.00  0.00    -0.060 A 
ATOM     16  C   LIG d   1       4.031  -2.150  -3.075  0.00  0.00    -0.040 A 
ATOM     17  C   LIG d   1       4.481  -2.502  -4.346  0.00  0.00     0.038 A 
ATOM     18  N   LIG d   1       3.918  -3.334  -5.316  0.00  0.00    -0.284 N 
ATOM     19  C   LIG d   1       4.680  -3.410  -6.424  0.00  0.00     0.231 A 
ATOM     20  O   LIG d   1       4.440  -4.052  -7.424  0.00  0.00    -0.274 OA
ATOM     21  C   LIG d   1       7.182  -3.364  -6.265  0.00  0.00     0.058 C 
ATOM     22  H   LIG d   1       6.972  -4.429  -6.166  0.00  0.00     0.041 H 
ATOM     23  C   LIG d   1       7.707  -3.040  -7.686  0.00  0.00     0.023 C 
ATOM     24  H   LIG d   1       7.282  -3.695  -8.446  0.00  0.00     0.047 H 
ATOM     25  N   LIG d   1       7.330  -1.607  -7.885  0.00  0.00    -0.281 N 
ATOM     26  C   LIG d   1       8.353  -0.840  -7.136  0.00  0.00     0.001 C 
ATOM     27  C   LIG d   1       9.672  -1.614  -7.337  0.00  0.00    -0.039 C 
ATOM     28  C   LIG d   1       9.245  -3.072  -7.675  0.00  0.00    -0.035 C 
ATOM     29  H   LIG d   1       1.887  -0.860 -10.527  0.00  0.00     0.062 H 
ATOM     30  H   LIG d   1       5.001  -3.436  -9.164  0.00  0.00     0.062 H 
ATOM     31  H   LIG d   1       4.541   1.420  -6.994  0.00  0.00     0.155 HD
ATOM     32  H   LIG d   1       7.362  -0.729  -4.376  0.00  0.00     0.062 H 
ATOM     33  H   LIG d   1       6.552  -0.117  -2.129  0.00  0.00     0.062 H 
ATOM     34  H   LIG d   1       4.420  -1.029  -1.302  0.00  0.00     0.062 H 
ATOM     35  H   LIG d   1       3.097  -2.547  -2.706  0.00  0.00     0.064 H 
ATOM     36  H   LIG d   1       3.076  -3.802  -5.204  0.00  0.00     0.155 HD
ATOM     37  H   LIG d   1       8.442   0.167  -7.541  0.00  0.00     0.043 H 
ATOM     38  H   LIG d   1       8.096  -0.802  -6.077  0.00  0.00     0.043 H 
ATOM     39  H   LIG d   1      10.239  -1.187  -8.163  0.00  0.00     0.028 H 
ATOM     40  H   LIG d   1      10.263  -1.598  -6.421  0.00  0.00     0.028 H 
ATOM     41  H   LIG d   1       9.602  -3.766  -6.915  0.00  0.00     0.028 H 
ATOM     42  H   LIG d   1       9.622  -3.361  -8.657  0.00  0.00     0.028 H 
ENDROOT
BRANCH  21  43
ATOM     43  C   LIG d   1       8.167  -2.917  -5.215  0.00  0.00     0.169 C 
ATOM     44  O   LIG d   1       8.293  -1.737  -4.965  0.00  0.00    -0.292 OA
BRANCH  43  45
ATOM     45  C   LIG d   1       8.972  -3.911  -4.494  0.00  0.00     0.021 A 
ATOM     46  C   LIG d   1      10.287  -3.609  -4.117  0.00  0.00    -0.006 A 
ATOM     47  C   LIG d   1      11.037  -4.546  -3.435  0.00  0.00     0.162 A 
ATOM     48  H   LIG d   1      10.711  -2.645  -4.355  0.00  0.00     0.066 H 
ATOM     49  C   LIG d   1      10.491  -5.793  -3.134  0.00  0.00     0.162 A 
ATOM     50  C   LIG d   1       9.189  -6.095  -3.513  0.00  0.00    -0.016 A 
ATOM     51  C   LIG d   1       8.431  -5.165  -4.187  0.00  0.00    -0.048 A 
ATOM     52  H   LIG d   1       8.770  -7.062  -3.276  0.00  0.00     0.066 H 
ATOM     53  H   LIG d   1       7.419  -5.403  -4.480  0.00  0.00     0.063 H 
BRANCH  47  54
ATOM     54  O   LIG d   1      12.312  -4.254  -3.062  0.00  0.00    -0.491 OA
BRANCH  54  55
ATOM     55  C   LIG d   1      13.162  -3.672  -4.053  0.00  0.00     0.079 C 
ATOM     56  H   LIG d   1      13.658  -4.462  -4.616  0.00  0.00     0.066 H 
ATOM     57  H   LIG d   1      12.563  -3.063  -4.731  0.00  0.00     0.066 H 
ATOM     58  H   LIG d   1      13.910  -3.046  -3.567  0.00  0.00     0.066 H 
ENDBRANCH  54  55
ENDBRANCH  47  54
BRANCH  49  59
ATOM     59  O   LIG d   1      11.233  -6.714  -2.468  0.00  0.00    -0.491 OA
BRANCH  59  60
ATOM     60  C   LIG d   1      10.668  -7.264  -1.276  0.00  0.00     0.079 C 
ATOM     61  H   LIG d   1      11.266  -6.960  -0.416  0.00  0.00     0.066 H 
ATOM     62  H   LIG d   1       9.648  -6.899  -1.155  0.00  0.00     0.066 H 
ATOM     63  H   LIG d   1      10.659  -8.351  -1.345  0.00  0.00     0.066 H 
ENDBRANCH  59  60
ENDBRANCH  49  59
ENDBRANCH  43  45
ENDBRANCH  21  43
BRANCH   3  64
ATOM     64  C   LIG d   1       2.418   1.249  -8.940  0.00  0.00    -0.038 C 
ATOM     65  H   LIG d   1       1.738   1.248  -8.088  0.00  0.00     0.028 H 
ATOM     66  H   LIG d   1       3.138   2.061  -8.827  0.00  0.00     0.028 H 
ATOM     67  H   LIG d   1       1.849   1.392  -9.858  0.00  0.00     0.028 H 
ENDBRANCH   3  64
BRANCH   1  68
ATOM     68  C   LIG d   1       2.943  -3.316 -10.913  0.00  0.00    -0.040 C 
ATOM     69  H   LIG d   1       3.761  -3.572 -11.586  0.00  0.00     0.028 H 
ATOM     70  H   LIG d   1       2.636  -4.203 -10.360  0.00  0.00     0.028 H 
ATOM     71  H   LIG d   1       2.100  -2.941 -11.493  0.00  0.00     0.028 H 
ENDBRANCH   1  68
TORSDOF 8
ENDMDL
MODEL 4
REMARK VINA RESULT:      -6.6      1.868      4.171
REMARK  8 active torsions:
REMARK  status: ('A' for Active; 'I' for Inactive)
REMARK    1  A    between atoms: C_1  and  C_2 
REMARK    2  A    between atoms: C_4  and  C_42 
REMARK    3  A    between atoms: C_22  and  C_30 
REMARK    4  A    between atoms: C_30  and  C_32 
REMARK    5  A    between atoms: C_35  and  O_40 
REMARK    6  A    between atoms: C_36  and  O_38 
REMARK    7  A    between atoms: O_38  and  C_39 
REMARK    8  A    between atoms: O_40  and  C_41 
ROOT
ATOM      1  C   LIG d   1       3.676   1.387  -8.936  0.00  0.00    -0.050 A 
ATOM      2  C   LIG d   1       2.735   0.710  -9.690  0.00  0.00    -0.054 A 
ATOM      3  C   LIG d   1       2.516  -0.637  -9.485  0.00  0.00    -0.029 A 
ATOM      4  C   LIG d   1       3.243  -1.325  -8.516  0.00  0.00     0.042 A 
ATOM      5  C   LIG d   1       4.187  -0.633  -7.764  0.00  0.00     0.005 A 
ATOM      6  C   LIG d   1       4.405   0.710  -7.975  0.00  0.00    -0.052 A 
ATOM      7  C   LIG d   1       4.787  -1.641  -6.821  0.00  0.00     0.145 A 
ATOM      8  C   LIG d   1       4.078  -2.932  -7.139  0.00  0.00     0.244 A 
ATOM      9  O   LIG d   1       4.260  -4.007  -6.605  0.00  0.00    -0.273 OA
ATOM     10  N   LIG d   1       3.205  -2.666  -8.127  0.00  0.00    -0.283 N 
ATOM     11  C   LIG d   1       6.292  -1.770  -7.029  0.00  0.00     0.116 A 
ATOM     12  C   LIG d   1       6.683  -3.151  -7.471  0.00  0.00    -0.008 A 
ATOM     13  C   LIG d   1       6.519  -4.403  -6.924  0.00  0.00    -0.056 A 
ATOM     14  C   LIG d   1       7.003  -5.518  -7.585  0.00  0.00    -0.061 A 
ATOM     15  C   LIG d   1       7.651  -5.371  -8.798  0.00  0.00    -0.060 A 
ATOM     16  C   LIG d   1       7.818  -4.118  -9.351  0.00  0.00    -0.040 A 
ATOM     17  C   LIG d   1       7.334  -2.990  -8.692  0.00  0.00     0.038 A 
ATOM     18  N   LIG d   1       7.379  -1.639  -9.040  0.00  0.00    -0.284 N 
ATOM     19  C   LIG d   1       6.788  -0.856  -8.117  0.00  0.00     0.231 A 
ATOM     20  O   LIG d   1       6.676   0.350  -8.157  0.00  0.00    -0.274 OA
ATOM     21  C   LIG d   1       6.934  -1.416  -5.677  0.00  0.00     0.058 C 
ATOM     22  H   LIG d   1       7.829  -0.811  -5.821  0.00  0.00     0.041 H 
ATOM     23  C   LIG d   1       5.827  -0.595  -4.971  0.00  0.00     0.023 C 
ATOM     24  H   LIG d   1       5.866   0.464  -5.227  0.00  0.00     0.047 H 
ATOM     25  N   LIG d   1       4.560  -1.250  -5.418  0.00  0.00    -0.281 N 
ATOM     26  C   LIG d   1       4.447  -2.465  -4.577  0.00  0.00     0.001 C 
ATOM     27  C   LIG d   1       4.981  -2.054  -3.190  0.00  0.00    -0.039 C 
ATOM     28  C   LIG d   1       5.911  -0.835  -3.454  0.00  0.00    -0.035 C 
ATOM     29  H   LIG d   1       2.168   1.237 -10.443  0.00  0.00     0.062 H 
ATOM     30  H   LIG d   1       5.144   1.236  -7.388  0.00  0.00     0.062 H 
ATOM     31  H   LIG d   1       2.616  -3.327  -8.523  0.00  0.00     0.155 HD
ATOM     32  H   LIG d   1       6.013  -4.516  -5.976  0.00  0.00     0.062 H 
ATOM     33  H   LIG d   1       6.875  -6.501  -7.156  0.00  0.00     0.062 H 
ATOM     34  H   LIG d   1       8.029  -6.240  -9.315  0.00  0.00     0.062 H 
ATOM     35  H   LIG d   1       8.325  -4.011 -10.298  0.00  0.00     0.064 H 
ATOM     36  H   LIG d   1       7.789  -1.303  -9.852  0.00  0.00     0.155 HD
ATOM     37  H   LIG d   1       3.405  -2.778  -4.503  0.00  0.00     0.043 H 
ATOM     38  H   LIG d   1       5.055  -3.269  -4.992  0.00  0.00     0.043 H 
ATOM     39  H   LIG d   1       4.157  -1.765  -2.538  0.00  0.00     0.028 H 
ATOM     40  H   LIG d   1       5.548  -2.871  -2.745  0.00  0.00     0.028 H 
ATOM     41  H   LIG d   1       6.937  -1.062  -3.164  0.00  0.00     0.028 H 
ATOM     42  H   LIG d   1       5.552   0.042  -2.914  0.00  0.00     0.028 H 
ENDROOT
BRANCH  21  43
ATOM     43  C   LIG d   1       7.256  -2.664  -4.896  0.00  0.00     0.169 C 
ATOM     44  O   LIG d   1       6.370  -3.434  -4.590  0.00  0.00    -0.292 OA
BRANCH  43  45
ATOM     45  C   LIG d   1       8.644  -2.948  -4.507  0.00  0.00     0.021 A 
ATOM     46  C   LIG d   1       8.911  -3.853  -3.472  0.00  0.00    -0.006 A 
ATOM     47  C   LIG d   1      10.217  -4.119  -3.114  0.00  0.00     0.162 A 
ATOM     48  H   LIG d   1       8.098  -4.343  -2.957  0.00  0.00     0.066 H 
ATOM     49  C   LIG d   1      11.266  -3.481  -3.775  0.00  0.00     0.162 A 
ATOM     50  C   LIG d   1      11.002  -2.580  -4.798  0.00  0.00    -0.016 A 
ATOM     51  C   LIG d   1       9.702  -2.312  -5.166  0.00  0.00    -0.048 A 
ATOM     52  H   LIG d   1      11.818  -2.088  -5.307  0.00  0.00     0.066 H 
ATOM     53  H   LIG d   1       9.500  -1.611  -5.962  0.00  0.00     0.063 H 
BRANCH  47  54
ATOM     54  O   LIG d   1      10.481  -5.002  -2.113  0.00  0.00    -0.491 OA
BRANCH  54  55
ATOM     55  C   LIG d   1       9.816  -6.265  -2.170  0.00  0.00     0.079 C 
ATOM     56  H   LIG d   1       8.955  -6.194  -2.834  0.00  0.00     0.066 H 
ATOM     57  H   LIG d   1      10.505  -7.021  -2.547  0.00  0.00     0.066 H 
ATOM     58  H   LIG d   1       9.482  -6.545  -1.170  0.00  0.00     0.066 H 
ENDBRANCH  54  55
ENDBRANCH  47  54
BRANCH  49  59
ATOM     59  O   LIG d   1      12.549  -3.741  -3.417  0.00  0.00    -0.491 OA
BRANCH  59  60
ATOM     60  C   LIG d   1      13.540  -2.792  -3.816  0.00  0.00     0.079 C 
ATOM     61  H   LIG d   1      14.532  -3.180  -3.580  0.00  0.00     0.066 H 
ATOM     62  H   LIG d   1      13.465  -2.616  -4.889  0.00  0.00     0.066 H 
ATOM     63  H   LIG d   1      13.381  -1.855  -3.283  0.00  0.00     0.066 H 
ENDBRANCH  59  60
ENDBRANCH  49  59
ENDBRANCH  43  45
ENDBRANCH  21  43
BRANCH   3  64
ATOM     64  C   LIG d   1       1.489  -1.365 -10.312  0.00  0.00    -0.038 C 
ATOM     65  H   LIG d   1       1.950  -1.721 -11.234  0.00  0.00     0.028 H 
ATOM     66  H   LIG d   1       1.105  -2.216  -9.748  0.00  0.00     0.028 H 
ATOM     67  H   LIG d   1       0.670  -0.688 -10.554  0.00  0.00     0.028 H 
ENDBRANCH   3  64
BRANCH   1  68
ATOM     68  C   LIG d   1       3.909   2.858  -9.165  0.00  0.00    -0.040 C 
ATOM     69  H   LIG d   1       4.100   3.348  -8.210  0.00  0.00     0.028 H 
ATOM     70  H   LIG d   1       4.769   2.992  -9.821  0.00  0.00     0.028 H 
ATOM     71  H   LIG d   1       3.027   3.298  -9.628  0.00  0.00     0.028 H 
ENDBRANCH   1  68
TORSDOF 8
ENDMDL
MODEL 5
REMARK VINA RESULT:      -6.5      4.058      6.459
REMARK  8 active torsions:
REMARK  status: ('A' for Active; 'I' for Inactive)
REMARK    1  A    between atoms: C_1  and  C_2 
REMARK    2  A    between atoms: C_4  and  C_42 
REMARK    3  A    between atoms: C_22  and  C_30 
REMARK    4  A    between atoms: C_30  and  C_32 
REMARK    5  A    between atoms: C_35  and  O_40 
REMARK    6  A    between atoms: C_36  and  O_38 
REMARK    7  A    between atoms: O_38  and  C_39 
REMARK    8  A    between atoms: O_40  and  C_41 
ROOT
ATOM      1  C   LIG d   1       4.061  -0.705 -14.845  0.00  0.00    -0.050 A 
ATOM      2  C   LIG d   1       3.074  -1.622 -15.157  0.00  0.00    -0.054 A 
ATOM      3  C   LIG d   1       2.310  -2.190 -14.158  0.00  0.00    -0.029 A 
ATOM      4  C   LIG d   1       2.528  -1.842 -12.827  0.00  0.00     0.042 A 
ATOM      5  C   LIG d   1       3.523  -0.918 -12.525  0.00  0.00     0.005 A 
ATOM      6  C   LIG d   1       4.287  -0.358 -13.525  0.00  0.00    -0.052 A 
ATOM      7  C   LIG d   1       3.505  -0.760 -11.029  0.00  0.00     0.145 A 
ATOM      8  C   LIG d   1       2.410  -1.683 -10.560  0.00  0.00     0.244 A 
ATOM      9  O   LIG d   1       2.059  -1.863  -9.412  0.00  0.00    -0.273 OA
ATOM     10  N   LIG d   1       1.897  -2.271 -11.657  0.00  0.00    -0.283 N 
ATOM     11  C   LIG d   1       4.849  -1.137 -10.413  0.00  0.00     0.116 A 
ATOM     12  C   LIG d   1       4.733  -2.310  -9.482  0.00  0.00    -0.008 A 
ATOM     13  C   LIG d   1       3.996  -2.547  -8.344  0.00  0.00    -0.056 A 
ATOM     14  C   LIG d   1       4.106  -3.760  -7.686  0.00  0.00    -0.061 A 
ATOM     15  C   LIG d   1       4.957  -4.733  -8.177  0.00  0.00    -0.060 A 
ATOM     16  C   LIG d   1       5.698  -4.501  -9.318  0.00  0.00    -0.040 A 
ATOM     17  C   LIG d   1       5.593  -3.283  -9.986  0.00  0.00     0.038 A 
ATOM     18  N   LIG d   1       6.227  -2.815 -11.139  0.00  0.00    -0.284 N 
ATOM     19  C   LIG d   1       5.844  -1.564 -11.458  0.00  0.00     0.231 A 
ATOM     20  O   LIG d   1       6.226  -0.910 -12.405  0.00  0.00    -0.274 OA
ATOM     21  C   LIG d   1       5.335   0.117  -9.669  0.00  0.00     0.058 C 
ATOM     22  H   LIG d   1       6.407   0.259  -9.810  0.00  0.00     0.041 H 
ATOM     23  C   LIG d   1       4.539   1.257 -10.350  0.00  0.00     0.023 C 
ATOM     24  H   LIG d   1       5.036   1.636 -11.244  0.00  0.00     0.047 H 
ATOM     25  N   LIG d   1       3.213   0.634 -10.650  0.00  0.00    -0.281 N 
ATOM     26  C   LIG d   1       2.487   0.655  -9.358  0.00  0.00     0.001 C 
ATOM     27  C   LIG d   1       2.893   1.980  -8.682  0.00  0.00    -0.039 C 
ATOM     28  C   LIG d   1       4.259   2.364  -9.320  0.00  0.00    -0.035 C 
ATOM     29  H   LIG d   1       2.900  -1.896 -16.187  0.00  0.00     0.062 H 
ATOM     30  H   LIG d   1       5.060   0.355 -13.279  0.00  0.00     0.062 H 
ATOM     31  H   LIG d   1       1.173  -2.915 -11.637  0.00  0.00     0.155 HD
ATOM     32  H   LIG d   1       3.331  -1.785  -7.963  0.00  0.00     0.062 H 
ATOM     33  H   LIG d   1       3.529  -3.947  -6.794  0.00  0.00     0.062 H 
ATOM     34  H   LIG d   1       5.045  -5.680  -7.665  0.00  0.00     0.062 H 
ATOM     35  H   LIG d   1       6.361  -5.265  -9.694  0.00  0.00     0.064 H 
ATOM     36  H   LIG d   1       6.869  -3.332 -11.650  0.00  0.00     0.155 HD
ATOM     37  H   LIG d   1       1.411   0.633  -9.529  0.00  0.00     0.043 H 
ATOM     38  H   LIG d   1       2.790  -0.192  -8.741  0.00  0.00     0.043 H 
ATOM     39  H   LIG d   1       2.151   2.751  -8.887  0.00  0.00     0.028 H 
ATOM     40  H   LIG d   1       3.006   1.837  -7.607  0.00  0.00     0.028 H 
ATOM     41  H   LIG d   1       5.046   2.384  -8.565  0.00  0.00     0.028 H 
ATOM     42  H   LIG d   1       4.188   3.332  -9.817  0.00  0.00     0.028 H 
ENDROOT
BRANCH  21  43
ATOM     43  C   LIG d   1       4.999   0.032  -8.202  0.00  0.00     0.169 C 
ATOM     44  O   LIG d   1       3.865  -0.223  -7.853  0.00  0.00    -0.292 OA
BRANCH  43  45
ATOM     45  C   LIG d   1       6.045   0.254  -7.196  0.00  0.00     0.021 A 
ATOM     46  C   LIG d   1       5.913  -0.294  -5.914  0.00  0.00    -0.006 A 
ATOM     47  C   LIG d   1       6.902  -0.085  -4.973  0.00  0.00     0.162 A 
ATOM     48  H   LIG d   1       5.043  -0.882  -5.662  0.00  0.00     0.066 H 
ATOM     49  C   LIG d   1       8.022   0.680  -5.296  0.00  0.00     0.162 A 
ATOM     50  C   LIG d   1       8.151   1.229  -6.565  0.00  0.00    -0.016 A 
ATOM     51  C   LIG d   1       7.173   1.021  -7.512  0.00  0.00    -0.048 A 
ATOM     52  H   LIG d   1       9.020   1.821  -6.811  0.00  0.00     0.066 H 
ATOM     53  H   LIG d   1       7.276   1.449  -8.498  0.00  0.00     0.063 H 
BRANCH  47  54
ATOM     54  O   LIG d   1       6.781  -0.621  -3.729  0.00  0.00    -0.491 OA
BRANCH  54  55
ATOM     55  C   LIG d   1       5.807  -0.035  -2.862  0.00  0.00     0.079 C 
ATOM     56  H   LIG d   1       6.288   0.284  -1.938  0.00  0.00     0.066 H 
ATOM     57  H   LIG d   1       5.356   0.827  -3.354  0.00  0.00     0.066 H 
ATOM     58  H   LIG d   1       5.034  -0.770  -2.635  0.00  0.00     0.066 H 
ENDBRANCH  54  55
ENDBRANCH  47  54
BRANCH  49  59
ATOM     59  O   LIG d   1       8.990   0.888  -4.368  0.00  0.00    -0.491 OA
BRANCH  59  60
ATOM     60  C   LIG d   1       9.025   2.173  -3.743  0.00  0.00     0.079 C 
ATOM     61  H   LIG d   1       9.928   2.257  -3.136  0.00  0.00     0.066 H 
ATOM     62  H   LIG d   1       9.029   2.950  -4.508  0.00  0.00     0.066 H 
ATOM     63  H   LIG d   1       8.149   2.292  -3.107  0.00  0.00     0.066 H 
ENDBRANCH  59  60
ENDBRANCH  49  59
ENDBRANCH  43  45
ENDBRANCH  21  43
BRANCH   3  64
ATOM     64  C   LIG d   1       1.238  -3.188 -14.508  0.00  0.00    -0.038 C 
ATOM     65  H   LIG d   1       0.878  -2.996 -15.519  0.00  0.00     0.028 H 
ATOM     66  H   LIG d   1       1.649  -4.196 -14.456  0.00  0.00     0.028 H 
ATOM     67  H   LIG d   1       0.411  -3.095 -13.805  0.00  0.00     0.028 H 
ENDBRANCH   3  64
BRANCH   1  68
ATOM     68  C   LIG d   1       4.892  -0.089 -15.941  0.00  0.00    -0.040 C 
ATOM     69  H   LIG d   1       5.188   0.919 -15.649  0.00  0.00     0.028 H 
ATOM     70  H   LIG d   1       5.782  -0.695 -16.108  0.00  0.00     0.028 H 
ATOM     71  H   LIG d   1       4.307  -0.043 -16.859  0.00  0.00     0.028 H 
ENDBRANCH   1  68
TORSDOF 8
ENDMDL
MODEL 6
REMARK VINA RESULT:      -6.3      3.584      7.879
REMARK  8 active torsions:
REMARK  status: ('A' for Active; 'I' for Inactive)
REMARK    1  A    between atoms: C_1  and  C_2 
REMARK    2  A    between atoms: C_4  and  C_42 
REMARK    3  A    between atoms: C_22  and  C_30 
REMARK    4  A    between atoms: C_30  and  C_32 
REMARK    5  A    between atoms: C_35  and  O_40 
REMARK    6  A    between atoms: C_36  and  O_38 
REMARK    7  A    between atoms: O_38  and  C_39 
REMARK    8  A    between atoms: O_40  and  C_41 
ROOT
ATOM      1  C   LIG d   1       6.566   0.082  -3.947  0.00  0.00    -0.050 A 
ATOM      2  C   LIG d   1       5.601  -0.445  -3.108  0.00  0.00    -0.054 A 
ATOM      3  C   LIG d   1       4.746  -1.428  -3.560  0.00  0.00    -0.029 A 
ATOM      4  C   LIG d   1       4.849  -1.899  -4.867  0.00  0.00     0.042 A 
ATOM      5  C   LIG d   1       5.824  -1.363  -5.701  0.00  0.00     0.005 A 
ATOM      6  C   LIG d   1       6.671  -0.377  -5.248  0.00  0.00    -0.052 A 
ATOM      7  C   LIG d   1       5.677  -2.072  -7.021  0.00  0.00     0.145 A 
ATOM      8  C   LIG d   1       4.536  -3.035  -6.814  0.00  0.00     0.244 A 
ATOM      9  O   LIG d   1       4.085  -3.807  -7.633  0.00  0.00    -0.273 OA
ATOM     10  N   LIG d   1       4.113  -2.872  -5.547  0.00  0.00    -0.283 N 
ATOM     11  C   LIG d   1       5.377  -1.091  -8.149  0.00  0.00     0.116 A 
ATOM     12  C   LIG d   1       4.037  -1.350  -8.779  0.00  0.00    -0.008 A 
ATOM     13  C   LIG d   1       3.479  -2.442  -9.403  0.00  0.00    -0.056 A 
ATOM     14  C   LIG d   1       2.187  -2.375  -9.895  0.00  0.00    -0.061 A 
ATOM     15  C   LIG d   1       1.459  -1.207  -9.756  0.00  0.00    -0.060 A 
ATOM     16  C   LIG d   1       2.014  -0.109  -9.131  0.00  0.00    -0.040 A 
ATOM     17  C   LIG d   1       3.314  -0.169  -8.634  0.00  0.00     0.038 A 
ATOM     18  N   LIG d   1       4.084   0.791  -7.974  0.00  0.00    -0.284 N 
ATOM     19  C   LIG d   1       5.308   0.329  -7.654  0.00  0.00     0.231 A 
ATOM     20  O   LIG d   1       6.183   0.938  -7.078  0.00  0.00    -0.274 OA
ATOM     21  C   LIG d   1       6.513  -1.264  -9.170  0.00  0.00     0.058 C 
ATOM     22  H   LIG d   1       6.828  -0.298  -9.566  0.00  0.00     0.041 H 
ATOM     23  C   LIG d   1       7.644  -1.903  -8.326  0.00  0.00     0.023 C 
ATOM     24  H   LIG d   1       8.258  -1.158  -7.820  0.00  0.00     0.047 H 
ATOM     25  N   LIG d   1       6.914  -2.793  -7.372  0.00  0.00    -0.281 N 
ATOM     26  C   LIG d   1       6.577  -3.999  -8.164  0.00  0.00     0.001 C 
ATOM     27  C   LIG d   1       7.785  -4.228  -9.094  0.00  0.00    -0.039 C 
ATOM     28  C   LIG d   1       8.474  -2.839  -9.221  0.00  0.00    -0.035 C 
ATOM     29  H   LIG d   1       5.515  -0.084  -2.094  0.00  0.00     0.062 H 
ATOM     30  H   LIG d   1       7.422   0.035  -5.906  0.00  0.00     0.062 H 
ATOM     31  H   LIG d   1       3.383  -3.373  -5.151  0.00  0.00     0.155 HD
ATOM     32  H   LIG d   1       4.050  -3.353  -9.510  0.00  0.00     0.062 H 
ATOM     33  H   LIG d   1       1.748  -3.231 -10.384  0.00  0.00     0.062 H 
ATOM     34  H   LIG d   1       0.451  -1.153 -10.140  0.00  0.00     0.062 H 
ATOM     35  H   LIG d   1       1.439   0.798  -9.027  0.00  0.00     0.064 H 
ATOM     36  H   LIG d   1       3.773   1.687  -7.770  0.00  0.00     0.155 HD
ATOM     37  H   LIG d   1       6.440  -4.857  -7.506  0.00  0.00     0.043 H 
ATOM     38  H   LIG d   1       5.675  -3.825  -8.752  0.00  0.00     0.043 H 
ATOM     39  H   LIG d   1       8.471  -4.950  -8.653  0.00  0.00     0.028 H 
ATOM     40  H   LIG d   1       7.449  -4.573 -10.073  0.00  0.00     0.028 H 
ATOM     41  H   LIG d   1       8.454  -2.490 -10.254  0.00  0.00     0.028 H 
ATOM     42  H   LIG d   1       9.502  -2.890  -8.861  0.00  0.00     0.028 H 
ENDROOT
BRANCH  21  43
ATOM     43  C   LIG d   1       6.092  -2.184 -10.287  0.00  0.00     0.169 C 
ATOM     44  O   LIG d   1       5.681  -3.297 -10.033  0.00  0.00    -0.292 OA
BRANCH  43  45
ATOM     45  C   LIG d   1       6.178  -1.733 -11.681  0.00  0.00     0.021 A 
ATOM     46  C   LIG d   1       5.016  -1.380 -12.378  0.00  0.00    -0.006 A 
ATOM     47  C   LIG d   1       5.104  -0.952 -13.687  0.00  0.00     0.162 A 
ATOM     48  H   LIG d   1       4.053  -1.437 -11.891  0.00  0.00     0.066 H 
ATOM     49  C   LIG d   1       6.346  -0.883 -14.317  0.00  0.00     0.162 A 
ATOM     50  C   LIG d   1       7.498  -1.239 -13.629  0.00  0.00    -0.016 A 
ATOM     51  C   LIG d   1       7.422  -1.660 -12.321  0.00  0.00    -0.048 A 
ATOM     52  H   LIG d   1       8.458  -1.183 -14.121  0.00  0.00     0.066 H 
ATOM     53  H   LIG d   1       8.319  -1.936 -11.788  0.00  0.00     0.063 H 
BRANCH  47  54
ATOM     54  O   LIG d   1       3.977  -0.602 -14.365  0.00  0.00    -0.491 OA
BRANCH  54  55
ATOM     55  C   LIG d   1       3.130  -1.664 -14.808  0.00  0.00     0.079 C 
ATOM     56  H   LIG d   1       3.503  -2.612 -14.421  0.00  0.00     0.066 H 
ATOM     57  H   LIG d   1       2.117  -1.496 -14.442  0.00  0.00     0.066 H 
ATOM     58  H   LIG d   1       3.123  -1.692 -15.898  0.00  0.00     0.066 H 
ENDBRANCH  54  55
ENDBRANCH  47  54
BRANCH  49  59
ATOM     59  O   LIG d   1       6.429  -0.466 -15.606  0.00  0.00    -0.491 OA
BRANCH  59  60
ATOM     60  C   LIG d   1       7.602   0.257 -15.981  0.00  0.00     0.079 C 
ATOM     61  H   LIG d   1       7.595   0.430 -17.058  0.00  0.00     0.066 H 
ATOM     62  H   LIG d   1       7.622   1.214 -15.459  0.00  0.00     0.066 H 
ATOM     63  H   LIG d   1       8.487  -0.321 -15.713  0.00  0.00     0.066 H 
ENDBRANCH  59  60
ENDBRANCH  49  59
ENDBRANCH  43  45
ENDBRANCH  21  43
BRANCH   3  64
ATOM     64  C   LIG d   1       3.697  -1.994  -2.637  0.00  0.00    -0.038 C 
ATOM     65  H   LIG d   1       2.771  -1.431  -2.750  0.00  0.00     0.028 H 
ATOM     66  H   LIG d   1       3.518  -3.040  -2.890  0.00  0.00     0.028 H 
ATOM     67  H   LIG d   1       4.043  -1.922  -1.607  0.00  0.00     0.028 H 
ENDBRANCH   3  64
BRANCH   1  68
ATOM     68  C   LIG d   1       7.497   1.156  -3.447  0.00  0.00    -0.040 C 
ATOM     69  H   LIG d   1       7.953   0.833  -2.511  0.00  0.00     0.028 H 
ATOM     70  H   LIG d   1       8.275   1.336  -4.187  0.00  0.00     0.028 H 
ATOM     71  H   LIG d   1       6.935   2.074  -3.279  0.00  0.00     0.028 H 
ENDBRANCH   1  68
TORSDOF 8
ENDMDL
MODEL 7
REMARK VINA RESULT:      -6.3      3.789      6.991
REMARK  8 active torsions:
REMARK  status: ('A' for Active; 'I' for Inactive)
REMARK    1  A    between atoms: C_1  and  C_2 
REMARK    2  A    between atoms: C_4  and  C_42 
REMARK    3  A    between atoms: C_22  and  C_30 
REMARK    4  A    between atoms: C_30  and  C_32 
REMARK    5  A    between atoms: C_35  and  O_40 
REMARK    6  A    between atoms: C_36  and  O_38 
REMARK    7  A    between atoms: O_38  and  C_39 
REMARK    8  A    between atoms: O_40  and  C_41 
ROOT
ATOM      1  C   LIG d   1       8.103  -1.237 -13.524  0.00  0.00    -0.050 A 
ATOM      2  C   LIG d   1       7.496  -1.515 -14.735  0.00  0.00    -0.054 A 
ATOM      3  C   LIG d   1       6.121  -1.477 -14.850  0.00  0.00    -0.029 A 
ATOM      4  C   LIG d   1       5.335  -1.160 -13.746  0.00  0.00     0.042 A 
ATOM      5  C   LIG d   1       5.957  -0.882 -12.533  0.00  0.00     0.005 A 
ATOM      6  C   LIG d   1       7.328  -0.926 -12.421  0.00  0.00    -0.052 A 
ATOM      7  C   LIG d   1       4.850  -0.581 -11.558  0.00  0.00     0.145 A 
ATOM      8  C   LIG d   1       3.583  -0.722 -12.361  0.00  0.00     0.244 A 
ATOM      9  O   LIG d   1       2.450  -0.563 -11.957  0.00  0.00    -0.273 OA
ATOM     10  N   LIG d   1       3.948  -1.059 -13.611  0.00  0.00    -0.283 N 
ATOM     11  C   LIG d   1       4.870  -1.547 -10.378  0.00  0.00     0.116 A 
ATOM     12  C   LIG d   1       3.616  -2.371 -10.304  0.00  0.00    -0.008 A 
ATOM     13  C   LIG d   1       2.280  -2.056 -10.194  0.00  0.00    -0.056 A 
ATOM     14  C   LIG d   1       1.332  -3.063 -10.148  0.00  0.00    -0.061 A 
ATOM     15  C   LIG d   1       1.730  -4.385 -10.213  0.00  0.00    -0.060 A 
ATOM     16  C   LIG d   1       3.067  -4.706 -10.324  0.00  0.00    -0.040 A 
ATOM     17  C   LIG d   1       4.028  -3.699 -10.371  0.00  0.00     0.038 A 
ATOM     18  N   LIG d   1       5.419  -3.768 -10.479  0.00  0.00    -0.284 N 
ATOM     19  C   LIG d   1       5.988  -2.548 -10.491  0.00  0.00     0.231 A 
ATOM     20  O   LIG d   1       7.172  -2.303 -10.578  0.00  0.00    -0.274 OA
ATOM     21  C   LIG d   1       5.035  -0.673  -9.123  0.00  0.00     0.058 C 
ATOM     22  H   LIG d   1       5.720  -1.141  -8.415  0.00  0.00     0.041 H 
ATOM     23  C   LIG d   1       5.642   0.635  -9.688  0.00  0.00     0.023 C 
ATOM     24  H   LIG d   1       6.728   0.593  -9.761  0.00  0.00     0.047 H 
ATOM     25  N   LIG d   1       4.980   0.786 -11.020  0.00  0.00    -0.281 N 
ATOM     26  C   LIG d   1       3.636   1.328 -10.714  0.00  0.00     0.001 C 
ATOM     27  C   LIG d   1       3.844   2.296  -9.533  0.00  0.00    -0.039 C 
ATOM     28  C   LIG d   1       5.155   1.823  -8.841  0.00  0.00    -0.035 C 
ATOM     29  H   LIG d   1       8.100  -1.762 -15.596  0.00  0.00     0.062 H 
ATOM     30  H   LIG d   1       7.800  -0.713 -11.473  0.00  0.00     0.062 H 
ATOM     31  H   LIG d   1       3.322  -1.212 -14.336  0.00  0.00     0.155 HD
ATOM     32  H   LIG d   1       1.972  -1.021 -10.143  0.00  0.00     0.062 H 
ATOM     33  H   LIG d   1       0.284  -2.816 -10.061  0.00  0.00     0.062 H 
ATOM     34  H   LIG d   1       0.990  -5.172 -10.177  0.00  0.00     0.062 H 
ATOM     35  H   LIG d   1       3.369  -5.742 -10.375  0.00  0.00     0.064 H 
ATOM     36  H   LIG d   1       5.916  -4.598 -10.538  0.00  0.00     0.155 HD
ATOM     37  H   LIG d   1       3.239   1.865 -11.576  0.00  0.00     0.043 H 
ATOM     38  H   LIG d   1       2.960   0.522 -10.427  0.00  0.00     0.043 H 
ATOM     39  H   LIG d   1       3.957   3.318  -9.896  0.00  0.00     0.028 H 
ATOM     40  H   LIG d   1       3.007   2.231  -8.837  0.00  0.00     0.028 H 
ATOM     41  H   LIG d   1       4.959   1.501  -7.818  0.00  0.00     0.028 H 
ATOM     42  H   LIG d   1       5.899   2.620  -8.849  0.00  0.00     0.028 H 
ENDROOT
BRANCH  21  43
ATOM     43  C   LIG d   1       3.701  -0.410  -8.476  0.00  0.00     0.169 C 
ATOM     44  O   LIG d   1       2.717  -0.231  -9.164  0.00  0.00    -0.292 OA
BRANCH  43  45
ATOM     45  C   LIG d   1       3.589  -0.373  -7.012  0.00  0.00     0.021 A 
ATOM     46  C   LIG d   1       4.452  -1.144  -6.223  0.00  0.00    -0.006 A 
ATOM     47  C   LIG d   1       4.345  -1.101  -4.847  0.00  0.00     0.162 A 
ATOM     48  H   LIG d   1       5.202  -1.766  -6.688  0.00  0.00     0.066 H 
ATOM     49  C   LIG d   1       3.373  -0.301  -4.247  0.00  0.00     0.162 A 
ATOM     50  C   LIG d   1       2.514   0.459  -5.029  0.00  0.00    -0.016 A 
ATOM     51  C   LIG d   1       2.617   0.428  -6.402  0.00  0.00    -0.048 A 
ATOM     52  H   LIG d   1       1.763   1.077  -4.560  0.00  0.00     0.066 H 
ATOM     53  H   LIG d   1       1.947   1.020  -7.008  0.00  0.00     0.063 H 
BRANCH  47  54
ATOM     54  O   LIG d   1       5.185  -1.843  -4.077  0.00  0.00    -0.491 OA
BRANCH  54  55
ATOM     55  C   LIG d   1       6.587  -1.629  -4.254  0.00  0.00     0.079 C 
ATOM     56  H   LIG d   1       6.906  -0.782  -3.647  0.00  0.00     0.066 H 
ATOM     57  H   LIG d   1       7.132  -2.523  -3.947  0.00  0.00     0.066 H 
ATOM     58  H   LIG d   1       6.793  -1.422  -5.304  0.00  0.00     0.066 H 
ENDBRANCH  54  55
ENDBRANCH  47  54
BRANCH  49  59
ATOM     59  O   LIG d   1       3.267  -0.265  -2.894  0.00  0.00    -0.491 OA
BRANCH  59  60
ATOM     60  C   LIG d   1       3.882   0.837  -2.224  0.00  0.00     0.079 C 
ATOM     61  H   LIG d   1       4.842   0.523  -1.813  0.00  0.00     0.066 H 
ATOM     62  H   LIG d   1       4.039   1.652  -2.932  0.00  0.00     0.066 H 
ATOM     63  H   LIG d   1       3.235   1.179  -1.416  0.00  0.00     0.066 H 
ENDBRANCH  59  60
ENDBRANCH  49  59
ENDBRANCH  43  45
ENDBRANCH  21  43
BRANCH   3  64
ATOM     64  C   LIG d   1       5.470  -1.782 -16.175  0.00  0.00    -0.038 C 
ATOM     65  H   LIG d   1       5.035  -2.781 -16.145  0.00  0.00     0.028 H 
ATOM     66  H   LIG d   1       4.685  -1.051 -16.370  0.00  0.00     0.028 H 
ATOM     67  H   LIG d   1       6.217  -1.734 -16.966  0.00  0.00     0.028 H 
ENDBRANCH   3  64
BRANCH   1  68
ATOM     68  C   LIG d   1       9.605  -1.279 -13.405  0.00  0.00    -0.040 C 
ATOM     69  H   LIG d   1       9.963  -2.270 -13.685  0.00  0.00     0.028 H 
ATOM     70  H   LIG d   1      10.043  -0.534 -14.069  0.00  0.00     0.028 H 
ATOM     71  H   LIG d   1       9.894  -1.065 -12.377  0.00  0.00     0.028 H 
ENDBRANCH   1  68
TORSDOF 8
ENDMDL
MODEL 8
REMARK VINA RESULT:      -6.3      2.171      7.766
REMARK  8 active torsions:
REMARK  status: ('A' for Active; 'I' for Inactive)
REMARK    1  A    between atoms: C_1  and  C_2 
REMARK    2  A    between atoms: C_4  and  C_42 
REMARK    3  A    between atoms: C_22  and  C_30 
REMARK    4  A    between atoms: C_30  and  C_32 
REMARK    5  A    between atoms: C_35  and  O_40 
REMARK    6  A    between atoms: C_36  and  O_38 
REMARK    7  A    between atoms: O_38  and  C_39 
REMARK    8  A    between atoms: O_40  and  C_41 
ROOT
ATOM      1  C   LIG d   1       9.822  -5.282  -3.271  0.00  0.00    -0.050 A 
ATOM      2  C   LIG d   1      11.125  -4.829  -3.366  0.00  0.00    -0.054 A 
ATOM      3  C   LIG d   1      11.389  -3.556  -3.829  0.00  0.00    -0.029 A 
ATOM      4  C   LIG d   1      10.342  -2.717  -4.204  0.00  0.00     0.042 A 
ATOM      5  C   LIG d   1       9.035  -3.184  -4.104  0.00  0.00     0.005 A 
ATOM      6  C   LIG d   1       8.777  -4.456  -3.647  0.00  0.00    -0.052 A 
ATOM      7  C   LIG d   1       8.154  -2.058  -4.576  0.00  0.00     0.145 A 
ATOM      8  C   LIG d   1       9.110  -0.949  -4.936  0.00  0.00     0.244 A 
ATOM      9  O   LIG d   1       8.816   0.148  -5.363  0.00  0.00    -0.273 OA
ATOM     10  N   LIG d   1      10.351  -1.409  -4.695  0.00  0.00    -0.283 N 
ATOM     11  C   LIG d   1       7.313  -2.476  -5.776  0.00  0.00     0.116 A 
ATOM     12  C   LIG d   1       7.632  -1.663  -6.998  0.00  0.00    -0.008 A 
ATOM     13  C   LIG d   1       7.596  -0.315  -7.276  0.00  0.00    -0.056 A 
ATOM     14  C   LIG d   1       7.957   0.144  -8.531  0.00  0.00    -0.061 A 
ATOM     15  C   LIG d   1       8.356  -0.754  -9.503  0.00  0.00    -0.060 A 
ATOM     16  C   LIG d   1       8.394  -2.107  -9.230  0.00  0.00    -0.040 A 
ATOM     17  C   LIG d   1       8.031  -2.577  -7.970  0.00  0.00     0.038 A 
ATOM     18  N   LIG d   1       7.986  -3.876  -7.459  0.00  0.00    -0.284 N 
ATOM     19  C   LIG d   1       7.576  -3.903  -6.176  0.00  0.00     0.231 A 
ATOM     20  O   LIG d   1       7.445  -4.886  -5.479  0.00  0.00    -0.274 OA
ATOM     21  C   LIG d   1       5.848  -2.285  -5.348  0.00  0.00     0.058 C 
ATOM     22  H   LIG d   1       5.229  -3.106  -5.711  0.00  0.00     0.041 H 
ATOM     23  C   LIG d   1       5.932  -2.305  -3.802  0.00  0.00     0.023 C 
ATOM     24  H   LIG d   1       5.883  -3.315  -3.395  0.00  0.00     0.047 H 
ATOM     25  N   LIG d   1       7.232  -1.628  -3.509  0.00  0.00    -0.281 N 
ATOM     26  C   LIG d   1       6.946  -0.181  -3.655  0.00  0.00     0.001 C 
ATOM     27  C   LIG d   1       5.518   0.010  -3.105  0.00  0.00    -0.039 C 
ATOM     28  C   LIG d   1       4.841  -1.386  -3.226  0.00  0.00    -0.035 C 
ATOM     29  H   LIG d   1      11.942  -5.474  -3.077  0.00  0.00     0.062 H 
ATOM     30  H   LIG d   1       7.759  -4.809  -3.577  0.00  0.00     0.062 H 
ATOM     31  H   LIG d   1      11.159  -0.893  -4.842  0.00  0.00     0.155 HD
ATOM     32  H   LIG d   1       7.284   0.384  -6.514  0.00  0.00     0.062 H 
ATOM     33  H   LIG d   1       7.930   1.201  -8.749  0.00  0.00     0.062 H 
ATOM     34  H   LIG d   1       8.638  -0.397 -10.483  0.00  0.00     0.062 H 
ATOM     35  H   LIG d   1       8.706  -2.801  -9.995  0.00  0.00     0.064 H 
ATOM     36  H   LIG d   1       8.224  -4.666  -7.968  0.00  0.00     0.155 HD
ATOM     37  H   LIG d   1       7.656   0.405  -3.072  0.00  0.00     0.043 H 
ATOM     38  H   LIG d   1       6.987   0.108  -4.705  0.00  0.00     0.043 H 
ATOM     39  H   LIG d   1       5.553   0.322  -2.062  0.00  0.00     0.028 H 
ATOM     40  H   LIG d   1       4.977   0.743  -3.703  0.00  0.00     0.028 H 
ATOM     41  H   LIG d   1       3.987  -1.345  -3.902  0.00  0.00     0.028 H 
ATOM     42  H   LIG d   1       4.528  -1.744  -2.244  0.00  0.00     0.028 H 
ENDROOT
BRANCH  21  43
ATOM     43  C   LIG d   1       5.317  -0.963  -5.839  0.00  0.00     0.169 C 
ATOM     44  O   LIG d   1       5.664   0.068  -5.302  0.00  0.00    -0.292 OA
BRANCH  43  45
ATOM     45  C   LIG d   1       4.380  -0.922  -6.970  0.00  0.00     0.021 A 
ATOM     46  C   LIG d   1       3.828   0.298  -7.380  0.00  0.00    -0.006 A 
ATOM     47  C   LIG d   1       2.952   0.330  -8.446  0.00  0.00     0.162 A 
ATOM     48  H   LIG d   1       4.090   1.211  -6.867  0.00  0.00     0.066 H 
ATOM     49  C   LIG d   1       2.609  -0.851  -9.104  0.00  0.00     0.162 A 
ATOM     50  C   LIG d   1       3.152  -2.061  -8.694  0.00  0.00    -0.016 A 
ATOM     51  C   LIG d   1       4.032  -2.103  -7.636  0.00  0.00    -0.048 A 
ATOM     52  H   LIG d   1       2.884  -2.973  -9.207  0.00  0.00     0.066 H 
ATOM     53  H   LIG d   1       4.452  -3.046  -7.319  0.00  0.00     0.063 H 
BRANCH  47  54
ATOM     54  O   LIG d   1       2.418   1.514  -8.852  0.00  0.00    -0.491 OA
BRANCH  54  55
ATOM     55  C   LIG d   1       3.334   2.540  -9.239  0.00  0.00     0.079 C 
ATOM     56  H   LIG d   1       3.021   3.490  -8.807  0.00  0.00     0.066 H 
ATOM     57  H   LIG d   1       4.333   2.289  -8.880  0.00  0.00     0.066 H 
ATOM     58  H   LIG d   1       3.349   2.621 -10.326  0.00  0.00     0.066 H 
ENDBRANCH  54  55
ENDBRANCH  47  54
BRANCH  49  59
ATOM     59  O   LIG d   1       1.744  -0.817 -10.149  0.00  0.00    -0.491 OA
BRANCH  59  60
ATOM     60  C   LIG d   1       2.309  -0.839 -11.461  0.00  0.00     0.079 C 
ATOM     61  H   LIG d   1       1.646  -1.386 -12.134  0.00  0.00     0.066 H 
ATOM     62  H   LIG d   1       2.431   0.182 -11.823  0.00  0.00     0.066 H 
ATOM     63  H   LIG d   1       3.280  -1.332 -11.431  0.00  0.00     0.066 H 
ENDBRANCH  59  60
ENDBRANCH  49  59
ENDBRANCH  43  45
ENDBRANCH  21  43
BRANCH   3  64
ATOM     64  C   LIG d   1      12.812  -3.073  -3.929  0.00  0.00    -0.038 C 
ATOM     65  H   LIG d   1      12.850  -2.006  -3.709  0.00  0.00     0.028 H 
ATOM     66  H   LIG d   1      13.430  -3.612  -3.211  0.00  0.00     0.028 H 
ATOM     67  H   LIG d   1      13.186  -3.250  -4.937  0.00  0.00     0.028 H 
ENDBRANCH   3  64
BRANCH   1  68
ATOM     68  C   LIG d   1       9.542  -6.673  -2.764  0.00  0.00    -0.040 C 
ATOM     69  H   LIG d   1      10.466  -7.251  -2.760  0.00  0.00     0.028 H 
ATOM     70  H   LIG d   1       9.144  -6.618  -1.752  0.00  0.00     0.028 H 
ATOM     71  H   LIG d   1       8.814  -7.157  -3.415  0.00  0.00     0.028 H 
ENDBRANCH   1  68
TORSDOF 8
ENDMDL
MODEL 9
REMARK VINA RESULT:      -6.1      2.758      4.757
REMARK  8 active torsions:
REMARK  status: ('A' for Active; 'I' for Inactive)
REMARK    1  A    between atoms: C_1  and  C_2 
REMARK    2  A    between atoms: C_4  and  C_42 
REMARK    3  A    between atoms: C_22  and  C_30 
REMARK    4  A    between atoms: C_30  and  C_32 
REMARK    5  A    between atoms: C_35  and  O_40 
REMARK    6  A    between atoms: C_36  and  O_38 
REMARK    7  A    between atoms: O_38  and  C_39 
REMARK    8  A    between atoms: O_40  and  C_41 
ROOT
ATOM      1  C   LIG d   1       3.202  -0.437  -4.291  0.00  0.00    -0.050 A 
ATOM      2  C   LIG d   1       2.679   0.253  -5.369  0.00  0.00    -0.054 A 
ATOM      3  C   LIG d   1       3.374   0.316  -6.559  0.00  0.00    -0.029 A 
ATOM      4  C   LIG d   1       4.610  -0.316  -6.683  0.00  0.00     0.042 A 
ATOM      5  C   LIG d   1       5.125  -1.007  -5.591  0.00  0.00     0.005 A 
ATOM      6  C   LIG d   1       4.430  -1.063  -4.404  0.00  0.00    -0.052 A 
ATOM      7  C   LIG d   1       6.448  -1.567  -6.041  0.00  0.00     0.145 A 
ATOM      8  C   LIG d   1       6.591  -1.112  -7.470  0.00  0.00     0.244 A 
ATOM      9  O   LIG d   1       7.520  -1.347  -8.214  0.00  0.00    -0.273 OA
ATOM     10  N   LIG d   1       5.490  -0.396  -7.764  0.00  0.00    -0.283 N 
ATOM     11  C   LIG d   1       7.593  -1.049  -5.177  0.00  0.00     0.116 A 
ATOM     12  C   LIG d   1       8.579  -0.243  -5.974  0.00  0.00    -0.008 A 
ATOM     13  C   LIG d   1       9.358  -0.518  -7.075  0.00  0.00    -0.056 A 
ATOM     14  C   LIG d   1      10.192   0.457  -7.596  0.00  0.00    -0.061 A 
ATOM     15  C   LIG d   1      10.238   1.707  -7.008  0.00  0.00    -0.060 A 
ATOM     16  C   LIG d   1       9.458   1.989  -5.905  0.00  0.00    -0.040 A 
ATOM     17  C   LIG d   1       8.617   1.013  -5.374  0.00  0.00     0.038 A 
ATOM     18  N   LIG d   1       7.747   1.053  -4.282  0.00  0.00    -0.284 N 
ATOM     19  C   LIG d   1       7.107  -0.118  -4.100  0.00  0.00     0.231 A 
ATOM     20  O   LIG d   1       6.295  -0.371  -3.237  0.00  0.00    -0.274 OA
ATOM     21  C   LIG d   1       8.257  -2.296  -4.570  0.00  0.00     0.058 C 
ATOM     22  H   LIG d   1       8.528  -2.121  -3.528  0.00  0.00     0.041 H 
ATOM     23  C   LIG d   1       7.145  -3.368  -4.672  0.00  0.00     0.023 C 
ATOM     24  H   LIG d   1       6.470  -3.351  -3.816  0.00  0.00     0.047 H 
ATOM     25  N   LIG d   1       6.453  -3.039  -5.956  0.00  0.00    -0.281 N 
ATOM     26  C   LIG d   1       7.334  -3.593  -7.011  0.00  0.00     0.001 C 
ATOM     27  C   LIG d   1       7.893  -4.906  -6.429  0.00  0.00    -0.039 C 
ATOM     28  C   LIG d   1       7.791  -4.747  -4.884  0.00  0.00    -0.035 C 
ATOM     29  H   LIG d   1       1.722   0.745  -5.281  0.00  0.00     0.062 H 
ATOM     30  H   LIG d   1       4.843  -1.599  -3.561  0.00  0.00     0.062 H 
ATOM     31  H   LIG d   1       5.326   0.017  -8.626  0.00  0.00     0.155 HD
ATOM     32  H   LIG d   1       9.320  -1.496  -7.532  0.00  0.00     0.062 H 
ATOM     33  H   LIG d   1      10.803   0.241  -8.459  0.00  0.00     0.062 H 
ATOM     34  H   LIG d   1      10.888   2.468  -7.414  0.00  0.00     0.062 H 
ATOM     35  H   LIG d   1       9.500   2.968  -5.452  0.00  0.00     0.064 H 
ATOM     36  H   LIG d   1       7.619   1.833  -3.722  0.00  0.00     0.155 HD
ATOM     37  H   LIG d   1       6.760  -3.795  -7.916  0.00  0.00     0.043 H 
ATOM     38  H   LIG d   1       8.147  -2.899  -7.226  0.00  0.00     0.043 H 
ATOM     39  H   LIG d   1       7.293  -5.753  -6.761  0.00  0.00     0.028 H 
ATOM     40  H   LIG d   1       8.933  -5.040  -6.726  0.00  0.00     0.028 H 
ATOM     41  H   LIG d   1       8.779  -4.775  -4.427  0.00  0.00     0.028 H 
ATOM     42  H   LIG d   1       7.158  -5.528  -4.463  0.00  0.00     0.028 H 
ENDROOT
BRANCH  21  43
ATOM     43  C   LIG d   1       9.467  -2.701  -5.372  0.00  0.00     0.169 C 
ATOM     44  O   LIG d   1       9.367  -2.895  -6.565  0.00  0.00    -0.292 OA
BRANCH  43  45
ATOM     45  C   LIG d   1      10.768  -2.859  -4.709  0.00  0.00     0.021 A 
ATOM     46  C   LIG d   1      11.696  -1.810  -4.725  0.00  0.00    -0.006 A 
ATOM     47  C   LIG d   1      12.915  -1.963  -4.096  0.00  0.00     0.162 A 
ATOM     48  H   LIG d   1      11.457  -0.882  -5.224  0.00  0.00     0.066 H 
ATOM     49  C   LIG d   1      13.226  -3.163  -3.457  0.00  0.00     0.162 A 
ATOM     50  C   LIG d   1      12.308  -4.205  -3.446  0.00  0.00    -0.016 A 
ATOM     51  C   LIG d   1      11.087  -4.060  -4.064  0.00  0.00    -0.048 A 
ATOM     52  H   LIG d   1      12.553  -5.133  -2.949  0.00  0.00     0.066 H 
ATOM     53  H   LIG d   1      10.375  -4.872  -4.054  0.00  0.00     0.063 H 
BRANCH  47  54
ATOM     54  O   LIG d   1      13.817  -0.944  -4.104  0.00  0.00    -0.491 OA
BRANCH  54  55
ATOM     55  C   LIG d   1      13.347   0.341  -3.693  0.00  0.00     0.079 C 
ATOM     56  H   LIG d   1      13.255   0.990  -4.564  0.00  0.00     0.066 H 
ATOM     57  H   LIG d   1      12.373   0.235  -3.214  0.00  0.00     0.066 H 
ATOM     58  H   LIG d   1      14.054   0.778  -2.987  0.00  0.00     0.066 H 
ENDBRANCH  54  55
ENDBRANCH  47  54
BRANCH  49  59
ATOM     59  O   LIG d   1      14.427  -3.312  -2.844  0.00  0.00    -0.491 OA
BRANCH  59  60
ATOM     60  C   LIG d   1      15.117  -4.545  -3.059  0.00  0.00     0.079 C 
ATOM     61  H   LIG d   1      15.595  -4.861  -2.130  0.00  0.00     0.066 H 
ATOM     62  H   LIG d   1      14.408  -5.308  -3.380  0.00  0.00     0.066 H 
ATOM     63  H   LIG d   1      15.876  -4.408  -3.828  0.00  0.00     0.066 H 
ENDBRANCH  59  60
ENDBRANCH  49  59
ENDBRANCH  43  45
ENDBRANCH  21  43
BRANCH   3  64
ATOM     64  C   LIG d   1       2.796   1.070  -7.728  0.00  0.00    -0.038 C 
ATOM     65  H   LIG d   1       1.977   0.496  -8.163  0.00  0.00     0.028 H 
ATOM     66  H   LIG d   1       2.419   2.035  -7.387  0.00  0.00     0.028 H 
ATOM     67  H   LIG d   1       3.569   1.226  -8.479  0.00  0.00     0.028 H 
ENDBRANCH   3  64
BRANCH   1  68
ATOM     68  C   LIG d   1       2.437  -0.502  -2.994  0.00  0.00    -0.040 C 
ATOM     69  H   LIG d   1       3.083  -0.186  -2.175  0.00  0.00     0.028 H 
ATOM     70  H   LIG d   1       1.571   0.157  -3.049  0.00  0.00     0.028 H 
ATOM     71  H   LIG d   1       2.103  -1.525  -2.820  0.00  0.00     0.028 H 
ENDBRANCH   1  68
TORSDOF 8
ENDMDL
