MODEL 1
REMARK VINA RESULT:      -6.6      0.000      0.000
REMARK  11 active torsions:
REMARK  status: ('A' for Active; 'I' for Inactive)
REMARK    1  A    between atoms: C_1  and  C_2 
REMARK    2  A    between atoms: C_5  and  C_31 
REMARK    3  A    between atoms: C_8  and  C_30 
REMARK    4  A    between atoms: C_10  and  C_22 
REMARK    5  A    between atoms: C_13  and  C_15 
REMARK    6  A    between atoms: C_20  and  O_21 
REMARK    7  A    between atoms: C_22  and  O_23 
REMARK    8  A    between atoms: O_23  and  C_24 
REMARK       I    between atoms: C_24  and  N_26 
REMARK    9  A    between atoms: N_26  and  C_27 
REMARK   10  A    between atoms: C_27  and  C_28 
REMARK   11  A    between atoms: C_27  and  C_29 
ROOT
ATOM      1  C   LIG d   1       8.551  -1.643  -6.400  0.00  0.00    -0.014 C 
ATOM      2  H   LIG d   1       9.222  -0.801  -6.570  0.00  0.00     0.035 H 
ATOM      3  C   LIG d   1       9.118  -2.511  -5.319  0.00  0.00    -0.081 C 
ATOM      4  C   LIG d   1       8.452  -2.950  -4.300  0.00  0.00    -0.070 C 
ATOM      5  C   LIG d   1       7.003  -2.615  -4.057  0.00  0.00     0.014 C 
ATOM      6  H   LIG d   1       6.487  -3.450  -3.582  0.00  0.00     0.038 H 
ATOM      7  C   LIG d   1       6.345  -2.261  -5.399  0.00  0.00    -0.023 C 
ATOM      8  H   LIG d   1       6.344  -3.133  -6.052  0.00  0.00     0.031 H 
ATOM      9  C   LIG d   1       7.173  -1.114  -6.019  0.00  0.00     0.037 C 
ATOM     10  C   LIG d   1       7.274   0.065  -5.060  0.00  0.00     0.058 C 
ATOM     11  O   LIG d   1       7.758  -0.352  -3.785  0.00  0.00    -0.371 OA
ATOM     12  C   LIG d   1       6.961  -1.365  -3.159  0.00  0.00     0.094 C 
ATOM     13  H   LIG d   1       7.371  -1.603  -2.177  0.00  0.00     0.065 H 
ATOM     14  H   LIG d   1      10.158  -2.793  -5.396  0.00  0.00     0.058 H 
ATOM     15  H   LIG d   1       7.954   0.807  -5.476  0.00  0.00     0.057 H 
ATOM     16  H   LIG d   1       6.287   0.512  -4.940  0.00  0.00     0.057 H 
ENDROOT
BRANCH   9  17
ATOM     17  C   LIG d   1       6.464  -0.633  -7.287  0.00  0.00     0.102 C 
ATOM     18  H   LIG d   1       6.581  -1.379  -8.073  0.00  0.00     0.070 H 
ATOM     19  H   LIG d   1       5.405  -0.487  -7.077  0.00  0.00     0.070 H 
BRANCH  17  20
ATOM     20  O   LIG d   1       7.040   0.603  -7.715  0.00  0.00    -0.450 OA
BRANCH  20  21
ATOM     21  C   LIG d   1       6.266   1.410  -8.465  0.00  0.00     0.401 C 
ATOM     22  O   LIG d   1       6.767   2.330  -9.082  0.00  0.00    -0.227 OA
ATOM     23  N   LIG d   1       4.937   1.199  -8.531  0.00  0.00    -0.279 N 
ATOM     24  H   LIG d   1       4.537   0.465  -8.039  0.00  0.00     0.152 HD
BRANCH  23  25
ATOM     25  C   LIG d   1       4.095   2.077  -9.348  0.00  0.00     0.021 C 
ATOM     26  H   LIG d   1       4.601   3.032  -9.492  0.00  0.00     0.049 H 
BRANCH  25  27
ATOM     27  C   LIG d   1       3.843   1.422 -10.707  0.00  0.00    -0.047 C 
ATOM     28  H   LIG d   1       3.665   2.195 -11.455  0.00  0.00     0.025 H 
ATOM     29  H   LIG d   1       4.713   0.833 -10.995  0.00  0.00     0.025 H 
ATOM     30  H   LIG d   1       2.970   0.773 -10.641  0.00  0.00     0.025 H 
ENDBRANCH  25  27
BRANCH  25  31
ATOM     31  C   LIG d   1       2.761   2.310  -8.638  0.00  0.00    -0.047 C 
ATOM     32  H   LIG d   1       2.146   2.987  -9.231  0.00  0.00     0.025 H 
ATOM     33  H   LIG d   1       2.242   1.358  -8.519  0.00  0.00     0.025 H 
ATOM     34  H   LIG d   1       2.942   2.750  -7.657  0.00  0.00     0.025 H 
ENDBRANCH  25  31
ENDBRANCH  23  25
ENDBRANCH  20  21
ENDBRANCH  17  20
ENDBRANCH   9  17
BRANCH   1  35
ATOM     35  C   LIG d   1       8.436  -2.458  -7.689  0.00  0.00    -0.058 C 
ATOM     36  H   LIG d   1       9.201  -3.235  -7.697  0.00  0.00     0.024 H 
ATOM     37  H   LIG d   1       7.449  -2.920  -7.740  0.00  0.00     0.024 H 
ATOM     38  H   LIG d   1       8.575  -1.803  -8.548  0.00  0.00     0.024 H 
ENDBRANCH   1  35
BRANCH   7  39
ATOM     39  C   LIG d   1       4.909  -1.788  -5.164  0.00  0.00    -0.061 C 
ATOM     40  H   LIG d   1       4.885  -0.699  -5.135  0.00  0.00     0.023 H 
ATOM     41  H   LIG d   1       4.272  -2.144  -5.974  0.00  0.00     0.023 H 
ATOM     42  H   LIG d   1       4.546  -2.185  -4.215  0.00  0.00     0.023 H 
ENDBRANCH   7  39
BRANCH   4  43
ATOM     43  C   LIG d   1       9.159  -3.840  -3.309  0.00  0.00    -0.043 C 
ATOM     44  H   LIG d   1      10.211  -3.924  -3.583  0.00  0.00     0.027 H 
ATOM     45  H   LIG d   1       9.077  -3.408  -2.312  0.00  0.00     0.027 H 
ATOM     46  H   LIG d   1       8.700  -4.828  -3.317  0.00  0.00     0.027 H 
ENDBRANCH   4  43
BRANCH  12  47
ATOM     47  C   LIG d   1       5.540  -0.885  -3.018  0.00  0.00     0.023 A 
ATOM     48  C   LIG d   1       5.273   0.471  -2.910  0.00  0.00     0.122 A 
ATOM     49  C   LIG d   1       3.962   0.910  -2.785  0.00  0.00    -0.020 A 
ATOM     50  C   LIG d   1       2.928  -0.005  -2.757  0.00  0.00    -0.058 A 
ATOM     51  H   LIG d   1       3.751   1.966  -2.705  0.00  0.00     0.065 H 
ATOM     52  C   LIG d   1       3.197  -1.357  -2.860  0.00  0.00    -0.061 A 
ATOM     53  H   LIG d   1       1.909   0.336  -2.657  0.00  0.00     0.062 H 
ATOM     54  C   LIG d   1       4.502  -1.798  -2.990  0.00  0.00    -0.053 A 
ATOM     55  H   LIG d   1       2.388  -2.072  -2.839  0.00  0.00     0.062 H 
ATOM     56  H   LIG d   1       4.710  -2.854  -3.070  0.00  0.00     0.062 H 
BRANCH  48  57
ATOM     57  O   LIG d   1       6.292   1.370  -2.931  0.00  0.00    -0.506 OA
ATOM     58  H   LIG d   1       7.118   1.036  -2.554  0.00  0.00     0.292 HD
ENDBRANCH  48  57
ENDBRANCH  12  47
TORSDOF 11
ENDMDL
MODEL 2
REMARK VINA RESULT:      -6.6      3.513      5.186
REMARK  11 active torsions:
REMARK  status: ('A' for Active; 'I' for Inactive)
REMARK    1  A    between atoms: C_1  and  C_2 
REMARK    2  A    between atoms: C_5  and  C_31 
REMARK    3  A    between atoms: C_8  and  C_30 
REMARK    4  A    between atoms: C_10  and  C_22 
REMARK    5  A    between atoms: C_13  and  C_15 
REMARK    6  A    between atoms: C_20  and  O_21 
REMARK    7  A    between atoms: C_22  and  O_23 
REMARK    8  A    between atoms: O_23  and  C_24 
REMARK       I    between atoms: C_24  and  N_26 
REMARK    9  A    between atoms: N_26  and  C_27 
REMARK   10  A    between atoms: C_27  and  C_28 
REMARK   11  A    between atoms: C_27  and  C_29 
ROOT
ATOM      1  C   LIG d   1       7.365  -3.510  -5.908  0.00  0.00    -0.014 C 
ATOM      2  H   LIG d   1       7.056  -3.758  -6.923  0.00  0.00     0.035 H 
ATOM      3  C   LIG d   1       8.448  -2.475  -5.964  0.00  0.00    -0.081 C 
ATOM      4  C   LIG d   1       8.466  -1.389  -5.261  0.00  0.00    -0.070 C 
ATOM      5  C   LIG d   1       7.369  -1.010  -4.300  0.00  0.00     0.014 C 
ATOM      6  H   LIG d   1       7.774  -0.474  -3.442  0.00  0.00     0.038 H 
ATOM      7  C   LIG d   1       6.643  -2.287  -3.850  0.00  0.00    -0.023 C 
ATOM      8  H   LIG d   1       7.326  -2.922  -3.287  0.00  0.00     0.031 H 
ATOM      9  C   LIG d   1       6.156  -3.004  -5.129  0.00  0.00     0.037 C 
ATOM     10  C   LIG d   1       5.293  -2.079  -5.976  0.00  0.00     0.058 C 
ATOM     11  O   LIG d   1       5.967  -0.851  -6.243  0.00  0.00    -0.371 OA
ATOM     12  C   LIG d   1       6.364  -0.134  -5.068  0.00  0.00     0.094 C 
ATOM     13  H   LIG d   1       6.836   0.808  -5.351  0.00  0.00     0.065 H 
ATOM     14  H   LIG d   1       9.272  -2.649  -6.638  0.00  0.00     0.058 H 
ATOM     15  H   LIG d   1       5.061  -2.572  -6.920  0.00  0.00     0.057 H 
ATOM     16  H   LIG d   1       4.365  -1.870  -5.444  0.00  0.00     0.057 H 
ENDROOT
BRANCH   9  17
ATOM     17  C   LIG d   1       5.300  -4.204  -4.717  0.00  0.00     0.102 C 
ATOM     18  H   LIG d   1       5.931  -5.089  -4.636  0.00  0.00     0.070 H 
ATOM     19  H   LIG d   1       4.831  -4.002  -3.754  0.00  0.00     0.070 H 
BRANCH  17  20
ATOM     20  O   LIG d   1       4.290  -4.428  -5.702  0.00  0.00    -0.450 OA
BRANCH  20  21
ATOM     21  C   LIG d   1       4.218  -5.663  -6.233  0.00  0.00     0.401 C 
ATOM     22  O   LIG d   1       3.530  -5.862  -7.215  0.00  0.00    -0.227 OA
ATOM     23  N   LIG d   1       4.908  -6.678  -5.676  0.00  0.00    -0.279 N 
ATOM     24  H   LIG d   1       5.457  -6.519  -4.893  0.00  0.00     0.152 HD
BRANCH  23  25
ATOM     25  C   LIG d   1       4.830  -8.022  -6.256  0.00  0.00     0.021 C 
ATOM     26  H   LIG d   1       3.954  -8.088  -6.900  0.00  0.00     0.049 H 
BRANCH  25  27
ATOM     27  C   LIG d   1       6.090  -8.296  -7.078  0.00  0.00    -0.047 C 
ATOM     28  H   LIG d   1       6.546  -7.351  -7.370  0.00  0.00     0.025 H 
ATOM     29  H   LIG d   1       6.797  -8.870  -6.479  0.00  0.00     0.025 H 
ATOM     30  H   LIG d   1       5.826  -8.863  -7.970  0.00  0.00     0.025 H 
ENDBRANCH  25  27
BRANCH  25  31
ATOM     31  C   LIG d   1       4.717  -9.055  -5.133  0.00  0.00    -0.047 C 
ATOM     32  H   LIG d   1       3.666  -9.220  -4.895  0.00  0.00     0.025 H 
ATOM     33  H   LIG d   1       5.168  -9.993  -5.457  0.00  0.00     0.025 H 
ATOM     34  H   LIG d   1       5.236  -8.688  -4.248  0.00  0.00     0.025 H 
ENDBRANCH  25  31
ENDBRANCH  23  25
ENDBRANCH  20  21
ENDBRANCH  17  20
ENDBRANCH   9  17
BRANCH   1  35
ATOM     35  C   LIG d   1       7.909  -4.767  -5.228  0.00  0.00    -0.058 C 
ATOM     36  H   LIG d   1       8.665  -5.226  -5.864  0.00  0.00     0.024 H 
ATOM     37  H   LIG d   1       8.355  -4.499  -4.270  0.00  0.00     0.024 H 
ATOM     38  H   LIG d   1       7.095  -5.474  -5.064  0.00  0.00     0.024 H 
ENDBRANCH   1  35
BRANCH   7  39
ATOM     39  C   LIG d   1       5.441  -1.920  -2.978  0.00  0.00    -0.061 C 
ATOM     40  H   LIG d   1       5.325  -0.835  -2.957  0.00  0.00     0.023 H 
ATOM     41  H   LIG d   1       4.539  -2.372  -3.392  0.00  0.00     0.023 H 
ATOM     42  H   LIG d   1       5.600  -2.288  -1.965  0.00  0.00     0.023 H 
ENDBRANCH   7  39
BRANCH   4  43
ATOM     43  C   LIG d   1       9.642  -0.458  -5.410  0.00  0.00    -0.043 C 
ATOM     44  H   LIG d   1       9.803   0.077  -4.473  0.00  0.00     0.027 H 
ATOM     45  H   LIG d   1      10.534  -1.036  -5.656  0.00  0.00     0.027 H 
ATOM     46  H   LIG d   1       9.441   0.257  -6.207  0.00  0.00     0.027 H 
ENDBRANCH   4  43
BRANCH  12  47
ATOM     47  C   LIG d   1       5.159   0.139  -4.204  0.00  0.00     0.023 A 
ATOM     48  C   LIG d   1       5.287   0.911  -3.059  0.00  0.00     0.122 A 
ATOM     49  C   LIG d   1       4.174   1.163  -2.268  0.00  0.00    -0.020 A 
ATOM     50  C   LIG d   1       2.946   0.638  -2.618  0.00  0.00    -0.058 A 
ATOM     51  H   LIG d   1       4.270   1.768  -1.378  0.00  0.00     0.065 H 
ATOM     52  C   LIG d   1       2.822  -0.135  -3.757  0.00  0.00    -0.061 A 
ATOM     53  H   LIG d   1       2.081   0.832  -2.001  0.00  0.00     0.062 H 
ATOM     54  C   LIG d   1       3.928  -0.385  -4.550  0.00  0.00    -0.053 A 
ATOM     55  H   LIG d   1       1.861  -0.545  -4.030  0.00  0.00     0.062 H 
ATOM     56  H   LIG d   1       3.829  -0.989  -5.439  0.00  0.00     0.062 H 
BRANCH  48  57
ATOM     57  O   LIG d   1       6.497   1.421  -2.713  0.00  0.00    -0.506 OA
ATOM     58  H   LIG d   1       6.518   1.822  -1.833  0.00  0.00     0.292 HD
ENDBRANCH  48  57
ENDBRANCH  12  47
TORSDOF 11
ENDMDL
MODEL 3
REMARK VINA RESULT:      -6.5      2.231      3.279
REMARK  11 active torsions:
REMARK  status: ('A' for Active; 'I' for Inactive)
REMARK    1  A    between atoms: C_1  and  C_2 
REMARK    2  A    between atoms: C_5  and  C_31 
REMARK    3  A    between atoms: C_8  and  C_30 
REMARK    4  A    between atoms: C_10  and  C_22 
REMARK    5  A    between atoms: C_13  and  C_15 
REMARK    6  A    between atoms: C_20  and  O_21 
REMARK    7  A    between atoms: C_22  and  O_23 
REMARK    8  A    between atoms: O_23  and  C_24 
REMARK       I    between atoms: C_24  and  N_26 
REMARK    9  A    between atoms: N_26  and  C_27 
REMARK   10  A    between atoms: C_27  and  C_28 
REMARK   11  A    between atoms: C_27  and  C_29 
ROOT
ATOM      1  C   LIG d   1       6.057  -2.403  -7.924  0.00  0.00    -0.014 C 
ATOM      2  H   LIG d   1       7.090  -2.306  -8.260  0.00  0.00     0.035 H 
ATOM      3  C   LIG d   1       5.866  -3.759  -7.316  0.00  0.00    -0.081 C 
ATOM      4  C   LIG d   1       5.301  -3.982  -6.174  0.00  0.00    -0.070 C 
ATOM      5  C   LIG d   1       4.778  -2.884  -5.285  0.00  0.00     0.014 C 
ATOM      6  H   LIG d   1       3.891  -3.213  -4.743  0.00  0.00     0.038 H 
ATOM      7  C   LIG d   1       4.462  -1.655  -6.150  0.00  0.00    -0.023 C 
ATOM      8  H   LIG d   1       3.653  -1.889  -6.842  0.00  0.00     0.031 H 
ATOM      9  C   LIG d   1       5.754  -1.298  -6.918  0.00  0.00     0.037 C 
ATOM     10  C   LIG d   1       6.916  -1.084  -5.957  0.00  0.00     0.058 C 
ATOM     11  O   LIG d   1       7.071  -2.201  -5.083  0.00  0.00    -0.371 OA
ATOM     12  C   LIG d   1       5.905  -2.503  -4.308  0.00  0.00     0.094 C 
ATOM     13  H   LIG d   1       6.113  -3.340  -3.640  0.00  0.00     0.065 H 
ATOM     14  H   LIG d   1       6.224  -4.613  -7.872  0.00  0.00     0.058 H 
ATOM     15  H   LIG d   1       7.833  -0.948  -6.530  0.00  0.00     0.057 H 
ATOM     16  H   LIG d   1       6.728  -0.189  -5.365  0.00  0.00     0.057 H 
ENDROOT
BRANCH   9  17
ATOM     17  C   LIG d   1       5.522   0.009  -7.679  0.00  0.00     0.102 C 
ATOM     18  H   LIG d   1       5.556  -0.184  -8.751  0.00  0.00     0.070 H 
ATOM     19  H   LIG d   1       4.546   0.415  -7.413  0.00  0.00     0.070 H 
BRANCH  17  20
ATOM     20  O   LIG d   1       6.540   0.949  -7.332  0.00  0.00    -0.450 OA
BRANCH  20  21
ATOM     21  C   LIG d   1       7.006   1.737  -8.318  0.00  0.00     0.401 C 
ATOM     22  O   LIG d   1       6.304   1.990  -9.277  0.00  0.00    -0.227 OA
ATOM     23  N   LIG d   1       8.251   2.247  -8.242  0.00  0.00    -0.279 N 
ATOM     24  H   LIG d   1       8.811   2.046  -7.477  0.00  0.00     0.152 HD
BRANCH  23  25
ATOM     25  C   LIG d   1       8.758   3.106  -9.316  0.00  0.00     0.021 C 
ATOM     26  H   LIG d   1       7.958   3.306 -10.029  0.00  0.00     0.049 H 
BRANCH  25  27
ATOM     27  C   LIG d   1       9.253   4.426  -8.722  0.00  0.00    -0.047 C 
ATOM     28  H   LIG d   1       9.264   5.192  -9.498  0.00  0.00     0.025 H 
ATOM     29  H   LIG d   1       8.588   4.735  -7.916  0.00  0.00     0.025 H 
ATOM     30  H   LIG d   1      10.261   4.293  -8.331  0.00  0.00     0.025 H 
ENDBRANCH  25  27
BRANCH  25  31
ATOM     31  C   LIG d   1       9.913   2.402 -10.030  0.00  0.00    -0.047 C 
ATOM     32  H   LIG d   1      10.837   2.955  -9.859  0.00  0.00     0.025 H 
ATOM     33  H   LIG d   1      10.018   1.390  -9.640  0.00  0.00     0.025 H 
ATOM     34  H   LIG d   1       9.708   2.360 -11.100  0.00  0.00     0.025 H 
ENDBRANCH  25  31
ENDBRANCH  23  25
ENDBRANCH  20  21
ENDBRANCH  17  20
ENDBRANCH   9  17
BRANCH   1  35
ATOM     35  C   LIG d   1       5.123  -2.256  -9.126  0.00  0.00    -0.058 C 
ATOM     36  H   LIG d   1       5.238  -1.261  -9.555  0.00  0.00     0.024 H 
ATOM     37  H   LIG d   1       5.375  -3.007  -9.876  0.00  0.00     0.024 H 
ATOM     38  H   LIG d   1       4.091  -2.396  -8.804  0.00  0.00     0.024 H 
ENDBRANCH   1  35
BRANCH   7  39
ATOM     39  C   LIG d   1       4.055  -0.482  -5.256  0.00  0.00    -0.061 C 
ATOM     40  H   LIG d   1       4.629   0.403  -5.535  0.00  0.00     0.023 H 
ATOM     41  H   LIG d   1       2.992  -0.279  -5.383  0.00  0.00     0.023 H 
ATOM     42  H   LIG d   1       4.256  -0.732  -4.214  0.00  0.00     0.023 H 
ENDBRANCH   7  39
BRANCH   4  43
ATOM     43  C   LIG d   1       5.158  -5.410  -5.710  0.00  0.00    -0.043 C 
ATOM     44  H   LIG d   1       4.451  -5.932  -6.356  0.00  0.00     0.027 H 
ATOM     45  H   LIG d   1       6.127  -5.906  -5.758  0.00  0.00     0.027 H 
ATOM     46  H   LIG d   1       4.792  -5.424  -4.684  0.00  0.00     0.027 H 
ENDBRANCH   4  43
BRANCH  12  47
ATOM     47  C   LIG d   1       5.498  -1.296  -3.503  0.00  0.00     0.023 A 
ATOM     48  C   LIG d   1       4.428  -1.377  -2.625  0.00  0.00     0.122 A 
ATOM     49  C   LIG d   1       4.059  -0.264  -1.881  0.00  0.00    -0.020 A 
ATOM     50  C   LIG d   1       4.751   0.923  -2.025  0.00  0.00    -0.058 A 
ATOM     51  H   LIG d   1       3.228  -0.325  -1.193  0.00  0.00     0.065 H 
ATOM     52  C   LIG d   1       5.815   1.001  -2.905  0.00  0.00    -0.061 A 
ATOM     53  H   LIG d   1       4.462   1.789  -1.449  0.00  0.00     0.062 H 
ATOM     54  C   LIG d   1       6.188  -0.107  -3.644  0.00  0.00    -0.053 A 
ATOM     55  H   LIG d   1       6.355   1.929  -3.017  0.00  0.00     0.062 H 
ATOM     56  H   LIG d   1       7.019  -0.043  -4.330  0.00  0.00     0.062 H 
BRANCH  48  57
ATOM     57  O   LIG d   1       3.744  -2.542  -2.489  0.00  0.00    -0.506 OA
ATOM     58  H   LIG d   1       4.282  -3.333  -2.636  0.00  0.00     0.292 HD
ENDBRANCH  48  57
ENDBRANCH  12  47
TORSDOF 11
ENDMDL
MODEL 4
REMARK VINA RESULT:      -6.4      2.681      6.664
REMARK  11 active torsions:
REMARK  status: ('A' for Active; 'I' for Inactive)
REMARK    1  A    between atoms: C_1  and  C_2 
REMARK    2  A    between atoms: C_5  and  C_31 
REMARK    3  A    between atoms: C_8  and  C_30 
REMARK    4  A    between atoms: C_10  and  C_22 
REMARK    5  A    between atoms: C_13  and  C_15 
REMARK    6  A    between atoms: C_20  and  O_21 
REMARK    7  A    between atoms: C_22  and  O_23 
REMARK    8  A    between atoms: O_23  and  C_24 
REMARK       I    between atoms: C_24  and  N_26 
REMARK    9  A    between atoms: N_26  and  C_27 
REMARK   10  A    between atoms: C_27  and  C_28 
REMARK   11  A    between atoms: C_27  and  C_29 
ROOT
ATOM      1  C   LIG d   1       2.570   0.195  -9.920  0.00  0.00    -0.014 C 
ATOM      2  H   LIG d   1       2.120   1.184  -9.839  0.00  0.00     0.035 H 
ATOM      3  C   LIG d   1       3.183   0.044 -11.279  0.00  0.00    -0.081 C 
ATOM      4  C   LIG d   1       4.380  -0.394 -11.504  0.00  0.00    -0.070 C 
ATOM      5  C   LIG d   1       5.332  -0.789 -10.405  0.00  0.00     0.014 C 
ATOM      6  H   LIG d   1       5.968  -1.616 -10.722  0.00  0.00     0.038 H 
ATOM      7  C   LIG d   1       4.520  -1.175  -9.160  0.00  0.00    -0.023 C 
ATOM      8  H   LIG d   1       3.921  -2.061  -9.369  0.00  0.00     0.031 H 
ATOM      9  C   LIG d   1       3.614   0.030  -8.821  0.00  0.00     0.037 C 
ATOM     10  C   LIG d   1       4.439   1.297  -8.642  0.00  0.00     0.058 C 
ATOM     11  O   LIG d   1       5.280   1.526  -9.771  0.00  0.00    -0.371 OA
ATOM     12  C   LIG d   1       6.179   0.449 -10.059  0.00  0.00     0.094 C 
ATOM     13  H   LIG d   1       6.812   0.713 -10.908  0.00  0.00     0.065 H 
ATOM     14  H   LIG d   1       2.582   0.319 -12.133  0.00  0.00     0.058 H 
ATOM     15  H   LIG d   1       3.768   2.147  -8.518  0.00  0.00     0.057 H 
ATOM     16  H   LIG d   1       5.058   1.197  -7.750  0.00  0.00     0.057 H 
ENDROOT
BRANCH   9  17
ATOM     17  C   LIG d   1       2.896  -0.258  -7.501  0.00  0.00     0.102 C 
ATOM     18  H   LIG d   1       1.820  -0.174  -7.647  0.00  0.00     0.070 H 
ATOM     19  H   LIG d   1       3.141  -1.266  -7.167  0.00  0.00     0.070 H 
BRANCH  17  20
ATOM     20  O   LIG d   1       3.318   0.686  -6.514  0.00  0.00    -0.450 OA
BRANCH  20  21
ATOM     21  C   LIG d   1       2.957   0.441  -5.240  0.00  0.00     0.401 C 
ATOM     22  O   LIG d   1       1.783   0.308  -4.956  0.00  0.00    -0.227 OA
ATOM     23  N   LIG d   1       3.899   0.343  -4.281  0.00  0.00    -0.279 N 
ATOM     24  H   LIG d   1       4.835   0.448  -4.508  0.00  0.00     0.152 HD
BRANCH  23  25
ATOM     25  C   LIG d   1       3.506   0.075  -2.894  0.00  0.00     0.021 C 
ATOM     26  H   LIG d   1       2.449   0.307  -2.766  0.00  0.00     0.049 H 
BRANCH  25  27
ATOM     27  C   LIG d   1       3.749  -1.400  -2.571  0.00  0.00    -0.047 C 
ATOM     28  H   LIG d   1       4.821  -1.586  -2.508  0.00  0.00     0.025 H 
ATOM     29  H   LIG d   1       3.281  -1.646  -1.619  0.00  0.00     0.025 H 
ATOM     30  H   LIG d   1       3.319  -2.020  -3.358  0.00  0.00     0.025 H 
ENDBRANCH  25  27
BRANCH  25  31
ATOM     31  C   LIG d   1       4.337   0.948  -1.952  0.00  0.00    -0.047 C 
ATOM     32  H   LIG d   1       4.836   0.316  -1.216  0.00  0.00     0.025 H 
ATOM     33  H   LIG d   1       5.084   1.495  -2.527  0.00  0.00     0.025 H 
ATOM     34  H   LIG d   1       3.684   1.654  -1.439  0.00  0.00     0.025 H 
ENDBRANCH  25  31
ENDBRANCH  23  25
ENDBRANCH  20  21
ENDBRANCH  17  20
ENDBRANCH   9  17
BRANCH   1  35
ATOM     35  C   LIG d   1       1.483  -0.866  -9.740  0.00  0.00    -0.058 C 
ATOM     36  H   LIG d   1       1.929  -1.782  -9.354  0.00  0.00     0.024 H 
ATOM     37  H   LIG d   1       0.734  -0.502  -9.036  0.00  0.00     0.024 H 
ATOM     38  H   LIG d   1       1.010  -1.069 -10.701  0.00  0.00     0.024 H 
ENDBRANCH   1  35
BRANCH   7  39
ATOM     39  C   LIG d   1       5.465  -1.452  -7.989  0.00  0.00    -0.061 C 
ATOM     40  H   LIG d   1       5.074  -0.980  -7.088  0.00  0.00     0.023 H 
ATOM     41  H   LIG d   1       5.541  -2.528  -7.831  0.00  0.00     0.023 H 
ATOM     42  H   LIG d   1       6.451  -1.047  -8.214  0.00  0.00     0.023 H 
ENDBRANCH   7  39
BRANCH   4  43
ATOM     43  C   LIG d   1       4.843  -0.515 -12.933  0.00  0.00    -0.043 C 
ATOM     44  H   LIG d   1       4.634  -1.520 -13.299  0.00  0.00     0.027 H 
ATOM     45  H   LIG d   1       4.314   0.213 -13.549  0.00  0.00     0.027 H 
ATOM     46  H   LIG d   1       5.914  -0.324 -12.985  0.00  0.00     0.027 H 
ENDBRANCH   4  43
BRANCH  12  47
ATOM     47  C   LIG d   1       7.036   0.161  -8.854  0.00  0.00     0.023 A 
ATOM     48  C   LIG d   1       8.008  -0.827  -8.913  0.00  0.00     0.122 A 
ATOM     49  C   LIG d   1       8.799  -1.085  -7.802  0.00  0.00    -0.020 A 
ATOM     50  C   LIG d   1       8.609  -0.367  -6.637  0.00  0.00    -0.058 A 
ATOM     51  H   LIG d   1       9.559  -1.851  -7.846  0.00  0.00     0.065 H 
ATOM     52  C   LIG d   1       7.636   0.614  -6.580  0.00  0.00    -0.061 A 
ATOM     53  H   LIG d   1       9.222  -0.570  -5.772  0.00  0.00     0.062 H 
ATOM     54  C   LIG d   1       6.850   0.878  -7.686  0.00  0.00    -0.053 A 
ATOM     55  H   LIG d   1       7.489   1.175  -5.669  0.00  0.00     0.062 H 
ATOM     56  H   LIG d   1       6.091   1.644  -7.639  0.00  0.00     0.062 H 
BRANCH  48  57
ATOM     57  O   LIG d   1       8.189  -1.537 -10.056  0.00  0.00    -0.506 OA
ATOM     58  H   LIG d   1       8.239  -2.493  -9.922  0.00  0.00     0.292 HD
ENDBRANCH  48  57
ENDBRANCH  12  47
TORSDOF 11
ENDMDL
MODEL 5
REMARK VINA RESULT:      -6.4      3.032      5.806
REMARK  11 active torsions:
REMARK  status: ('A' for Active; 'I' for Inactive)
REMARK    1  A    between atoms: C_1  and  C_2 
REMARK    2  A    between atoms: C_5  and  C_31 
REMARK    3  A    between atoms: C_8  and  C_30 
REMARK    4  A    between atoms: C_10  and  C_22 
REMARK    5  A    between atoms: C_13  and  C_15 
REMARK    6  A    between atoms: C_20  and  O_21 
REMARK    7  A    between atoms: C_22  and  O_23 
REMARK    8  A    between atoms: O_23  and  C_24 
REMARK       I    between atoms: C_24  and  N_26 
REMARK    9  A    between atoms: N_26  and  C_27 
REMARK   10  A    between atoms: C_27  and  C_28 
REMARK   11  A    between atoms: C_27  and  C_29 
ROOT
ATOM      1  C   LIG d   1       6.734  -3.294  -6.475  0.00  0.00    -0.014 C 
ATOM      2  H   LIG d   1       6.774  -4.334  -6.150  0.00  0.00     0.035 H 
ATOM      3  C   LIG d   1       5.565  -3.113  -7.395  0.00  0.00    -0.081 C 
ATOM      4  C   LIG d   1       4.690  -2.165  -7.298  0.00  0.00    -0.070 C 
ATOM      5  C   LIG d   1       4.724  -1.120  -6.212  0.00  0.00     0.014 C 
ATOM      6  H   LIG d   1       4.355  -0.164  -6.582  0.00  0.00     0.038 H 
ATOM      7  C   LIG d   1       6.166  -0.986  -5.700  0.00  0.00    -0.023 C 
ATOM      8  H   LIG d   1       6.807  -0.609  -6.496  0.00  0.00     0.031 H 
ATOM      9  C   LIG d   1       6.619  -2.393  -5.251  0.00  0.00     0.037 C 
ATOM     10  C   LIG d   1       5.658  -2.971  -4.221  0.00  0.00     0.058 C 
ATOM     11  O   LIG d   1       4.315  -2.939  -4.698  0.00  0.00    -0.371 OA
ATOM     12  C   LIG d   1       3.850  -1.630  -5.052  0.00  0.00     0.094 C 
ATOM     13  H   LIG d   1       2.808  -1.682  -5.369  0.00  0.00     0.065 H 
ATOM     14  H   LIG d   1       5.445  -3.824  -8.198  0.00  0.00     0.058 H 
ATOM     15  H   LIG d   1       5.939  -4.002  -4.010  0.00  0.00     0.057 H 
ATOM     16  H   LIG d   1       5.727  -2.387  -3.303  0.00  0.00     0.057 H 
ENDROOT
BRANCH   9  17
ATOM     17  C   LIG d   1       7.998  -2.274  -4.598  0.00  0.00     0.102 C 
ATOM     18  H   LIG d   1       8.767  -2.540  -5.323  0.00  0.00     0.070 H 
ATOM     19  H   LIG d   1       8.153  -1.249  -4.262  0.00  0.00     0.070 H 
BRANCH  17  20
ATOM     20  O   LIG d   1       8.072  -3.159  -3.479  0.00  0.00    -0.450 OA
BRANCH  20  21
ATOM     21  C   LIG d   1       9.298  -3.574  -3.108  0.00  0.00     0.401 C 
ATOM     22  O   LIG d   1       9.447  -4.168  -2.059  0.00  0.00    -0.227 OA
ATOM     23  N   LIG d   1      10.360  -3.331  -3.901  0.00  0.00    -0.279 N 
ATOM     24  H   LIG d   1      10.242  -2.857  -4.739  0.00  0.00     0.152 HD
BRANCH  23  25
ATOM     25  C   LIG d   1      11.694  -3.784  -3.498  0.00  0.00     0.021 C 
ATOM     26  H   LIG d   1      11.715  -3.934  -2.419  0.00  0.00     0.049 H 
BRANCH  25  27
ATOM     27  C   LIG d   1      12.020  -5.101  -4.203  0.00  0.00    -0.047 C 
ATOM     28  H   LIG d   1      12.242  -5.866  -3.459  0.00  0.00     0.025 H 
ATOM     29  H   LIG d   1      11.166  -5.415  -4.802  0.00  0.00     0.025 H 
ATOM     30  H   LIG d   1      12.887  -4.963  -4.850  0.00  0.00     0.025 H 
ENDBRANCH  25  27
BRANCH  25  31
ATOM     31  C   LIG d   1      12.730  -2.727  -3.886  0.00  0.00    -0.047 C 
ATOM     32  H   LIG d   1      12.259  -1.744  -3.900  0.00  0.00     0.025 H 
ATOM     33  H   LIG d   1      13.542  -2.731  -3.158  0.00  0.00     0.025 H 
ATOM     34  H   LIG d   1      13.128  -2.953  -4.875  0.00  0.00     0.025 H 
ENDBRANCH  25  31
ENDBRANCH  23  25
ENDBRANCH  20  21
ENDBRANCH  17  20
ENDBRANCH   9  17
BRANCH   1  35
ATOM     35  C   LIG d   1       8.021  -2.954  -7.228  0.00  0.00    -0.058 C 
ATOM     36  H   LIG d   1       8.818  -3.624  -6.905  0.00  0.00     0.024 H 
ATOM     37  H   LIG d   1       7.859  -3.075  -8.299  0.00  0.00     0.024 H 
ATOM     38  H   LIG d   1       8.305  -1.923  -7.017  0.00  0.00     0.024 H 
ENDBRANCH   1  35
BRANCH   7  39
ATOM     39  C   LIG d   1       6.205  -0.029  -4.507  0.00  0.00    -0.061 C 
ATOM     40  H   LIG d   1       6.656   0.916  -4.814  0.00  0.00     0.023 H 
ATOM     41  H   LIG d   1       5.191   0.152  -4.152  0.00  0.00     0.023 H 
ATOM     42  H   LIG d   1       6.797  -0.471  -3.705  0.00  0.00     0.023 H 
ENDBRANCH   7  39
BRANCH   4  43
ATOM     43  C   LIG d   1       3.584  -2.101  -8.320  0.00  0.00    -0.043 C 
ATOM     44  H   LIG d   1       3.318  -1.059  -8.503  0.00  0.00     0.027 H 
ATOM     45  H   LIG d   1       3.923  -2.557  -9.250  0.00  0.00     0.027 H 
ATOM     46  H   LIG d   1       2.713  -2.639  -7.947  0.00  0.00     0.027 H 
ENDBRANCH   4  43
BRANCH  12  47
ATOM     47  C   LIG d   1       3.979  -0.704  -3.870  0.00  0.00     0.023 A 
ATOM     48  C   LIG d   1       3.524   0.603  -3.959  0.00  0.00     0.122 A 
ATOM     49  C   LIG d   1       3.640   1.451  -2.867  0.00  0.00    -0.020 A 
ATOM     50  C   LIG d   1       4.217   0.995  -1.697  0.00  0.00    -0.058 A 
ATOM     51  H   LIG d   1       3.283   2.468  -2.932  0.00  0.00     0.065 H 
ATOM     52  C   LIG d   1       4.674  -0.307  -1.613  0.00  0.00    -0.061 A 
ATOM     53  H   LIG d   1       4.310   1.656  -0.849  0.00  0.00     0.062 H 
ATOM     54  C   LIG d   1       4.556  -1.156  -2.698  0.00  0.00    -0.053 A 
ATOM     55  H   LIG d   1       5.125  -0.662  -0.698  0.00  0.00     0.062 H 
ATOM     56  H   LIG d   1       4.914  -2.173  -2.629  0.00  0.00     0.062 H 
BRANCH  48  57
ATOM     57  O   LIG d   1       2.963   1.051  -5.112  0.00  0.00    -0.506 OA
ATOM     58  H   LIG d   1       3.355   1.868  -5.449  0.00  0.00     0.292 HD
ENDBRANCH  48  57
ENDBRANCH  12  47
TORSDOF 11
ENDMDL
MODEL 6
REMARK VINA RESULT:      -6.3      1.782      2.111
REMARK  11 active torsions:
REMARK  status: ('A' for Active; 'I' for Inactive)
REMARK    1  A    between atoms: C_1  and  C_2 
REMARK    2  A    between atoms: C_5  and  C_31 
REMARK    3  A    between atoms: C_8  and  C_30 
REMARK    4  A    between atoms: C_10  and  C_22 
REMARK    5  A    between atoms: C_13  and  C_15 
REMARK    6  A    between atoms: C_20  and  O_21 
REMARK    7  A    between atoms: C_22  and  O_23 
REMARK    8  A    between atoms: O_23  and  C_24 
REMARK       I    between atoms: C_24  and  N_26 
REMARK    9  A    between atoms: N_26  and  C_27 
REMARK   10  A    between atoms: C_27  and  C_28 
REMARK   11  A    between atoms: C_27  and  C_29 
ROOT
ATOM      1  C   LIG d   1       6.750  -3.194  -6.994  0.00  0.00    -0.014 C 
ATOM      2  H   LIG d   1       7.179  -2.617  -7.813  0.00  0.00     0.035 H 
ATOM      3  C   LIG d   1       7.858  -3.732  -6.140  0.00  0.00    -0.081 C 
ATOM      4  C   LIG d   1       7.901  -3.648  -4.850  0.00  0.00    -0.070 C 
ATOM      5  C   LIG d   1       6.836  -2.965  -4.032  0.00  0.00     0.014 C 
ATOM      6  H   LIG d   1       6.707  -3.462  -3.071  0.00  0.00     0.038 H 
ATOM      7  C   LIG d   1       5.522  -2.970  -4.828  0.00  0.00    -0.023 C 
ATOM      8  H   LIG d   1       5.179  -3.995  -4.968  0.00  0.00     0.031 H 
ATOM      9  C   LIG d   1       5.815  -2.300  -6.188  0.00  0.00     0.037 C 
ATOM     10  C   LIG d   1       6.404  -0.909  -5.994  0.00  0.00     0.058 C 
ATOM     11  O   LIG d   1       7.539  -0.949  -5.131  0.00  0.00    -0.371 OA
ATOM     12  C   LIG d   1       7.271  -1.501  -3.837  0.00  0.00     0.094 C 
ATOM     13  H   LIG d   1       8.172  -1.462  -3.224  0.00  0.00     0.065 H 
ATOM     14  H   LIG d   1       8.679  -4.226  -6.637  0.00  0.00     0.058 H 
ATOM     15  H   LIG d   1       6.705  -0.510  -6.962  0.00  0.00     0.057 H 
ATOM     16  H   LIG d   1       5.645  -0.258  -5.559  0.00  0.00     0.057 H 
ENDROOT
BRANCH   9  17
ATOM     17  C   LIG d   1       4.497  -2.153  -6.952  0.00  0.00     0.102 C 
ATOM     18  H   LIG d   1       4.657  -2.393  -8.003  0.00  0.00     0.070 H 
ATOM     19  H   LIG d   1       3.756  -2.833  -6.531  0.00  0.00     0.070 H 
BRANCH  17  20
ATOM     20  O   LIG d   1       4.028  -0.808  -6.837  0.00  0.00    -0.450 OA
BRANCH  20  21
ATOM     21  C   LIG d   1       3.432  -0.274  -7.920  0.00  0.00     0.401 C 
ATOM     22  O   LIG d   1       2.236  -0.409  -8.084  0.00  0.00    -0.227 OA
ATOM     23  N   LIG d   1       4.163   0.410  -8.822  0.00  0.00    -0.279 N 
ATOM     24  H   LIG d   1       5.118   0.518  -8.691  0.00  0.00     0.152 HD
BRANCH  23  25
ATOM     25  C   LIG d   1       3.515   0.992 -10.001  0.00  0.00     0.021 C 
ATOM     26  H   LIG d   1       2.474   0.672 -10.036  0.00  0.00     0.049 H 
BRANCH  25  27
ATOM     27  C   LIG d   1       3.578   2.517  -9.916  0.00  0.00    -0.047 C 
ATOM     28  H   LIG d   1       3.042   2.950 -10.761  0.00  0.00     0.025 H 
ATOM     29  H   LIG d   1       3.117   2.850  -8.986  0.00  0.00     0.025 H 
ATOM     30  H   LIG d   1       4.618   2.840  -9.942  0.00  0.00     0.025 H 
ENDBRANCH  25  27
BRANCH  25  31
ATOM     31  C   LIG d   1       4.236   0.520 -11.265  0.00  0.00    -0.047 C 
ATOM     32  H   LIG d   1       5.309   0.468 -11.073  0.00  0.00     0.025 H 
ATOM     33  H   LIG d   1       3.869  -0.467 -11.546  0.00  0.00     0.025 H 
ATOM     34  H   LIG d   1       4.046   1.223 -12.075  0.00  0.00     0.025 H 
ENDBRANCH  25  31
ENDBRANCH  23  25
ENDBRANCH  20  21
ENDBRANCH  17  20
ENDBRANCH   9  17
BRANCH   1  35
ATOM     35  C   LIG d   1       5.950  -4.363  -7.572  0.00  0.00    -0.058 C 
ATOM     36  H   LIG d   1       5.199  -3.982  -8.263  0.00  0.00     0.024 H 
ATOM     37  H   LIG d   1       6.623  -5.037  -8.102  0.00  0.00     0.024 H 
ATOM     38  H   LIG d   1       5.459  -4.903  -6.762  0.00  0.00     0.024 H 
ENDBRANCH   1  35
BRANCH   7  39
ATOM     39  C   LIG d   1       4.458  -2.166  -4.078  0.00  0.00    -0.061 C 
ATOM     40  H   LIG d   1       4.084  -2.753  -3.239  0.00  0.00     0.023 H 
ATOM     41  H   LIG d   1       4.898  -1.240  -3.705  0.00  0.00     0.023 H 
ATOM     42  H   LIG d   1       3.635  -1.931  -4.753  0.00  0.00     0.023 H 
ENDBRANCH   7  39
BRANCH   4  43
ATOM     43  C   LIG d   1       9.073  -4.265  -4.129  0.00  0.00    -0.043 C 
ATOM     44  H   LIG d   1       9.923  -4.331  -4.809  0.00  0.00     0.027 H 
ATOM     45  H   LIG d   1       9.340  -3.644  -3.273  0.00  0.00     0.027 H 
ATOM     46  H   LIG d   1       8.804  -5.263  -3.785  0.00  0.00     0.027 H 
ENDBRANCH   4  43
BRANCH  12  47
ATOM     47  C   LIG d   1       6.166  -0.725  -3.167  0.00  0.00     0.023 A 
ATOM     48  C   LIG d   1       6.064   0.644  -3.361  0.00  0.00     0.122 A 
ATOM     49  C   LIG d   1       5.041   1.355  -2.747  0.00  0.00    -0.020 A 
ATOM     50  C   LIG d   1       4.135   0.699  -1.937  0.00  0.00    -0.058 A 
ATOM     51  H   LIG d   1       4.957   2.421  -2.900  0.00  0.00     0.065 H 
ATOM     52  C   LIG d   1       4.242  -0.665  -1.741  0.00  0.00    -0.061 A 
ATOM     53  H   LIG d   1       3.342   1.253  -1.457  0.00  0.00     0.062 H 
ATOM     54  C   LIG d   1       5.257  -1.377  -2.355  0.00  0.00    -0.053 A 
ATOM     55  H   LIG d   1       3.533  -1.177  -1.108  0.00  0.00     0.062 H 
ATOM     56  H   LIG d   1       5.338  -2.443  -2.201  0.00  0.00     0.062 H 
BRANCH  48  57
ATOM     57  O   LIG d   1       6.959   1.289  -4.153  0.00  0.00    -0.506 OA
ATOM     58  H   LIG d   1       6.619   2.102  -4.551  0.00  0.00     0.292 HD
ENDBRANCH  48  57
ENDBRANCH  12  47
TORSDOF 11
ENDMDL
MODEL 7
REMARK VINA RESULT:      -6.3      2.701      4.034
REMARK  11 active torsions:
REMARK  status: ('A' for Active; 'I' for Inactive)
REMARK    1  A    between atoms: C_1  and  C_2 
REMARK    2  A    between atoms: C_5  and  C_31 
REMARK    3  A    between atoms: C_8  and  C_30 
REMARK    4  A    between atoms: C_10  and  C_22 
REMARK    5  A    between atoms: C_13  and  C_15 
REMARK    6  A    between atoms: C_20  and  O_21 
REMARK    7  A    between atoms: C_22  and  O_23 
REMARK    8  A    between atoms: O_23  and  C_24 
REMARK       I    between atoms: C_24  and  N_26 
REMARK    9  A    between atoms: N_26  and  C_27 
REMARK   10  A    between atoms: C_27  and  C_28 
REMARK   11  A    between atoms: C_27  and  C_29 
ROOT
ATOM      1  C   LIG d   1       8.059  -2.629  -6.294  0.00  0.00    -0.014 C 
ATOM      2  H   LIG d   1       9.049  -2.777  -5.861  0.00  0.00     0.035 H 
ATOM      3  C   LIG d   1       7.243  -3.869  -6.089  0.00  0.00    -0.081 C 
ATOM      4  C   LIG d   1       6.036  -3.888  -5.623  0.00  0.00    -0.070 C 
ATOM      5  C   LIG d   1       5.297  -2.645  -5.199  0.00  0.00     0.014 C 
ATOM      6  H   LIG d   1       4.230  -2.740  -5.404  0.00  0.00     0.038 H 
ATOM      7  C   LIG d   1       5.889  -1.439  -5.942  0.00  0.00    -0.023 C 
ATOM      8  H   LIG d   1       5.711  -1.541  -7.012  0.00  0.00     0.031 H 
ATOM      9  C   LIG d   1       7.403  -1.419  -5.638  0.00  0.00     0.037 C 
ATOM     10  C   LIG d   1       7.656  -1.394  -4.137  0.00  0.00     0.058 C 
ATOM     11  O   LIG d   1       6.965  -2.456  -3.482  0.00  0.00    -0.371 OA
ATOM     12  C   LIG d   1       5.548  -2.449  -3.693  0.00  0.00     0.094 C 
ATOM     13  H   LIG d   1       5.087  -3.264  -3.132  0.00  0.00     0.065 H 
ATOM     14  H   LIG d   1       7.695  -4.814  -6.349  0.00  0.00     0.058 H 
ATOM     15  H   LIG d   1       8.725  -1.496  -3.952  0.00  0.00     0.057 H 
ATOM     16  H   LIG d   1       7.313  -0.441  -3.733  0.00  0.00     0.057 H 
ENDROOT
BRANCH   9  17
ATOM     17  C   LIG d   1       8.004  -0.147  -6.241  0.00  0.00     0.102 C 
ATOM     18  H   LIG d   1       8.511  -0.392  -7.173  0.00  0.00     0.070 H 
ATOM     19  H   LIG d   1       7.209   0.572  -6.436  0.00  0.00     0.070 H 
BRANCH  17  20
ATOM     20  O   LIG d   1       8.942   0.417  -5.323  0.00  0.00    -0.450 OA
BRANCH  20  21
ATOM     21  C   LIG d   1       8.725   1.687  -4.931  0.00  0.00     0.401 C 
ATOM     22  O   LIG d   1       7.614   2.170  -5.023  0.00  0.00    -0.227 OA
ATOM     23  N   LIG d   1       9.741   2.423  -4.438  0.00  0.00    -0.279 N 
ATOM     24  H   LIG d   1      10.628   2.037  -4.365  0.00  0.00     0.152 HD
BRANCH  23  25
ATOM     25  C   LIG d   1       9.505   3.805  -4.012  0.00  0.00     0.021 C 
ATOM     26  H   LIG d   1       8.437   3.960  -3.859  0.00  0.00     0.049 H 
BRANCH  25  27
ATOM     27  C   LIG d   1      10.252   4.070  -2.704  0.00  0.00    -0.047 C 
ATOM     28  H   LIG d   1      11.323   3.947  -2.866  0.00  0.00     0.025 H 
ATOM     29  H   LIG d   1      10.050   5.087  -2.368  0.00  0.00     0.025 H 
ATOM     30  H   LIG d   1       9.917   3.363  -1.945  0.00  0.00     0.025 H 
ENDBRANCH  25  27
BRANCH  25  31
ATOM     31  C   LIG d   1      10.010   4.765  -5.091  0.00  0.00    -0.047 C 
ATOM     32  H   LIG d   1      11.006   4.459  -5.413  0.00  0.00     0.025 H 
ATOM     33  H   LIG d   1       9.330   4.743  -5.943  0.00  0.00     0.025 H 
ATOM     34  H   LIG d   1      10.054   5.776  -4.687  0.00  0.00     0.025 H 
ENDBRANCH  25  31
ENDBRANCH  23  25
ENDBRANCH  20  21
ENDBRANCH  17  20
ENDBRANCH   9  17
BRANCH   1  35
ATOM     35  C   LIG d   1       8.204  -2.367  -7.794  0.00  0.00    -0.058 C 
ATOM     36  H   LIG d   1       7.823  -1.373  -8.028  0.00  0.00     0.024 H 
ATOM     37  H   LIG d   1       9.256  -2.428  -8.074  0.00  0.00     0.024 H 
ATOM     38  H   LIG d   1       7.637  -3.114  -8.350  0.00  0.00     0.024 H 
ENDBRANCH   1  35
BRANCH   7  39
ATOM     39  C   LIG d   1       5.246  -0.148  -5.431  0.00  0.00    -0.061 C 
ATOM     40  H   LIG d   1       4.839  -0.315  -4.433  0.00  0.00     0.023 H 
ATOM     41  H   LIG d   1       5.997   0.641  -5.388  0.00  0.00     0.023 H 
ATOM     42  H   LIG d   1       4.443   0.151  -6.105  0.00  0.00     0.023 H 
ENDBRANCH   7  39
BRANCH   4  43
ATOM     43  C   LIG d   1       5.335  -5.217  -5.500  0.00  0.00    -0.043 C 
ATOM     44  H   LIG d   1       5.010  -5.548  -6.487  0.00  0.00     0.027 H 
ATOM     45  H   LIG d   1       6.022  -5.951  -5.079  0.00  0.00     0.027 H 
ATOM     46  H   LIG d   1       4.469  -5.112  -4.848  0.00  0.00     0.027 H 
ENDBRANCH   4  43
BRANCH  12  47
ATOM     47  C   LIG d   1       4.970  -1.131  -3.246  0.00  0.00     0.023 A 
ATOM     48  C   LIG d   1       3.602  -0.912  -3.320  0.00  0.00     0.122 A 
ATOM     49  C   LIG d   1       3.073   0.301  -2.903  0.00  0.00    -0.020 A 
ATOM     50  C   LIG d   1       3.910   1.291  -2.424  0.00  0.00    -0.058 A 
ATOM     51  H   LIG d   1       2.008   0.473  -2.955  0.00  0.00     0.065 H 
ATOM     52  C   LIG d   1       5.273   1.072  -2.355  0.00  0.00    -0.061 A 
ATOM     53  H   LIG d   1       3.498   2.236  -2.103  0.00  0.00     0.062 H 
ATOM     54  C   LIG d   1       5.803  -0.138  -2.766  0.00  0.00    -0.053 A 
ATOM     55  H   LIG d   1       5.926   1.846  -1.981  0.00  0.00     0.062 H 
ATOM     56  H   LIG d   1       6.868  -0.307  -2.712  0.00  0.00     0.062 H 
BRANCH  48  57
ATOM     57  O   LIG d   1       2.782  -1.884  -3.797  0.00  0.00    -0.506 OA
ATOM     58  H   LIG d   1       3.248  -2.659  -4.139  0.00  0.00     0.292 HD
ENDBRANCH  48  57
ENDBRANCH  12  47
TORSDOF 11
ENDMDL
MODEL 8
REMARK VINA RESULT:      -6.3      3.383      6.719
REMARK  11 active torsions:
REMARK  status: ('A' for Active; 'I' for Inactive)
REMARK    1  A    between atoms: C_1  and  C_2 
REMARK    2  A    between atoms: C_5  and  C_31 
REMARK    3  A    between atoms: C_8  and  C_30 
REMARK    4  A    between atoms: C_10  and  C_22 
REMARK    5  A    between atoms: C_13  and  C_15 
REMARK    6  A    between atoms: C_20  and  O_21 
REMARK    7  A    between atoms: C_22  and  O_23 
REMARK    8  A    between atoms: O_23  and  C_24 
REMARK       I    between atoms: C_24  and  N_26 
REMARK    9  A    between atoms: N_26  and  C_27 
REMARK   10  A    between atoms: C_27  and  C_28 
REMARK   11  A    between atoms: C_27  and  C_29 
ROOT
ATOM      1  C   LIG d   1       5.183  -4.445  -9.608  0.00  0.00    -0.014 C 
ATOM      2  H   LIG d   1       4.521  -5.174  -9.140  0.00  0.00     0.035 H 
ATOM      3  C   LIG d   1       4.918  -4.418 -11.083  0.00  0.00    -0.081 C 
ATOM      4  C   LIG d   1       4.737  -3.343 -11.779  0.00  0.00    -0.070 C 
ATOM      5  C   LIG d   1       4.746  -1.961 -11.179  0.00  0.00     0.014 C 
ATOM      6  H   LIG d   1       5.158  -1.236 -11.881  0.00  0.00     0.038 H 
ATOM      7  C   LIG d   1       5.568  -1.990  -9.882  0.00  0.00    -0.023 C 
ATOM      8  H   LIG d   1       6.608  -2.224 -10.109  0.00  0.00     0.031 H 
ATOM      9  C   LIG d   1       4.946  -3.078  -8.978  0.00  0.00     0.037 C 
ATOM     10  C   LIG d   1       3.463  -2.817  -8.754  0.00  0.00     0.058 C 
ATOM     11  O   LIG d   1       2.777  -2.658  -9.994  0.00  0.00    -0.371 OA
ATOM     12  C   LIG d   1       3.293  -1.604 -10.817  0.00  0.00     0.094 C 
ATOM     13  H   LIG d   1       2.695  -1.520 -11.726  0.00  0.00     0.065 H 
ATOM     14  H   LIG d   1       4.875  -5.364 -11.602  0.00  0.00     0.058 H 
ATOM     15  H   LIG d   1       3.030  -3.656  -8.211  0.00  0.00     0.057 H 
ATOM     16  H   LIG d   1       3.346  -1.909  -8.161  0.00  0.00     0.057 H 
ENDROOT
BRANCH   9  17
ATOM     17  C   LIG d   1       5.645  -3.036  -7.617  0.00  0.00     0.102 C 
ATOM     18  H   LIG d   1       6.370  -3.848  -7.556  0.00  0.00     0.070 H 
ATOM     19  H   LIG d   1       6.157  -2.082  -7.502  0.00  0.00     0.070 H 
BRANCH  17  20
ATOM     20  O   LIG d   1       4.675  -3.186  -6.579  0.00  0.00    -0.450 OA
BRANCH  20  21
ATOM     21  C   LIG d   1       4.740  -2.318  -5.552  0.00  0.00     0.401 C 
ATOM     22  O   LIG d   1       5.695  -1.573  -5.446  0.00  0.00    -0.227 OA
ATOM     23  N   LIG d   1       3.748  -2.275  -4.642  0.00  0.00    -0.279 N 
ATOM     24  H   LIG d   1       2.986  -2.869  -4.727  0.00  0.00     0.152 HD
BRANCH  23  25
ATOM     25  C   LIG d   1       3.819  -1.329  -3.524  0.00  0.00     0.021 C 
ATOM     26  H   LIG d   1       4.713  -0.716  -3.625  0.00  0.00     0.049 H 
BRANCH  25  27
ATOM     27  C   LIG d   1       2.580  -0.433  -3.535  0.00  0.00    -0.047 C 
ATOM     28  H   LIG d   1       2.888   0.611  -3.605  0.00  0.00     0.025 H 
ATOM     29  H   LIG d   1       1.956  -0.685  -4.392  0.00  0.00     0.025 H 
ATOM     30  H   LIG d   1       2.014  -0.583  -2.616  0.00  0.00     0.025 H 
ENDBRANCH  25  27
BRANCH  25  31
ATOM     31  C   LIG d   1       3.877  -2.103  -2.206  0.00  0.00    -0.047 C 
ATOM     32  H   LIG d   1       3.831  -3.173  -2.409  0.00  0.00     0.025 H 
ATOM     33  H   LIG d   1       4.810  -1.871  -1.690  0.00  0.00     0.025 H 
ATOM     34  H   LIG d   1       3.034  -1.816  -1.578  0.00  0.00     0.025 H 
ENDBRANCH  25  31
ENDBRANCH  23  25
ENDBRANCH  20  21
ENDBRANCH  17  20
ENDBRANCH   9  17
BRANCH   1  35
ATOM     35  C   LIG d   1       6.635  -4.862  -9.369  0.00  0.00    -0.058 C 
ATOM     36  H   LIG d   1       6.877  -4.746  -8.312  0.00  0.00     0.024 H 
ATOM     37  H   LIG d   1       6.767  -5.905  -9.658  0.00  0.00     0.024 H 
ATOM     38  H   LIG d   1       7.297  -4.234  -9.964  0.00  0.00     0.024 H 
ENDBRANCH   1  35
BRANCH   7  39
ATOM     39  C   LIG d   1       5.482  -0.632  -9.183  0.00  0.00    -0.061 C 
ATOM     40  H   LIG d   1       4.448  -0.288  -9.184  0.00  0.00     0.023 H 
ATOM     41  H   LIG d   1       5.832  -0.729  -8.156  0.00  0.00     0.023 H 
ATOM     42  H   LIG d   1       6.105   0.089  -9.713  0.00  0.00     0.023 H 
ENDBRANCH   7  39
BRANCH   4  43
ATOM     43  C   LIG d   1       4.506  -3.479 -13.263  0.00  0.00    -0.043 C 
ATOM     44  H   LIG d   1       3.789  -4.280 -13.447  0.00  0.00     0.027 H 
ATOM     45  H   LIG d   1       4.113  -2.542 -13.657  0.00  0.00     0.027 H 
ATOM     46  H   LIG d   1       5.449  -3.714 -13.757  0.00  0.00     0.027 H 
ENDBRANCH   4  43
BRANCH  12  47
ATOM     47  C   LIG d   1       3.260  -0.301 -10.061  0.00  0.00     0.023 A 
ATOM     48  C   LIG d   1       3.701   0.865 -10.669  0.00  0.00     0.122 A 
ATOM     49  C   LIG d   1       3.665   2.064  -9.971  0.00  0.00    -0.020 A 
ATOM     50  C   LIG d   1       3.199   2.092  -8.671  0.00  0.00    -0.058 A 
ATOM     51  H   LIG d   1       4.004   2.975 -10.443  0.00  0.00     0.065 H 
ATOM     52  C   LIG d   1       2.764   0.927  -8.066  0.00  0.00    -0.061 A 
ATOM     53  H   LIG d   1       3.174   3.025  -8.127  0.00  0.00     0.062 H 
ATOM     54  C   LIG d   1       2.795  -0.269  -8.760  0.00  0.00    -0.053 A 
ATOM     55  H   LIG d   1       2.400   0.950  -7.050  0.00  0.00     0.062 H 
ATOM     56  H   LIG d   1       2.455  -1.177  -8.285  0.00  0.00     0.062 H 
BRANCH  48  57
ATOM     57  O   LIG d   1       4.165   0.834 -11.945  0.00  0.00    -0.506 OA
ATOM     58  H   LIG d   1       3.498   1.052 -12.611  0.00  0.00     0.292 HD
ENDBRANCH  48  57
ENDBRANCH  12  47
TORSDOF 11
ENDMDL
MODEL 9
REMARK VINA RESULT:      -6.2      3.547      7.175
REMARK  11 active torsions:
REMARK  status: ('A' for Active; 'I' for Inactive)
REMARK    1  A    between atoms: C_1  and  C_2 
REMARK    2  A    between atoms: C_5  and  C_31 
REMARK    3  A    between atoms: C_8  and  C_30 
REMARK    4  A    between atoms: C_10  and  C_22 
REMARK    5  A    between atoms: C_13  and  C_15 
REMARK    6  A    between atoms: C_20  and  O_21 
REMARK    7  A    between atoms: C_22  and  O_23 
REMARK    8  A    between atoms: O_23  and  C_24 
REMARK       I    between atoms: C_24  and  N_26 
REMARK    9  A    between atoms: N_26  and  C_27 
REMARK   10  A    between atoms: C_27  and  C_28 
REMARK   11  A    between atoms: C_27  and  C_29 
ROOT
ATOM      1  C   LIG d   1       3.988   1.225  -9.534  0.00  0.00    -0.014 C 
ATOM      2  H   LIG d   1       4.839   1.703  -9.048  0.00  0.00     0.035 H 
ATOM      3  C   LIG d   1       4.293   1.039 -10.989  0.00  0.00    -0.081 C 
ATOM      4  C   LIG d   1       4.122  -0.064 -11.643  0.00  0.00    -0.070 C 
ATOM      5  C   LIG d   1       3.609  -1.329 -11.005  0.00  0.00     0.014 C 
ATOM      6  H   LIG d   1       3.003  -1.900 -11.709  0.00  0.00     0.038 H 
ATOM      7  C   LIG d   1       2.790  -0.958  -9.759  0.00  0.00    -0.023 C 
ATOM      8  H   LIG d   1       1.907  -0.392 -10.053  0.00  0.00     0.031 H 
ATOM      9  C   LIG d   1       3.708  -0.109  -8.852  0.00  0.00     0.037 C 
ATOM     10  C   LIG d   1       4.998  -0.854  -8.534  0.00  0.00     0.058 C 
ATOM     11  O   LIG d   1       5.641  -1.297  -9.727  0.00  0.00    -0.371 OA
ATOM     12  C   LIG d   1       4.831  -2.146 -10.548  0.00  0.00     0.094 C 
ATOM     13  H   LIG d   1       5.402  -2.474 -11.418  0.00  0.00     0.065 H 
ATOM     14  H   LIG d   1       4.684   1.887 -11.531  0.00  0.00     0.058 H 
ATOM     15  H   LIG d   1       5.670  -0.190  -7.991  0.00  0.00     0.057 H 
ATOM     16  H   LIG d   1       4.767  -1.717  -7.909  0.00  0.00     0.057 H 
ENDROOT
BRANCH   9  17
ATOM     17  C   LIG d   1       2.977   0.156  -7.534  0.00  0.00     0.102 C 
ATOM     18  H   LIG d   1       2.509   1.140  -7.570  0.00  0.00     0.070 H 
ATOM     19  H   LIG d   1       2.214  -0.606  -7.383  0.00  0.00     0.070 H 
BRANCH  17  20
ATOM     20  O   LIG d   1       3.913   0.113  -6.454  0.00  0.00    -0.450 OA
BRANCH  20  21
ATOM     21  C   LIG d   1       3.407   0.001  -5.211  0.00  0.00     0.401 C 
ATOM     22  O   LIG d   1       2.246   0.290  -5.000  0.00  0.00    -0.227 OA
ATOM     23  N   LIG d   1       4.189  -0.433  -4.203  0.00  0.00    -0.279 N 
ATOM     24  H   LIG d   1       5.115  -0.664  -4.372  0.00  0.00     0.152 HD
BRANCH  23  25
ATOM     25  C   LIG d   1       3.638  -0.556  -2.851  0.00  0.00     0.021 C 
ATOM     26  H   LIG d   1       2.562  -0.386  -2.880  0.00  0.00     0.049 H 
BRANCH  25  27
ATOM     27  C   LIG d   1       3.918  -1.960  -2.312  0.00  0.00    -0.047 C 
ATOM     28  H   LIG d   1       4.783  -2.380  -2.826  0.00  0.00     0.025 H 
ATOM     29  H   LIG d   1       4.122  -1.906  -1.243  0.00  0.00     0.025 H 
ATOM     30  H   LIG d   1       3.050  -2.596  -2.484  0.00  0.00     0.025 H 
ENDBRANCH  25  27
BRANCH  25  31
ATOM     31  C   LIG d   1       4.293   0.481  -1.937  0.00  0.00    -0.047 C 
ATOM     32  H   LIG d   1       4.932   1.137  -2.530  0.00  0.00     0.025 H 
ATOM     33  H   LIG d   1       3.520   1.073  -1.447  0.00  0.00     0.025 H 
ATOM     34  H   LIG d   1       4.895  -0.027  -1.183  0.00  0.00     0.025 H 
ENDBRANCH  25  31
ENDBRANCH  23  25
ENDBRANCH  20  21
ENDBRANCH  17  20
ENDBRANCH   9  17
BRANCH   1  35
ATOM     35  C   LIG d   1       2.760   2.127  -9.391  0.00  0.00    -0.058 C 
ATOM     36  H   LIG d   1       1.966   1.765 -10.044  0.00  0.00     0.024 H 
ATOM     37  H   LIG d   1       2.415   2.111  -8.357  0.00  0.00     0.024 H 
ATOM     38  H   LIG d   1       3.023   3.147  -9.670  0.00  0.00     0.024 H 
ENDBRANCH   1  35
BRANCH   7  39
ATOM     39  C   LIG d   1       2.369  -2.229  -9.018  0.00  0.00    -0.061 C 
ATOM     40  H   LIG d   1       1.870  -1.958  -8.087  0.00  0.00     0.023 H 
ATOM     41  H   LIG d   1       1.684  -2.803  -9.642  0.00  0.00     0.023 H 
ATOM     42  H   LIG d   1       3.251  -2.830  -8.797  0.00  0.00     0.023 H 
ENDBRANCH   7  39
BRANCH   4  43
ATOM     43  C   LIG d   1       4.452  -0.085 -13.114  0.00  0.00    -0.043 C 
ATOM     44  H   LIG d   1       4.697   0.924 -13.445  0.00  0.00     0.027 H 
ATOM     45  H   LIG d   1       5.306  -0.741 -13.285  0.00  0.00     0.027 H 
ATOM     46  H   LIG d   1       3.593  -0.454 -13.673  0.00  0.00     0.027 H 
ENDBRANCH   4  43
BRANCH  12  47
ATOM     47  C   LIG d   1       4.377  -3.344  -9.755  0.00  0.00     0.023 A 
ATOM     48  C   LIG d   1       3.624  -4.336 -10.365  0.00  0.00     0.122 A 
ATOM     49  C   LIG d   1       3.212  -5.440  -9.632  0.00  0.00    -0.020 A 
ATOM     50  C   LIG d   1       3.543  -5.544  -8.295  0.00  0.00    -0.058 A 
ATOM     51  H   LIG d   1       2.629  -6.217 -10.106  0.00  0.00     0.065 H 
ATOM     52  C   LIG d   1       4.290  -4.552  -7.688  0.00  0.00    -0.061 A 
ATOM     53  H   LIG d   1       3.220  -6.402  -7.725  0.00  0.00     0.062 H 
ATOM     54  C   LIG d   1       4.706  -3.452  -8.417  0.00  0.00    -0.053 A 
ATOM     55  H   LIG d   1       4.549  -4.634  -6.643  0.00  0.00     0.062 H 
ATOM     56  H   LIG d   1       5.290  -2.678  -7.940  0.00  0.00     0.062 H 
BRANCH  48  57
ATOM     57  O   LIG d   1       3.293  -4.229 -11.678  0.00  0.00    -0.506 OA
ATOM     58  H   LIG d   1       3.784  -3.544 -12.153  0.00  0.00     0.292 HD
ENDBRANCH  48  57
ENDBRANCH  12  47
TORSDOF 11
ENDMDL
MODEL 10
REMARK VINA RESULT:      -6.2      8.713     10.275
REMARK  11 active torsions:
REMARK  status: ('A' for Active; 'I' for Inactive)
REMARK    1  A    between atoms: C_1  and  C_2 
REMARK    2  A    between atoms: C_5  and  C_31 
REMARK    3  A    between atoms: C_8  and  C_30 
REMARK    4  A    between atoms: C_10  and  C_22 
REMARK    5  A    between atoms: C_13  and  C_15 
REMARK    6  A    between atoms: C_20  and  O_21 
REMARK    7  A    between atoms: C_22  and  O_23 
REMARK    8  A    between atoms: O_23  and  C_24 
REMARK       I    between atoms: C_24  and  N_26 
REMARK    9  A    between atoms: N_26  and  C_27 
REMARK   10  A    between atoms: C_27  and  C_28 
REMARK   11  A    between atoms: C_27  and  C_29 
ROOT
ATOM      1  C   LIG d   1      11.321   9.102  -0.246  0.00  0.00    -0.014 C 
ATOM      2  H   LIG d   1      10.542   9.858  -0.141  0.00  0.00     0.035 H 
ATOM      3  C   LIG d   1      11.177   8.094   0.853  0.00  0.00    -0.081 C 
ATOM      4  C   LIG d   1      11.180   6.811   0.681  0.00  0.00    -0.070 C 
ATOM      5  C   LIG d   1      11.307   6.161  -0.672  0.00  0.00     0.014 C 
ATOM      6  H   LIG d   1      11.856   5.222  -0.601  0.00  0.00     0.038 H 
ATOM      7  C   LIG d   1      12.015   7.135  -1.625  0.00  0.00    -0.023 C 
ATOM      8  H   LIG d   1      13.035   7.312  -1.282  0.00  0.00     0.031 H 
ATOM      9  C   LIG d   1      11.200   8.448  -1.618  0.00  0.00     0.037 C 
ATOM     10  C   LIG d   1       9.746   8.186  -1.984  0.00  0.00     0.058 C 
ATOM     11  O   LIG d   1       9.183   7.170  -1.157  0.00  0.00    -0.371 OA
ATOM     12  C   LIG d   1       9.883   5.921  -1.205  0.00  0.00     0.094 C 
ATOM     13  H   LIG d   1       9.373   5.187  -0.580  0.00  0.00     0.065 H 
ATOM     14  H   LIG d   1      11.063   8.464   1.860  0.00  0.00     0.058 H 
ATOM     15  H   LIG d   1       9.175   9.106  -1.860  0.00  0.00     0.057 H 
ATOM     16  H   LIG d   1       9.692   7.870  -3.026  0.00  0.00     0.057 H 
ENDROOT
BRANCH   9  17
ATOM     17  C   LIG d   1      11.791   9.392  -2.667  0.00  0.00     0.102 C 
ATOM     18  H   LIG d   1      12.468  10.095  -2.182  0.00  0.00     0.070 H 
ATOM     19  H   LIG d   1      12.337   8.813  -3.410  0.00  0.00     0.070 H 
BRANCH  17  20
ATOM     20  O   LIG d   1      10.735  10.113  -3.306  0.00  0.00    -0.450 OA
BRANCH  20  21
ATOM     21  C   LIG d   1      10.783  10.205  -4.648  0.00  0.00     0.401 C 
ATOM     22  O   LIG d   1      11.146  11.239  -5.173  0.00  0.00    -0.227 OA
ATOM     23  N   LIG d   1      10.429   9.151  -5.409  0.00  0.00    -0.279 N 
ATOM     24  H   LIG d   1      10.140   8.325  -4.990  0.00  0.00     0.152 HD
BRANCH  23  25
ATOM     25  C   LIG d   1      10.482   9.252  -6.870  0.00  0.00     0.021 C 
ATOM     26  H   LIG d   1      10.550  10.300  -7.159  0.00  0.00     0.049 H 
BRANCH  25  27
ATOM     27  C   LIG d   1      11.709   8.499  -7.389  0.00  0.00    -0.047 C 
ATOM     28  H   LIG d   1      12.423   9.210  -7.803  0.00  0.00     0.025 H 
ATOM     29  H   LIG d   1      12.175   7.953  -6.569  0.00  0.00     0.025 H 
ATOM     30  H   LIG d   1      11.403   7.798  -8.165  0.00  0.00     0.025 H 
ENDBRANCH  25  27
BRANCH  25  31
ATOM     31  C   LIG d   1       9.216   8.638  -7.470  0.00  0.00    -0.047 C 
ATOM     32  H   LIG d   1       8.636   9.416  -7.969  0.00  0.00     0.025 H 
ATOM     33  H   LIG d   1       9.491   7.871  -8.193  0.00  0.00     0.025 H 
ATOM     34  H   LIG d   1       8.617   8.192  -6.676  0.00  0.00     0.025 H 
ENDBRANCH  25  31
ENDBRANCH  23  25
ENDBRANCH  20  21
ENDBRANCH  17  20
ENDBRANCH   9  17
BRANCH   1  35
ATOM     35  C   LIG d   1      12.690   9.775  -0.132  0.00  0.00    -0.058 C 
ATOM     36  H   LIG d   1      13.469   9.062  -0.403  0.00  0.00     0.024 H 
ATOM     37  H   LIG d   1      12.731  10.632  -0.805  0.00  0.00     0.024 H 
ATOM     38  H   LIG d   1      12.846  10.111   0.893  0.00  0.00     0.024 H 
ENDBRANCH   1  35
BRANCH   7  39
ATOM     39  C   LIG d   1      12.038   6.553  -3.040  0.00  0.00    -0.061 C 
ATOM     40  H   LIG d   1      12.046   5.464  -2.984  0.00  0.00     0.023 H 
ATOM     41  H   LIG d   1      11.152   6.882  -3.583  0.00  0.00     0.023 H 
ATOM     42  H   LIG d   1      12.932   6.897  -3.560  0.00  0.00     0.023 H 
ENDBRANCH   7  39
BRANCH   4  43
ATOM     43  C   LIG d   1      11.052   5.925   1.894  0.00  0.00    -0.043 C 
ATOM     44  H   LIG d   1      12.021   5.477   2.120  0.00  0.00     0.027 H 
ATOM     45  H   LIG d   1      10.720   6.520   2.745  0.00  0.00     0.027 H 
ATOM     46  H   LIG d   1      10.326   5.138   1.694  0.00  0.00     0.027 H 
ENDBRANCH   4  43
BRANCH  12  47
ATOM     47  C   LIG d   1       9.946   5.424  -2.627  0.00  0.00     0.023 A 
ATOM     48  C   LIG d   1      10.518   4.193  -2.907  0.00  0.00     0.122 A 
ATOM     49  C   LIG d   1      10.570   3.737  -4.216  0.00  0.00    -0.020 A 
ATOM     50  C   LIG d   1      10.062   4.514  -5.239  0.00  0.00    -0.058 A 
ATOM     51  H   LIG d   1      11.011   2.776  -4.437  0.00  0.00     0.065 H 
ATOM     52  C   LIG d   1       9.497   5.744  -4.957  0.00  0.00    -0.061 A 
ATOM     53  H   LIG d   1      10.106   4.160  -6.258  0.00  0.00     0.062 H 
ATOM     54  C   LIG d   1       9.439   6.200  -3.653  0.00  0.00    -0.053 A 
ATOM     55  H   LIG d   1       9.100   6.351  -5.757  0.00  0.00     0.062 H 
ATOM     56  H   LIG d   1       8.997   7.161  -3.435  0.00  0.00     0.062 H 
BRANCH  48  57
ATOM     57  O   LIG d   1      11.023   3.432  -1.901  0.00  0.00    -0.506 OA
ATOM     58  H   LIG d   1      10.620   2.555  -1.831  0.00  0.00     0.292 HD
ENDBRANCH  48  57
ENDBRANCH  12  47
TORSDOF 11
ENDMDL
