MODEL 1
REMARK VINA RESULT:      -4.3      0.000      0.000
REMARK  4 active torsions:
REMARK  status: ('A' for Active; 'I' for Inactive)
REMARK    1  A    between atoms: C_1  and  C_2 
REMARK    2  A    between atoms: C_2  and  C_3 
REMARK    3  A    between atoms: C_3  and  C_5 
REMARK    4  A    between atoms: C_3  and  C_6 
ROOT
ATOM      1  C   LIG d   1       3.218   0.243  -2.515  0.00  0.00    -0.004 C 
ATOM      2  H   LIG d   1       2.407   0.523  -1.844  0.00  0.00     0.036 H 
ENDROOT
BRANCH   1   3
ATOM      3  C   LIG d   1       2.968  -1.166  -3.057  0.00  0.00    -0.048 C 
ATOM      4  H   LIG d   1       3.143  -1.177  -4.134  0.00  0.00     0.027 H 
ATOM      5  H   LIG d   1       1.938  -1.456  -2.853  0.00  0.00     0.027 H 
BRANCH   3   6
ATOM      6  C   LIG d   1       3.920  -2.151  -2.376  0.00  0.00    -0.065 C 
ATOM      7  H   LIG d   1       3.856  -3.120  -2.873  0.00  0.00     0.023 H 
ATOM      8  H   LIG d   1       4.941  -1.776  -2.442  0.00  0.00     0.023 H 
ATOM      9  H   LIG d   1       3.640  -2.261  -1.329  0.00  0.00     0.023 H 
ENDBRANCH   3   6
ENDBRANCH   1   3
BRANCH   1  10
ATOM     10  C   LIG d   1       4.544   0.266  -1.750  0.00  0.00    -0.057 C 
ATOM     11  H   LIG d   1       4.685  -0.686  -1.239  0.00  0.00     0.024 H 
ATOM     12  H   LIG d   1       5.364   0.429  -2.450  0.00  0.00     0.024 H 
ATOM     13  H   LIG d   1       4.527   1.074  -1.018  0.00  0.00     0.024 H 
ENDBRANCH   1  10
BRANCH   1  14
ATOM     14  C   LIG d   1       3.282   1.219  -3.661  0.00  0.00     0.045 C 
ATOM     15  O   LIG d   1       2.966   0.865  -4.783  0.00  0.00    -0.549 OA
ATOM     16  O   LIG d   1       3.649   2.365  -3.464  0.00  0.00    -0.549 OA
ENDBRANCH   1  14
TORSDOF 4
ENDMDL
MODEL 2
REMARK VINA RESULT:      -4.1      2.583      3.416
REMARK  4 active torsions:
REMARK  status: ('A' for Active; 'I' for Inactive)
REMARK    1  A    between atoms: C_1  and  C_2 
REMARK    2  A    between atoms: C_2  and  C_3 
REMARK    3  A    between atoms: C_3  and  C_5 
REMARK    4  A    between atoms: C_3  and  C_6 
ROOT
ATOM      1  C   LIG d   1       3.762  -1.259  -2.319  0.00  0.00    -0.004 C 
ATOM      2  H   LIG d   1       3.359  -1.821  -1.477  0.00  0.00     0.036 H 
ENDROOT
BRANCH   1   3
ATOM      3  C   LIG d   1       4.536  -0.046  -1.799  0.00  0.00    -0.048 C 
ATOM      4  H   LIG d   1       5.554  -0.070  -2.189  0.00  0.00     0.027 H 
ATOM      5  H   LIG d   1       4.563  -0.073  -0.710  0.00  0.00     0.027 H 
BRANCH   3   6
ATOM      6  C   LIG d   1       3.843   1.238  -2.261  0.00  0.00    -0.065 C 
ATOM      7  H   LIG d   1       2.940   0.983  -2.817  0.00  0.00     0.023 H 
ATOM      8  H   LIG d   1       3.577   1.840  -1.392  0.00  0.00     0.023 H 
ATOM      9  H   LIG d   1       4.517   1.803  -2.904  0.00  0.00     0.023 H 
ENDBRANCH   3   6
ENDBRANCH   1   3
BRANCH   1  10
ATOM     10  C   LIG d   1       2.614  -0.786  -3.213  0.00  0.00    -0.057 C 
ATOM     11  H   LIG d   1       2.931   0.090  -3.779  0.00  0.00     0.024 H 
ATOM     12  H   LIG d   1       2.338  -1.584  -3.903  0.00  0.00     0.024 H 
ATOM     13  H   LIG d   1       1.754  -0.528  -2.594  0.00  0.00     0.024 H 
ENDBRANCH   1  10
BRANCH   1  14
ATOM     14  C   LIG d   1       4.688  -2.142  -3.115  0.00  0.00     0.045 C 
ATOM     15  O   LIG d   1       4.247  -3.114  -3.705  0.00  0.00    -0.549 OA
ATOM     16  O   LIG d   1       5.879  -1.886  -3.169  0.00  0.00    -0.549 OA
ENDBRANCH   1  14
TORSDOF 4
ENDMDL
MODEL 3
REMARK VINA RESULT:      -4.1      1.921      2.649
REMARK  4 active torsions:
REMARK  status: ('A' for Active; 'I' for Inactive)
REMARK    1  A    between atoms: C_1  and  C_2 
REMARK    2  A    between atoms: C_2  and  C_3 
REMARK    3  A    between atoms: C_3  and  C_5 
REMARK    4  A    between atoms: C_3  and  C_6 
ROOT
ATOM      1  C   LIG d   1       4.534   0.044  -1.922  0.00  0.00    -0.004 C 
ATOM      2  H   LIG d   1       4.615   0.454  -0.915  0.00  0.00     0.036 H 
ENDROOT
BRANCH   1   3
ATOM      3  C   LIG d   1       3.255   0.563  -2.582  0.00  0.00    -0.048 C 
ATOM      4  H   LIG d   1       3.509   1.335  -3.308  0.00  0.00     0.027 H 
ATOM      5  H   LIG d   1       2.598   0.982  -1.821  0.00  0.00     0.027 H 
BRANCH   3   6
ATOM      6  C   LIG d   1       2.543  -0.591  -3.292  0.00  0.00    -0.065 C 
ATOM      7  H   LIG d   1       1.969  -1.165  -2.565  0.00  0.00     0.023 H 
ATOM      8  H   LIG d   1       1.873  -0.191  -4.053  0.00  0.00     0.023 H 
ATOM      9  H   LIG d   1       3.283  -1.238  -3.763  0.00  0.00     0.023 H 
ENDBRANCH   3   6
ENDBRANCH   1   3
BRANCH   1  10
ATOM     10  C   LIG d   1       4.485  -1.484  -1.847  0.00  0.00    -0.057 C 
ATOM     11  H   LIG d   1       3.723  -1.788  -1.130  0.00  0.00     0.024 H 
ATOM     12  H   LIG d   1       4.243  -1.887  -2.830  0.00  0.00     0.024 H 
ATOM     13  H   LIG d   1       5.457  -1.863  -1.529  0.00  0.00     0.024 H 
ENDBRANCH   1  10
BRANCH   1  14
ATOM     14  C   LIG d   1       5.729   0.471  -2.735  0.00  0.00     0.045 C 
ATOM     15  O   LIG d   1       5.872   1.641  -3.042  0.00  0.00    -0.549 OA
ATOM     16  O   LIG d   1       6.553  -0.357  -3.086  0.00  0.00    -0.549 OA
ENDBRANCH   1  14
TORSDOF 4
ENDMDL
MODEL 4
REMARK VINA RESULT:      -3.9      1.220      1.903
REMARK  4 active torsions:
REMARK  status: ('A' for Active; 'I' for Inactive)
REMARK    1  A    between atoms: C_1  and  C_2 
REMARK    2  A    between atoms: C_2  and  C_3 
REMARK    3  A    between atoms: C_3  and  C_5 
REMARK    4  A    between atoms: C_3  and  C_6 
ROOT
ATOM      1  C   LIG d   1       3.650   0.011  -3.641  0.00  0.00    -0.004 C 
ATOM      2  H   LIG d   1       4.522  -0.470  -4.081  0.00  0.00     0.036 H 
ENDROOT
BRANCH   1   3
ATOM      3  C   LIG d   1       2.990  -0.942  -2.643  0.00  0.00    -0.048 C 
ATOM      4  H   LIG d   1       2.019  -1.256  -3.029  0.00  0.00     0.027 H 
ATOM      5  H   LIG d   1       2.855  -0.433  -1.689  0.00  0.00     0.027 H 
BRANCH   3   6
ATOM      6  C   LIG d   1       3.881  -2.170  -2.445  0.00  0.00    -0.065 C 
ATOM      7  H   LIG d   1       4.079  -2.635  -3.411  0.00  0.00     0.023 H 
ATOM      8  H   LIG d   1       4.823  -1.866  -1.988  0.00  0.00     0.023 H 
ATOM      9  H   LIG d   1       3.375  -2.884  -1.795  0.00  0.00     0.023 H 
ENDBRANCH   3   6
ENDBRANCH   1   3
BRANCH   1  10
ATOM     10  C   LIG d   1       2.651   0.364  -4.746  0.00  0.00    -0.057 C 
ATOM     11  H   LIG d   1       3.121   0.223  -5.719  0.00  0.00     0.024 H 
ATOM     12  H   LIG d   1       1.777  -0.283  -4.666  0.00  0.00     0.024 H 
ATOM     13  H   LIG d   1       2.342   1.404  -4.638  0.00  0.00     0.024 H 
ENDBRANCH   1  10
BRANCH   1  14
ATOM     14  C   LIG d   1       4.076   1.269  -2.929  0.00  0.00     0.045 C 
ATOM     15  O   LIG d   1       3.647   2.350  -3.290  0.00  0.00    -0.549 OA
ATOM     16  O   LIG d   1       4.853   1.204  -1.991  0.00  0.00    -0.549 OA
ENDBRANCH   1  14
TORSDOF 4
ENDMDL
MODEL 5
REMARK VINA RESULT:      -3.7      2.407      2.912
REMARK  4 active torsions:
REMARK  status: ('A' for Active; 'I' for Inactive)
REMARK    1  A    between atoms: C_1  and  C_2 
REMARK    2  A    between atoms: C_2  and  C_3 
REMARK    3  A    between atoms: C_3  and  C_5 
REMARK    4  A    between atoms: C_3  and  C_6 
ROOT
ATOM      1  C   LIG d   1       4.828  -0.618  -2.171  0.00  0.00    -0.004 C 
ATOM      2  H   LIG d   1       5.334  -1.113  -1.343  0.00  0.00     0.036 H 
ENDROOT
BRANCH   1   3
ATOM      3  C   LIG d   1       5.774  -0.534  -3.370  0.00  0.00    -0.048 C 
ATOM      4  H   LIG d   1       6.272   0.436  -3.372  0.00  0.00     0.027 H 
ATOM      5  H   LIG d   1       5.205  -0.652  -4.291  0.00  0.00     0.027 H 
BRANCH   3   6
ATOM      6  C   LIG d   1       6.822  -1.645  -3.272  0.00  0.00    -0.065 C 
ATOM      7  H   LIG d   1       6.325  -2.615  -3.289  0.00  0.00     0.023 H 
ATOM      8  H   LIG d   1       7.509  -1.572  -4.115  0.00  0.00     0.023 H 
ATOM      9  H   LIG d   1       7.377  -1.538  -2.340  0.00  0.00     0.023 H 
ENDBRANCH   3   6
ENDBRANCH   1   3
BRANCH   1  10
ATOM     10  C   LIG d   1       4.418   0.794  -1.746  0.00  0.00    -0.057 C 
ATOM     11  H   LIG d   1       3.333   0.890  -1.802  0.00  0.00     0.024 H 
ATOM     12  H   LIG d   1       4.746   0.975  -0.722  0.00  0.00     0.024 H 
ATOM     13  H   LIG d   1       4.883   1.523  -2.410  0.00  0.00     0.024 H 
ENDBRANCH   1  10
BRANCH   1  14
ATOM     14  C   LIG d   1       3.601  -1.404  -2.553  0.00  0.00     0.045 C 
ATOM     15  O   LIG d   1       3.588  -2.616  -2.424  0.00  0.00    -0.549 OA
ATOM     16  O   LIG d   1       2.619  -0.827  -2.990  0.00  0.00    -0.549 OA
ENDBRANCH   1  14
TORSDOF 4
ENDMDL
MODEL 6
REMARK VINA RESULT:      -3.7      1.459      2.418
REMARK  4 active torsions:
REMARK  status: ('A' for Active; 'I' for Inactive)
REMARK    1  A    between atoms: C_1  and  C_2 
REMARK    2  A    between atoms: C_2  and  C_3 
REMARK    3  A    between atoms: C_3  and  C_5 
REMARK    4  A    between atoms: C_3  and  C_6 
ROOT
ATOM      1  C   LIG d   1       4.593  -0.943  -3.299  0.00  0.00    -0.004 C 
ATOM      2  H   LIG d   1       5.225  -1.516  -3.978  0.00  0.00     0.036 H 
ENDROOT
BRANCH   1   3
ATOM      3  C   LIG d   1       5.427   0.147  -2.624  0.00  0.00    -0.048 C 
ATOM      4  H   LIG d   1       5.806   0.835  -3.380  0.00  0.00     0.027 H 
ATOM      5  H   LIG d   1       6.264  -0.311  -2.097  0.00  0.00     0.027 H 
BRANCH   3   6
ATOM      6  C   LIG d   1       4.554   0.914  -1.628  0.00  0.00    -0.065 C 
ATOM      7  H   LIG d   1       5.165   1.239  -0.786  0.00  0.00     0.023 H 
ATOM      8  H   LIG d   1       4.120   1.784  -2.120  0.00  0.00     0.023 H 
ATOM      9  H   LIG d   1       3.757   0.263  -1.268  0.00  0.00     0.023 H 
ENDBRANCH   3   6
ENDBRANCH   1   3
BRANCH   1  10
ATOM     10  C   LIG d   1       4.014  -1.876  -2.233  0.00  0.00    -0.057 C 
ATOM     11  H   LIG d   1       3.105  -1.436  -1.821  0.00  0.00     0.024 H 
ATOM     12  H   LIG d   1       3.779  -2.841  -2.683  0.00  0.00     0.024 H 
ATOM     13  H   LIG d   1       4.744  -2.015  -1.436  0.00  0.00     0.024 H 
ENDBRANCH   1  10
BRANCH   1  14
ATOM     14  C   LIG d   1       3.469  -0.309  -4.076  0.00  0.00     0.045 C 
ATOM     15  O   LIG d   1       3.716   0.426  -5.017  0.00  0.00    -0.549 OA
ATOM     16  O   LIG d   1       2.311  -0.530  -3.764  0.00  0.00    -0.549 OA
ENDBRANCH   1  14
TORSDOF 4
ENDMDL
MODEL 7
REMARK VINA RESULT:      -3.6      2.203      2.749
REMARK  4 active torsions:
REMARK  status: ('A' for Active; 'I' for Inactive)
REMARK    1  A    between atoms: C_1  and  C_2 
REMARK    2  A    between atoms: C_2  and  C_3 
REMARK    3  A    between atoms: C_3  and  C_5 
REMARK    4  A    between atoms: C_3  and  C_6 
ROOT
ATOM      1  C   LIG d   1       5.080  -0.578  -2.952  0.00  0.00    -0.004 C 
ATOM      2  H   LIG d   1       4.491  -0.546  -3.869  0.00  0.00     0.036 H 
ENDROOT
BRANCH   1   3
ATOM      3  C   LIG d   1       6.453  -1.183  -3.248  0.00  0.00    -0.048 C 
ATOM      4  H   LIG d   1       6.963  -1.401  -2.309  0.00  0.00     0.027 H 
ATOM      5  H   LIG d   1       7.045  -0.475  -3.828  0.00  0.00     0.027 H 
BRANCH   3   6
ATOM      6  C   LIG d   1       6.279  -2.477  -4.046  0.00  0.00    -0.065 C 
ATOM      7  H   LIG d   1       6.825  -3.283  -3.555  0.00  0.00     0.023 H 
ATOM      8  H   LIG d   1       5.221  -2.734  -4.097  0.00  0.00     0.023 H 
ATOM      9  H   LIG d   1       6.668  -2.337  -5.054  0.00  0.00     0.023 H 
ENDBRANCH   3   6
ENDBRANCH   1   3
BRANCH   1  10
ATOM     10  C   LIG d   1       4.356  -1.438  -1.913  0.00  0.00    -0.057 C 
ATOM     11  H   LIG d   1       4.475  -2.491  -2.167  0.00  0.00     0.024 H 
ATOM     12  H   LIG d   1       4.783  -1.251  -0.927  0.00  0.00     0.024 H 
ATOM     13  H   LIG d   1       3.297  -1.182  -1.903  0.00  0.00     0.024 H 
ENDBRANCH   1  10
BRANCH   1  14
ATOM     14  C   LIG d   1       5.251   0.820  -2.417  0.00  0.00     0.045 C 
ATOM     15  O   LIG d   1       5.896   1.640  -3.046  0.00  0.00    -0.549 OA
ATOM     16  O   LIG d   1       4.744   1.131  -1.352  0.00  0.00    -0.549 OA
ENDBRANCH   1  14
TORSDOF 4
ENDMDL
MODEL 8
REMARK VINA RESULT:      -3.1      6.041      6.891
REMARK  4 active torsions:
REMARK  status: ('A' for Active; 'I' for Inactive)
REMARK    1  A    between atoms: C_1  and  C_2 
REMARK    2  A    between atoms: C_2  and  C_3 
REMARK    3  A    between atoms: C_3  and  C_5 
REMARK    4  A    between atoms: C_3  and  C_6 
ROOT
ATOM      1  C   LIG d   1       4.008   2.321  -9.559  0.00  0.00    -0.004 C 
ATOM      2  H   LIG d   1       3.975   3.340  -9.943  0.00  0.00     0.036 H 
ENDROOT
BRANCH   1   3
ATOM      3  C   LIG d   1       3.762   1.336 -10.703  0.00  0.00    -0.048 C 
ATOM      4  H   LIG d   1       4.709   0.889 -11.007  0.00  0.00     0.027 H 
ATOM      5  H   LIG d   1       3.322   1.865 -11.549  0.00  0.00     0.027 H 
BRANCH   3   6
ATOM      6  C   LIG d   1       2.806   0.237 -10.235  0.00  0.00    -0.065 C 
ATOM      7  H   LIG d   1       2.691   0.293  -9.152  0.00  0.00     0.023 H 
ATOM      8  H   LIG d   1       1.835   0.372 -10.711  0.00  0.00     0.023 H 
ATOM      9  H   LIG d   1       3.212  -0.737 -10.507  0.00  0.00     0.023 H 
ENDBRANCH   3   6
ENDBRANCH   1   3
BRANCH   1  10
ATOM     10  C   LIG d   1       2.924   2.143  -8.492  0.00  0.00    -0.057 C 
ATOM     11  H   LIG d   1       2.823   3.066  -7.921  0.00  0.00     0.024 H 
ATOM     12  H   LIG d   1       1.976   1.907  -8.974  0.00  0.00     0.024 H 
ATOM     13  H   LIG d   1       3.203   1.329  -7.823  0.00  0.00     0.024 H 
ENDBRANCH   1  10
BRANCH   1  14
ATOM     14  C   LIG d   1       5.360   2.057  -8.950  0.00  0.00     0.045 C 
ATOM     15  O   LIG d   1       5.477   1.242  -8.052  0.00  0.00    -0.549 OA
ATOM     16  O   LIG d   1       6.339   2.660  -9.356  0.00  0.00    -0.549 OA
ENDBRANCH   1  14
TORSDOF 4
ENDMDL
MODEL 9
REMARK VINA RESULT:      -2.9     14.667     15.983
REMARK  4 active torsions:
REMARK  status: ('A' for Active; 'I' for Inactive)
REMARK    1  A    between atoms: C_1  and  C_2 
REMARK    2  A    between atoms: C_2  and  C_3 
REMARK    3  A    between atoms: C_3  and  C_5 
REMARK    4  A    between atoms: C_3  and  C_6 
ROOT
ATOM      1  C   LIG d   1      -5.271  10.878  -9.999  0.00  0.00    -0.004 C 
ATOM      2  H   LIG d   1      -4.714  10.763 -10.930  0.00  0.00     0.036 H 
ENDROOT
BRANCH   1   3
ATOM      3  C   LIG d   1      -5.531  12.363  -9.741  0.00  0.00    -0.048 C 
ATOM      4  H   LIG d   1      -5.543  12.548  -8.667  0.00  0.00     0.027 H 
ATOM      5  H   LIG d   1      -6.493  12.643 -10.169  0.00  0.00     0.027 H 
BRANCH   3   6
ATOM      6  C   LIG d   1      -4.423  13.196 -10.390  0.00  0.00    -0.065 C 
ATOM      7  H   LIG d   1      -3.463  12.933  -9.944  0.00  0.00     0.023 H 
ATOM      8  H   LIG d   1      -4.395  12.992 -11.460  0.00  0.00     0.023 H 
ATOM      9  H   LIG d   1      -4.622  14.255 -10.226  0.00  0.00     0.023 H 
ENDBRANCH   3   6
ENDBRANCH   1   3
BRANCH   1  10
ATOM     10  C   LIG d   1      -4.456  10.294  -8.843  0.00  0.00    -0.057 C 
ATOM     11  H   LIG d   1      -5.123   9.780  -8.152  0.00  0.00     0.024 H 
ATOM     12  H   LIG d   1      -3.723   9.589  -9.235  0.00  0.00     0.024 H 
ATOM     13  H   LIG d   1      -3.940  11.100  -8.319  0.00  0.00     0.024 H 
ENDBRANCH   1  10
BRANCH   1  14
ATOM     14  C   LIG d   1      -6.584  10.148 -10.107  0.00  0.00     0.045 C 
ATOM     15  O   LIG d   1      -6.984   9.767 -11.193  0.00  0.00    -0.549 OA
ATOM     16  O   LIG d   1      -7.249   9.939  -9.106  0.00  0.00    -0.549 OA
ENDBRANCH   1  14
TORSDOF 4
ENDMDL
MODEL 10
REMARK VINA RESULT:      -2.9     10.030     10.715
REMARK  4 active torsions:
REMARK  status: ('A' for Active; 'I' for Inactive)
REMARK    1  A    between atoms: C_1  and  C_2 
REMARK    2  A    between atoms: C_2  and  C_3 
REMARK    3  A    between atoms: C_3  and  C_5 
REMARK    4  A    between atoms: C_3  and  C_6 
ROOT
ATOM      1  C   LIG d   1       4.745 -10.557  -3.732  0.00  0.00    -0.004 C 
ATOM      2  H   LIG d   1       5.060 -11.470  -4.238  0.00  0.00     0.036 H 
ENDROOT
BRANCH   1   3
ATOM      3  C   LIG d   1       5.250  -9.342  -4.513  0.00  0.00    -0.048 C 
ATOM      4  H   LIG d   1       4.632  -8.476  -4.275  0.00  0.00     0.027 H 
ATOM      5  H   LIG d   1       5.192  -9.548  -5.581  0.00  0.00     0.027 H 
BRANCH   3   6
ATOM      6  C   LIG d   1       6.702  -9.054  -4.126  0.00  0.00    -0.065 C 
ATOM      7  H   LIG d   1       7.285  -9.973  -4.193  0.00  0.00     0.023 H 
ATOM      8  H   LIG d   1       7.118  -8.309  -4.804  0.00  0.00     0.023 H 
ATOM      9  H   LIG d   1       6.737  -8.676  -3.104  0.00  0.00     0.023 H 
ENDBRANCH   3   6
ENDBRANCH   1   3
BRANCH   1  10
ATOM     10  C   LIG d   1       5.328 -10.532  -2.317  0.00  0.00    -0.057 C 
ATOM     11  H   LIG d   1       5.449  -9.498  -1.993  0.00  0.00     0.024 H 
ATOM     12  H   LIG d   1       4.652 -11.050  -1.637  0.00  0.00     0.024 H 
ATOM     13  H   LIG d   1       6.297 -11.031  -2.314  0.00  0.00     0.024 H 
ENDBRANCH   1  10
BRANCH   1  14
ATOM     14  C   LIG d   1       3.241 -10.519  -3.657  0.00  0.00     0.045 C 
ATOM     15  O   LIG d   1       2.580 -11.367  -4.229  0.00  0.00    -0.549 OA
ATOM     16  O   LIG d   1       2.685  -9.637  -3.024  0.00  0.00    -0.549 OA
ENDBRANCH   1  14
TORSDOF 4
ENDMDL
