MODEL 1
REMARK VINA RESULT:      -6.6      0.000      0.000
REMARK  5 active torsions:
REMARK  status: ('A' for Active; 'I' for Inactive)
REMARK    1  A    between atoms: C_1  and  C_2 
REMARK    2  A    between atoms: C_9  and  C_28 
REMARK    3  A    between atoms: C_10  and  C_16 
REMARK    4  A    between atoms: C_16  and  C_17 
REMARK       I    between atoms: C_17  and  N_19 
REMARK    5  A    between atoms: C_23  and  C_26 
ROOT
ATOM      1  C   LIG d   1       3.998   0.725  -2.943  0.00  0.00    -0.005 A 
ATOM      2  C   LIG d   1       3.221   1.766  -3.264  0.00  0.00     0.096 A 
ATOM      3  O   LIG d   1       2.809   1.667  -4.540  0.00  0.00    -0.463 OA
ATOM      4  C   LIG d   1       3.300   0.553  -5.120  0.00  0.00     0.139 A 
ATOM      5  C   LIG d   1       4.079  -0.111  -4.150  0.00  0.00     0.024 A 
ATOM      6  C   LIG d   1       4.719  -1.303  -4.457  0.00  0.00    -0.040 A 
ATOM      7  C   LIG d   1       4.584  -1.840  -5.737  0.00  0.00     0.022 A 
ATOM      8  C   LIG d   1       5.243  -3.100  -6.094  0.00  0.00    -0.029 A 
ATOM      9  C   LIG d   1       5.082  -3.574  -7.357  0.00  0.00     0.049 A 
ATOM     10  C   LIG d   1       4.288  -2.859  -8.278  0.00  0.00     0.341 A 
ATOM     11  O   LIG d   1       4.147  -3.297  -9.405  0.00  0.00    -0.245 OA
ATOM     12  O   LIG d   1       3.683  -1.708  -7.944  0.00  0.00    -0.422 OA
ATOM     13  C   LIG d   1       3.805  -1.177  -6.707  0.00  0.00     0.143 A 
ATOM     14  C   LIG d   1       3.171   0.012  -6.390  0.00  0.00     0.024 A 
ATOM     15  H   LIG d   1       2.961   2.572  -2.592  0.00  0.00     0.103 H 
ATOM     16  H   LIG d   1       5.316  -1.809  -3.713  0.00  0.00     0.063 H 
ATOM     17  H   LIG d   1       2.574   0.519  -7.134  0.00  0.00     0.069 H 
ENDROOT
BRANCH   9  18
ATOM     18  C   LIG d   1       5.743  -4.863  -7.771  0.00  0.00     0.056 C 
ATOM     19  H   LIG d   1       6.736  -4.921  -7.327  0.00  0.00     0.041 H 
ATOM     20  H   LIG d   1       5.828  -4.896  -8.857  0.00  0.00     0.041 H 
BRANCH  18  21
ATOM     21  C   LIG d   1       4.912  -6.027  -7.297  0.00  0.00     0.220 C 
ATOM     22  O   LIG d   1       3.706  -6.003  -7.422  0.00  0.00    -0.275 OA
ATOM     23  N   LIG d   1       5.509  -7.097  -6.736  0.00  0.00    -0.301 N 
ATOM     24  C   LIG d   1       4.712  -8.240  -6.268  0.00  0.00     0.023 C 
ATOM     25  C   LIG d   1       6.969  -7.142  -6.577  0.00  0.00     0.015 C 
ATOM     26  C   LIG d   1       5.066  -8.523  -4.805  0.00  0.00     0.014 C 
ATOM     27  H   LIG d   1       4.940  -9.116  -6.875  0.00  0.00     0.047 H 
ATOM     28  H   LIG d   1       3.651  -8.003  -6.348  0.00  0.00     0.047 H 
ATOM     29  C   LIG d   1       6.579  -8.717  -4.679  0.00  0.00    -0.042 C 
ATOM     30  H   LIG d   1       4.754  -7.681  -4.186  0.00  0.00     0.038 H 
ATOM     31  C   LIG d   1       7.297  -7.438  -5.111  0.00  0.00    -0.036 C 
ATOM     32  H   LIG d   1       6.830  -8.943  -3.642  0.00  0.00     0.027 H 
ATOM     33  H   LIG d   1       6.893  -9.544  -5.317  0.00  0.00     0.027 H 
ATOM     34  H   LIG d   1       6.965  -6.606  -4.489  0.00  0.00     0.028 H 
ATOM     35  H   LIG d   1       8.374  -7.569  -4.999  0.00  0.00     0.028 H 
ATOM     36  H   LIG d   1       7.397  -6.181  -6.862  0.00  0.00     0.046 H 
ATOM     37  H   LIG d   1       7.383  -7.928  -7.209  0.00  0.00     0.046 H 
BRANCH  26  38
ATOM     38  C   LIG d   1       4.358  -9.773  -4.349  0.00  0.00     0.046 C 
ATOM     39  O   LIG d   1       4.783 -10.858  -4.667  0.00  0.00    -0.549 OA
ATOM     40  O   LIG d   1       3.256  -9.680  -3.588  0.00  0.00    -0.549 OA
ENDBRANCH  26  38
ENDBRANCH  18  21
ENDBRANCH   9  18
BRANCH   8  41
ATOM     41  C   LIG d   1       6.079  -3.848  -5.089  0.00  0.00    -0.038 C 
ATOM     42  H   LIG d   1       7.043  -3.350  -4.975  0.00  0.00     0.028 H 
ATOM     43  H   LIG d   1       5.564  -3.867  -4.128  0.00  0.00     0.028 H 
ATOM     44  H   LIG d   1       6.238  -4.870  -5.436  0.00  0.00     0.028 H 
ENDBRANCH   8  41
BRANCH   1  45
ATOM     45  C   LIG d   1       4.656   0.461  -1.614  0.00  0.00    -0.036 C 
ATOM     46  H   LIG d   1       5.739   0.522  -1.727  0.00  0.00     0.028 H 
ATOM     47  H   LIG d   1       4.324   1.206  -0.890  0.00  0.00     0.028 H 
ATOM     48  H   LIG d   1       4.383  -0.534  -1.264  0.00  0.00     0.028 H 
ENDBRANCH   1  45
TORSDOF 5
ENDMDL
MODEL 2
REMARK VINA RESULT:      -6.4      6.803      8.829
REMARK  5 active torsions:
REMARK  status: ('A' for Active; 'I' for Inactive)
REMARK    1  A    between atoms: C_1  and  C_2 
REMARK    2  A    between atoms: C_9  and  C_28 
REMARK    3  A    between atoms: C_10  and  C_16 
REMARK    4  A    between atoms: C_16  and  C_17 
REMARK       I    between atoms: C_17  and  N_19 
REMARK    5  A    between atoms: C_23  and  C_26 
ROOT
ATOM      1  C   LIG d   1       9.717   6.559  -9.756  0.00  0.00    -0.005 A 
ATOM      2  C   LIG d   1       9.986   7.854  -9.550  0.00  0.00     0.096 A 
ATOM      3  O   LIG d   1      10.126   8.099  -8.236  0.00  0.00    -0.463 OA
ATOM      4  C   LIG d   1       9.953   6.973  -7.514  0.00  0.00     0.139 A 
ATOM      5  C   LIG d   1       9.685   5.933  -8.427  0.00  0.00     0.024 A 
ATOM      6  C   LIG d   1       9.462   4.640  -7.974  0.00  0.00    -0.040 A 
ATOM      7  C   LIG d   1       9.505   4.379  -6.605  0.00  0.00     0.022 A 
ATOM      8  C   LIG d   1       9.279   3.024  -6.093  0.00  0.00    -0.029 A 
ATOM      9  C   LIG d   1       9.327   2.829  -4.750  0.00  0.00     0.049 A 
ATOM     10  C   LIG d   1       9.601   3.916  -3.893  0.00  0.00     0.341 A 
ATOM     11  O   LIG d   1       9.646   3.727  -2.691  0.00  0.00    -0.245 OA
ATOM     12  O   LIG d   1       9.812   5.154  -4.367  0.00  0.00    -0.422 OA
ATOM     13  C   LIG d   1       9.773   5.419  -5.692  0.00  0.00     0.143 A 
ATOM     14  C   LIG d   1       9.995   6.706  -6.154  0.00  0.00     0.024 A 
ATOM     15  H   LIG d   1      10.077   8.597 -10.330  0.00  0.00     0.103 H 
ATOM     16  H   LIG d   1       9.256   3.845  -8.675  0.00  0.00     0.063 H 
ATOM     17  H   LIG d   1      10.200   7.502  -5.454  0.00  0.00     0.069 H 
ENDROOT
BRANCH   9  18
ATOM     18  C   LIG d   1       9.097   1.455  -4.177  0.00  0.00     0.056 C 
ATOM     19  H   LIG d   1       9.619   1.366  -3.225  0.00  0.00     0.041 H 
ATOM     20  H   LIG d   1       9.475   0.703  -4.870  0.00  0.00     0.041 H 
BRANCH  18  21
ATOM     21  C   LIG d   1       7.620   1.242  -3.963  0.00  0.00     0.220 C 
ATOM     22  O   LIG d   1       6.937   2.138  -3.516  0.00  0.00    -0.275 OA
ATOM     23  N   LIG d   1       7.060   0.055  -4.268  0.00  0.00    -0.301 N 
ATOM     24  C   LIG d   1       5.621  -0.168  -4.064  0.00  0.00     0.023 C 
ATOM     25  C   LIG d   1       7.874  -1.040  -4.811  0.00  0.00     0.015 C 
ATOM     26  C   LIG d   1       5.433  -1.425  -3.209  0.00  0.00     0.014 C 
ATOM     27  H   LIG d   1       5.132  -0.306  -5.028  0.00  0.00     0.047 H 
ATOM     28  H   LIG d   1       5.187   0.691  -3.551  0.00  0.00     0.047 H 
ATOM     29  C   LIG d   1       6.165  -2.598  -3.867  0.00  0.00    -0.042 C 
ATOM     30  H   LIG d   1       5.843  -1.253  -2.214  0.00  0.00     0.038 H 
ATOM     31  C   LIG d   1       7.661  -2.288  -3.948  0.00  0.00    -0.036 C 
ATOM     32  H   LIG d   1       6.013  -3.499  -3.273  0.00  0.00     0.027 H 
ATOM     33  H   LIG d   1       5.771  -2.754  -4.872  0.00  0.00     0.027 H 
ATOM     34  H   LIG d   1       8.050  -2.108  -2.945  0.00  0.00     0.028 H 
ATOM     35  H   LIG d   1       8.184  -3.133  -4.395  0.00  0.00     0.028 H 
ATOM     36  H   LIG d   1       8.926  -0.757  -4.791  0.00  0.00     0.046 H 
ATOM     37  H   LIG d   1       7.571  -1.250  -5.837  0.00  0.00     0.046 H 
BRANCH  26  38
ATOM     38  C   LIG d   1       3.965  -1.746  -3.101  0.00  0.00     0.046 C 
ATOM     39  O   LIG d   1       3.600  -2.701  -2.458  0.00  0.00    -0.549 OA
ATOM     40  O   LIG d   1       3.062  -0.968  -3.720  0.00  0.00    -0.549 OA
ENDBRANCH  26  38
ENDBRANCH  18  21
ENDBRANCH   9  18
BRANCH   8  41
ATOM     41  C   LIG d   1       8.996   1.879  -7.030  0.00  0.00    -0.038 C 
ATOM     42  H   LIG d   1       8.476   2.252  -7.913  0.00  0.00     0.028 H 
ATOM     43  H   LIG d   1       9.936   1.415  -7.331  0.00  0.00     0.028 H 
ATOM     44  H   LIG d   1       8.372   1.142  -6.526  0.00  0.00     0.028 H 
ENDBRANCH   8  41
BRANCH   1  45
ATOM     45  C   LIG d   1       9.492   5.881 -11.082  0.00  0.00    -0.036 C 
ATOM     46  H   LIG d   1      10.427   5.439 -11.428  0.00  0.00     0.028 H 
ATOM     47  H   LIG d   1       8.742   5.098 -10.967  0.00  0.00     0.028 H 
ATOM     48  H   LIG d   1       9.144   6.613 -11.811  0.00  0.00     0.028 H 
ENDBRANCH   1  45
TORSDOF 5
ENDMDL
MODEL 3
REMARK VINA RESULT:      -6.2      6.846      8.543
REMARK  5 active torsions:
REMARK  status: ('A' for Active; 'I' for Inactive)
REMARK    1  A    between atoms: C_1  and  C_2 
REMARK    2  A    between atoms: C_9  and  C_28 
REMARK    3  A    between atoms: C_10  and  C_16 
REMARK    4  A    between atoms: C_16  and  C_17 
REMARK       I    between atoms: C_17  and  N_19 
REMARK    5  A    between atoms: C_23  and  C_26 
ROOT
ATOM      1  C   LIG d   1      10.474   8.558  -6.299  0.00  0.00    -0.005 A 
ATOM      2  C   LIG d   1      10.491   8.973  -7.572  0.00  0.00     0.096 A 
ATOM      3  O   LIG d   1      10.216   7.952  -8.401  0.00  0.00    -0.463 OA
ATOM      4  C   LIG d   1      10.006   6.813  -7.710  0.00  0.00     0.139 A 
ATOM      5  C   LIG d   1      10.155   7.123  -6.343  0.00  0.00     0.024 A 
ATOM      6  C   LIG d   1       9.995   6.141  -5.376  0.00  0.00    -0.040 A 
ATOM      7  C   LIG d   1       9.684   4.839  -5.771  0.00  0.00     0.022 A 
ATOM      8  C   LIG d   1       9.503   3.778  -4.776  0.00  0.00    -0.029 A 
ATOM      9  C   LIG d   1       9.207   2.528  -5.217  0.00  0.00     0.049 A 
ATOM     10  C   LIG d   1       9.072   2.287  -6.601  0.00  0.00     0.341 A 
ATOM     11  O   LIG d   1       8.802   1.162  -6.983  0.00  0.00    -0.245 OA
ATOM     12  O   LIG d   1       9.234   3.263  -7.507  0.00  0.00    -0.422 OA
ATOM     13  C   LIG d   1       9.535   4.528  -7.138  0.00  0.00     0.143 A 
ATOM     14  C   LIG d   1       9.697   5.516  -8.094  0.00  0.00     0.024 A 
ATOM     15  H   LIG d   1      10.697   9.986  -7.887  0.00  0.00     0.103 H 
ATOM     16  H   LIG d   1      10.110   6.381  -4.330  0.00  0.00     0.063 H 
ATOM     17  H   LIG d   1       9.582   5.277  -9.141  0.00  0.00     0.069 H 
ENDROOT
BRANCH   9  18
ATOM     18  C   LIG d   1       9.017   1.404  -4.232  0.00  0.00     0.056 C 
ATOM     19  H   LIG d   1       9.513   1.654  -3.295  0.00  0.00     0.041 H 
ATOM     20  H   LIG d   1       9.446   0.488  -4.638  0.00  0.00     0.041 H 
BRANCH  18  21
ATOM     21  C   LIG d   1       7.545   1.200  -3.983  0.00  0.00     0.220 C 
ATOM     22  O   LIG d   1       6.873   2.106  -3.538  0.00  0.00    -0.275 OA
ATOM     23  N   LIG d   1       6.974   0.010  -4.256  0.00  0.00    -0.301 N 
ATOM     24  C   LIG d   1       5.540  -0.205  -4.017  0.00  0.00     0.023 C 
ATOM     25  C   LIG d   1       7.773  -1.098  -4.796  0.00  0.00     0.015 C 
ATOM     26  C   LIG d   1       5.367  -1.447  -3.136  0.00  0.00     0.014 C 
ATOM     27  H   LIG d   1       5.030  -0.358  -4.968  0.00  0.00     0.047 H 
ATOM     28  H   LIG d   1       5.119   0.664  -3.510  0.00  0.00     0.047 H 
ATOM     29  C   LIG d   1       6.080  -2.633  -3.789  0.00  0.00    -0.042 C 
ATOM     30  H   LIG d   1       5.798  -1.258  -2.153  0.00  0.00     0.038 H 
ATOM     31  C   LIG d   1       7.575  -2.329  -3.907  0.00  0.00    -0.036 C 
ATOM     32  H   LIG d   1       5.938  -3.523  -3.176  0.00  0.00     0.027 H 
ATOM     33  H   LIG d   1       5.665  -2.806  -4.782  0.00  0.00     0.027 H 
ATOM     34  H   LIG d   1       7.986  -2.133  -2.917  0.00  0.00     0.028 H 
ATOM     35  H   LIG d   1       8.087  -3.184  -4.351  0.00  0.00     0.028 H 
ATOM     36  H   LIG d   1       8.827  -0.818  -4.804  0.00  0.00     0.046 H 
ATOM     37  H   LIG d   1       7.448  -1.325  -5.812  0.00  0.00     0.046 H 
BRANCH  26  38
ATOM     38  C   LIG d   1       3.900  -1.760  -2.991  0.00  0.00     0.046 C 
ATOM     39  O   LIG d   1       3.547  -2.710  -2.333  0.00  0.00    -0.549 OA
ATOM     40  O   LIG d   1       2.986  -0.983  -3.594  0.00  0.00    -0.549 OA
ENDBRANCH  26  38
ENDBRANCH  18  21
ENDBRANCH   9  18
BRANCH   8  41
ATOM     41  C   LIG d   1       9.645   4.064  -3.304  0.00  0.00    -0.038 C 
ATOM     42  H   LIG d   1       9.838   5.127  -3.157  0.00  0.00     0.028 H 
ATOM     43  H   LIG d   1       8.725   3.787  -2.788  0.00  0.00     0.028 H 
ATOM     44  H   LIG d   1      10.476   3.486  -2.899  0.00  0.00     0.028 H 
ENDBRANCH   8  41
BRANCH   1  45
ATOM     45  C   LIG d   1      10.730   9.391  -5.071  0.00  0.00    -0.036 C 
ATOM     46  H   LIG d   1       9.843   9.386  -4.437  0.00  0.00     0.028 H 
ATOM     47  H   LIG d   1      11.573   8.975  -4.519  0.00  0.00     0.028 H 
ATOM     48  H   LIG d   1      10.959  10.415  -5.367  0.00  0.00     0.028 H 
ENDBRANCH   1  45
TORSDOF 5
ENDMDL
MODEL 4
REMARK VINA RESULT:      -6.2      6.695     10.361
REMARK  5 active torsions:
REMARK  status: ('A' for Active; 'I' for Inactive)
REMARK    1  A    between atoms: C_1  and  C_2 
REMARK    2  A    between atoms: C_9  and  C_28 
REMARK    3  A    between atoms: C_10  and  C_16 
REMARK    4  A    between atoms: C_16  and  C_17 
REMARK       I    between atoms: C_17  and  N_19 
REMARK    5  A    between atoms: C_23  and  C_26 
ROOT
ATOM      1  C   LIG d   1       4.132  -0.908  -3.006  0.00  0.00    -0.005 A 
ATOM      2  C   LIG d   1       3.885  -2.222  -3.072  0.00  0.00     0.096 A 
ATOM      3  O   LIG d   1       4.945  -2.872  -3.584  0.00  0.00    -0.463 OA
ATOM      4  C   LIG d   1       5.941  -2.012  -3.880  0.00  0.00     0.139 A 
ATOM      5  C   LIG d   1       5.491  -0.721  -3.535  0.00  0.00     0.024 A 
ATOM      6  C   LIG d   1       6.309   0.383  -3.727  0.00  0.00    -0.040 A 
ATOM      7  C   LIG d   1       7.583   0.204  -4.266  0.00  0.00     0.022 A 
ATOM      8  C   LIG d   1       8.474   1.349  -4.478  0.00  0.00    -0.029 A 
ATOM      9  C   LIG d   1       9.701   1.116  -5.012  0.00  0.00     0.049 A 
ATOM     10  C   LIG d   1      10.087  -0.202  -5.335  0.00  0.00     0.341 A 
ATOM     11  O   LIG d   1      11.192  -0.397  -5.808  0.00  0.00    -0.245 OA
ATOM     12  O   LIG d   1       9.269  -1.247  -5.134  0.00  0.00    -0.422 OA
ATOM     13  C   LIG d   1       8.033  -1.086  -4.612  0.00  0.00     0.143 A 
ATOM     14  C   LIG d   1       7.209  -2.182  -4.416  0.00  0.00     0.024 A 
ATOM     15  H   LIG d   1       2.964  -2.692  -2.759  0.00  0.00     0.103 H 
ATOM     16  H   LIG d   1       5.962   1.371  -3.462  0.00  0.00     0.063 H 
ATOM     17  H   LIG d   1       7.554  -3.170  -4.681  0.00  0.00     0.069 H 
ENDROOT
BRANCH   9  18
ATOM     18  C   LIG d   1      10.650   2.261  -5.252  0.00  0.00     0.056 C 
ATOM     19  H   LIG d   1      10.113   3.087  -5.718  0.00  0.00     0.041 H 
ATOM     20  H   LIG d   1      11.456   1.934  -5.910  0.00  0.00     0.041 H 
BRANCH  18  21
ATOM     21  C   LIG d   1      11.230   2.716  -3.938  0.00  0.00     0.220 C 
ATOM     22  O   LIG d   1      11.697   1.905  -3.168  0.00  0.00    -0.275 OA
ATOM     23  N   LIG d   1      11.230   4.026  -3.619  0.00  0.00    -0.301 N 
ATOM     24  C   LIG d   1      11.791   4.485  -2.341  0.00  0.00     0.023 C 
ATOM     25  C   LIG d   1      10.669   5.022  -4.541  0.00  0.00     0.015 C 
ATOM     26  C   LIG d   1      10.739   5.328  -1.614  0.00  0.00     0.014 C 
ATOM     27  H   LIG d   1      12.679   5.089  -2.527  0.00  0.00     0.047 H 
ATOM     28  H   LIG d   1      12.056   3.623  -1.727  0.00  0.00     0.047 H 
ATOM     29  C   LIG d   1      10.270   6.456  -2.536  0.00  0.00    -0.042 C 
ATOM     30  H   LIG d   1       9.889   4.700  -1.347  0.00  0.00     0.038 H 
ATOM     31  C   LIG d   1       9.629   5.859  -3.790  0.00  0.00    -0.036 C 
ATOM     32  H   LIG d   1       9.539   7.072  -2.013  0.00  0.00     0.027 H 
ATOM     33  H   LIG d   1      11.125   7.070  -2.822  0.00  0.00     0.027 H 
ATOM     34  H   LIG d   1       8.789   5.225  -3.504  0.00  0.00     0.028 H 
ATOM     35  H   LIG d   1       9.275   6.663  -4.436  0.00  0.00     0.028 H 
ATOM     36  H   LIG d   1      10.193   4.514  -5.380  0.00  0.00     0.046 H 
ATOM     37  H   LIG d   1      11.463   5.671  -4.910  0.00  0.00     0.046 H 
BRANCH  26  38
ATOM     38  C   LIG d   1      11.341   5.918  -0.364  0.00  0.00     0.046 C 
ATOM     39  O   LIG d   1      12.541   6.023  -0.264  0.00  0.00    -0.549 OA
ATOM     40  O   LIG d   1      10.544   6.326   0.636  0.00  0.00    -0.549 OA
ENDBRANCH  26  38
ENDBRANCH  18  21
ENDBRANCH   9  18
BRANCH   8  41
ATOM     41  C   LIG d   1       8.040   2.745  -4.118  0.00  0.00    -0.038 C 
ATOM     42  H   LIG d   1       7.088   2.705  -3.589  0.00  0.00     0.028 H 
ATOM     43  H   LIG d   1       8.792   3.206  -3.477  0.00  0.00     0.028 H 
ATOM     44  H   LIG d   1       7.926   3.337  -5.027  0.00  0.00     0.028 H 
ENDBRANCH   8  41
BRANCH   1  45
ATOM     45  C   LIG d   1       3.206   0.164  -2.495  0.00  0.00    -0.036 C 
ATOM     46  H   LIG d   1       3.542   0.498  -1.513  0.00  0.00     0.028 H 
ATOM     47  H   LIG d   1       3.208   1.007  -3.186  0.00  0.00     0.028 H 
ATOM     48  H   LIG d   1       2.195  -0.237  -2.415  0.00  0.00     0.028 H 
ENDBRANCH   1  45
TORSDOF 5
ENDMDL
MODEL 5
REMARK VINA RESULT:      -6.2      4.274      6.959
REMARK  5 active torsions:
REMARK  status: ('A' for Active; 'I' for Inactive)
REMARK    1  A    between atoms: C_1  and  C_2 
REMARK    2  A    between atoms: C_9  and  C_28 
REMARK    3  A    between atoms: C_10  and  C_16 
REMARK    4  A    between atoms: C_16  and  C_17 
REMARK       I    between atoms: C_17  and  N_19 
REMARK    5  A    between atoms: C_23  and  C_26 
ROOT
ATOM      1  C   LIG d   1       4.009  -0.134  -2.783  0.00  0.00    -0.005 A 
ATOM      2  C   LIG d   1       4.467  -1.168  -2.067  0.00  0.00     0.096 A 
ATOM      3  O   LIG d   1       4.784  -2.193  -2.877  0.00  0.00    -0.463 OA
ATOM      4  C   LIG d   1       4.546  -1.880  -4.167  0.00  0.00     0.139 A 
ATOM      5  C   LIG d   1       4.043  -0.563  -4.188  0.00  0.00     0.024 A 
ATOM      6  C   LIG d   1       3.703   0.040  -5.391  0.00  0.00    -0.040 A 
ATOM      7  C   LIG d   1       3.864  -0.669  -6.581  0.00  0.00     0.022 A 
ATOM      8  C   LIG d   1       3.520  -0.060  -7.868  0.00  0.00    -0.029 A 
ATOM      9  C   LIG d   1       3.691  -0.799  -8.995  0.00  0.00     0.049 A 
ATOM     10  C   LIG d   1       4.199  -2.112  -8.901  0.00  0.00     0.341 A 
ATOM     11  O   LIG d   1       4.353  -2.762  -9.919  0.00  0.00    -0.245 OA
ATOM     12  O   LIG d   1       4.518  -2.663  -7.720  0.00  0.00    -0.422 OA
ATOM     13  C   LIG d   1       4.367  -1.986  -6.559  0.00  0.00     0.143 A 
ATOM     14  C   LIG d   1       4.703  -2.579  -5.355  0.00  0.00     0.024 A 
ATOM     15  H   LIG d   1       4.568  -1.176  -0.991  0.00  0.00     0.103 H 
ATOM     16  H   LIG d   1       3.317   1.049  -5.404  0.00  0.00     0.063 H 
ATOM     17  H   LIG d   1       5.088  -3.588  -5.339  0.00  0.00     0.069 H 
ENDROOT
BRANCH   9  18
ATOM     18  C   LIG d   1       3.346  -0.217 -10.341  0.00  0.00     0.056 C 
ATOM     19  H   LIG d   1       4.104  -0.508 -11.068  0.00  0.00     0.041 H 
ATOM     20  H   LIG d   1       3.310   0.870 -10.269  0.00  0.00     0.041 H 
BRANCH  18  21
ATOM     21  C   LIG d   1       2.002  -0.735 -10.782  0.00  0.00     0.220 C 
ATOM     22  O   LIG d   1       1.055  -0.688 -10.025  0.00  0.00    -0.275 OA
ATOM     23  N   LIG d   1       1.850  -1.250 -12.018  0.00  0.00    -0.301 N 
ATOM     24  C   LIG d   1       0.546  -1.759 -12.463  0.00  0.00     0.023 C 
ATOM     25  C   LIG d   1       2.986  -1.314 -12.947  0.00  0.00     0.015 C 
ATOM     26  C   LIG d   1       0.722  -3.195 -12.967  0.00  0.00     0.014 C 
ATOM     27  H   LIG d   1       0.164  -1.134 -13.269  0.00  0.00     0.047 H 
ATOM     28  H   LIG d   1      -0.155  -1.749 -11.627  0.00  0.00     0.047 H 
ATOM     29  C   LIG d   1       1.808  -3.223 -14.044  0.00  0.00    -0.042 C 
ATOM     30  H   LIG d   1       1.016  -3.839 -12.137  0.00  0.00     0.038 H 
ATOM     31  C   LIG d   1       3.135  -2.755 -13.446  0.00  0.00    -0.036 C 
ATOM     32  H   LIG d   1       1.919  -4.239 -14.422  0.00  0.00     0.027 H 
ATOM     33  H   LIG d   1       1.524  -2.561 -14.863  0.00  0.00     0.027 H 
ATOM     34  H   LIG d   1       3.408  -3.402 -12.612  0.00  0.00     0.028 H 
ATOM     35  H   LIG d   1       3.914  -2.797 -14.208  0.00  0.00     0.028 H 
ATOM     36  H   LIG d   1       3.897  -1.009 -12.431  0.00  0.00     0.046 H 
ATOM     37  H   LIG d   1       2.807  -0.651 -13.794  0.00  0.00     0.046 H 
BRANCH  26  38
ATOM     38  C   LIG d   1      -0.578  -3.687 -13.550  0.00  0.00     0.046 C 
ATOM     39  O   LIG d   1      -0.642  -3.985 -14.719  0.00  0.00    -0.549 OA
ATOM     40  O   LIG d   1      -1.665  -3.795 -12.769  0.00  0.00    -0.549 OA
ENDBRANCH  26  38
ENDBRANCH  18  21
ENDBRANCH   9  18
BRANCH   8  41
ATOM     41  C   LIG d   1       2.985   1.347  -7.942  0.00  0.00    -0.038 C 
ATOM     42  H   LIG d   1       2.427   1.572  -7.033  0.00  0.00     0.028 H 
ATOM     43  H   LIG d   1       3.815   2.047  -8.040  0.00  0.00     0.028 H 
ATOM     44  H   LIG d   1       2.326   1.442  -8.805  0.00  0.00     0.028 H 
ENDBRANCH   8  41
BRANCH   1  45
ATOM     45  C   LIG d   1       3.550   1.201  -2.255  0.00  0.00    -0.036 C 
ATOM     46  H   LIG d   1       3.190   1.084  -1.233  0.00  0.00     0.028 H 
ATOM     47  H   LIG d   1       4.384   1.903  -2.268  0.00  0.00     0.028 H 
ATOM     48  H   LIG d   1       2.745   1.582  -2.883  0.00  0.00     0.028 H 
ENDBRANCH   1  45
TORSDOF 5
ENDMDL
MODEL 6
REMARK VINA RESULT:      -6.1      2.064      8.384
REMARK  5 active torsions:
REMARK  status: ('A' for Active; 'I' for Inactive)
REMARK    1  A    between atoms: C_1  and  C_2 
REMARK    2  A    between atoms: C_9  and  C_28 
REMARK    3  A    between atoms: C_10  and  C_16 
REMARK    4  A    between atoms: C_16  and  C_17 
REMARK       I    between atoms: C_17  and  N_19 
REMARK    5  A    between atoms: C_23  and  C_26 
ROOT
ATOM      1  C   LIG d   1       7.682 -10.760  -3.997  0.00  0.00    -0.005 A 
ATOM      2  C   LIG d   1       6.738 -11.684  -3.779  0.00  0.00     0.096 A 
ATOM      3  O   LIG d   1       5.522 -11.187  -4.064  0.00  0.00    -0.463 OA
ATOM      4  C   LIG d   1       5.610  -9.908  -4.483  0.00  0.00     0.139 A 
ATOM      5  C   LIG d   1       6.976  -9.559  -4.467  0.00  0.00     0.024 A 
ATOM      6  C   LIG d   1       7.382  -8.290  -4.852  0.00  0.00    -0.040 A 
ATOM      7  C   LIG d   1       6.424  -7.359  -5.256  0.00  0.00     0.022 A 
ATOM      8  C   LIG d   1       6.819  -6.011  -5.674  0.00  0.00    -0.029 A 
ATOM      9  C   LIG d   1       5.844  -5.144  -6.052  0.00  0.00     0.049 A 
ATOM     10  C   LIG d   1       4.495  -5.560  -6.044  0.00  0.00     0.341 A 
ATOM     11  O   LIG d   1       3.631  -4.775  -6.390  0.00  0.00    -0.245 OA
ATOM     12  O   LIG d   1       4.140  -6.798  -5.665  0.00  0.00    -0.422 OA
ATOM     13  C   LIG d   1       5.058  -7.708  -5.272  0.00  0.00     0.143 A 
ATOM     14  C   LIG d   1       4.664  -8.978  -4.886  0.00  0.00     0.024 A 
ATOM     15  H   LIG d   1       6.928 -12.687  -3.425  0.00  0.00     0.103 H 
ATOM     16  H   LIG d   1       8.429  -8.024  -4.838  0.00  0.00     0.063 H 
ATOM     17  H   LIG d   1       3.617  -9.244  -4.898  0.00  0.00     0.069 H 
ENDROOT
BRANCH   9  18
ATOM     18  C   LIG d   1       6.201  -3.747  -6.485  0.00  0.00     0.056 C 
ATOM     19  H   LIG d   1       5.611  -3.475  -7.360  0.00  0.00     0.041 H 
ATOM     20  H   LIG d   1       7.261  -3.702  -6.733  0.00  0.00     0.041 H 
BRANCH  18  21
ATOM     21  C   LIG d   1       5.908  -2.784  -5.363  0.00  0.00     0.220 C 
ATOM     22  O   LIG d   1       6.197  -3.076  -4.222  0.00  0.00    -0.275 OA
ATOM     23  N   LIG d   1       5.326  -1.598  -5.628  0.00  0.00    -0.301 N 
ATOM     24  C   LIG d   1       5.034  -0.648  -4.545  0.00  0.00     0.023 C 
ATOM     25  C   LIG d   1       4.970  -1.228  -7.004  0.00  0.00     0.015 C 
ATOM     26  C   LIG d   1       3.552  -0.264  -4.611  0.00  0.00     0.014 C 
ATOM     27  H   LIG d   1       5.648   0.244  -4.664  0.00  0.00     0.047 H 
ATOM     28  H   LIG d   1       5.247  -1.115  -3.582  0.00  0.00     0.047 H 
ATOM     29  C   LIG d   1       3.229   0.261  -6.011  0.00  0.00    -0.042 C 
ATOM     30  H   LIG d   1       2.939  -1.140  -4.400  0.00  0.00     0.038 H 
ATOM     31  C   LIG d   1       3.490  -0.837  -7.043  0.00  0.00    -0.036 C 
ATOM     32  H   LIG d   1       2.181   0.558  -6.055  0.00  0.00     0.027 H 
ATOM     33  H   LIG d   1       3.860   1.123  -6.231  0.00  0.00     0.027 H 
ATOM     34  H   LIG d   1       2.877  -1.709  -6.811  0.00  0.00     0.028 H 
ATOM     35  H   LIG d   1       3.237  -0.471  -8.038  0.00  0.00     0.028 H 
ATOM     36  H   LIG d   1       5.142  -2.078  -7.666  0.00  0.00     0.046 H 
ATOM     37  H   LIG d   1       5.579  -0.384  -7.328  0.00  0.00     0.046 H 
BRANCH  26  38
ATOM     38  C   LIG d   1       3.265   0.809  -3.592  0.00  0.00     0.046 C 
ATOM     39  O   LIG d   1       3.168   1.962  -3.940  0.00  0.00    -0.549 OA
ATOM     40  O   LIG d   1       3.115   0.482  -2.299  0.00  0.00    -0.549 OA
ENDBRANCH  26  38
ENDBRANCH  18  21
ENDBRANCH   9  18
BRANCH   8  41
ATOM     41  C   LIG d   1       8.267  -5.595  -5.680  0.00  0.00    -0.038 C 
ATOM     42  H   LIG d   1       8.334  -4.511  -5.582  0.00  0.00     0.028 H 
ATOM     43  H   LIG d   1       8.785  -6.068  -4.846  0.00  0.00     0.028 H 
ATOM     44  H   LIG d   1       8.730  -5.904  -6.617  0.00  0.00     0.028 H 
ENDBRANCH   8  41
BRANCH   1  45
ATOM     45  C   LIG d   1       9.167 -10.918  -3.801  0.00  0.00    -0.036 C 
ATOM     46  H   LIG d   1       9.585 -11.486  -4.632  0.00  0.00     0.028 H 
ATOM     47  H   LIG d   1       9.634  -9.934  -3.761  0.00  0.00     0.028 H 
ATOM     48  H   LIG d   1       9.356 -11.447  -2.867  0.00  0.00     0.028 H 
ENDBRANCH   1  45
TORSDOF 5
ENDMDL
MODEL 7
REMARK VINA RESULT:      -6.0      4.351      8.000
REMARK  5 active torsions:
REMARK  status: ('A' for Active; 'I' for Inactive)
REMARK    1  A    between atoms: C_1  and  C_2 
REMARK    2  A    between atoms: C_9  and  C_28 
REMARK    3  A    between atoms: C_10  and  C_16 
REMARK    4  A    between atoms: C_16  and  C_17 
REMARK       I    between atoms: C_17  and  N_19 
REMARK    5  A    between atoms: C_23  and  C_26 
ROOT
ATOM      1  C   LIG d   1      -0.911  -2.338 -13.192  0.00  0.00    -0.005 A 
ATOM      2  C   LIG d   1      -1.278  -3.595 -13.469  0.00  0.00     0.096 A 
ATOM      3  O   LIG d   1      -0.575  -4.463 -12.721  0.00  0.00    -0.463 OA
ATOM      4  C   LIG d   1       0.292  -3.815 -11.916  0.00  0.00     0.139 A 
ATOM      5  C   LIG d   1       0.135  -2.436 -12.163  0.00  0.00     0.024 A 
ATOM      6  C   LIG d   1       0.901  -1.506 -11.474  0.00  0.00    -0.040 A 
ATOM      7  C   LIG d   1       1.831  -1.950 -10.534  0.00  0.00     0.022 A 
ATOM      8  C   LIG d   1       2.653  -0.995  -9.785  0.00  0.00    -0.029 A 
ATOM      9  C   LIG d   1       3.547  -1.484  -8.887  0.00  0.00     0.049 A 
ATOM     10  C   LIG d   1       3.653  -2.877  -8.690  0.00  0.00     0.341 A 
ATOM     11  O   LIG d   1       4.455  -3.301  -7.878  0.00  0.00    -0.245 OA
ATOM     12  O   LIG d   1       2.894  -3.746  -9.375  0.00  0.00    -0.422 OA
ATOM     13  C   LIG d   1       1.989  -3.329 -10.288  0.00  0.00     0.143 A 
ATOM     14  C   LIG d   1       1.219  -4.248 -10.980  0.00  0.00     0.024 A 
ATOM     15  H   LIG d   1      -2.033  -3.872 -14.190  0.00  0.00     0.103 H 
ATOM     16  H   LIG d   1       0.779  -0.450 -11.665  0.00  0.00     0.063 H 
ATOM     17  H   LIG d   1       1.341  -5.304 -10.791  0.00  0.00     0.069 H 
ENDROOT
BRANCH   9  18
ATOM     18  C   LIG d   1       4.417  -0.541  -8.097  0.00  0.00     0.056 C 
ATOM     19  H   LIG d   1       4.407   0.443  -8.566  0.00  0.00     0.041 H 
ATOM     20  H   LIG d   1       5.439  -0.922  -8.074  0.00  0.00     0.041 H 
BRANCH  18  21
ATOM     21  C   LIG d   1       3.891  -0.433  -6.689  0.00  0.00     0.220 C 
ATOM     22  O   LIG d   1       2.753  -0.064  -6.494  0.00  0.00    -0.275 OA
ATOM     23  N   LIG d   1       4.686  -0.747  -5.647  0.00  0.00    -0.301 N 
ATOM     24  C   LIG d   1       4.188  -0.646  -4.268  0.00  0.00     0.023 C 
ATOM     25  C   LIG d   1       6.067  -1.196  -5.867  0.00  0.00     0.015 C 
ATOM     26  C   LIG d   1       5.151   0.227  -3.458  0.00  0.00     0.014 C 
ATOM     27  H   LIG d   1       4.134  -1.640  -3.825  0.00  0.00     0.047 H 
ATOM     28  H   LIG d   1       3.197  -0.191  -4.270  0.00  0.00     0.047 H 
ATOM     29  C   LIG d   1       6.567  -0.342  -3.575  0.00  0.00    -0.042 C 
ATOM     30  H   LIG d   1       5.135   1.245  -3.847  0.00  0.00     0.038 H 
ATOM     31  C   LIG d   1       7.010  -0.318  -5.039  0.00  0.00    -0.036 C 
ATOM     32  H   LIG d   1       7.251   0.263  -2.979  0.00  0.00     0.027 H 
ATOM     33  H   LIG d   1       6.578  -1.368  -3.208  0.00  0.00     0.027 H 
ATOM     34  H   LIG d   1       6.976   0.705  -5.413  0.00  0.00     0.028 H 
ATOM     35  H   LIG d   1       8.027  -0.701  -5.118  0.00  0.00     0.028 H 
ATOM     36  H   LIG d   1       6.316  -1.105  -6.924  0.00  0.00     0.046 H 
ATOM     37  H   LIG d   1       6.170  -2.237  -5.556  0.00  0.00     0.046 H 
BRANCH  26  38
ATOM     38  C   LIG d   1       4.729   0.233  -2.011  0.00  0.00     0.046 C 
ATOM     39  O   LIG d   1       4.352  -0.789  -1.487  0.00  0.00    -0.549 OA
ATOM     40  O   LIG d   1       4.774   1.373  -1.305  0.00  0.00    -0.549 OA
ENDBRANCH  26  38
ENDBRANCH  18  21
ENDBRANCH   9  18
BRANCH   8  41
ATOM     41  C   LIG d   1       2.516   0.488 -10.009  0.00  0.00    -0.038 C 
ATOM     42  H   LIG d   1       3.110   1.025  -9.269  0.00  0.00     0.028 H 
ATOM     43  H   LIG d   1       2.868   0.740 -11.010  0.00  0.00     0.028 H 
ATOM     44  H   LIG d   1       1.468   0.776  -9.911  0.00  0.00     0.028 H 
ENDBRANCH   8  41
BRANCH   1  45
ATOM     45  C   LIG d   1      -1.457  -1.077 -13.810  0.00  0.00    -0.036 C 
ATOM     46  H   LIG d   1      -0.851  -0.804 -14.674  0.00  0.00     0.028 H 
ATOM     47  H   LIG d   1      -2.487  -1.244 -14.126  0.00  0.00     0.028 H 
ATOM     48  H   LIG d   1      -1.429  -0.271 -13.076  0.00  0.00     0.028 H 
ENDBRANCH   1  45
TORSDOF 5
ENDMDL
MODEL 8
REMARK VINA RESULT:      -5.8      2.465      3.327
REMARK  5 active torsions:
REMARK  status: ('A' for Active; 'I' for Inactive)
REMARK    1  A    between atoms: C_1  and  C_2 
REMARK    2  A    between atoms: C_9  and  C_28 
REMARK    3  A    between atoms: C_10  and  C_16 
REMARK    4  A    between atoms: C_16  and  C_17 
REMARK       I    between atoms: C_17  and  N_19 
REMARK    5  A    between atoms: C_23  and  C_26 
ROOT
ATOM      1  C   LIG d   1       3.861   0.087  -3.831  0.00  0.00    -0.005 A 
ATOM      2  C   LIG d   1       4.596   0.872  -3.034  0.00  0.00     0.096 A 
ATOM      3  O   LIG d   1       5.785   0.298  -2.780  0.00  0.00    -0.463 OA
ATOM      4  C   LIG d   1       5.887  -0.896  -3.399  0.00  0.00     0.139 A 
ATOM      5  C   LIG d   1       4.681  -1.103  -4.100  0.00  0.00     0.024 A 
ATOM      6  C   LIG d   1       4.488  -2.260  -4.841  0.00  0.00    -0.040 A 
ATOM      7  C   LIG d   1       5.501  -3.218  -4.888  0.00  0.00     0.022 A 
ATOM      8  C   LIG d   1       5.333  -4.449  -5.665  0.00  0.00    -0.029 A 
ATOM      9  C   LIG d   1       6.349  -5.350  -5.669  0.00  0.00     0.049 A 
ATOM     10  C   LIG d   1       7.529  -5.079  -4.945  0.00  0.00     0.341 A 
ATOM     11  O   LIG d   1       8.436  -5.892  -4.962  0.00  0.00    -0.245 OA
ATOM     12  O   LIG d   1       7.680  -3.948  -4.239  0.00  0.00    -0.422 OA
ATOM     13  C   LIG d   1       6.707  -3.011  -4.187  0.00  0.00     0.143 A 
ATOM     14  C   LIG d   1       6.889  -1.854  -3.450  0.00  0.00     0.024 A 
ATOM     15  H   LIG d   1       4.279   1.830  -2.650  0.00  0.00     0.103 H 
ATOM     16  H   LIG d   1       3.564  -2.417  -5.377  0.00  0.00     0.063 H 
ATOM     17  H   LIG d   1       7.813  -1.696  -2.914  0.00  0.00     0.069 H 
ENDROOT
BRANCH   9  18
ATOM     18  C   LIG d   1       6.220  -6.632  -6.450  0.00  0.00     0.056 C 
ATOM     19  H   LIG d   1       7.193  -6.911  -6.855  0.00  0.00     0.041 H 
ATOM     20  H   LIG d   1       5.514  -6.490  -7.269  0.00  0.00     0.041 H 
BRANCH  18  21
ATOM     21  C   LIG d   1       5.721  -7.725  -5.542  0.00  0.00     0.220 C 
ATOM     22  O   LIG d   1       4.669  -7.593  -4.955  0.00  0.00    -0.275 OA
ATOM     23  N   LIG d   1       6.444  -8.851  -5.381  0.00  0.00    -0.301 N 
ATOM     24  C   LIG d   1       5.971  -9.926  -4.498  0.00  0.00     0.023 C 
ATOM     25  C   LIG d   1       7.722  -9.027  -6.085  0.00  0.00     0.015 C 
ATOM     26  C   LIG d   1       7.076 -10.259  -3.490  0.00  0.00     0.014 C 
ATOM     27  H   LIG d   1       5.738 -10.810  -5.090  0.00  0.00     0.047 H 
ATOM     28  H   LIG d   1       5.079  -9.595  -3.965  0.00  0.00     0.047 H 
ATOM     29  C   LIG d   1       8.366 -10.588  -4.246  0.00  0.00    -0.042 C 
ATOM     30  H   LIG d   1       7.245  -9.402  -2.838  0.00  0.00     0.038 H 
ATOM     31  C   LIG d   1       8.807  -9.371  -5.061  0.00  0.00    -0.036 C 
ATOM     32  H   LIG d   1       9.148 -10.849  -3.532  0.00  0.00     0.027 H 
ATOM     33  H   LIG d   1       8.190 -11.430  -4.916  0.00  0.00     0.027 H 
ATOM     34  H   LIG d   1       8.960  -8.522  -4.394  0.00  0.00     0.028 H 
ATOM     35  H   LIG d   1       9.738  -9.598  -5.580  0.00  0.00     0.028 H 
ATOM     36  H   LIG d   1       7.985  -8.104  -6.601  0.00  0.00     0.046 H 
ATOM     37  H   LIG d   1       7.634  -9.838  -6.809  0.00  0.00     0.046 H 
BRANCH  26  38
ATOM     38  C   LIG d   1       6.661 -11.449  -2.663  0.00  0.00     0.046 C 
ATOM     39  O   LIG d   1       7.109 -12.543  -2.910  0.00  0.00    -0.549 OA
ATOM     40  O   LIG d   1       5.793 -11.290  -1.651  0.00  0.00    -0.549 OA
ENDBRANCH  26  38
ENDBRANCH  18  21
ENDBRANCH   9  18
BRANCH   8  41
ATOM     41  C   LIG d   1       4.065  -4.712  -6.436  0.00  0.00    -0.038 C 
ATOM     42  H   LIG d   1       3.395  -3.858  -6.335  0.00  0.00     0.028 H 
ATOM     43  H   LIG d   1       4.304  -4.863  -7.489  0.00  0.00     0.028 H 
ATOM     44  H   LIG d   1       3.578  -5.604  -6.042  0.00  0.00     0.028 H 
ENDBRANCH   8  41
BRANCH   1  45
ATOM     45  C   LIG d   1       2.474   0.366  -4.348  0.00  0.00    -0.036 C 
ATOM     46  H   LIG d   1       1.784  -0.383  -3.959  0.00  0.00     0.028 H 
ATOM     47  H   LIG d   1       2.157   1.357  -4.021  0.00  0.00     0.028 H 
ATOM     48  H   LIG d   1       2.477   0.327  -5.437  0.00  0.00     0.028 H 
ENDBRANCH   1  45
TORSDOF 5
ENDMDL
MODEL 9
REMARK VINA RESULT:      -5.8      7.402      9.693
REMARK  5 active torsions:
REMARK  status: ('A' for Active; 'I' for Inactive)
REMARK    1  A    between atoms: C_1  and  C_2 
REMARK    2  A    between atoms: C_9  and  C_28 
REMARK    3  A    between atoms: C_10  and  C_16 
REMARK    4  A    between atoms: C_16  and  C_17 
REMARK       I    between atoms: C_17  and  N_19 
REMARK    5  A    between atoms: C_23  and  C_26 
ROOT
ATOM      1  C   LIG d   1      10.463   8.694  -0.122  0.00  0.00    -0.005 A 
ATOM      2  C   LIG d   1      11.202   8.552   0.985  0.00  0.00     0.096 A 
ATOM      3  O   LIG d   1      11.707   7.308   1.054  0.00  0.00    -0.463 OA
ATOM      4  C   LIG d   1      11.321   6.571  -0.007  0.00  0.00     0.139 A 
ATOM      5  C   LIG d   1      10.513   7.398  -0.814  0.00  0.00     0.024 A 
ATOM      6  C   LIG d   1       9.963   6.911  -1.991  0.00  0.00    -0.040 A 
ATOM      7  C   LIG d   1      10.217   5.593  -2.370  0.00  0.00     0.022 A 
ATOM      8  C   LIG d   1       9.656   5.048  -3.610  0.00  0.00    -0.029 A 
ATOM      9  C   LIG d   1       9.932   3.756  -3.925  0.00  0.00     0.049 A 
ATOM     10  C   LIG d   1      10.748   2.984  -3.072  0.00  0.00     0.341 A 
ATOM     11  O   LIG d   1      10.992   1.829  -3.369  0.00  0.00    -0.245 OA
ATOM     12  O   LIG d   1      11.264   3.490  -1.940  0.00  0.00    -0.422 OA
ATOM     13  C   LIG d   1      11.025   4.766  -1.563  0.00  0.00     0.143 A 
ATOM     14  C   LIG d   1      11.569   5.262  -0.390  0.00  0.00     0.024 A 
ATOM     15  H   LIG d   1      11.368   9.328   1.719  0.00  0.00     0.103 H 
ATOM     16  H   LIG d   1       9.344   7.546  -2.608  0.00  0.00     0.063 H 
ATOM     17  H   LIG d   1      12.187   4.628   0.227  0.00  0.00     0.069 H 
ENDROOT
BRANCH   9  18
ATOM     18  C   LIG d   1       9.374   3.151  -5.187  0.00  0.00     0.056 C 
ATOM     19  H   LIG d   1      10.162   2.614  -5.713  0.00  0.00     0.041 H 
ATOM     20  H   LIG d   1       8.982   3.942  -5.828  0.00  0.00     0.041 H 
BRANCH  18  21
ATOM     21  C   LIG d   1       8.263   2.195  -4.836  0.00  0.00     0.220 C 
ATOM     22  O   LIG d   1       7.363   2.552  -4.106  0.00  0.00    -0.275 OA
ATOM     23  N   LIG d   1       8.270   0.942  -5.334  0.00  0.00    -0.301 N 
ATOM     24  C   LIG d   1       7.194  -0.002  -5.000  0.00  0.00     0.023 C 
ATOM     25  C   LIG d   1       9.352   0.494  -6.219  0.00  0.00     0.015 C 
ATOM     26  C   LIG d   1       7.819  -1.286  -4.445  0.00  0.00     0.014 C 
ATOM     27  H   LIG d   1       6.619  -0.233  -5.896  0.00  0.00     0.047 H 
ATOM     28  H   LIG d   1       6.540   0.441  -4.248  0.00  0.00     0.047 H 
ATOM     29  C   LIG d   1       8.840  -1.826  -5.448  0.00  0.00    -0.042 C 
ATOM     30  H   LIG d   1       8.317  -1.069  -3.499  0.00  0.00     0.038 H 
ATOM     31  C   LIG d   1       9.953  -0.796  -5.651  0.00  0.00    -0.036 C 
ATOM     32  H   LIG d   1       9.269  -2.752  -5.067  0.00  0.00     0.027 H 
ATOM     33  H   LIG d   1       8.346  -2.019  -6.401  0.00  0.00     0.027 H 
ATOM     34  H   LIG d   1      10.431  -0.583  -4.694  0.00  0.00     0.028 H 
ATOM     35  H   LIG d   1      10.692  -1.190  -6.348  0.00  0.00     0.028 H 
ATOM     36  H   LIG d   1      10.123   1.264  -6.272  0.00  0.00     0.046 H 
ATOM     37  H   LIG d   1       8.956   0.303  -7.217  0.00  0.00     0.046 H 
BRANCH  26  38
ATOM     38  C   LIG d   1       6.740  -2.315  -4.222  0.00  0.00     0.046 C 
ATOM     39  O   LIG d   1       6.918  -3.460  -4.562  0.00  0.00    -0.549 OA
ATOM     40  O   LIG d   1       5.582  -1.958  -3.644  0.00  0.00    -0.549 OA
ENDBRANCH  26  38
ENDBRANCH  18  21
ENDBRANCH   9  18
BRANCH   8  41
ATOM     41  C   LIG d   1       8.793   5.896  -4.507  0.00  0.00    -0.038 C 
ATOM     42  H   LIG d   1       8.412   5.286  -5.327  0.00  0.00     0.028 H 
ATOM     43  H   LIG d   1       7.957   6.298  -3.935  0.00  0.00     0.028 H 
ATOM     44  H   LIG d   1       9.385   6.717  -4.912  0.00  0.00     0.028 H 
ENDBRANCH   8  41
BRANCH   1  45
ATOM     45  C   LIG d   1       9.727   9.931  -0.568  0.00  0.00    -0.036 C 
ATOM     46  H   LIG d   1       9.337  10.456   0.304  0.00  0.00     0.028 H 
ATOM     47  H   LIG d   1      10.412  10.584  -1.110  0.00  0.00     0.028 H 
ATOM     48  H   LIG d   1       8.903   9.647  -1.221  0.00  0.00     0.028 H 
ENDBRANCH   1  45
TORSDOF 5
ENDMDL
