MODEL 1
REMARK VINA RESULT:      -5.5      0.000      0.000
REMARK  5 active torsions:
REMARK  status: ('A' for Active; 'I' for Inactive)
REMARK    1  A    between atoms: C_1  and  O_2 
REMARK    2  A    between atoms: O_2  and  C_3 
REMARK    3  A    between atoms: C_5  and  C_11 
REMARK    4  A    between atoms: C_7  and  O_9 
REMARK    5  A    between atoms: O_9  and  C_10 
ROOT
ATOM      1  C   LIG d   1       3.680   0.162  -4.138  0.00  0.00     0.124 A 
ATOM      2  C   LIG d   1       2.917   0.230  -5.295  0.00  0.00    -0.011 A 
ATOM      3  C   LIG d   1       3.425  -0.247  -6.489  0.00  0.00     0.013 A 
ATOM      4  C   LIG d   1       4.693  -0.793  -6.533  0.00  0.00    -0.011 A 
ATOM      5  C   LIG d   1       5.461  -0.862  -5.379  0.00  0.00     0.124 A 
ATOM      6  C   LIG d   1       4.955  -0.379  -4.181  0.00  0.00     0.022 A 
ATOM      7  H   LIG d   1       1.925   0.655  -5.263  0.00  0.00     0.066 H 
ATOM      8  H   LIG d   1       5.089  -1.165  -7.467  0.00  0.00     0.066 H 
ATOM      9  H   LIG d   1       5.553  -0.428  -3.284  0.00  0.00     0.069 H 
ENDROOT
BRANCH   3  10
ATOM     10  C   LIG d   1       2.593  -0.173  -7.743  0.00  0.00     0.048 C 
ATOM     11  H   LIG d   1       1.559   0.054  -7.484  0.00  0.00     0.097 H 
ATOM     12  N   LIG d   1       2.654  -1.462  -8.454  0.00  0.00     0.237 N 
ATOM     13  C   LIG d   1       2.005  -1.347  -9.768  0.00  0.00    -0.027 C 
ATOM     14  H   LIG d   1       3.618  -1.727  -8.581  0.00  0.00     0.202 HD
ATOM     15  H   LIG d   1       2.185  -2.167  -7.906  0.00  0.00     0.202 HD
ATOM     16  C   LIG d   1       2.885  -0.517 -10.713  0.00  0.00     0.030 C 
ATOM     17  H   LIG d   1       1.037  -0.860  -9.651  0.00  0.00     0.082 H 
ATOM     18  H   LIG d   1       1.862  -2.343 -10.187  0.00  0.00     0.082 H 
ATOM     19  C   LIG d   1       3.271   0.746  -9.986  0.00  0.00     0.050 A 
ATOM     20  H   LIG d   1       2.328  -0.268 -11.616  0.00  0.00     0.038 H 
ATOM     21  H   LIG d   1       3.781  -1.081 -10.975  0.00  0.00     0.038 H 
ATOM     22  C   LIG d   1       3.138   0.902  -8.650  0.00  0.00     0.114 A 
ATOM     23  N   LIG d   1       3.791   1.901 -10.475  0.00  0.00    -0.348 N 
ATOM     24  N   LIG d   1       3.564   2.126  -8.335  0.00  0.00    -0.235 NA
ATOM     25  C   LIG d   1       3.958   2.735  -9.423  0.00  0.00     0.094 A 
ATOM     26  H   LIG d   1       4.354   3.740  -9.473  0.00  0.00     0.103 H 
ATOM     27  H   LIG d   1       4.002   2.092 -11.403  0.00  0.00     0.167 HD
ENDBRANCH   3  10
BRANCH   1  28
ATOM     28  O   LIG d   1       3.180   0.631  -2.965  0.00  0.00    -0.495 OA
BRANCH  28  29
ATOM     29  C   LIG d   1       4.125   1.047  -1.976  0.00  0.00     0.079 C 
ATOM     30  H   LIG d   1       3.777   1.966  -1.506  0.00  0.00     0.066 H 
ATOM     31  H   LIG d   1       4.226   0.268  -1.221  0.00  0.00     0.066 H 
ATOM     32  H   LIG d   1       5.091   1.223  -2.449  0.00  0.00     0.066 H 
ENDBRANCH  28  29
ENDBRANCH   1  28
BRANCH   5  33
ATOM     33  O   LIG d   1       6.709  -1.398  -5.423  0.00  0.00    -0.495 OA
BRANCH  33  34
ATOM     34  C   LIG d   1       7.240  -1.908  -4.198  0.00  0.00     0.079 C 
ATOM     35  H   LIG d   1       6.911  -2.939  -4.061  0.00  0.00     0.066 H 
ATOM     36  H   LIG d   1       8.329  -1.876  -4.234  0.00  0.00     0.066 H 
ATOM     37  H   LIG d   1       6.885  -1.299  -3.367  0.00  0.00     0.066 H 
ENDBRANCH  33  34
ENDBRANCH   5  33
TORSDOF 5
ENDMDL
MODEL 2
REMARK VINA RESULT:      -5.5      0.148      2.477
REMARK  5 active torsions:
REMARK  status: ('A' for Active; 'I' for Inactive)
REMARK    1  A    between atoms: C_1  and  O_2 
REMARK    2  A    between atoms: O_2  and  C_3 
REMARK    3  A    between atoms: C_5  and  C_11 
REMARK    4  A    between atoms: C_7  and  O_9 
REMARK    5  A    between atoms: O_9  and  C_10 
ROOT
ATOM      1  C   LIG d   1       5.608  -0.702  -5.403  0.00  0.00     0.124 A 
ATOM      2  C   LIG d   1       4.810  -0.664  -6.538  0.00  0.00    -0.011 A 
ATOM      3  C   LIG d   1       3.507  -0.211  -6.454  0.00  0.00     0.013 A 
ATOM      4  C   LIG d   1       2.996   0.206  -5.240  0.00  0.00    -0.011 A 
ATOM      5  C   LIG d   1       3.790   0.169  -4.102  0.00  0.00     0.124 A 
ATOM      6  C   LIG d   1       5.095  -0.290  -4.183  0.00  0.00     0.022 A 
ATOM      7  H   LIG d   1       5.207  -0.989  -7.489  0.00  0.00     0.066 H 
ATOM      8  H   LIG d   1       1.977   0.560  -5.176  0.00  0.00     0.066 H 
ATOM      9  H   LIG d   1       5.712  -0.324  -3.298  0.00  0.00     0.069 H 
ENDROOT
BRANCH   3  10
ATOM     10  C   LIG d   1       2.643  -0.170  -7.688  0.00  0.00     0.048 C 
ATOM     11  H   LIG d   1       1.612   0.046  -7.406  0.00  0.00     0.097 H 
ATOM     12  N   LIG d   1       2.705  -1.470  -8.378  0.00  0.00     0.237 N 
ATOM     13  C   LIG d   1       2.022  -1.387  -9.677  0.00  0.00    -0.027 C 
ATOM     14  H   LIG d   1       3.670  -1.723  -8.526  0.00  0.00     0.202 HD
ATOM     15  H   LIG d   1       2.261  -2.173  -7.808  0.00  0.00     0.202 HD
ATOM     16  C   LIG d   1       2.866  -0.560 -10.658  0.00  0.00     0.030 C 
ATOM     17  H   LIG d   1       1.050  -0.912  -9.544  0.00  0.00     0.082 H 
ATOM     18  H   LIG d   1       1.884  -2.392 -10.077  0.00  0.00     0.082 H 
ATOM     19  C   LIG d   1       3.250   0.721  -9.962  0.00  0.00     0.050 A 
ATOM     20  H   LIG d   1       2.282  -0.334 -11.551  0.00  0.00     0.038 H 
ATOM     21  H   LIG d   1       3.763  -1.114 -10.933  0.00  0.00     0.038 H 
ATOM     22  C   LIG d   1       3.148   0.898  -8.625  0.00  0.00     0.114 A 
ATOM     23  N   LIG d   1       3.740   1.876 -10.483  0.00  0.00    -0.348 N 
ATOM     24  N   LIG d   1       3.563   2.133  -8.342  0.00  0.00    -0.235 NA
ATOM     25  C   LIG d   1       3.921   2.730  -9.449  0.00  0.00     0.094 A 
ATOM     26  H   LIG d   1       4.300   3.739  -9.526  0.00  0.00     0.103 H 
ATOM     27  H   LIG d   1       3.925   2.054 -11.419  0.00  0.00     0.167 HD
ENDBRANCH   3  10
BRANCH   1  28
ATOM     28  O   LIG d   1       6.889  -1.147  -5.488  0.00  0.00    -0.495 OA
BRANCH  28  29
ATOM     29  C   LIG d   1       7.339  -2.026  -4.454  0.00  0.00     0.079 C 
ATOM     30  H   LIG d   1       6.527  -2.206  -3.751  0.00  0.00     0.066 H 
ATOM     31  H   LIG d   1       7.655  -2.972  -4.894  0.00  0.00     0.066 H 
ATOM     32  H   LIG d   1       8.180  -1.570  -3.931  0.00  0.00     0.066 H 
ENDBRANCH  28  29
ENDBRANCH   1  28
BRANCH   5  33
ATOM     33  O   LIG d   1       3.286   0.579  -2.908  0.00  0.00    -0.495 OA
BRANCH  33  34
ATOM     34  C   LIG d   1       4.228   0.909  -1.885  0.00  0.00     0.079 C 
ATOM     35  H   LIG d   1       4.795   1.791  -2.184  0.00  0.00     0.066 H 
ATOM     36  H   LIG d   1       3.697   1.116  -0.956  0.00  0.00     0.066 H 
ATOM     37  H   LIG d   1       4.910   0.071  -1.735  0.00  0.00     0.066 H 
ENDBRANCH  33  34
ENDBRANCH   5  33
TORSDOF 5
ENDMDL
MODEL 3
REMARK VINA RESULT:      -5.2      3.028      5.623
REMARK  5 active torsions:
REMARK  status: ('A' for Active; 'I' for Inactive)
REMARK    1  A    between atoms: C_1  and  O_2 
REMARK    2  A    between atoms: O_2  and  C_3 
REMARK    3  A    between atoms: C_5  and  C_11 
REMARK    4  A    between atoms: C_7  and  O_9 
REMARK    5  A    between atoms: O_9  and  C_10 
ROOT
ATOM      1  C   LIG d   1       3.347   0.410  -7.705  0.00  0.00     0.124 A 
ATOM      2  C   LIG d   1       3.747   0.024  -6.433  0.00  0.00    -0.011 A 
ATOM      3  C   LIG d   1       4.217  -1.257  -6.214  0.00  0.00     0.013 A 
ATOM      4  C   LIG d   1       4.291  -2.156  -7.260  0.00  0.00    -0.011 A 
ATOM      5  C   LIG d   1       3.892  -1.775  -8.534  0.00  0.00     0.124 A 
ATOM      6  C   LIG d   1       3.414  -0.493  -8.755  0.00  0.00     0.022 A 
ATOM      7  H   LIG d   1       3.690   0.725  -5.614  0.00  0.00     0.066 H 
ATOM      8  H   LIG d   1       4.659  -3.157  -7.087  0.00  0.00     0.066 H 
ATOM      9  H   LIG d   1       3.099  -0.196  -9.744  0.00  0.00     0.069 H 
ENDROOT
BRANCH   3  10
ATOM     10  C   LIG d   1       4.651  -1.673  -4.832  0.00  0.00     0.048 C 
ATOM     11  H   LIG d   1       5.260  -2.575  -4.895  0.00  0.00     0.097 H 
ATOM     12  N   LIG d   1       3.465  -1.934  -3.999  0.00  0.00     0.237 N 
ATOM     13  C   LIG d   1       3.866  -2.157  -2.602  0.00  0.00    -0.027 C 
ATOM     14  H   LIG d   1       2.844  -1.140  -4.044  0.00  0.00     0.202 HD
ATOM     15  H   LIG d   1       2.986  -2.750  -4.347  0.00  0.00     0.202 HD
ATOM     16  C   LIG d   1       4.309  -0.830  -1.969  0.00  0.00     0.030 C 
ATOM     17  H   LIG d   1       4.691  -2.867  -2.572  0.00  0.00     0.082 H 
ATOM     18  H   LIG d   1       3.020  -2.559  -2.044  0.00  0.00     0.082 H 
ATOM     19  C   LIG d   1       5.295  -0.183  -2.909  0.00  0.00     0.050 A 
ATOM     20  H   LIG d   1       4.785  -1.019  -1.007  0.00  0.00     0.038 H 
ATOM     21  H   LIG d   1       3.446  -0.177  -1.834  0.00  0.00     0.038 H 
ATOM     22  C   LIG d   1       5.451  -0.564  -4.197  0.00  0.00     0.114 A 
ATOM     23  N   LIG d   1       6.166   0.834  -2.683  0.00  0.00    -0.348 N 
ATOM     24  N   LIG d   1       6.397   0.203  -4.740  0.00  0.00    -0.235 NA
ATOM     25  C   LIG d   1       6.834   1.046  -3.840  0.00  0.00     0.094 A 
ATOM     26  H   LIG d   1       7.602   1.791  -3.996  0.00  0.00     0.103 H 
ATOM     27  H   LIG d   1       6.286   1.317  -1.849  0.00  0.00     0.167 HD
ENDBRANCH   3  10
BRANCH   1  28
ATOM     28  O   LIG d   1       2.885   1.669  -7.920  0.00  0.00    -0.495 OA
BRANCH  28  29
ATOM     29  C   LIG d   1       3.335   2.333  -9.103  0.00  0.00     0.079 C 
ATOM     30  H   LIG d   1       2.538   2.968  -9.488  0.00  0.00     0.066 H 
ATOM     31  H   LIG d   1       4.205   2.945  -8.868  0.00  0.00     0.066 H 
ATOM     32  H   LIG d   1       3.604   1.591  -9.855  0.00  0.00     0.066 H 
ENDBRANCH  28  29
ENDBRANCH   1  28
BRANCH   5  33
ATOM     33  O   LIG d   1       3.964  -2.661  -9.562  0.00  0.00    -0.495 OA
BRANCH  33  34
ATOM     34  C   LIG d   1       2.811  -3.471  -9.803  0.00  0.00     0.079 C 
ATOM     35  H   LIG d   1       2.851  -3.866 -10.818  0.00  0.00     0.066 H 
ATOM     36  H   LIG d   1       2.793  -4.297  -9.092  0.00  0.00     0.066 H 
ATOM     37  H   LIG d   1       1.911  -2.867  -9.682  0.00  0.00     0.066 H 
ENDBRANCH  33  34
ENDBRANCH   5  33
TORSDOF 5
ENDMDL
MODEL 4
REMARK VINA RESULT:      -5.2      3.190      5.727
REMARK  5 active torsions:
REMARK  status: ('A' for Active; 'I' for Inactive)
REMARK    1  A    between atoms: C_1  and  O_2 
REMARK    2  A    between atoms: O_2  and  C_3 
REMARK    3  A    between atoms: C_5  and  C_11 
REMARK    4  A    between atoms: C_7  and  O_9 
REMARK    5  A    between atoms: O_9  and  C_10 
ROOT
ATOM      1  C   LIG d   1       7.479  -3.969  -5.112  0.00  0.00     0.124 A 
ATOM      2  C   LIG d   1       7.166  -2.728  -4.575  0.00  0.00    -0.011 A 
ATOM      3  C   LIG d   1       5.850  -2.402  -4.308  0.00  0.00     0.013 A 
ATOM      4  C   LIG d   1       4.844  -3.310  -4.573  0.00  0.00    -0.011 A 
ATOM      5  C   LIG d   1       5.152  -4.552  -5.110  0.00  0.00     0.124 A 
ATOM      6  C   LIG d   1       6.470  -4.879  -5.385  0.00  0.00     0.022 A 
ATOM      7  H   LIG d   1       7.951  -2.016  -4.367  0.00  0.00     0.066 H 
ATOM      8  H   LIG d   1       3.815  -3.053  -4.363  0.00  0.00     0.066 H 
ATOM      9  H   LIG d   1       6.711  -5.843  -5.807  0.00  0.00     0.069 H 
ENDROOT
BRANCH   3  10
ATOM     10  C   LIG d   1       5.513  -1.054  -3.724  0.00  0.00     0.048 C 
ATOM     11  H   LIG d   1       6.408  -0.432  -3.697  0.00  0.00     0.097 H 
ATOM     12  N   LIG d   1       4.986  -1.223  -2.359  0.00  0.00     0.237 N 
ATOM     13  C   LIG d   1       4.479   0.059  -1.849  0.00  0.00    -0.027 C 
ATOM     14  H   LIG d   1       4.236  -1.896  -2.373  0.00  0.00     0.202 HD
ATOM     15  H   LIG d   1       5.723  -1.559  -1.757  0.00  0.00     0.202 HD
ATOM     16  C   LIG d   1       3.169   0.422  -2.562  0.00  0.00     0.030 C 
ATOM     17  H   LIG d   1       5.219   0.838  -2.031  0.00  0.00     0.082 H 
ATOM     18  H   LIG d   1       4.297  -0.026  -0.778  0.00  0.00     0.082 H 
ATOM     19  C   LIG d   1       3.400   0.276  -4.045  0.00  0.00     0.050 A 
ATOM     20  H   LIG d   1       2.894   1.451  -2.330  0.00  0.00     0.038 H 
ATOM     21  H   LIG d   1       2.375  -0.254  -2.244  0.00  0.00     0.038 H 
ATOM     22  C   LIG d   1       4.456  -0.386  -4.568  0.00  0.00     0.114 A 
ATOM     23  N   LIG d   1       2.661   0.740  -5.085  0.00  0.00    -0.348 N 
ATOM     24  N   LIG d   1       4.362  -0.323  -5.897  0.00  0.00    -0.235 NA
ATOM     25  C   LIG d   1       3.288   0.351  -6.219  0.00  0.00     0.094 A 
ATOM     26  H   LIG d   1       2.956   0.561  -7.226  0.00  0.00     0.103 H 
ATOM     27  H   LIG d   1       1.839   1.253  -5.026  0.00  0.00     0.167 HD
ENDBRANCH   3  10
BRANCH   1  28
ATOM     28  O   LIG d   1       8.773  -4.289  -5.374  0.00  0.00    -0.495 OA
BRANCH  28  29
ATOM     29  C   LIG d   1       9.761  -3.302  -5.069  0.00  0.00     0.079 C 
ATOM     30  H   LIG d   1      10.417  -3.167  -5.927  0.00  0.00     0.066 H 
ATOM     31  H   LIG d   1       9.270  -2.358  -4.834  0.00  0.00     0.066 H 
ATOM     32  H   LIG d   1      10.348  -3.630  -4.211  0.00  0.00     0.066 H 
ENDBRANCH  28  29
ENDBRANCH   1  28
BRANCH   5  33
ATOM     33  O   LIG d   1       4.160  -5.444  -5.371  0.00  0.00    -0.495 OA
BRANCH  33  34
ATOM     34  C   LIG d   1       4.518  -6.612  -6.114  0.00  0.00     0.079 C 
ATOM     35  H   LIG d   1       4.664  -6.346  -7.161  0.00  0.00     0.066 H 
ATOM     36  H   LIG d   1       5.442  -7.029  -5.713  0.00  0.00     0.066 H 
ATOM     37  H   LIG d   1       3.722  -7.352  -6.034  0.00  0.00     0.066 H 
ENDBRANCH  33  34
ENDBRANCH   5  33
TORSDOF 5
ENDMDL
MODEL 5
REMARK VINA RESULT:      -5.2      2.982      5.873
REMARK  5 active torsions:
REMARK  status: ('A' for Active; 'I' for Inactive)
REMARK    1  A    between atoms: C_1  and  O_2 
REMARK    2  A    between atoms: O_2  and  C_3 
REMARK    3  A    between atoms: C_5  and  C_11 
REMARK    4  A    between atoms: C_7  and  O_9 
REMARK    5  A    between atoms: O_9  and  C_10 
ROOT
ATOM      1  C   LIG d   1       4.142  -1.748  -8.607  0.00  0.00     0.124 A 
ATOM      2  C   LIG d   1       4.252  -1.874  -7.229  0.00  0.00    -0.011 A 
ATOM      3  C   LIG d   1       3.845  -0.844  -6.404  0.00  0.00     0.013 A 
ATOM      4  C   LIG d   1       3.326   0.315  -6.948  0.00  0.00    -0.011 A 
ATOM      5  C   LIG d   1       3.214   0.448  -8.325  0.00  0.00     0.124 A 
ATOM      6  C   LIG d   1       3.628  -0.583  -9.155  0.00  0.00     0.022 A 
ATOM      7  H   LIG d   1       4.657  -2.780  -6.801  0.00  0.00     0.066 H 
ATOM      8  H   LIG d   1       3.008   1.120  -6.301  0.00  0.00     0.066 H 
ATOM      9  H   LIG d   1       3.546  -0.480 -10.226  0.00  0.00     0.069 H 
ENDROOT
BRANCH   3  10
ATOM     10  C   LIG d   1       3.965  -0.985  -4.908  0.00  0.00     0.048 C 
ATOM     11  H   LIG d   1       4.189  -2.022  -4.655  0.00  0.00     0.097 H 
ATOM     12  N   LIG d   1       2.701  -0.581  -4.270  0.00  0.00     0.237 N 
ATOM     13  C   LIG d   1       2.863  -0.534  -2.809  0.00  0.00    -0.027 C 
ATOM     14  H   LIG d   1       2.435   0.332  -4.605  0.00  0.00     0.202 HD
ATOM     15  H   LIG d   1       1.980  -1.245  -4.508  0.00  0.00     0.202 HD
ATOM     16  C   LIG d   1       3.720   0.679  -2.419  0.00  0.00     0.030 C 
ATOM     17  H   LIG d   1       3.351  -1.447  -2.471  0.00  0.00     0.082 H 
ATOM     18  H   LIG d   1       1.882  -0.451  -2.341  0.00  0.00     0.082 H 
ATOM     19  C   LIG d   1       4.956   0.661  -3.282  0.00  0.00     0.050 A 
ATOM     20  H   LIG d   1       4.002   0.611  -1.368  0.00  0.00     0.038 H 
ATOM     21  H   LIG d   1       3.161   1.599  -2.594  0.00  0.00     0.038 H 
ATOM     22  C   LIG d   1       5.068  -0.089  -4.401  0.00  0.00     0.114 A 
ATOM     23  N   LIG d   1       6.125   1.337  -3.134  0.00  0.00    -0.348 N 
ATOM     24  N   LIG d   1       6.278   0.123  -4.919  0.00  0.00    -0.235 NA
ATOM     25  C   LIG d   1       6.922   0.978  -4.166  0.00  0.00     0.094 A 
ATOM     26  H   LIG d   1       7.925   1.339  -4.341  0.00  0.00     0.103 H 
ATOM     27  H   LIG d   1       6.345   1.959  -2.422  0.00  0.00     0.167 HD
ENDBRANCH   3  10
BRANCH   1  28
ATOM     28  O   LIG d   1       4.543  -2.762  -9.417  0.00  0.00    -0.495 OA
BRANCH  28  29
ATOM     29  C   LIG d   1       3.793  -3.977  -9.356  0.00  0.00     0.079 C 
ATOM     30  H   LIG d   1       4.021  -4.589 -10.227  0.00  0.00     0.066 H 
ATOM     31  H   LIG d   1       4.057  -4.521  -8.450  0.00  0.00     0.066 H 
ATOM     32  H   LIG d   1       2.728  -3.745  -9.343  0.00  0.00     0.066 H 
ENDBRANCH  28  29
ENDBRANCH   1  28
BRANCH   5  33
ATOM     33  O   LIG d   1       2.705   1.589  -8.859  0.00  0.00    -0.495 OA
BRANCH  33  34
ATOM     34  C   LIG d   1       3.568   2.350  -9.707  0.00  0.00     0.079 C 
ATOM     35  H   LIG d   1       3.022   3.205 -10.105  0.00  0.00     0.066 H 
ATOM     36  H   LIG d   1       4.425   2.701  -9.132  0.00  0.00     0.066 H 
ATOM     37  H   LIG d   1       3.914   1.723 -10.529  0.00  0.00     0.066 H 
ENDBRANCH  33  34
ENDBRANCH   5  33
TORSDOF 5
ENDMDL
MODEL 6
REMARK VINA RESULT:      -5.1      3.305      5.591
REMARK  5 active torsions:
REMARK  status: ('A' for Active; 'I' for Inactive)
REMARK    1  A    between atoms: C_1  and  O_2 
REMARK    2  A    between atoms: O_2  and  C_3 
REMARK    3  A    between atoms: C_5  and  C_11 
REMARK    4  A    between atoms: C_7  and  O_9 
REMARK    5  A    between atoms: O_9  and  C_10 
ROOT
ATOM      1  C   LIG d   1       5.172  -4.879  -5.271  0.00  0.00     0.124 A 
ATOM      2  C   LIG d   1       4.824  -3.657  -4.713  0.00  0.00    -0.011 A 
ATOM      3  C   LIG d   1       5.795  -2.706  -4.466  0.00  0.00     0.013 A 
ATOM      4  C   LIG d   1       7.115  -2.968  -4.775  0.00  0.00    -0.011 A 
ATOM      5  C   LIG d   1       7.470  -4.189  -5.333  0.00  0.00     0.124 A 
ATOM      6  C   LIG d   1       6.498  -5.147  -5.575  0.00  0.00     0.022 A 
ATOM      7  H   LIG d   1       3.791  -3.450  -4.471  0.00  0.00     0.066 H 
ATOM      8  H   LIG d   1       7.874  -2.223  -4.582  0.00  0.00     0.066 H 
ATOM      9  H   LIG d   1       6.772  -6.099  -6.005  0.00  0.00     0.069 H 
ENDROOT
BRANCH   3  10
ATOM     10  C   LIG d   1       5.413  -1.380  -3.861  0.00  0.00     0.048 C 
ATOM     11  H   LIG d   1       6.288  -0.730  -3.820  0.00  0.00     0.097 H 
ATOM     12  N   LIG d   1       4.888  -1.590  -2.501  0.00  0.00     0.237 N 
ATOM     13  C   LIG d   1       4.338  -0.334  -1.970  0.00  0.00    -0.027 C 
ATOM     14  H   LIG d   1       4.159  -2.286  -2.529  0.00  0.00     0.202 HD
ATOM     15  H   LIG d   1       5.632  -1.912  -1.902  0.00  0.00     0.202 HD
ATOM     16  C   LIG d   1       3.019  -0.001  -2.682  0.00  0.00     0.030 C 
ATOM     17  H   LIG d   1       5.053   0.472  -2.136  0.00  0.00     0.082 H 
ATOM     18  H   LIG d   1       4.156  -0.444  -0.901  0.00  0.00     0.082 H 
ATOM     19  C   LIG d   1       3.260  -0.113  -4.166  0.00  0.00     0.050 A 
ATOM     20  H   LIG d   1       2.710   1.015  -2.434  0.00  0.00     0.038 H 
ATOM     21  H   LIG d   1       2.246  -0.708  -2.379  0.00  0.00     0.038 H 
ATOM     22  C   LIG d   1       4.338  -0.732  -4.697  0.00  0.00     0.114 A 
ATOM     23  N   LIG d   1       2.509   0.345  -5.201  0.00  0.00    -0.348 N 
ATOM     24  N   LIG d   1       4.246  -0.649  -6.025  0.00  0.00    -0.235 NA
ATOM     25  C   LIG d   1       3.152  -0.005  -6.339  0.00  0.00     0.094 A 
ATOM     26  H   LIG d   1       2.816   0.212  -7.343  0.00  0.00     0.103 H 
ATOM     27  H   LIG d   1       1.671   0.830  -5.136  0.00  0.00     0.167 HD
ENDBRANCH   3  10
BRANCH   1  28
ATOM     28  O   LIG d   1       4.216  -5.814  -5.513  0.00  0.00    -0.495 OA
BRANCH  28  29
ATOM     29  C   LIG d   1       4.621  -6.987  -6.221  0.00  0.00     0.079 C 
ATOM     30  H   LIG d   1       3.823  -7.728  -6.183  0.00  0.00     0.066 H 
ATOM     31  H   LIG d   1       4.828  -6.731  -7.260  0.00  0.00     0.066 H 
ATOM     32  H   LIG d   1       5.520  -7.397  -5.761  0.00  0.00     0.066 H 
ENDBRANCH  28  29
ENDBRANCH   1  28
BRANCH   5  33
ATOM     33  O   LIG d   1       8.769  -4.447  -5.635  0.00  0.00    -0.495 OA
BRANCH  33  34
ATOM     34  C   LIG d   1       9.621  -4.838  -4.556  0.00  0.00     0.079 C 
ATOM     35  H   LIG d   1       9.707  -4.016  -3.845  0.00  0.00     0.066 H 
ATOM     36  H   LIG d   1       9.197  -5.709  -4.056  0.00  0.00     0.066 H 
ATOM     37  H   LIG d   1      10.609  -5.088  -4.945  0.00  0.00     0.066 H 
ENDBRANCH  33  34
ENDBRANCH   5  33
TORSDOF 5
ENDMDL
MODEL 7
REMARK VINA RESULT:      -4.8      3.283      5.280
REMARK  5 active torsions:
REMARK  status: ('A' for Active; 'I' for Inactive)
REMARK    1  A    between atoms: C_1  and  O_2 
REMARK    2  A    between atoms: O_2  and  C_3 
REMARK    3  A    between atoms: C_5  and  C_11 
REMARK    4  A    between atoms: C_7  and  O_9 
REMARK    5  A    between atoms: O_9  and  C_10 
ROOT
ATOM      1  C   LIG d   1       4.834  -2.897  -4.071  0.00  0.00     0.124 A 
ATOM      2  C   LIG d   1       5.986  -2.377  -4.645  0.00  0.00    -0.011 A 
ATOM      3  C   LIG d   1       6.388  -1.089  -4.347  0.00  0.00     0.013 A 
ATOM      4  C   LIG d   1       5.645  -0.316  -3.476  0.00  0.00    -0.011 A 
ATOM      5  C   LIG d   1       4.492  -0.831  -2.900  0.00  0.00     0.124 A 
ATOM      6  C   LIG d   1       4.084  -2.120  -3.202  0.00  0.00     0.022 A 
ATOM      7  H   LIG d   1       6.569  -2.981  -5.326  0.00  0.00     0.066 H 
ATOM      8  H   LIG d   1       5.961   0.691  -3.244  0.00  0.00     0.066 H 
ATOM      9  H   LIG d   1       3.185  -2.521  -2.758  0.00  0.00     0.069 H 
ENDROOT
BRANCH   3  10
ATOM     10  C   LIG d   1       7.640  -0.528  -4.971  0.00  0.00     0.048 C 
ATOM     11  H   LIG d   1       8.323  -1.342  -5.216  0.00  0.00     0.097 H 
ATOM     12  N   LIG d   1       8.290   0.398  -4.029  0.00  0.00     0.237 N 
ATOM     13  C   LIG d   1       9.404   1.094  -4.689  0.00  0.00    -0.027 C 
ATOM     14  H   LIG d   1       7.616   1.076  -3.709  0.00  0.00     0.202 HD
ATOM     15  H   LIG d   1       8.639  -0.122  -3.238  0.00  0.00     0.202 HD
ATOM     16  C   LIG d   1       8.856   2.123  -5.688  0.00  0.00     0.030 C 
ATOM     17  H   LIG d   1      10.021   0.367  -5.218  0.00  0.00     0.082 H 
ATOM     18  H   LIG d   1      10.007   1.603  -3.938  0.00  0.00     0.082 H 
ATOM     19  C   LIG d   1       7.830   1.426  -6.545  0.00  0.00     0.050 A 
ATOM     20  H   LIG d   1       9.666   2.500  -6.313  0.00  0.00     0.038 H 
ATOM     21  H   LIG d   1       8.388   2.948  -5.150  0.00  0.00     0.038 H 
ATOM     22  C   LIG d   1       7.284   0.232  -6.224  0.00  0.00     0.114 A 
ATOM     23  N   LIG d   1       7.281   1.814  -7.725  0.00  0.00    -0.348 N 
ATOM     24  N   LIG d   1       6.425  -0.100  -7.189  0.00  0.00    -0.235 NA
ATOM     25  C   LIG d   1       6.415   0.843  -8.096  0.00  0.00     0.094 A 
ATOM     26  H   LIG d   1       5.813   0.846  -8.993  0.00  0.00     0.103 H 
ATOM     27  H   LIG d   1       7.474   2.633  -8.210  0.00  0.00     0.167 HD
ENDBRANCH   3  10
BRANCH   1  28
ATOM     28  O   LIG d   1       4.440  -4.164  -4.364  0.00  0.00    -0.495 OA
BRANCH  28  29
ATOM     29  C   LIG d   1       4.753  -4.655  -5.670  0.00  0.00     0.079 C 
ATOM     30  H   LIG d   1       4.677  -3.842  -6.391  0.00  0.00     0.066 H 
ATOM     31  H   LIG d   1       5.768  -5.051  -5.675  0.00  0.00     0.066 H 
ATOM     32  H   LIG d   1       4.052  -5.445  -5.937  0.00  0.00     0.066 H 
ENDBRANCH  28  29
ENDBRANCH   1  28
BRANCH   5  33
ATOM     33  O   LIG d   1       3.761  -0.068  -2.044  0.00  0.00    -0.495 OA
BRANCH  33  34
ATOM     34  C   LIG d   1       3.779   1.345  -2.258  0.00  0.00     0.079 C 
ATOM     35  H   LIG d   1       4.336   1.567  -3.168  0.00  0.00     0.066 H 
ATOM     36  H   LIG d   1       2.756   1.709  -2.360  0.00  0.00     0.066 H 
ATOM     37  H   LIG d   1       4.256   1.835  -1.410  0.00  0.00     0.066 H 
ENDBRANCH  33  34
ENDBRANCH   5  33
TORSDOF 5
ENDMDL
MODEL 8
REMARK VINA RESULT:      -4.8      4.337      6.134
REMARK  5 active torsions:
REMARK  status: ('A' for Active; 'I' for Inactive)
REMARK    1  A    between atoms: C_1  and  O_2 
REMARK    2  A    between atoms: O_2  and  C_3 
REMARK    3  A    between atoms: C_5  and  C_11 
REMARK    4  A    between atoms: C_7  and  O_9 
REMARK    5  A    between atoms: O_9  and  C_10 
ROOT
ATOM      1  C   LIG d   1       8.933   2.735  -4.217  0.00  0.00     0.124 A 
ATOM      2  C   LIG d   1       8.292   1.684  -3.576  0.00  0.00    -0.011 A 
ATOM      3  C   LIG d   1       7.620   0.729  -4.315  0.00  0.00     0.013 A 
ATOM      4  C   LIG d   1       7.586   0.817  -5.693  0.00  0.00    -0.011 A 
ATOM      5  C   LIG d   1       8.224   1.867  -6.338  0.00  0.00     0.124 A 
ATOM      6  C   LIG d   1       8.893   2.830  -5.599  0.00  0.00     0.022 A 
ATOM      7  H   LIG d   1       8.318   1.612  -2.498  0.00  0.00     0.066 H 
ATOM      8  H   LIG d   1       7.060   0.069  -6.269  0.00  0.00     0.066 H 
ATOM      9  H   LIG d   1       9.387   3.650  -6.099  0.00  0.00     0.069 H 
ENDROOT
BRANCH   3  10
ATOM     10  C   LIG d   1       6.926  -0.412  -3.616  0.00  0.00     0.048 C 
ATOM     11  H   LIG d   1       7.565  -0.797  -2.821  0.00  0.00     0.097 H 
ATOM     12  N   LIG d   1       6.640  -1.484  -4.585  0.00  0.00     0.237 N 
ATOM     13  C   LIG d   1       5.800  -2.518  -3.963  0.00  0.00    -0.027 C 
ATOM     14  H   LIG d   1       6.155  -1.095  -5.379  0.00  0.00     0.202 HD
ATOM     15  H   LIG d   1       7.508  -1.895  -4.894  0.00  0.00     0.202 HD
ATOM     16  C   LIG d   1       4.372  -1.986  -3.774  0.00  0.00     0.030 C 
ATOM     17  H   LIG d   1       6.218  -2.788  -2.993  0.00  0.00     0.082 H 
ATOM     18  H   LIG d   1       5.777  -3.398  -4.605  0.00  0.00     0.082 H 
ATOM     19  C   LIG d   1       4.472  -0.638  -3.105  0.00  0.00     0.050 A 
ATOM     20  H   LIG d   1       3.802  -2.669  -3.144  0.00  0.00     0.038 H 
ATOM     21  H   LIG d   1       3.885  -1.881  -4.743  0.00  0.00     0.038 H 
ATOM     22  C   LIG d   1       5.622   0.070  -3.032  0.00  0.00     0.114 A 
ATOM     23  N   LIG d   1       3.511   0.093  -2.484  0.00  0.00    -0.348 N 
ATOM     24  N   LIG d   1       5.366   1.203  -2.378  0.00  0.00    -0.235 NA
ATOM     25  C   LIG d   1       4.101   1.228  -2.044  0.00  0.00     0.094 A 
ATOM     26  H   LIG d   1       3.608   2.026  -1.506  0.00  0.00     0.103 H 
ATOM     27  H   LIG d   1       2.578  -0.153  -2.376  0.00  0.00     0.167 HD
ENDBRANCH   3  10
BRANCH   1  28
ATOM     28  O   LIG d   1       9.593   3.674  -3.489  0.00  0.00    -0.495 OA
BRANCH  28  29
ATOM     29  C   LIG d   1      10.698   3.225  -2.702  0.00  0.00     0.079 C 
ATOM     30  H   LIG d   1      10.392   2.373  -2.098  0.00  0.00     0.066 H 
ATOM     31  H   LIG d   1      11.516   2.930  -3.359  0.00  0.00     0.066 H 
ATOM     32  H   LIG d   1      11.030   4.033  -2.049  0.00  0.00     0.066 H 
ENDBRANCH  28  29
ENDBRANCH   1  28
BRANCH   5  33
ATOM     33  O   LIG d   1       8.188   1.954  -7.694  0.00  0.00    -0.495 OA
BRANCH  33  34
ATOM     34  C   LIG d   1       6.991   1.515  -8.341  0.00  0.00     0.079 C 
ATOM     35  H   LIG d   1       6.964   1.906  -9.358  0.00  0.00     0.066 H 
ATOM     36  H   LIG d   1       6.972   0.425  -8.369  0.00  0.00     0.066 H 
ATOM     37  H   LIG d   1       6.125   1.879  -7.788  0.00  0.00     0.066 H 
ENDBRANCH  33  34
ENDBRANCH   5  33
TORSDOF 5
ENDMDL
MODEL 9
REMARK VINA RESULT:      -4.8      2.886      5.821
REMARK  5 active torsions:
REMARK  status: ('A' for Active; 'I' for Inactive)
REMARK    1  A    between atoms: C_1  and  O_2 
REMARK    2  A    between atoms: O_2  and  C_3 
REMARK    3  A    between atoms: C_5  and  C_11 
REMARK    4  A    between atoms: C_7  and  O_9 
REMARK    5  A    between atoms: O_9  and  C_10 
ROOT
ATOM      1  C   LIG d   1       2.383  -0.114  -9.755  0.00  0.00     0.124 A 
ATOM      2  C   LIG d   1       2.274  -0.406  -8.403  0.00  0.00    -0.011 A 
ATOM      3  C   LIG d   1       3.176   0.130  -7.503  0.00  0.00     0.013 A 
ATOM      4  C   LIG d   1       4.188   0.959  -7.948  0.00  0.00    -0.011 A 
ATOM      5  C   LIG d   1       4.302   1.253  -9.300  0.00  0.00     0.124 A 
ATOM      6  C   LIG d   1       3.401   0.712 -10.204  0.00  0.00     0.022 A 
ATOM      7  H   LIG d   1       1.483  -1.053  -8.052  0.00  0.00     0.066 H 
ATOM      8  H   LIG d   1       4.892   1.377  -7.244  0.00  0.00     0.066 H 
ATOM      9  H   LIG d   1       3.491   0.936 -11.257  0.00  0.00     0.069 H 
ENDROOT
BRANCH   3  10
ATOM     10  C   LIG d   1       3.055  -0.188  -6.035  0.00  0.00     0.048 C 
ATOM     11  H   LIG d   1       2.154  -0.778  -5.862  0.00  0.00     0.097 H 
ATOM     12  N   LIG d   1       2.983   1.063  -5.262  0.00  0.00     0.237 N 
ATOM     13  C   LIG d   1       3.053   0.775  -3.823  0.00  0.00    -0.027 C 
ATOM     14  H   LIG d   1       3.754   1.659  -5.520  0.00  0.00     0.202 HD
ATOM     15  H   LIG d   1       2.116   1.534  -5.470  0.00  0.00     0.202 HD
ATOM     16  C   LIG d   1       4.479   0.348  -3.446  0.00  0.00     0.030 C 
ATOM     17  H   LIG d   1       2.358  -0.029  -3.581  0.00  0.00     0.082 H 
ATOM     18  H   LIG d   1       2.783   1.669  -3.262  0.00  0.00     0.082 H 
ATOM     19  C   LIG d   1       4.908  -0.721  -4.419  0.00  0.00     0.050 A 
ATOM     20  H   LIG d   1       4.492  -0.049  -2.431  0.00  0.00     0.038 H 
ATOM     21  H   LIG d   1       5.153   1.203  -3.517  0.00  0.00     0.038 H 
ATOM     22  C   LIG d   1       4.266  -0.965  -5.583  0.00  0.00     0.114 A 
ATOM     23  N   LIG d   1       5.943  -1.597  -4.341  0.00  0.00    -0.348 N 
ATOM     24  N   LIG d   1       4.895  -1.968  -6.197  0.00  0.00    -0.235 NA
ATOM     25  C   LIG d   1       5.903  -2.356  -5.461  0.00  0.00     0.094 A 
ATOM     26  H   LIG d   1       6.593  -3.151  -5.707  0.00  0.00     0.103 H 
ATOM     27  H   LIG d   1       6.589  -1.665  -3.619  0.00  0.00     0.167 HD
ENDBRANCH   3  10
BRANCH   1  28
ATOM     28  O   LIG d   1       1.495  -0.642 -10.638  0.00  0.00    -0.495 OA
BRANCH  28  29
ATOM     29  C   LIG d   1       2.014  -1.079 -11.896  0.00  0.00     0.079 C 
ATOM     30  H   LIG d   1       2.591  -0.275 -12.351  0.00  0.00     0.066 H 
ATOM     31  H   LIG d   1       2.657  -1.945 -11.742  0.00  0.00     0.066 H 
ATOM     32  H   LIG d   1       1.188  -1.352 -12.554  0.00  0.00     0.066 H 
ENDBRANCH  28  29
ENDBRANCH   1  28
BRANCH   5  33
ATOM     33  O   LIG d   1       5.298   2.068  -9.736  0.00  0.00    -0.495 OA
BRANCH  33  34
ATOM     34  C   LIG d   1       6.529   2.034  -9.009  0.00  0.00     0.079 C 
ATOM     35  H   LIG d   1       6.750   1.008  -8.718  0.00  0.00     0.066 H 
ATOM     36  H   LIG d   1       7.333   2.415  -9.639  0.00  0.00     0.066 H 
ATOM     37  H   LIG d   1       6.441   2.655  -8.118  0.00  0.00     0.066 H 
ENDBRANCH  33  34
ENDBRANCH   5  33
TORSDOF 5
ENDMDL
MODEL 10
REMARK VINA RESULT:      -4.8      3.355      5.682
REMARK  5 active torsions:
REMARK  status: ('A' for Active; 'I' for Inactive)
REMARK    1  A    between atoms: C_1  and  O_2 
REMARK    2  A    between atoms: O_2  and  C_3 
REMARK    3  A    between atoms: C_5  and  C_11 
REMARK    4  A    between atoms: C_7  and  O_9 
REMARK    5  A    between atoms: O_9  and  C_10 
ROOT
ATOM      1  C   LIG d   1       4.139  -1.890  -7.330  0.00  0.00     0.124 A 
ATOM      2  C   LIG d   1       4.456  -1.371  -6.082  0.00  0.00    -0.011 A 
ATOM      3  C   LIG d   1       4.855  -2.214  -5.062  0.00  0.00     0.013 A 
ATOM      4  C   LIG d   1       4.939  -3.575  -5.282  0.00  0.00    -0.011 A 
ATOM      5  C   LIG d   1       4.622  -4.099  -6.528  0.00  0.00     0.124 A 
ATOM      6  C   LIG d   1       4.217  -3.256  -7.550  0.00  0.00     0.022 A 
ATOM      7  H   LIG d   1       4.391  -0.307  -5.908  0.00  0.00     0.066 H 
ATOM      8  H   LIG d   1       5.252  -4.233  -4.484  0.00  0.00     0.066 H 
ATOM      9  H   LIG d   1       3.965  -3.662  -8.519  0.00  0.00     0.069 H 
ENDROOT
BRANCH   3  10
ATOM     10  C   LIG d   1       5.199  -1.648  -3.709  0.00  0.00     0.048 C 
ATOM     11  H   LIG d   1       5.717  -2.403  -3.117  0.00  0.00     0.097 H 
ATOM     12  N   LIG d   1       3.966  -1.237  -3.016  0.00  0.00     0.237 N 
ATOM     13  C   LIG d   1       4.296  -0.513  -1.780  0.00  0.00    -0.027 C 
ATOM     14  H   LIG d   1       3.429  -0.634  -3.621  0.00  0.00     0.202 HD
ATOM     15  H   LIG d   1       3.420  -2.055  -2.793  0.00  0.00     0.202 HD
ATOM     16  C   LIG d   1       4.848   0.878  -2.122  0.00  0.00     0.030 C 
ATOM     17  H   LIG d   1       5.046  -1.074  -1.223  0.00  0.00     0.082 H 
ATOM     18  H   LIG d   1       3.397  -0.407  -1.173  0.00  0.00     0.082 H 
ATOM     19  C   LIG d   1       5.924   0.700  -3.163  0.00  0.00     0.050 A 
ATOM     20  H   LIG d   1       5.271   1.339  -1.229  0.00  0.00     0.038 H 
ATOM     21  H   LIG d   1       4.050   1.505  -2.520  0.00  0.00     0.038 H 
ATOM     22  C   LIG d   1       6.084  -0.438  -3.876  0.00  0.00     0.114 A 
ATOM     23  N   LIG d   1       6.883   1.569  -3.573  0.00  0.00    -0.348 N 
ATOM     24  N   LIG d   1       7.119  -0.265  -4.699  0.00  0.00    -0.235 NA
ATOM     25  C   LIG d   1       7.607   0.936  -4.526  0.00  0.00     0.094 A 
ATOM     26  H   LIG d   1       8.449   1.355  -5.058  0.00  0.00     0.103 H 
ATOM     27  H   LIG d   1       7.022   2.472  -3.246  0.00  0.00     0.167 HD
ENDBRANCH   3  10
BRANCH   1  28
ATOM     28  O   LIG d   1       3.747  -1.060  -8.331  0.00  0.00    -0.495 OA
BRANCH  28  29
ATOM     29  C   LIG d   1       2.679  -0.155  -8.044  0.00  0.00     0.079 C 
ATOM     30  H   LIG d   1       1.857  -0.332  -8.737  0.00  0.00     0.066 H 
ATOM     31  H   LIG d   1       2.333  -0.314  -7.023  0.00  0.00     0.066 H 
ATOM     32  H   LIG d   1       3.033   0.870  -8.153  0.00  0.00     0.066 H 
ENDBRANCH  28  29
ENDBRANCH   1  28
BRANCH   5  33
ATOM     33  O   LIG d   1       4.705  -5.439  -6.743  0.00  0.00    -0.495 OA
BRANCH  33  34
ATOM     34  C   LIG d   1       4.846  -6.273  -5.591  0.00  0.00     0.079 C 
ATOM     35  H   LIG d   1       5.792  -6.812  -5.646  0.00  0.00     0.066 H 
ATOM     36  H   LIG d   1       4.831  -5.657  -4.692  0.00  0.00     0.066 H 
ATOM     37  H   LIG d   1       4.022  -6.986  -5.556  0.00  0.00     0.066 H 
ENDBRANCH  33  34
ENDBRANCH   5  33
TORSDOF 5
ENDMDL
