MODEL 1
REMARK VINA RESULT:      -7.3      0.000      0.000
REMARK  4 active torsions:
REMARK  status: ('A' for Active; 'I' for Inactive)
REMARK    1  A    between atoms: C_5  and  N_7 
REMARK       I    between atoms: N_7  and  C_8 
REMARK    2  A    between atoms: C_8  and  C_10 
REMARK    3  A    between atoms: C_10  and  C_11 
REMARK    4  A    between atoms: C_10  and  C_15 
ROOT
ATOM      1  N   LIG d   1       4.366  -0.157  -5.874  0.00  0.00    -0.281 N 
ATOM      2  C   LIG d   1       3.680  -0.090  -4.715  0.00  0.00     0.252 C 
ATOM      3  O   LIG d   1       2.471   0.011  -4.732  0.00  0.00    -0.273 OA
ATOM      4  H   LIG d   1       5.323  -0.318  -5.862  0.00  0.00     0.155 HD
ENDROOT
BRANCH   1   5
ATOM      5  C   LIG d   1       3.698   0.005  -7.094  0.00  0.00     0.069 A 
ATOM      6  C   LIG d   1       3.416  -1.103  -7.886  0.00  0.00     0.144 A 
ATOM      7  C   LIG d   1       2.755  -0.938  -9.090  0.00  0.00    -0.025 A 
ATOM      8  F   LIG d   1       3.786  -2.337  -7.480  0.00  0.00    -0.203 F 
ATOM      9  C   LIG d   1       2.376   0.325  -9.505  0.00  0.00    -0.059 A 
ATOM     10  H   LIG d   1       2.536  -1.798  -9.707  0.00  0.00     0.065 H 
ATOM     11  C   LIG d   1       2.655   1.427  -8.718  0.00  0.00    -0.060 A 
ATOM     12  H   LIG d   1       1.859   0.451 -10.445  0.00  0.00     0.062 H 
ATOM     13  C   LIG d   1       3.315   1.270  -7.515  0.00  0.00    -0.038 A 
ATOM     14  H   LIG d   1       2.361   2.412  -9.047  0.00  0.00     0.062 H 
ATOM     15  H   LIG d   1       3.532   2.132  -6.902  0.00  0.00     0.064 H 
ENDBRANCH   1   5
BRANCH   2  16
ATOM     16  C   LIG d   1       4.414  -0.139  -3.400  0.00  0.00     0.289 C 
ATOM     17 BR   LIG d   1       6.351  -0.059  -3.729  0.00  0.00    -0.056 Br
BRANCH  16  18
ATOM     18  C   LIG d   1       3.994   1.052  -2.538  0.00  0.00     0.422 C 
ATOM     19  F   LIG d   1       2.718   0.820  -2.014  0.00  0.00    -0.168 F 
ATOM     20  F   LIG d   1       4.907   1.213  -1.489  0.00  0.00    -0.168 F 
ATOM     21  F   LIG d   1       3.974   2.212  -3.319  0.00  0.00    -0.168 F 
ENDBRANCH  16  18
BRANCH  16  22
ATOM     22  C   LIG d   1       4.074  -1.441  -2.674  0.00  0.00     0.422 C 
ATOM     23  F   LIG d   1       4.578  -1.394  -1.369  0.00  0.00    -0.168 F 
ATOM     24  F   LIG d   1       2.686  -1.602  -2.632  0.00  0.00    -0.168 F 
ATOM     25  F   LIG d   1       4.649  -2.519  -3.356  0.00  0.00    -0.168 F 
ENDBRANCH  16  22
ENDBRANCH   2  16
TORSDOF 4
ENDMDL
MODEL 2
REMARK VINA RESULT:      -7.1      1.390      2.202
REMARK  4 active torsions:
REMARK  status: ('A' for Active; 'I' for Inactive)
REMARK    1  A    between atoms: C_5  and  N_7 
REMARK       I    between atoms: N_7  and  C_8 
REMARK    2  A    between atoms: C_8  and  C_10 
REMARK    3  A    between atoms: C_10  and  C_11 
REMARK    4  A    between atoms: C_10  and  C_15 
ROOT
ATOM      1  N   LIG d   1       3.334  -0.329  -5.724  0.00  0.00    -0.281 N 
ATOM      2  C   LIG d   1       4.541  -0.175  -5.145  0.00  0.00     0.252 C 
ATOM      3  O   LIG d   1       5.497   0.156  -5.815  0.00  0.00    -0.273 OA
ATOM      4  H   LIG d   1       2.554  -0.515  -5.178  0.00  0.00     0.155 HD
ENDROOT
BRANCH   1   5
ATOM      5  C   LIG d   1       3.205  -0.221  -7.114  0.00  0.00     0.069 A 
ATOM      6  C   LIG d   1       2.837   0.992  -7.687  0.00  0.00     0.144 A 
ATOM      7  C   LIG d   1       2.711   1.095  -9.061  0.00  0.00    -0.025 A 
ATOM      8  F   LIG d   1       2.602   2.067  -6.904  0.00  0.00    -0.203 F 
ATOM      9  C   LIG d   1       2.952  -0.005  -9.863  0.00  0.00    -0.059 A 
ATOM     10  H   LIG d   1       2.424   2.036  -9.507  0.00  0.00     0.065 H 
ATOM     11  C   LIG d   1       3.320  -1.212  -9.295  0.00  0.00    -0.060 A 
ATOM     12  H   LIG d   1       2.854   0.077 -10.935  0.00  0.00     0.062 H 
ATOM     13  C   LIG d   1       3.446  -1.322  -7.924  0.00  0.00    -0.038 A 
ATOM     14  H   LIG d   1       3.502  -2.070  -9.924  0.00  0.00     0.062 H 
ATOM     15  H   LIG d   1       3.733  -2.264  -7.482  0.00  0.00     0.064 H 
ENDBRANCH   1   5
BRANCH   2  16
ATOM     16  C   LIG d   1       4.704  -0.415  -3.666  0.00  0.00     0.289 C 
ATOM     17 BR   LIG d   1       6.562  -0.937  -3.289  0.00  0.00    -0.056 Br
BRANCH  16  18
ATOM     18  C   LIG d   1       4.369   0.867  -2.902  0.00  0.00     0.422 C 
ATOM     19  F   LIG d   1       5.474   1.726  -2.926  0.00  0.00    -0.168 F 
ATOM     20  F   LIG d   1       3.275   1.497  -3.505  0.00  0.00    -0.168 F 
ATOM     21  F   LIG d   1       4.053   0.552  -1.576  0.00  0.00    -0.168 F 
ENDBRANCH  16  18
BRANCH  16  22
ATOM     22  C   LIG d   1       3.760  -1.534  -3.224  0.00  0.00     0.422 C 
ATOM     23  F   LIG d   1       2.445  -1.057  -3.205  0.00  0.00    -0.168 F 
ATOM     24  F   LIG d   1       3.854  -2.604  -4.121  0.00  0.00    -0.168 F 
ATOM     25  F   LIG d   1       4.118  -1.967  -1.942  0.00  0.00    -0.168 F 
ENDBRANCH  16  22
ENDBRANCH   2  16
TORSDOF 4
ENDMDL
MODEL 3
REMARK VINA RESULT:      -7.1      1.504      2.637
REMARK  4 active torsions:
REMARK  status: ('A' for Active; 'I' for Inactive)
REMARK    1  A    between atoms: C_5  and  N_7 
REMARK       I    between atoms: N_7  and  C_8 
REMARK    2  A    between atoms: C_8  and  C_10 
REMARK    3  A    between atoms: C_10  and  C_11 
REMARK    4  A    between atoms: C_10  and  C_15 
ROOT
ATOM      1  N   LIG d   1       3.245  -0.149  -5.646  0.00  0.00    -0.281 N 
ATOM      2  C   LIG d   1       4.364  -0.003  -4.909  0.00  0.00     0.252 C 
ATOM      3  O   LIG d   1       5.413   0.280  -5.448  0.00  0.00    -0.273 OA
ATOM      4  H   LIG d   1       2.392  -0.296  -5.210  0.00  0.00     0.155 HD
ENDROOT
BRANCH   1   5
ATOM      5  C   LIG d   1       3.315  -0.089  -7.044  0.00  0.00     0.069 A 
ATOM      6  C   LIG d   1       3.728  -1.202  -7.769  0.00  0.00     0.144 A 
ATOM      7  C   LIG d   1       3.796  -1.138  -9.150  0.00  0.00    -0.025 A 
ATOM      8  F   LIG d   1       4.064  -2.341  -7.127  0.00  0.00    -0.203 F 
ATOM      9  C   LIG d   1       3.452   0.029  -9.806  0.00  0.00    -0.059 A 
ATOM     10  H   LIG d   1       4.117  -2.001  -9.714  0.00  0.00     0.065 H 
ATOM     11  C   LIG d   1       3.040   1.136  -9.087  0.00  0.00    -0.060 A 
ATOM     12  H   LIG d   1       3.505   0.076 -10.884  0.00  0.00     0.062 H 
ATOM     13  C   LIG d   1       2.971   1.080  -7.709  0.00  0.00    -0.038 A 
ATOM     14  H   LIG d   1       2.777   2.047  -9.603  0.00  0.00     0.062 H 
ATOM     15  H   LIG d   1       2.650   1.945  -7.148  0.00  0.00     0.064 H 
ENDBRANCH   1   5
BRANCH   2  16
ATOM     16  C   LIG d   1       4.312  -0.192  -3.414  0.00  0.00     0.289 C 
ATOM     17 BR   LIG d   1       2.514  -0.796  -2.894  0.00  0.00    -0.056 Br
BRANCH  16  18
ATOM     18  C   LIG d   1       5.343  -1.242  -2.997  0.00  0.00     0.422 C 
ATOM     19  F   LIG d   1       5.418  -2.237  -3.978  0.00  0.00    -0.168 F 
ATOM     20  F   LIG d   1       6.595  -0.633  -2.853  0.00  0.00    -0.168 F 
ATOM     21  F   LIG d   1       4.960  -1.815  -1.780  0.00  0.00    -0.168 F 
ENDBRANCH  16  18
BRANCH  16  22
ATOM     22  C   LIG d   1       4.624   1.135  -2.721  0.00  0.00     0.422 C 
ATOM     23  F   LIG d   1       3.665   2.088  -3.083  0.00  0.00    -0.168 F 
ATOM     24  F   LIG d   1       4.599   0.953  -1.335  0.00  0.00    -0.168 F 
ATOM     25  F   LIG d   1       5.892   1.578  -3.112  0.00  0.00    -0.168 F 
ENDBRANCH  16  22
ENDBRANCH   2  16
TORSDOF 4
ENDMDL
MODEL 4
REMARK VINA RESULT:      -6.8      2.642      6.023
REMARK  4 active torsions:
REMARK  status: ('A' for Active; 'I' for Inactive)
REMARK    1  A    between atoms: C_5  and  N_7 
REMARK       I    between atoms: N_7  and  C_8 
REMARK    2  A    between atoms: C_8  and  C_10 
REMARK    3  A    between atoms: C_10  and  C_11 
REMARK    4  A    between atoms: C_10  and  C_15 
ROOT
ATOM      1  N   LIG d   1       3.325  -0.486  -6.000  0.00  0.00    -0.281 N 
ATOM      2  C   LIG d   1       4.259  -0.017  -6.851  0.00  0.00     0.252 C 
ATOM      3  O   LIG d   1       5.383   0.208  -6.453  0.00  0.00    -0.273 OA
ATOM      4  H   LIG d   1       2.450  -0.742  -6.333  0.00  0.00     0.155 HD
ENDROOT
BRANCH   1   5
ATOM      5  C   LIG d   1       3.617  -0.606  -4.636  0.00  0.00     0.069 A 
ATOM      6  C   LIG d   1       3.347   0.449  -3.771  0.00  0.00     0.144 A 
ATOM      7  C   LIG d   1       3.637   0.326  -2.423  0.00  0.00    -0.025 A 
ATOM      8  F   LIG d   1       2.805   1.591  -4.245  0.00  0.00    -0.203 F 
ATOM      9  C   LIG d   1       4.192  -0.843  -1.938  0.00  0.00    -0.059 A 
ATOM     10  H   LIG d   1       3.429   1.145  -1.750  0.00  0.00     0.065 H 
ATOM     11  C   LIG d   1       4.459  -1.894  -2.797  0.00  0.00    -0.060 A 
ATOM     12  H   LIG d   1       4.417  -0.937  -0.886  0.00  0.00     0.062 H 
ATOM     13  C   LIG d   1       4.174  -1.778  -4.143  0.00  0.00    -0.038 A 
ATOM     14  H   LIG d   1       4.897  -2.804  -2.415  0.00  0.00     0.062 H 
ATOM     15  H   LIG d   1       4.383  -2.599  -4.813  0.00  0.00     0.064 H 
ENDBRANCH   1   5
BRANCH   2  16
ATOM     16  C   LIG d   1       3.908   0.231  -8.295  0.00  0.00     0.289 C 
ATOM     17 BR   LIG d   1       5.545   0.189  -9.383  0.00  0.00    -0.056 Br
BRANCH  16  18
ATOM     18  C   LIG d   1       2.946  -0.855  -8.779  0.00  0.00     0.422 C 
ATOM     19  F   LIG d   1       3.326  -2.088  -8.240  0.00  0.00    -0.168 F 
ATOM     20  F   LIG d   1       1.646  -0.545  -8.363  0.00  0.00    -0.168 F 
ATOM     21  F   LIG d   1       2.984  -0.925 -10.176  0.00  0.00    -0.168 F 
ENDBRANCH  16  18
BRANCH  16  22
ATOM     22  C   LIG d   1       3.241   1.601  -8.430  0.00  0.00     0.422 C 
ATOM     23  F   LIG d   1       4.205   2.558  -8.770  0.00  0.00    -0.168 F 
ATOM     24  F   LIG d   1       2.265   1.548  -9.430  0.00  0.00    -0.168 F 
ATOM     25  F   LIG d   1       2.645   1.952  -7.213  0.00  0.00    -0.168 F 
ENDBRANCH  16  22
ENDBRANCH   2  16
TORSDOF 4
ENDMDL
MODEL 5
REMARK VINA RESULT:      -6.8      1.836      2.447
REMARK  4 active torsions:
REMARK  status: ('A' for Active; 'I' for Inactive)
REMARK    1  A    between atoms: C_5  and  N_7 
REMARK       I    between atoms: N_7  and  C_8 
REMARK    2  A    between atoms: C_8  and  C_10 
REMARK    3  A    between atoms: C_10  and  C_11 
REMARK    4  A    between atoms: C_10  and  C_15 
ROOT
ATOM      1  N   LIG d   1       4.143  -1.078  -6.312  0.00  0.00    -0.281 N 
ATOM      2  C   LIG d   1       4.200  -0.557  -5.070  0.00  0.00     0.252 C 
ATOM      3  O   LIG d   1       3.911   0.608  -4.887  0.00  0.00    -0.273 OA
ATOM      4  H   LIG d   1       4.295  -2.026  -6.448  0.00  0.00     0.155 HD
ENDROOT
BRANCH   1   5
ATOM      5  C   LIG d   1       3.865  -0.250  -7.407  0.00  0.00     0.069 A 
ATOM      6  C   LIG d   1       4.881   0.499  -7.990  0.00  0.00     0.144 A 
ATOM      7  C   LIG d   1       4.601   1.316  -9.071  0.00  0.00    -0.025 A 
ATOM      8  F   LIG d   1       6.138   0.431  -7.501  0.00  0.00    -0.203 F 
ATOM      9  C   LIG d   1       3.315   1.386  -9.571  0.00  0.00    -0.059 A 
ATOM     10  H   LIG d   1       5.389   1.899  -9.525  0.00  0.00     0.065 H 
ATOM     11  C   LIG d   1       2.303   0.641  -8.994  0.00  0.00    -0.060 A 
ATOM     12  H   LIG d   1       3.099   2.023 -10.416  0.00  0.00     0.062 H 
ATOM     13  C   LIG d   1       2.575  -0.176  -7.913  0.00  0.00    -0.038 A 
ATOM     14  H   LIG d   1       1.299   0.701  -9.384  0.00  0.00     0.062 H 
ATOM     15  H   LIG d   1       1.784  -0.757  -7.463  0.00  0.00     0.064 H 
ENDBRANCH   1   5
BRANCH   2  16
ATOM     16  C   LIG d   1       4.622  -1.420  -3.909  0.00  0.00     0.289 C 
ATOM     17 BR   LIG d   1       4.826  -3.279  -4.516  0.00  0.00    -0.056 Br
BRANCH  16  18
ATOM     18  C   LIG d   1       5.956  -0.915  -3.357  0.00  0.00     0.422 C 
ATOM     19  F   LIG d   1       5.732   0.207  -2.552  0.00  0.00    -0.168 F 
ATOM     20  F   LIG d   1       6.557  -1.924  -2.595  0.00  0.00    -0.168 F 
ATOM     21  F   LIG d   1       6.799  -0.567  -4.418  0.00  0.00    -0.168 F 
ENDBRANCH  16  18
BRANCH  16  22
ATOM     22  C   LIG d   1       3.558  -1.356  -2.812  0.00  0.00     0.422 C 
ATOM     23  F   LIG d   1       2.297  -1.182  -3.394  0.00  0.00    -0.168 F 
ATOM     24  F   LIG d   1       3.572  -2.547  -2.079  0.00  0.00    -0.168 F 
ATOM     25  F   LIG d   1       3.831  -0.280  -1.960  0.00  0.00    -0.168 F 
ENDBRANCH  16  22
ENDBRANCH   2  16
TORSDOF 4
ENDMDL
MODEL 6
REMARK VINA RESULT:      -6.7      1.561      2.013
REMARK  4 active torsions:
REMARK  status: ('A' for Active; 'I' for Inactive)
REMARK    1  A    between atoms: C_5  and  N_7 
REMARK       I    between atoms: N_7  and  C_8 
REMARK    2  A    between atoms: C_8  and  C_10 
REMARK    3  A    between atoms: C_10  and  C_11 
REMARK    4  A    between atoms: C_10  and  C_15 
ROOT
ATOM      1  N   LIG d   1       4.786  -0.058  -5.830  0.00  0.00    -0.281 N 
ATOM      2  C   LIG d   1       4.480  -0.898  -4.821  0.00  0.00     0.252 C 
ATOM      3  O   LIG d   1       4.225  -2.061  -5.056  0.00  0.00    -0.273 OA
ATOM      4  H   LIG d   1       5.068   0.849  -5.637  0.00  0.00     0.155 HD
ENDROOT
BRANCH   1   5
ATOM      5  C   LIG d   1       4.697  -0.497  -7.157  0.00  0.00     0.069 A 
ATOM      6  C   LIG d   1       3.469  -0.493  -7.811  0.00  0.00     0.144 A 
ATOM      7  C   LIG d   1       3.386  -0.927  -9.122  0.00  0.00    -0.025 A 
ATOM      8  F   LIG d   1       2.361  -0.067  -7.167  0.00  0.00    -0.203 F 
ATOM      9  C   LIG d   1       4.520  -1.362  -9.781  0.00  0.00    -0.059 A 
ATOM     10  H   LIG d   1       2.433  -0.924  -9.631  0.00  0.00     0.065 H 
ATOM     11  C   LIG d   1       5.742  -1.366  -9.133  0.00  0.00    -0.060 A 
ATOM     12  H   LIG d   1       4.452  -1.699 -10.805  0.00  0.00     0.062 H 
ATOM     13  C   LIG d   1       5.832  -0.935  -7.823  0.00  0.00    -0.038 A 
ATOM     14  H   LIG d   1       6.624  -1.711  -9.649  0.00  0.00     0.062 H 
ATOM     15  H   LIG d   1       6.787  -0.939  -7.318  0.00  0.00     0.064 H 
ENDBRANCH   1   5
BRANCH   2  16
ATOM     16  C   LIG d   1       4.454  -0.393  -3.401  0.00  0.00     0.289 C 
ATOM     17 BR   LIG d   1       5.855   0.968  -3.165  0.00  0.00    -0.056 Br
BRANCH  16  18
ATOM     18  C   LIG d   1       3.088   0.226  -3.105  0.00  0.00     0.422 C 
ATOM     19  F   LIG d   1       2.195  -0.780  -2.718  0.00  0.00    -0.168 F 
ATOM     20  F   LIG d   1       3.213   1.162  -2.072  0.00  0.00    -0.168 F 
ATOM     21  F   LIG d   1       2.603   0.862  -4.253  0.00  0.00    -0.168 F 
ENDBRANCH  16  18
BRANCH  16  22
ATOM     22  C   LIG d   1       4.707  -1.556  -2.441  0.00  0.00     0.422 C 
ATOM     23  F   LIG d   1       6.003  -2.048  -2.634  0.00  0.00    -0.168 F 
ATOM     24  F   LIG d   1       4.571  -1.110  -1.122  0.00  0.00    -0.168 F 
ATOM     25  F   LIG d   1       3.780  -2.575  -2.688  0.00  0.00    -0.168 F 
ENDBRANCH  16  22
ENDBRANCH   2  16
TORSDOF 4
ENDMDL
MODEL 7
REMARK VINA RESULT:      -6.7      2.728      5.871
REMARK  4 active torsions:
REMARK  status: ('A' for Active; 'I' for Inactive)
REMARK    1  A    between atoms: C_5  and  N_7 
REMARK       I    between atoms: N_7  and  C_8 
REMARK    2  A    between atoms: C_8  and  C_10 
REMARK    3  A    between atoms: C_10  and  C_11 
REMARK    4  A    between atoms: C_10  and  C_15 
ROOT
ATOM      1  N   LIG d   1       3.386  -0.458  -6.017  0.00  0.00    -0.281 N 
ATOM      2  C   LIG d   1       4.357  -0.079  -6.871  0.00  0.00     0.252 C 
ATOM      3  O   LIG d   1       5.475   0.145  -6.457  0.00  0.00    -0.273 OA
ATOM      4  H   LIG d   1       2.514  -0.715  -6.356  0.00  0.00     0.155 HD
ENDROOT
BRANCH   1   5
ATOM      5  C   LIG d   1       3.635  -0.483  -4.639  0.00  0.00     0.069 A 
ATOM      6  C   LIG d   1       4.120  -1.640  -4.039  0.00  0.00     0.144 A 
ATOM      7  C   LIG d   1       4.366  -1.660  -2.678  0.00  0.00    -0.025 A 
ATOM      8  F   LIG d   1       4.350  -2.743  -4.785  0.00  0.00    -0.203 F 
ATOM      9  C   LIG d   1       4.131  -0.532  -1.916  0.00  0.00    -0.059 A 
ATOM     10  H   LIG d   1       4.742  -2.559  -2.211  0.00  0.00     0.065 H 
ATOM     11  C   LIG d   1       3.650   0.621  -2.510  0.00  0.00    -0.060 A 
ATOM     12  H   LIG d   1       4.324  -0.549  -0.853  0.00  0.00     0.062 H 
ATOM     13  C   LIG d   1       3.401   0.647  -3.868  0.00  0.00    -0.038 A 
ATOM     14  H   LIG d   1       3.463   1.499  -1.911  0.00  0.00     0.062 H 
ATOM     15  H   LIG d   1       3.025   1.548  -4.331  0.00  0.00     0.064 H 
ENDBRANCH   1   5
BRANCH   2  16
ATOM     16  C   LIG d   1       4.054   0.069  -8.340  0.00  0.00     0.289 C 
ATOM     17 BR   LIG d   1       5.688  -0.260  -9.382  0.00  0.00    -0.056 Br
BRANCH  16  18
ATOM     18  C   LIG d   1       2.980  -0.943  -8.743  0.00  0.00     0.422 C 
ATOM     19  F   LIG d   1       2.977  -1.089 -10.135  0.00  0.00    -0.168 F 
ATOM     20  F   LIG d   1       3.255  -2.178  -8.144  0.00  0.00    -0.168 F 
ATOM     21  F   LIG d   1       1.726  -0.488  -8.320  0.00  0.00    -0.168 F 
ENDBRANCH  16  18
BRANCH  16  22
ATOM     22  C   LIG d   1       3.550   1.486  -8.616  0.00  0.00     0.422 C 
ATOM     23  F   LIG d   1       2.796   1.492  -9.795  0.00  0.00    -0.168 F 
ATOM     24  F   LIG d   1       2.750   1.913  -7.550  0.00  0.00    -0.168 F 
ATOM     25  F   LIG d   1       4.641   2.351  -8.756  0.00  0.00    -0.168 F 
ENDBRANCH  16  22
ENDBRANCH   2  16
TORSDOF 4
ENDMDL
MODEL 8
REMARK VINA RESULT:      -6.6      3.011      6.318
REMARK  4 active torsions:
REMARK  status: ('A' for Active; 'I' for Inactive)
REMARK    1  A    between atoms: C_5  and  N_7 
REMARK       I    between atoms: N_7  and  C_8 
REMARK    2  A    between atoms: C_8  and  C_10 
REMARK    3  A    between atoms: C_10  and  C_11 
REMARK    4  A    between atoms: C_10  and  C_15 
ROOT
ATOM      1  N   LIG d   1       4.450   0.343  -6.536  0.00  0.00    -0.281 N 
ATOM      2  C   LIG d   1       3.740   0.172  -7.669  0.00  0.00     0.252 C 
ATOM      3  O   LIG d   1       2.696  -0.446  -7.642  0.00  0.00    -0.273 OA
ATOM      4  H   LIG d   1       5.242   0.903  -6.539  0.00  0.00     0.155 HD
ENDROOT
BRANCH   1   5
ATOM      5  C   LIG d   1       4.045  -0.288  -5.353  0.00  0.00     0.069 A 
ATOM      6  C   LIG d   1       3.017   0.256  -4.590  0.00  0.00     0.144 A 
ATOM      7  C   LIG d   1       2.619  -0.371  -3.423  0.00  0.00    -0.025 A 
ATOM      8  F   LIG d   1       2.408   1.394  -4.989  0.00  0.00    -0.203 F 
ATOM      9  C   LIG d   1       3.241  -1.536  -3.016  0.00  0.00    -0.059 A 
ATOM     10  H   LIG d   1       1.821   0.051  -2.830  0.00  0.00     0.065 H 
ATOM     11  C   LIG d   1       4.263  -2.079  -3.773  0.00  0.00    -0.060 A 
ATOM     12  H   LIG d   1       2.929  -2.024  -2.104  0.00  0.00     0.062 H 
ATOM     13  C   LIG d   1       4.666  -1.458  -4.939  0.00  0.00    -0.038 A 
ATOM     14  H   LIG d   1       4.750  -2.987  -3.450  0.00  0.00     0.062 H 
ATOM     15  H   LIG d   1       5.464  -1.883  -5.530  0.00  0.00     0.064 H 
ENDBRANCH   1   5
BRANCH   2  16
ATOM     16  C   LIG d   1       4.244   0.746  -8.968  0.00  0.00     0.289 C 
ATOM     17 BR   LIG d   1       6.112   1.319  -8.749  0.00  0.00    -0.056 Br
BRANCH  16  18
ATOM     18  C   LIG d   1       4.162  -0.319 -10.062  0.00  0.00     0.422 C 
ATOM     19  F   LIG d   1       2.847  -0.400 -10.535  0.00  0.00    -0.168 F 
ATOM     20  F   LIG d   1       5.016   0.027 -11.115  0.00  0.00    -0.168 F 
ATOM     21  F   LIG d   1       4.546  -1.559  -9.538  0.00  0.00    -0.168 F 
ENDBRANCH  16  18
BRANCH  16  22
ATOM     22  C   LIG d   1       3.385   1.949  -9.360  0.00  0.00     0.422 C 
ATOM     23  F   LIG d   1       2.038   1.664  -9.107  0.00  0.00    -0.168 F 
ATOM     24  F   LIG d   1       3.774   3.064  -8.611  0.00  0.00    -0.168 F 
ATOM     25  F   LIG d   1       3.555   2.220 -10.723  0.00  0.00    -0.168 F 
ENDBRANCH  16  22
ENDBRANCH   2  16
TORSDOF 4
ENDMDL
MODEL 9
REMARK VINA RESULT:      -6.5      3.362      5.936
REMARK  4 active torsions:
REMARK  status: ('A' for Active; 'I' for Inactive)
REMARK    1  A    between atoms: C_5  and  N_7 
REMARK       I    between atoms: N_7  and  C_8 
REMARK    2  A    between atoms: C_8  and  C_10 
REMARK    3  A    between atoms: C_10  and  C_11 
REMARK    4  A    between atoms: C_10  and  C_15 
ROOT
ATOM      1  N   LIG d   1       4.271   0.301  -6.596  0.00  0.00    -0.281 N 
ATOM      2  C   LIG d   1       3.480   0.135  -7.675  0.00  0.00     0.252 C 
ATOM      3  O   LIG d   1       2.414  -0.434  -7.563  0.00  0.00    -0.273 OA
ATOM      4  H   LIG d   1       5.085   0.825  -6.667  0.00  0.00     0.155 HD
ENDROOT
BRANCH   1   5
ATOM      5  C   LIG d   1       3.918  -0.281  -5.373  0.00  0.00     0.069 A 
ATOM      6  C   LIG d   1       2.968   0.328  -4.559  0.00  0.00     0.144 A 
ATOM      7  C   LIG d   1       2.622  -0.251  -3.351  0.00  0.00    -0.025 A 
ATOM      8  F   LIG d   1       2.385   1.482  -4.948  0.00  0.00    -0.203 F 
ATOM      9  C   LIG d   1       3.219  -1.433  -2.954  0.00  0.00    -0.059 A 
ATOM     10  H   LIG d   1       1.885   0.221  -2.719  0.00  0.00     0.065 H 
ATOM     11  C   LIG d   1       4.163  -2.041  -3.762  0.00  0.00    -0.060 A 
ATOM     12  H   LIG d   1       2.946  -1.884  -2.011  0.00  0.00     0.062 H 
ATOM     13  C   LIG d   1       4.514  -1.468  -4.968  0.00  0.00    -0.038 A 
ATOM     14  H   LIG d   1       4.630  -2.961  -3.446  0.00  0.00     0.062 H 
ATOM     15  H   LIG d   1       5.251  -1.944  -5.598  0.00  0.00     0.064 H 
ENDBRANCH   1   5
BRANCH   2  16
ATOM     16  C   LIG d   1       3.920   0.653  -9.020  0.00  0.00     0.289 C 
ATOM     17 BR   LIG d   1       2.814  -0.159 -10.428  0.00  0.00    -0.056 Br
BRANCH  16  18
ATOM     18  C   LIG d   1       3.759   2.173  -9.058  0.00  0.00     0.422 C 
ATOM     19  F   LIG d   1       4.999   2.779  -8.825  0.00  0.00    -0.168 F 
ATOM     20  F   LIG d   1       3.280   2.560 -10.314  0.00  0.00    -0.168 F 
ATOM     21  F   LIG d   1       2.852   2.573  -8.070  0.00  0.00    -0.168 F 
ENDBRANCH  16  18
BRANCH  16  22
ATOM     22  C   LIG d   1       5.387   0.289  -9.251  0.00  0.00     0.422 C 
ATOM     23  F   LIG d   1       6.184   0.925  -8.292  0.00  0.00    -0.168 F 
ATOM     24  F   LIG d   1       5.546  -1.096  -9.143  0.00  0.00    -0.168 F 
ATOM     25  F   LIG d   1       5.776   0.705 -10.530  0.00  0.00    -0.168 F 
ENDBRANCH  16  22
ENDBRANCH   2  16
TORSDOF 4
ENDMDL
