MODEL 1
REMARK VINA RESULT:      -6.5      0.000      0.000
REMARK  2 active torsions:
REMARK  status: ('A' for Active; 'I' for Inactive)
REMARK    1  A    between atoms: C_1  and  C_2 
REMARK    2  A    between atoms: C_8  and  C_10 
ROOT
ATOM      1  C   LIG d   1       3.891   0.314  -3.024  0.00  0.00     0.040 A 
ATOM      2  C   LIG d   1       4.062  -0.476  -1.931  0.00  0.00    -0.050 A 
ATOM      3  C   LIG d   1       4.367  -1.837  -2.097  0.00  0.00    -0.044 A 
ATOM      4  C   LIG d   1       4.492  -2.361  -3.335  0.00  0.00     0.015 A 
ATOM      5  N   LIG d   1       4.322  -1.579  -4.441  0.00  0.00    -0.264 N 
ATOM      6  C   LIG d   1       4.024  -0.247  -4.311  0.00  0.00     0.291 A 
ATOM      7  C   LIG d   1       4.133  -0.685  -6.436  0.00  0.00     0.232 A 
ATOM      8  C   LIG d   1       4.390  -1.850  -5.779  0.00  0.00     0.087 A 
ATOM      9  H   LIG d   1       3.963  -0.059  -0.940  0.00  0.00     0.062 H 
ATOM     10  H   LIG d   1       4.504  -2.467  -1.231  0.00  0.00     0.063 H 
ATOM     11  H   LIG d   1       4.727  -3.409  -3.450  0.00  0.00     0.081 H 
ATOM     12  H   LIG d   1       4.606  -2.807  -6.231  0.00  0.00     0.088 H 
ATOM     13  N   LIG d   1       3.915   0.272  -5.523  0.00  0.00    -0.188 N 
ATOM     14  H   LIG d   1       3.695   1.254  -5.732  0.00  0.00     0.455 HD
ENDROOT
BRANCH   7  15
ATOM     15  C   LIG d   1       4.101  -0.507  -7.909  0.00  0.00     0.049 A 
ATOM     16  C   LIG d   1       2.921  -0.735  -8.615  0.00  0.00    -0.029 A 
ATOM     17  C   LIG d   1       2.894  -0.562  -9.984  0.00  0.00     0.060 A 
ATOM     18  H   LIG d   1       2.028  -1.043  -8.091  0.00  0.00     0.064 H 
ATOM     19  C   LIG d   1       4.039  -0.172 -10.658  0.00  0.00     0.059 A 
ATOM     20 CL   LIG d   1       1.423  -0.838 -10.864  0.00  0.00    -0.082 Cl
ATOM     21  C   LIG d   1       5.215   0.050  -9.962  0.00  0.00    -0.041 A 
ATOM     22 CL   LIG d   1       4.003   0.038 -12.380  0.00  0.00    -0.082 Cl
ATOM     23  C   LIG d   1       5.250  -0.115  -8.592  0.00  0.00    -0.047 A 
ATOM     24  H   LIG d   1       6.106   0.353 -10.491  0.00  0.00     0.063 H 
ATOM     25  H   LIG d   1       6.168   0.058  -8.049  0.00  0.00     0.063 H 
ENDBRANCH   7  15
BRANCH   1  26
ATOM     26  C   LIG d   1       3.563   1.776  -2.863  0.00  0.00    -0.032 C 
ATOM     27  H   LIG d   1       4.472   2.330  -2.631  0.00  0.00     0.028 H 
ATOM     28  H   LIG d   1       3.131   2.157  -3.789  0.00  0.00     0.028 H 
ATOM     29  H   LIG d   1       2.845   1.900  -2.051  0.00  0.00     0.028 H 
ENDBRANCH   1  26
TORSDOF 2
ENDMDL
MODEL 2
REMARK VINA RESULT:      -6.3      5.621      6.514
REMARK  2 active torsions:
REMARK  status: ('A' for Active; 'I' for Inactive)
REMARK    1  A    between atoms: C_1  and  C_2 
REMARK    2  A    between atoms: C_8  and  C_10 
ROOT
ATOM      1  C   LIG d   1       4.230   0.230  -2.628  0.00  0.00     0.040 A 
ATOM      2  C   LIG d   1       3.738  -1.024  -2.448  0.00  0.00    -0.050 A 
ATOM      3  C   LIG d   1       4.520  -2.136  -2.801  0.00  0.00    -0.044 A 
ATOM      4  C   LIG d   1       5.756  -1.964  -3.315  0.00  0.00     0.015 A 
ATOM      5  N   LIG d   1       6.263  -0.710  -3.501  0.00  0.00    -0.264 N 
ATOM      6  C   LIG d   1       5.522   0.395  -3.167  0.00  0.00     0.291 A 
ATOM      7  C   LIG d   1       7.424   1.098  -3.950  0.00  0.00     0.232 A 
ATOM      8  C   LIG d   1       7.457  -0.263  -3.993  0.00  0.00     0.087 A 
ATOM      9  H   LIG d   1       2.749  -1.165  -2.037  0.00  0.00     0.062 H 
ATOM     10  H   LIG d   1       4.132  -3.134  -2.659  0.00  0.00     0.063 H 
ATOM     11  H   LIG d   1       6.349  -2.826  -3.583  0.00  0.00     0.081 H 
ATOM     12  H   LIG d   1       8.274  -0.873  -4.350  0.00  0.00     0.088 H 
ATOM     13  N   LIG d   1       6.239   1.472  -3.444  0.00  0.00    -0.188 N 
ATOM     14  H   LIG d   1       5.936   2.443  -3.296  0.00  0.00     0.455 HD
ENDROOT
BRANCH   7  15
ATOM     15  C   LIG d   1       8.510   2.009  -4.387  0.00  0.00     0.049 A 
ATOM     16  C   LIG d   1       9.386   2.552  -3.449  0.00  0.00    -0.029 A 
ATOM     17  C   LIG d   1      10.400   3.394  -3.861  0.00  0.00     0.060 A 
ATOM     18  H   LIG d   1       9.276   2.311  -2.402  0.00  0.00     0.064 H 
ATOM     19  C   LIG d   1      10.540   3.708  -5.203  0.00  0.00     0.059 A 
ATOM     20 CL   LIG d   1      11.497   4.065  -2.695  0.00  0.00    -0.082 Cl
ATOM     21  C   LIG d   1       9.668   3.176  -6.137  0.00  0.00    -0.041 A 
ATOM     22 CL   LIG d   1      11.812   4.772  -5.716  0.00  0.00    -0.082 Cl
ATOM     23  C   LIG d   1       8.655   2.328  -5.735  0.00  0.00    -0.047 A 
ATOM     24  H   LIG d   1       9.780   3.423  -7.182  0.00  0.00     0.063 H 
ATOM     25  H   LIG d   1       7.975   1.913  -6.465  0.00  0.00     0.063 H 
ENDBRANCH   7  15
BRANCH   1  26
ATOM     26  C   LIG d   1       3.403   1.433  -2.255  0.00  0.00    -0.032 C 
ATOM     27  H   LIG d   1       3.166   1.397  -1.192  0.00  0.00     0.028 H 
ATOM     28  H   LIG d   1       3.963   2.342  -2.472  0.00  0.00     0.028 H 
ATOM     29  H   LIG d   1       2.478   1.431  -2.834  0.00  0.00     0.028 H 
ENDBRANCH   1  26
TORSDOF 2
ENDMDL
MODEL 3
REMARK VINA RESULT:      -6.2      1.507      2.332
REMARK  2 active torsions:
REMARK  status: ('A' for Active; 'I' for Inactive)
REMARK    1  A    between atoms: C_1  and  C_2 
REMARK    2  A    between atoms: C_8  and  C_10 
ROOT
ATOM      1  C   LIG d   1       5.322  -0.886  -3.306  0.00  0.00     0.040 A 
ATOM      2  C   LIG d   1       5.075  -0.304  -2.103  0.00  0.00    -0.050 A 
ATOM      3  C   LIG d   1       4.016   0.611  -1.976  0.00  0.00    -0.044 A 
ATOM      4  C   LIG d   1       3.245   0.912  -3.042  0.00  0.00     0.015 A 
ATOM      5  N   LIG d   1       3.482   0.334  -4.256  0.00  0.00    -0.264 N 
ATOM      6  C   LIG d   1       4.508  -0.562  -4.411  0.00  0.00     0.291 A 
ATOM      7  C   LIG d   1       3.527  -0.358  -6.339  0.00  0.00     0.232 A 
ATOM      8  C   LIG d   1       2.867   0.459  -5.471  0.00  0.00     0.087 A 
ATOM      9  H   LIG d   1       5.691  -0.542  -1.248  0.00  0.00     0.062 H 
ATOM     10  H   LIG d   1       3.817   1.074  -1.021  0.00  0.00     0.063 H 
ATOM     11  H   LIG d   1       2.433   1.616  -2.933  0.00  0.00     0.081 H 
ATOM     12  H   LIG d   1       2.019   1.088  -5.700  0.00  0.00     0.088 H 
ATOM     13  N   LIG d   1       4.518  -0.966  -5.671  0.00  0.00    -0.188 N 
ATOM     14  H   LIG d   1       5.180  -1.639  -6.074  0.00  0.00     0.455 HD
ENDROOT
BRANCH   7  15
ATOM     15  C   LIG d   1       3.203  -0.542  -7.775  0.00  0.00     0.049 A 
ATOM     16  C   LIG d   1       3.451  -1.765  -8.396  0.00  0.00    -0.029 A 
ATOM     17  C   LIG d   1       3.143  -1.934  -9.731  0.00  0.00     0.060 A 
ATOM     18  H   LIG d   1       3.880  -2.581  -7.833  0.00  0.00     0.064 H 
ATOM     19  C   LIG d   1       2.598  -0.887 -10.456  0.00  0.00     0.059 A 
ATOM     20 CL   LIG d   1       3.445  -3.459 -10.504  0.00  0.00    -0.082 Cl
ATOM     21  C   LIG d   1       2.356   0.331  -9.845  0.00  0.00    -0.041 A 
ATOM     22 CL   LIG d   1       2.218  -1.102 -12.136  0.00  0.00    -0.082 Cl
ATOM     23  C   LIG d   1       2.655   0.508  -8.509  0.00  0.00    -0.047 A 
ATOM     24  H   LIG d   1       1.931   1.145 -10.414  0.00  0.00     0.063 H 
ATOM     25  H   LIG d   1       2.466   1.459  -8.033  0.00  0.00     0.063 H 
ENDBRANCH   7  15
BRANCH   1  26
ATOM     26  C   LIG d   1       6.455  -1.868  -3.458  0.00  0.00    -0.032 C 
ATOM     27  H   LIG d   1       6.125  -2.857  -3.141  0.00  0.00     0.028 H 
ATOM     28  H   LIG d   1       6.766  -1.906  -4.502  0.00  0.00     0.028 H 
ATOM     29  H   LIG d   1       7.296  -1.550  -2.841  0.00  0.00     0.028 H 
ENDBRANCH   1  26
TORSDOF 2
ENDMDL
MODEL 4
REMARK VINA RESULT:      -6.1      3.602      6.934
REMARK  2 active torsions:
REMARK  status: ('A' for Active; 'I' for Inactive)
REMARK    1  A    between atoms: C_1  and  C_2 
REMARK    2  A    between atoms: C_8  and  C_10 
ROOT
ATOM      1  C   LIG d   1       2.288  -1.620 -10.514  0.00  0.00     0.040 A 
ATOM      2  C   LIG d   1       2.573  -1.224 -11.783  0.00  0.00    -0.050 A 
ATOM      3  C   LIG d   1       3.489  -0.181 -11.997  0.00  0.00    -0.044 A 
ATOM      4  C   LIG d   1       4.086   0.428 -10.950  0.00  0.00     0.015 A 
ATOM      5  N   LIG d   1       3.808   0.040  -9.670  0.00  0.00    -0.264 N 
ATOM      6  C   LIG d   1       2.918  -0.975  -9.430  0.00  0.00     0.291 A 
ATOM      7  C   LIG d   1       3.643  -0.275  -7.505  0.00  0.00     0.232 A 
ATOM      8  C   LIG d   1       4.262   0.477  -8.457  0.00  0.00     0.087 A 
ATOM      9  H   LIG d   1       2.097  -1.708 -12.622  0.00  0.00     0.062 H 
ATOM     10  H   LIG d   1       3.718   0.136 -13.004  0.00  0.00     0.063 H 
ATOM     11  H   LIG d   1       4.788   1.229 -11.126  0.00  0.00     0.081 H 
ATOM     12  H   LIG d   1       4.975   1.270  -8.286  0.00  0.00     0.088 H 
ATOM     13  N   LIG d   1       2.834  -1.149  -8.121  0.00  0.00    -0.188 N 
ATOM     14  H   LIG d   1       2.240  -1.844  -7.650  0.00  0.00     0.455 HD
ENDROOT
BRANCH   7  15
ATOM     15  C   LIG d   1       3.833  -0.149  -6.039  0.00  0.00     0.049 A 
ATOM     16  C   LIG d   1       5.038  -0.532  -5.454  0.00  0.00    -0.029 A 
ATOM     17  C   LIG d   1       5.213  -0.407  -4.090  0.00  0.00     0.060 A 
ATOM     18  H   LIG d   1       5.837  -0.923  -6.068  0.00  0.00     0.064 H 
ATOM     19  C   LIG d   1       4.187   0.089  -3.302  0.00  0.00     0.059 A 
ATOM     20 CL   LIG d   1       6.717  -0.876  -3.362  0.00  0.00    -0.082 Cl
ATOM     21  C   LIG d   1       2.986   0.465  -3.877  0.00  0.00    -0.041 A 
ATOM     22 CL   LIG d   1       4.409   0.239  -1.587  0.00  0.00    -0.082 Cl
ATOM     23  C   LIG d   1       2.805   0.349  -5.241  0.00  0.00    -0.047 A 
ATOM     24  H   LIG d   1       2.189   0.850  -3.259  0.00  0.00     0.063 H 
ATOM     25  H   LIG d   1       1.866   0.642  -5.689  0.00  0.00     0.063 H 
ENDBRANCH   7  15
BRANCH   1  26
ATOM     26  C   LIG d   1       1.307  -2.737 -10.267  0.00  0.00    -0.032 C 
ATOM     27  H   LIG d   1       0.303  -2.324 -10.167  0.00  0.00     0.028 H 
ATOM     28  H   LIG d   1       1.331  -3.434 -11.105  0.00  0.00     0.028 H 
ATOM     29  H   LIG d   1       1.577  -3.263  -9.351  0.00  0.00     0.028 H 
ENDBRANCH   1  26
TORSDOF 2
ENDMDL
MODEL 5
REMARK VINA RESULT:      -5.8      5.959      7.517
REMARK  2 active torsions:
REMARK  status: ('A' for Active; 'I' for Inactive)
REMARK    1  A    between atoms: C_1  and  C_2 
REMARK    2  A    between atoms: C_8  and  C_10 
ROOT
ATOM      1  C   LIG d   1      10.569   4.188  -3.940  0.00  0.00     0.040 A 
ATOM      2  C   LIG d   1      11.247   4.784  -4.957  0.00  0.00    -0.050 A 
ATOM      3  C   LIG d   1      10.965   4.425  -6.286  0.00  0.00    -0.044 A 
ATOM      4  C   LIG d   1      10.027   3.494  -6.556  0.00  0.00     0.015 A 
ATOM      5  N   LIG d   1       9.339   2.887  -5.544  0.00  0.00    -0.264 N 
ATOM      6  C   LIG d   1       9.592   3.216  -4.237  0.00  0.00     0.291 A 
ATOM      7  C   LIG d   1       8.036   1.700  -4.237  0.00  0.00     0.232 A 
ATOM      8  C   LIG d   1       8.360   1.933  -5.539  0.00  0.00     0.087 A 
ATOM      9  H   LIG d   1      11.999   5.529  -4.744  0.00  0.00     0.062 H 
ATOM     10  H   LIG d   1      11.502   4.897  -7.096  0.00  0.00     0.063 H 
ATOM     11  H   LIG d   1       9.818   3.226  -7.581  0.00  0.00     0.081 H 
ATOM     12  H   LIG d   1       7.925   1.454  -6.404  0.00  0.00     0.088 H 
ATOM     13  N   LIG d   1       8.797   2.491  -3.467  0.00  0.00    -0.188 N 
ATOM     14  H   LIG d   1       8.768   2.527  -2.441  0.00  0.00     0.455 HD
ENDROOT
BRANCH   7  15
ATOM     15  C   LIG d   1       7.016   0.736  -3.754  0.00  0.00     0.049 A 
ATOM     16  C   LIG d   1       5.829   1.198  -3.189  0.00  0.00    -0.029 A 
ATOM     17  C   LIG d   1       4.880   0.298  -2.747  0.00  0.00     0.060 A 
ATOM     18  H   LIG d   1       5.649   2.260  -3.101  0.00  0.00     0.064 H 
ATOM     19  C   LIG d   1       5.112  -1.063  -2.855  0.00  0.00     0.059 A 
ATOM     20 CL   LIG d   1       3.398   0.872  -2.050  0.00  0.00    -0.082 Cl
ATOM     21  C   LIG d   1       6.292  -1.528  -3.410  0.00  0.00    -0.041 A 
ATOM     22 CL   LIG d   1       3.919  -2.192  -2.292  0.00  0.00    -0.082 Cl
ATOM     23  C   LIG d   1       7.244  -0.635  -3.860  0.00  0.00    -0.047 A 
ATOM     24  H   LIG d   1       6.468  -2.590  -3.492  0.00  0.00     0.063 H 
ATOM     25  H   LIG d   1       8.165  -0.998  -4.293  0.00  0.00     0.063 H 
ENDBRANCH   7  15
BRANCH   1  26
ATOM     26  C   LIG d   1      10.861   4.561  -2.510  0.00  0.00    -0.032 C 
ATOM     27  H   LIG d   1      11.834   4.166  -2.222  0.00  0.00     0.028 H 
ATOM     28  H   LIG d   1      10.864   5.646  -2.410  0.00  0.00     0.028 H 
ATOM     29  H   LIG d   1      10.091   4.140  -1.861  0.00  0.00     0.028 H 
ENDBRANCH   1  26
TORSDOF 2
ENDMDL
MODEL 6
REMARK VINA RESULT:      -5.7      4.637      7.061
REMARK  2 active torsions:
REMARK  status: ('A' for Active; 'I' for Inactive)
REMARK    1  A    between atoms: C_1  and  C_2 
REMARK    2  A    between atoms: C_8  and  C_10 
ROOT
ATOM      1  C   LIG d   1       4.772  -6.929  -6.302  0.00  0.00     0.040 A 
ATOM      2  C   LIG d   1       4.693  -7.380  -7.582  0.00  0.00    -0.050 A 
ATOM      3  C   LIG d   1       4.568  -6.462  -8.638  0.00  0.00    -0.044 A 
ATOM      4  C   LIG d   1       4.528  -5.136  -8.386  0.00  0.00     0.015 A 
ATOM      5  N   LIG d   1       4.607  -4.669  -7.105  0.00  0.00    -0.264 N 
ATOM      6  C   LIG d   1       4.729  -5.542  -6.055  0.00  0.00     0.291 A 
ATOM      7  C   LIG d   1       4.702  -3.531  -5.231  0.00  0.00     0.232 A 
ATOM      8  C   LIG d   1       4.591  -3.406  -6.583  0.00  0.00     0.087 A 
ATOM      9  H   LIG d   1       4.724  -8.440  -7.787  0.00  0.00     0.062 H 
ATOM     10  H   LIG d   1       4.505  -6.817  -9.656  0.00  0.00     0.063 H 
ATOM     11  H   LIG d   1       4.432  -4.439  -9.205  0.00  0.00     0.081 H 
ATOM     12  H   LIG d   1       4.504  -2.483  -7.137  0.00  0.00     0.088 H 
ATOM     13  N   LIG d   1       4.785  -4.836  -4.936  0.00  0.00    -0.188 N 
ATOM     14  H   LIG d   1       4.876  -5.227  -3.991  0.00  0.00     0.455 HD
ENDROOT
BRANCH   7  15
ATOM     15  C   LIG d   1       4.727  -2.414  -4.255  0.00  0.00     0.049 A 
ATOM     16  C   LIG d   1       5.609  -1.350  -4.432  0.00  0.00    -0.029 A 
ATOM     17  C   LIG d   1       5.625  -0.310  -3.524  0.00  0.00     0.060 A 
ATOM     18  H   LIG d   1       6.278  -1.337  -5.281  0.00  0.00     0.064 H 
ATOM     19  C   LIG d   1       4.773  -0.329  -2.433  0.00  0.00     0.059 A 
ATOM     20 CL   LIG d   1       6.719   1.020  -3.748  0.00  0.00    -0.082 Cl
ATOM     21  C   LIG d   1       3.899  -1.386  -2.249  0.00  0.00    -0.041 A 
ATOM     22 CL   LIG d   1       4.801   0.978  -1.290  0.00  0.00    -0.082 Cl
ATOM     23  C   LIG d   1       3.873  -2.427  -3.154  0.00  0.00    -0.047 A 
ATOM     24  H   LIG d   1       3.237  -1.397  -1.396  0.00  0.00     0.063 H 
ATOM     25  H   LIG d   1       3.190  -3.253  -3.010  0.00  0.00     0.063 H 
ENDBRANCH   7  15
BRANCH   1  26
ATOM     26  C   LIG d   1       4.906  -7.902  -5.159  0.00  0.00    -0.032 C 
ATOM     27  H   LIG d   1       4.902  -8.920  -5.546  0.00  0.00     0.028 H 
ATOM     28  H   LIG d   1       5.840  -7.716  -4.630  0.00  0.00     0.028 H 
ATOM     29  H   LIG d   1       4.069  -7.771  -4.472  0.00  0.00     0.028 H 
ENDBRANCH   1  26
TORSDOF 2
ENDMDL
MODEL 7
REMARK VINA RESULT:      -5.6      4.223      5.474
REMARK  2 active torsions:
REMARK  status: ('A' for Active; 'I' for Inactive)
REMARK    1  A    between atoms: C_1  and  C_2 
REMARK    2  A    between atoms: C_8  and  C_10 
ROOT
ATOM      1  C   LIG d   1       3.183   0.348  -4.348  0.00  0.00     0.040 A 
ATOM      2  C   LIG d   1       3.143   1.237  -3.320  0.00  0.00    -0.050 A 
ATOM      3  C   LIG d   1       3.830   0.956  -2.129  0.00  0.00    -0.044 A 
ATOM      4  C   LIG d   1       4.530  -0.192  -2.000  0.00  0.00     0.015 A 
ATOM      5  N   LIG d   1       4.579  -1.094  -3.024  0.00  0.00    -0.264 N 
ATOM      6  C   LIG d   1       3.917  -0.846  -4.200  0.00  0.00     0.291 A 
ATOM      7  C   LIG d   1       4.905  -2.772  -4.401  0.00  0.00     0.232 A 
ATOM      8  C   LIG d   1       5.198  -2.305  -3.155  0.00  0.00     0.087 A 
ATOM      9  H   LIG d   1       2.584   2.156  -3.420  0.00  0.00     0.062 H 
ATOM     10  H   LIG d   1       3.800   1.660  -1.311  0.00  0.00     0.063 H 
ATOM     11  H   LIG d   1       5.055  -0.398  -1.079  0.00  0.00     0.081 H 
ATOM     12  H   LIG d   1       5.805  -2.800  -2.411  0.00  0.00     0.088 H 
ATOM     13  N   LIG d   1       4.127  -1.868  -5.015  0.00  0.00    -0.188 N 
ATOM     14  H   LIG d   1       3.752  -1.956  -5.967  0.00  0.00     0.455 HD
ENDROOT
BRANCH   7  15
ATOM     15  C   LIG d   1       5.367  -4.058  -4.979  0.00  0.00     0.049 A 
ATOM     16  C   LIG d   1       6.707  -4.230  -5.317  0.00  0.00    -0.029 A 
ATOM     17  C   LIG d   1       7.135  -5.431  -5.848  0.00  0.00     0.060 A 
ATOM     18  H   LIG d   1       7.413  -3.428  -5.160  0.00  0.00     0.064 H 
ATOM     19  C   LIG d   1       6.230  -6.459  -6.055  0.00  0.00     0.059 A 
ATOM     20 CL   LIG d   1       8.806  -5.651  -6.263  0.00  0.00    -0.082 Cl
ATOM     21  C   LIG d   1       4.896  -6.291  -5.726  0.00  0.00    -0.041 A 
ATOM     22 CL   LIG d   1       6.770  -7.965  -6.729  0.00  0.00    -0.082 Cl
ATOM     23  C   LIG d   1       4.462  -5.096  -5.189  0.00  0.00    -0.047 A 
ATOM     24  H   LIG d   1       4.194  -7.095  -5.890  0.00  0.00     0.063 H 
ATOM     25  H   LIG d   1       3.420  -4.964  -4.933  0.00  0.00     0.063 H 
ENDBRANCH   7  15
BRANCH   1  26
ATOM     26  C   LIG d   1       2.450   0.635  -5.633  0.00  0.00    -0.032 C 
ATOM     27  H   LIG d   1       3.121   0.480  -6.477  0.00  0.00     0.028 H 
ATOM     28  H   LIG d   1       1.594  -0.033  -5.721  0.00  0.00     0.028 H 
ATOM     29  H   LIG d   1       2.103   1.669  -5.629  0.00  0.00     0.028 H 
ENDBRANCH   1  26
TORSDOF 2
ENDMDL
MODEL 8
REMARK VINA RESULT:      -5.6      4.697      5.334
REMARK  2 active torsions:
REMARK  status: ('A' for Active; 'I' for Inactive)
REMARK    1  A    between atoms: C_1  and  C_2 
REMARK    2  A    between atoms: C_8  and  C_10 
ROOT
ATOM      1  C   LIG d   1       5.993   0.707  -3.250  0.00  0.00     0.040 A 
ATOM      2  C   LIG d   1       5.068   1.423  -2.557  0.00  0.00    -0.050 A 
ATOM      3  C   LIG d   1       3.865   0.812  -2.168  0.00  0.00    -0.044 A 
ATOM      4  C   LIG d   1       3.624  -0.480  -2.478  0.00  0.00     0.015 A 
ATOM      5  N   LIG d   1       4.545  -1.210  -3.174  0.00  0.00    -0.264 N 
ATOM      6  C   LIG d   1       5.729  -0.640  -3.567  0.00  0.00     0.291 A 
ATOM      7  C   LIG d   1       5.737  -2.701  -4.256  0.00  0.00     0.232 A 
ATOM      8  C   LIG d   1       4.555  -2.505  -3.609  0.00  0.00     0.087 A 
ATOM      9  H   LIG d   1       5.257   2.456  -2.307  0.00  0.00     0.062 H 
ATOM     10  H   LIG d   1       3.128   1.377  -1.617  0.00  0.00     0.063 H 
ATOM     11  H   LIG d   1       2.696  -0.939  -2.174  0.00  0.00     0.081 H 
ATOM     12  H   LIG d   1       3.772  -3.236  -3.467  0.00  0.00     0.088 H 
ATOM     13  N   LIG d   1       6.432  -1.555  -4.216  0.00  0.00    -0.188 N 
ATOM     14  H   LIG d   1       7.362  -1.409  -4.627  0.00  0.00     0.455 HD
ENDROOT
BRANCH   7  15
ATOM     15  C   LIG d   1       6.179  -3.966  -4.894  0.00  0.00     0.049 A 
ATOM     16  C   LIG d   1       5.240  -4.845  -5.428  0.00  0.00    -0.029 A 
ATOM     17  C   LIG d   1       5.656  -6.018  -6.026  0.00  0.00     0.060 A 
ATOM     18  H   LIG d   1       4.187  -4.609  -5.376  0.00  0.00     0.064 H 
ATOM     19  C   LIG d   1       7.005  -6.325  -6.088  0.00  0.00     0.059 A 
ATOM     20 CL   LIG d   1       4.487  -7.112  -6.698  0.00  0.00    -0.082 Cl
ATOM     21  C   LIG d   1       7.942  -5.457  -5.554  0.00  0.00    -0.041 A 
ATOM     22 CL   LIG d   1       7.524  -7.803  -6.835  0.00  0.00    -0.082 Cl
ATOM     23  C   LIG d   1       7.535  -4.280  -4.959  0.00  0.00    -0.047 A 
ATOM     24  H   LIG d   1       8.993  -5.700  -5.603  0.00  0.00     0.063 H 
ATOM     25  H   LIG d   1       8.267  -3.603  -4.542  0.00  0.00     0.063 H 
ENDBRANCH   7  15
BRANCH   1  26
ATOM     26  C   LIG d   1       7.289   1.349  -3.675  0.00  0.00    -0.032 C 
ATOM     27  H   LIG d   1       8.064   1.124  -2.942  0.00  0.00     0.028 H 
ATOM     28  H   LIG d   1       7.586   0.960  -4.649  0.00  0.00     0.028 H 
ATOM     29  H   LIG d   1       7.154   2.429  -3.742  0.00  0.00     0.028 H 
ENDBRANCH   1  26
TORSDOF 2
ENDMDL
MODEL 9
REMARK VINA RESULT:      -5.6      4.083      4.955
REMARK  2 active torsions:
REMARK  status: ('A' for Active; 'I' for Inactive)
REMARK    1  A    between atoms: C_1  and  C_2 
REMARK    2  A    between atoms: C_8  and  C_10 
ROOT
ATOM      1  C   LIG d   1       3.608   0.278  -4.063  0.00  0.00     0.040 A 
ATOM      2  C   LIG d   1       4.215   1.076  -3.145  0.00  0.00    -0.050 A 
ATOM      3  C   LIG d   1       5.387   0.638  -2.508  0.00  0.00    -0.044 A 
ATOM      4  C   LIG d   1       5.912  -0.570  -2.804  0.00  0.00     0.015 A 
ATOM      5  N   LIG d   1       5.313  -1.382  -3.724  0.00  0.00    -0.264 N 
ATOM      6  C   LIG d   1       4.167  -0.981  -4.362  0.00  0.00     0.291 A 
ATOM      7  C   LIG d   1       4.673  -2.956  -5.113  0.00  0.00     0.232 A 
ATOM      8  C   LIG d   1       5.627  -2.624  -4.200  0.00  0.00     0.087 A 
ATOM      9  H   LIG d   1       3.797   2.043  -2.905  0.00  0.00     0.062 H 
ATOM     10  H   LIG d   1       5.872   1.270  -1.779  0.00  0.00     0.063 H 
ATOM     11  H   LIG d   1       6.815  -0.897  -2.309  0.00  0.00     0.081 H 
ATOM     12  H   LIG d   1       6.473  -3.229  -3.906  0.00  0.00     0.088 H 
ATOM     13  N   LIG d   1       3.799  -1.942  -5.193  0.00  0.00    -0.188 N 
ATOM     14  H   LIG d   1       2.973  -1.917  -5.803  0.00  0.00     0.455 HD
ENDROOT
BRANCH   7  15
ATOM     15  C   LIG d   1       4.612  -4.222  -5.885  0.00  0.00     0.049 A 
ATOM     16  C   LIG d   1       4.814  -5.442  -5.244  0.00  0.00    -0.029 A 
ATOM     17  C   LIG d   1       4.750  -6.618  -5.965  0.00  0.00     0.060 A 
ATOM     18  H   LIG d   1       5.016  -5.469  -4.183  0.00  0.00     0.064 H 
ATOM     19  C   LIG d   1       4.496  -6.584  -7.326  0.00  0.00     0.059 A 
ATOM     20 CL   LIG d   1       4.994  -8.140  -5.167  0.00  0.00    -0.082 Cl
ATOM     21  C   LIG d   1       4.300  -5.373  -7.969  0.00  0.00    -0.041 A 
ATOM     22 CL   LIG d   1       4.422  -8.064  -8.231  0.00  0.00    -0.082 Cl
ATOM     23  C   LIG d   1       4.357  -4.194  -7.255  0.00  0.00    -0.047 A 
ATOM     24  H   LIG d   1       4.103  -5.352  -9.030  0.00  0.00     0.063 H 
ATOM     25  H   LIG d   1       4.204  -3.249  -7.757  0.00  0.00     0.063 H 
ENDBRANCH   7  15
BRANCH   1  26
ATOM     26  C   LIG d   1       2.348   0.734  -4.754  0.00  0.00    -0.032 C 
ATOM     27  H   LIG d   1       1.504   0.146  -4.395  0.00  0.00     0.028 H 
ATOM     28  H   LIG d   1       2.176   1.788  -4.538  0.00  0.00     0.028 H 
ATOM     29  H   LIG d   1       2.455   0.598  -5.831  0.00  0.00     0.028 H 
ENDBRANCH   1  26
TORSDOF 2
ENDMDL
MODEL 10
REMARK VINA RESULT:      -5.6      5.662      7.468
REMARK  2 active torsions:
REMARK  status: ('A' for Active; 'I' for Inactive)
REMARK    1  A    between atoms: C_1  and  C_2 
REMARK    2  A    between atoms: C_8  and  C_10 
ROOT
ATOM      1  C   LIG d   1       9.706   3.722  -6.646  0.00  0.00     0.040 A 
ATOM      2  C   LIG d   1      10.741   4.566  -6.393  0.00  0.00    -0.050 A 
ATOM      3  C   LIG d   1      11.211   4.717  -5.079  0.00  0.00    -0.044 A 
ATOM      4  C   LIG d   1      10.640   4.029  -4.067  0.00  0.00     0.015 A 
ATOM      5  N   LIG d   1       9.600   3.178  -4.307  0.00  0.00    -0.264 N 
ATOM      6  C   LIG d   1       9.119   3.010  -5.580  0.00  0.00     0.291 A 
ATOM      7  C   LIG d   1       7.941   1.741  -4.267  0.00  0.00     0.232 A 
ATOM      8  C   LIG d   1       8.857   2.378  -3.485  0.00  0.00     0.087 A 
ATOM      9  H   LIG d   1      11.200   5.118  -7.200  0.00  0.00     0.062 H 
ATOM     10  H   LIG d   1      12.034   5.386  -4.875  0.00  0.00     0.063 H 
ATOM     11  H   LIG d   1      11.010   4.153  -3.060  0.00  0.00     0.081 H 
ATOM     12  H   LIG d   1       8.972   2.272  -2.416  0.00  0.00     0.088 H 
ATOM     13  N   LIG d   1       8.122   2.141  -5.534  0.00  0.00    -0.188 N 
ATOM     14  H   LIG d   1       7.572   1.824  -6.341  0.00  0.00     0.455 HD
ENDROOT
BRANCH   7  15
ATOM     15  C   LIG d   1       6.921   0.771  -3.797  0.00  0.00     0.049 A 
ATOM     16  C   LIG d   1       6.966  -0.554  -4.227  0.00  0.00    -0.029 A 
ATOM     17  C   LIG d   1       6.019  -1.454  -3.782  0.00  0.00     0.060 A 
ATOM     18  H   LIG d   1       7.743  -0.877  -4.904  0.00  0.00     0.064 H 
ATOM     19  C   LIG d   1       5.019  -1.040  -2.918  0.00  0.00     0.059 A 
ATOM     20 CL   LIG d   1       6.077  -3.107  -4.311  0.00  0.00    -0.082 Cl
ATOM     21  C   LIG d   1       4.967   0.277  -2.493  0.00  0.00    -0.041 A 
ATOM     22 CL   LIG d   1       3.826  -2.174  -2.366  0.00  0.00    -0.082 Cl
ATOM     23  C   LIG d   1       5.913   1.182  -2.928  0.00  0.00    -0.047 A 
ATOM     24  H   LIG d   1       4.185   0.595  -1.820  0.00  0.00     0.063 H 
ATOM     25  H   LIG d   1       5.872   2.210  -2.596  0.00  0.00     0.063 H 
ENDBRANCH   7  15
BRANCH   1  26
ATOM     26  C   LIG d   1       9.189   3.550  -8.051  0.00  0.00    -0.032 C 
ATOM     27  H   LIG d   1       9.983   3.778  -8.761  0.00  0.00     0.028 H 
ATOM     28  H   LIG d   1       8.859   2.521  -8.194  0.00  0.00     0.028 H 
ATOM     29  H   LIG d   1       8.349   4.226  -8.214  0.00  0.00     0.028 H 
ENDBRANCH   1  26
TORSDOF 2
ENDMDL
