MODEL 1
REMARK VINA RESULT:      -6.4      0.000      0.000
REMARK  12 active torsions:
REMARK  status: ('A' for Active; 'I' for Inactive)
REMARK    1  A    between atoms: C_1  and  O_2 
REMARK    2  A    between atoms: O_2  and  C_3 
REMARK    3  A    between atoms: C_6  and  C_9 
REMARK    4  A    between atoms: C_9  and  N_10 
REMARK       I    between atoms: N_10  and  C_11 
REMARK    5  A    between atoms: C_11  and  C_13 
REMARK    6  A    between atoms: C_13  and  C_14 
REMARK    7  A    between atoms: C_16  and  O_32 
REMARK    8  A    between atoms: C_18  and  O_31 
REMARK    9  A    between atoms: C_20  and  C_23 
REMARK   10  A    between atoms: C_23  and  N_55 
REMARK   11  A    between atoms: C_24  and  C_25 
REMARK   12  A    between atoms: C_24  and  N_55 
ROOT
ATOM      1  C   LIG d   1       3.695  -3.298  -9.044  0.00  0.00     0.096 C 
ATOM      2  H   LIG d   1       4.700  -3.325  -9.464  0.00  0.00     0.063 H 
ATOM      3  C   LIG d   1       2.672  -2.971 -10.149  0.00  0.00     0.110 C 
ATOM      4  H   LIG d   1       1.908  -3.748 -10.203  0.00  0.00     0.065 H 
ATOM      5  C   LIG d   1       2.051  -1.625  -9.704  0.00  0.00     0.115 C 
ATOM      6  H   LIG d   1       1.105  -1.786  -9.185  0.00  0.00     0.065 H 
ATOM      7  C   LIG d   1       3.128  -1.075  -8.734  0.00  0.00     0.127 C 
ATOM      8  H   LIG d   1       3.935  -0.596  -9.286  0.00  0.00     0.068 H 
ATOM      9  O   LIG d   1       3.606  -2.257  -8.057  0.00  0.00    -0.362 OA
ENDROOT
BRANCH   1  10
ATOM     10  C   LIG d   1       3.358  -4.648  -8.406  0.00  0.00     0.053 C 
ATOM     11  H   LIG d   1       2.277  -4.740  -8.300  0.00  0.00     0.038 H 
ATOM     12  H   LIG d   1       3.730  -5.453  -9.040  0.00  0.00     0.038 H 
BRANCH  10  13
ATOM     13  C   LIG d   1       4.006  -4.738  -7.048  0.00  0.00     0.216 C 
ATOM     14  N   LIG d   1       5.231  -4.212  -6.850  0.00  0.00    -0.311 N 
ATOM     15  H   LIG d   1       5.695  -3.775  -7.580  0.00  0.00     0.149 HD
ATOM     16  O   LIG d   1       3.425  -5.284  -6.134  0.00  0.00    -0.276 OA
BRANCH  14  17
ATOM     17  C   LIG d   1       5.860  -4.300  -5.530  0.00  0.00     0.037 C 
ATOM     18  H   LIG d   1       5.146  -4.705  -4.813  0.00  0.00     0.051 H 
ATOM     19  H   LIG d   1       6.729  -4.954  -5.585  0.00  0.00     0.051 H 
BRANCH  17  20
ATOM     20  C   LIG d   1       6.293  -2.926  -5.088  0.00  0.00    -0.030 A 
ATOM     21  C   LIG d   1       6.891  -2.754  -3.853  0.00  0.00    -0.054 A 
ATOM     22  C   LIG d   1       7.289  -1.496  -3.445  0.00  0.00    -0.020 A 
ATOM     23  H   LIG d   1       7.046  -3.605  -3.206  0.00  0.00     0.062 H 
ATOM     24  C   LIG d   1       7.090  -0.403  -4.277  0.00  0.00     0.120 A 
ATOM     25  H   LIG d   1       7.757  -1.363  -2.481  0.00  0.00     0.065 H 
ATOM     26  C   LIG d   1       6.490  -0.578  -5.515  0.00  0.00    -0.020 A 
ATOM     27  C   LIG d   1       6.098  -1.840  -5.921  0.00  0.00    -0.054 A 
ATOM     28  H   LIG d   1       6.332   0.271  -6.164  0.00  0.00     0.065 H 
ATOM     29  H   LIG d   1       5.636  -1.976  -6.886  0.00  0.00     0.062 H 
BRANCH  24  30
ATOM     30  O   LIG d   1       7.480   0.835  -3.879  0.00  0.00    -0.495 OA
BRANCH  30  31
ATOM     31  C   LIG d   1       8.124   1.658  -4.854  0.00  0.00     0.079 C 
ATOM     32  H   LIG d   1       8.390   2.614  -4.403  0.00  0.00     0.066 H 
ATOM     33  H   LIG d   1       9.028   1.161  -5.208  0.00  0.00     0.066 H 
ATOM     34  H   LIG d   1       7.449   1.826  -5.692  0.00  0.00     0.066 H 
ENDBRANCH  30  31
ENDBRANCH  24  30
ENDBRANCH  17  20
ENDBRANCH  14  17
ENDBRANCH  10  13
ENDBRANCH   1  10
BRANCH   3  35
ATOM     35  O   LIG d   1       3.328  -2.827 -11.410  0.00  0.00    -0.387 OA
ATOM     36  H   LIG d   1       3.892  -3.576 -11.648  0.00  0.00     0.210 HD
ENDBRANCH   3  35
BRANCH   7  37
ATOM     37  C   LIG d   1       2.504  -0.097  -7.736  0.00  0.00    -0.004 C 
ATOM     38  H   LIG d   1       1.419  -0.143  -7.813  0.00  0.00     0.084 H 
ATOM     39  H   LIG d   1       2.842   0.915  -7.959  0.00  0.00     0.084 H 
BRANCH  37  40
ATOM     40  N   LIG d   1       2.921  -0.468  -6.371  0.00  0.00     0.233 N 
ATOM     41  H   LIG d   1       3.945  -0.532  -6.334  0.00  0.00     0.202 HD
ATOM     42  H   LIG d   1       2.513  -1.380  -6.128  0.00  0.00     0.202 HD
BRANCH  40  43
ATOM     43  C   LIG d   1       2.461   0.543  -5.402  0.00  0.00     0.010 C 
ATOM     44  H   LIG d   1       1.383   0.453  -5.261  0.00  0.00     0.088 H 
ATOM     45  H   LIG d   1       2.698   1.540  -5.772  0.00  0.00     0.088 H 
BRANCH  43  46
ATOM     46  C   LIG d   1       3.158   0.318  -4.084  0.00  0.00     0.086 A 
ATOM     47  N   LIG d   1       3.730   1.333  -3.468  0.00  0.00    -0.255 NA
ATOM     48  C   LIG d   1       4.351   1.182  -2.314  0.00  0.00     0.028 A 
ATOM     49  C   LIG d   1       4.426  -0.057  -1.708  0.00  0.00    -0.044 A 
ATOM     50  H   LIG d   1       4.809   2.038  -1.839  0.00  0.00     0.083 H 
ATOM     51  C   LIG d   1       3.830  -1.147  -2.323  0.00  0.00    -0.058 A 
ATOM     52  H   LIG d   1       4.939  -0.174  -0.765  0.00  0.00     0.063 H 
ATOM     53  C   LIG d   1       3.187  -0.951  -3.536  0.00  0.00    -0.035 A 
ATOM     54  H   LIG d   1       3.870  -2.127  -1.870  0.00  0.00     0.062 H 
ATOM     55  H   LIG d   1       2.717  -1.778  -4.045  0.00  0.00     0.064 H 
ENDBRANCH  43  46
ENDBRANCH  40  43
ENDBRANCH  37  40
ENDBRANCH   7  37
BRANCH   5  56
ATOM     56  O   LIG d   1       1.875  -0.750 -10.821  0.00  0.00    -0.386 OA
ATOM     57  H   LIG d   1       2.659  -0.227 -11.037  0.00  0.00     0.210 HD
ENDBRANCH   5  56
TORSDOF 12
ENDMDL
MODEL 2
REMARK VINA RESULT:      -6.3      1.982      4.144
REMARK  12 active torsions:
REMARK  status: ('A' for Active; 'I' for Inactive)
REMARK    1  A    between atoms: C_1  and  O_2 
REMARK    2  A    between atoms: O_2  and  C_3 
REMARK    3  A    between atoms: C_6  and  C_9 
REMARK    4  A    between atoms: C_9  and  N_10 
REMARK       I    between atoms: N_10  and  C_11 
REMARK    5  A    between atoms: C_11  and  C_13 
REMARK    6  A    between atoms: C_13  and  C_14 
REMARK    7  A    between atoms: C_16  and  O_32 
REMARK    8  A    between atoms: C_18  and  O_31 
REMARK    9  A    between atoms: C_20  and  C_23 
REMARK   10  A    between atoms: C_23  and  N_55 
REMARK   11  A    between atoms: C_24  and  C_25 
REMARK   12  A    between atoms: C_24  and  N_55 
ROOT
ATOM      1  C   LIG d   1       5.143   1.653  -9.416  0.00  0.00     0.096 C 
ATOM      2  H   LIG d   1       4.910   2.629  -9.842  0.00  0.00     0.063 H 
ATOM      3  C   LIG d   1       4.698   0.539 -10.385  0.00  0.00     0.110 C 
ATOM      4  H   LIG d   1       5.539  -0.109 -10.631  0.00  0.00     0.065 H 
ATOM      5  C   LIG d   1       3.620  -0.241  -9.595  0.00  0.00     0.115 C 
ATOM      6  H   LIG d   1       4.048  -1.128  -9.125  0.00  0.00     0.065 H 
ATOM      7  C   LIG d   1       3.184   0.795  -8.528  0.00  0.00     0.127 C 
ATOM      8  H   LIG d   1       2.464   1.498  -8.945  0.00  0.00     0.068 H 
ATOM      9  O   LIG d   1       4.416   1.468  -8.190  0.00  0.00    -0.362 OA
ENDROOT
BRANCH   1  10
ATOM     10  C   LIG d   1       6.646   1.542  -9.151  0.00  0.00     0.053 C 
ATOM     11  H   LIG d   1       7.095   0.870  -9.882  0.00  0.00     0.038 H 
ATOM     12  H   LIG d   1       7.103   2.528  -9.235  0.00  0.00     0.038 H 
BRANCH  10  13
ATOM     13  C   LIG d   1       6.872   0.999  -7.763  0.00  0.00     0.216 C 
ATOM     14  N   LIG d   1       6.509  -0.264  -7.466  0.00  0.00    -0.311 N 
ATOM     15  H   LIG d   1       6.103  -0.825  -8.146  0.00  0.00     0.149 HD
ATOM     16  O   LIG d   1       7.381   1.700  -6.914  0.00  0.00    -0.276 OA
BRANCH  14  17
ATOM     17  C   LIG d   1       6.729  -0.791  -6.117  0.00  0.00     0.037 C 
ATOM     18  H   LIG d   1       7.797  -0.934  -5.953  0.00  0.00     0.051 H 
ATOM     19  H   LIG d   1       6.340  -0.086  -5.384  0.00  0.00     0.051 H 
BRANCH  17  20
ATOM     20  C   LIG d   1       6.017  -2.112  -5.972  0.00  0.00    -0.030 A 
ATOM     21  C   LIG d   1       5.074  -2.494  -6.908  0.00  0.00    -0.054 A 
ATOM     22  C   LIG d   1       4.420  -3.704  -6.778  0.00  0.00    -0.020 A 
ATOM     23  H   LIG d   1       4.849  -1.847  -7.742  0.00  0.00     0.062 H 
ATOM     24  C   LIG d   1       4.711  -4.536  -5.706  0.00  0.00     0.120 A 
ATOM     25  H   LIG d   1       3.684  -4.003  -7.510  0.00  0.00     0.065 H 
ATOM     26  C   LIG d   1       5.657  -4.150  -4.768  0.00  0.00    -0.020 A 
ATOM     27  C   LIG d   1       6.313  -2.941  -4.906  0.00  0.00    -0.054 A 
ATOM     28  H   LIG d   1       5.885  -4.796  -3.932  0.00  0.00     0.065 H 
ATOM     29  H   LIG d   1       7.052  -2.643  -4.179  0.00  0.00     0.062 H 
BRANCH  24  30
ATOM     30  O   LIG d   1       4.070  -5.726  -5.575  0.00  0.00    -0.495 OA
BRANCH  30  31
ATOM     31  C   LIG d   1       4.606  -6.836  -6.298  0.00  0.00     0.079 C 
ATOM     32  H   LIG d   1       4.381  -6.722  -7.358  0.00  0.00     0.066 H 
ATOM     33  H   LIG d   1       5.687  -6.873  -6.159  0.00  0.00     0.066 H 
ATOM     34  H   LIG d   1       4.160  -7.760  -5.930  0.00  0.00     0.066 H 
ENDBRANCH  30  31
ENDBRANCH  24  30
ENDBRANCH  17  20
ENDBRANCH  14  17
ENDBRANCH  10  13
ENDBRANCH   1  10
BRANCH   3  35
ATOM     35  O   LIG d   1       4.138   1.104 -11.572  0.00  0.00    -0.387 OA
ATOM     36  H   LIG d   1       3.431   1.743 -11.407  0.00  0.00     0.210 HD
ENDBRANCH   3  35
BRANCH   7  37
ATOM     37  C   LIG d   1       2.600   0.091  -7.300  0.00  0.00    -0.004 C 
ATOM     38  H   LIG d   1       2.726  -0.985  -7.406  0.00  0.00     0.084 H 
ATOM     39  H   LIG d   1       1.540   0.327  -7.216  0.00  0.00     0.084 H 
BRANCH  37  40
ATOM     40  N   LIG d   1       3.309   0.558  -6.094  0.00  0.00     0.233 N 
ATOM     41  H   LIG d   1       3.633   1.521  -6.242  0.00  0.00     0.202 HD
ATOM     42  H   LIG d   1       4.117  -0.051  -5.918  0.00  0.00     0.202 HD
BRANCH  40  43
ATOM     43  C   LIG d   1       2.409   0.522  -4.926  0.00  0.00     0.010 C 
ATOM     44  H   LIG d   1       1.566  -0.138  -5.133  0.00  0.00     0.088 H 
ATOM     45  H   LIG d   1       2.043   1.526  -4.714  0.00  0.00     0.088 H 
BRANCH  43  46
ATOM     46  C   LIG d   1       3.169   0.002  -3.733  0.00  0.00     0.086 A 
ATOM     47  N   LIG d   1       3.795   0.848  -2.939  0.00  0.00    -0.255 NA
ATOM     48  C   LIG d   1       4.472   0.438  -1.884  0.00  0.00     0.028 A 
ATOM     49  C   LIG d   1       4.553  -0.905  -1.574  0.00  0.00    -0.044 A 
ATOM     50  H   LIG d   1       4.972   1.162  -1.257  0.00  0.00     0.083 H 
ATOM     51  C   LIG d   1       3.903  -1.826  -2.383  0.00  0.00    -0.058 A 
ATOM     52  H   LIG d   1       5.112  -1.235  -0.711  0.00  0.00     0.063 H 
ATOM     53  C   LIG d   1       3.201  -1.358  -3.484  0.00  0.00    -0.035 A 
ATOM     54  H   LIG d   1       3.946  -2.882  -2.163  0.00  0.00     0.062 H 
ATOM     55  H   LIG d   1       2.688  -2.046  -4.138  0.00  0.00     0.064 H 
ENDBRANCH  43  46
ENDBRANCH  40  43
ENDBRANCH  37  40
ENDBRANCH   7  37
BRANCH   5  56
ATOM     56  O   LIG d   1       2.523  -0.595 -10.441  0.00  0.00    -0.386 OA
ATOM     57  H   LIG d   1       2.395  -1.548 -10.540  0.00  0.00     0.210 HD
ENDBRANCH   5  56
TORSDOF 12
ENDMDL
MODEL 3
REMARK VINA RESULT:      -6.1      1.756      2.343
REMARK  12 active torsions:
REMARK  status: ('A' for Active; 'I' for Inactive)
REMARK    1  A    between atoms: C_1  and  O_2 
REMARK    2  A    between atoms: O_2  and  C_3 
REMARK    3  A    between atoms: C_6  and  C_9 
REMARK    4  A    between atoms: C_9  and  N_10 
REMARK       I    between atoms: N_10  and  C_11 
REMARK    5  A    between atoms: C_11  and  C_13 
REMARK    6  A    between atoms: C_13  and  C_14 
REMARK    7  A    between atoms: C_16  and  O_32 
REMARK    8  A    between atoms: C_18  and  O_31 
REMARK    9  A    between atoms: C_20  and  C_23 
REMARK   10  A    between atoms: C_23  and  N_55 
REMARK   11  A    between atoms: C_24  and  C_25 
REMARK   12  A    between atoms: C_24  and  N_55 
ROOT
ATOM      1  C   LIG d   1       3.474  -2.316  -9.496  0.00  0.00     0.096 C 
ATOM      2  H   LIG d   1       4.275  -2.302 -10.234  0.00  0.00     0.063 H 
ATOM      3  C   LIG d   1       2.459  -1.196  -9.800  0.00  0.00     0.110 C 
ATOM      4  H   LIG d   1       1.457  -1.610  -9.915  0.00  0.00     0.065 H 
ATOM      5  C   LIG d   1       2.530  -0.274  -8.560  0.00  0.00     0.115 C 
ATOM      6  H   LIG d   1       1.727  -0.505  -7.858  0.00  0.00     0.065 H 
ATOM      7  C   LIG d   1       3.912  -0.640  -7.960  0.00  0.00     0.127 C 
ATOM      8  H   LIG d   1       4.710  -0.111  -8.480  0.00  0.00     0.068 H 
ATOM      9  O   LIG d   1       4.011  -2.062  -8.187  0.00  0.00    -0.362 OA
ENDROOT
BRANCH   1  10
ATOM     10  C   LIG d   1       2.769  -3.674  -9.513  0.00  0.00     0.053 C 
ATOM     11  H   LIG d   1       1.754  -3.563  -9.131  0.00  0.00     0.038 H 
ATOM     12  H   LIG d   1       2.732  -4.052 -10.535  0.00  0.00     0.038 H 
BRANCH  10  13
ATOM     13  C   LIG d   1       3.529  -4.646  -8.646  0.00  0.00     0.216 C 
ATOM     14  N   LIG d   1       3.344  -4.644  -7.311  0.00  0.00    -0.311 N 
ATOM     15  H   LIG d   1       2.722  -4.020  -6.908  0.00  0.00     0.149 HD
ATOM     16  O   LIG d   1       4.306  -5.428  -9.150  0.00  0.00    -0.276 OA
BRANCH  14  17
ATOM     17  C   LIG d   1       4.083  -5.588  -6.469  0.00  0.00     0.037 C 
ATOM     18  H   LIG d   1       3.410  -6.014  -5.724  0.00  0.00     0.051 H 
ATOM     19  H   LIG d   1       4.490  -6.386  -7.089  0.00  0.00     0.051 H 
BRANCH  17  20
ATOM     20  C   LIG d   1       5.209  -4.867  -5.774  0.00  0.00    -0.030 A 
ATOM     21  C   LIG d   1       4.957  -3.695  -5.085  0.00  0.00    -0.054 A 
ATOM     22  C   LIG d   1       5.987  -3.032  -4.447  0.00  0.00    -0.020 A 
ATOM     23  H   LIG d   1       3.953  -3.298  -5.045  0.00  0.00     0.062 H 
ATOM     24  C   LIG d   1       7.276  -3.542  -4.498  0.00  0.00     0.120 A 
ATOM     25  H   LIG d   1       5.789  -2.117  -3.907  0.00  0.00     0.065 H 
ATOM     26  C   LIG d   1       7.526  -4.718  -5.191  0.00  0.00    -0.020 A 
ATOM     27  C   LIG d   1       6.491  -5.381  -5.822  0.00  0.00    -0.054 A 
ATOM     28  H   LIG d   1       8.529  -5.117  -5.233  0.00  0.00     0.065 H 
ATOM     29  H   LIG d   1       6.685  -6.298  -6.358  0.00  0.00     0.062 H 
BRANCH  24  30
ATOM     30  O   LIG d   1       8.291  -2.893  -3.871  0.00  0.00    -0.495 OA
BRANCH  30  31
ATOM     31  C   LIG d   1       9.229  -3.695  -3.151  0.00  0.00     0.079 C 
ATOM     32  H   LIG d   1      10.139  -3.121  -2.977  0.00  0.00     0.066 H 
ATOM     33  H   LIG d   1       8.797  -3.988  -2.194  0.00  0.00     0.066 H 
ATOM     34  H   LIG d   1       9.467  -4.586  -3.731  0.00  0.00     0.066 H 
ENDBRANCH  30  31
ENDBRANCH  24  30
ENDBRANCH  17  20
ENDBRANCH  14  17
ENDBRANCH  10  13
ENDBRANCH   1  10
BRANCH   3  35
ATOM     35  O   LIG d   1       2.843  -0.482 -10.977  0.00  0.00    -0.387 OA
ATOM     36  H   LIG d   1       3.113  -1.050 -11.711  0.00  0.00     0.210 HD
ENDBRANCH   3  35
BRANCH   7  37
ATOM     37  C   LIG d   1       3.948  -0.329  -6.461  0.00  0.00    -0.004 C 
ATOM     38  H   LIG d   1       4.943   0.019  -6.188  0.00  0.00     0.084 H 
ATOM     39  H   LIG d   1       3.710  -1.231  -5.898  0.00  0.00     0.084 H 
BRANCH  37  40
ATOM     40  N   LIG d   1       2.955   0.719  -6.162  0.00  0.00     0.233 N 
ATOM     41  H   LIG d   1       2.315   0.818  -6.959  0.00  0.00     0.202 HD
ATOM     42  H   LIG d   1       3.440   1.610  -6.000  0.00  0.00     0.202 HD
BRANCH  40  43
ATOM     43  C   LIG d   1       2.181   0.361  -4.958  0.00  0.00     0.010 C 
ATOM     44  H   LIG d   1       1.743  -0.629  -5.085  0.00  0.00     0.088 H 
ATOM     45  H   LIG d   1       1.390   1.093  -4.800  0.00  0.00     0.088 H 
BRANCH  43  46
ATOM     46  C   LIG d   1       3.102   0.352  -3.765  0.00  0.00     0.086 A 
ATOM     47  N   LIG d   1       3.747   1.452  -3.429  0.00  0.00    -0.255 NA
ATOM     48  C   LIG d   1       4.561   1.489  -2.393  0.00  0.00     0.028 A 
ATOM     49  C   LIG d   1       4.773   0.365  -1.618  0.00  0.00    -0.044 A 
ATOM     50  H   LIG d   1       5.073   2.409  -2.149  0.00  0.00     0.083 H 
ATOM     51  C   LIG d   1       4.107  -0.810  -1.936  0.00  0.00    -0.058 A 
ATOM     52  H   LIG d   1       5.444   0.401  -0.773  0.00  0.00     0.063 H 
ATOM     53  C   LIG d   1       3.259  -0.811  -3.033  0.00  0.00    -0.035 A 
ATOM     54  H   LIG d   1       4.250  -1.703  -1.346  0.00  0.00     0.062 H 
ATOM     55  H   LIG d   1       2.729  -1.709  -3.313  0.00  0.00     0.064 H 
ENDBRANCH  43  46
ENDBRANCH  40  43
ENDBRANCH  37  40
ENDBRANCH   7  37
BRANCH   5  56
ATOM     56  O   LIG d   1       2.488   1.102  -8.944  0.00  0.00    -0.386 OA
ATOM     57  H   LIG d   1       2.080   1.682  -8.286  0.00  0.00     0.210 HD
ENDBRANCH   5  56
TORSDOF 12
ENDMDL
MODEL 4
REMARK VINA RESULT:      -5.9      3.047      5.401
REMARK  12 active torsions:
REMARK  status: ('A' for Active; 'I' for Inactive)
REMARK    1  A    between atoms: C_1  and  O_2 
REMARK    2  A    between atoms: O_2  and  C_3 
REMARK    3  A    between atoms: C_6  and  C_9 
REMARK    4  A    between atoms: C_9  and  N_10 
REMARK       I    between atoms: N_10  and  C_11 
REMARK    5  A    between atoms: C_11  and  C_13 
REMARK    6  A    between atoms: C_13  and  C_14 
REMARK    7  A    between atoms: C_16  and  O_32 
REMARK    8  A    between atoms: C_18  and  O_31 
REMARK    9  A    between atoms: C_20  and  C_23 
REMARK   10  A    between atoms: C_23  and  N_55 
REMARK   11  A    between atoms: C_24  and  C_25 
REMARK   12  A    between atoms: C_24  and  N_55 
ROOT
ATOM      1  C   LIG d   1       6.430  -0.564  -6.152  0.00  0.00     0.096 C 
ATOM      2  H   LIG d   1       7.219  -0.519  -6.903  0.00  0.00     0.063 H 
ATOM      3  C   LIG d   1       5.910  -2.010  -6.024  0.00  0.00     0.110 C 
ATOM      4  H   LIG d   1       5.994  -2.355  -4.993  0.00  0.00     0.065 H 
ATOM      5  C   LIG d   1       4.425  -1.916  -6.449  0.00  0.00     0.115 C 
ATOM      6  H   LIG d   1       3.775  -1.841  -5.577  0.00  0.00     0.065 H 
ATOM      7  C   LIG d   1       4.403  -0.601  -7.270  0.00  0.00     0.127 C 
ATOM      8  H   LIG d   1       4.752  -0.776  -8.287  0.00  0.00     0.068 H 
ATOM      9  O   LIG d   1       5.321   0.255  -6.558  0.00  0.00    -0.362 OA
ENDROOT
BRANCH   1  10
ATOM     10  C   LIG d   1       6.966  -0.083  -4.802  0.00  0.00     0.053 C 
ATOM     11  H   LIG d   1       6.248   0.602  -4.350  0.00  0.00     0.038 H 
ATOM     12  H   LIG d   1       7.115  -0.939  -4.144  0.00  0.00     0.038 H 
BRANCH  10  13
ATOM     13  C   LIG d   1       8.280   0.628  -5.007  0.00  0.00     0.216 C 
ATOM     14  N   LIG d   1       8.912   1.190  -3.958  0.00  0.00    -0.311 N 
ATOM     15  H   LIG d   1       8.523   1.136  -3.071  0.00  0.00     0.149 HD
ATOM     16  O   LIG d   1       8.767   0.693  -6.115  0.00  0.00    -0.276 OA
BRANCH  14  17
ATOM     17  C   LIG d   1      10.188   1.880  -4.156  0.00  0.00     0.037 C 
ATOM     18  H   LIG d   1      10.950   1.424  -3.524  0.00  0.00     0.051 H 
ATOM     19  H   LIG d   1      10.487   1.798  -5.201  0.00  0.00     0.051 H 
BRANCH  17  20
ATOM     20  C   LIG d   1      10.035   3.334  -3.791  0.00  0.00    -0.030 A 
ATOM     21  C   LIG d   1       9.478   4.219  -4.695  0.00  0.00    -0.054 A 
ATOM     22  C   LIG d   1       9.335   5.552  -4.362  0.00  0.00    -0.020 A 
ATOM     23  H   LIG d   1       9.152   3.867  -5.663  0.00  0.00     0.062 H 
ATOM     24  C   LIG d   1       9.753   6.003  -3.118  0.00  0.00     0.120 A 
ATOM     25  H   LIG d   1       8.898   6.242  -5.069  0.00  0.00     0.065 H 
ATOM     26  C   LIG d   1      10.312   5.114  -2.213  0.00  0.00    -0.020 A 
ATOM     27  C   LIG d   1      10.447   3.780  -2.548  0.00  0.00    -0.054 A 
ATOM     28  H   LIG d   1      10.639   5.462  -1.244  0.00  0.00     0.065 H 
ATOM     29  H   LIG d   1      10.878   3.087  -1.842  0.00  0.00     0.062 H 
BRANCH  24  30
ATOM     30  O   LIG d   1       9.615   7.313  -2.788  0.00  0.00    -0.495 OA
BRANCH  30  31
ATOM     31  C   LIG d   1       9.606   7.635  -1.396  0.00  0.00     0.079 C 
ATOM     32  H   LIG d   1      10.480   7.195  -0.915  0.00  0.00     0.066 H 
ATOM     33  H   LIG d   1       9.631   8.718  -1.273  0.00  0.00     0.066 H 
ATOM     34  H   LIG d   1       8.701   7.238  -0.936  0.00  0.00     0.066 H 
ENDBRANCH  30  31
ENDBRANCH  24  30
ENDBRANCH  17  20
ENDBRANCH  14  17
ENDBRANCH  10  13
ENDBRANCH   1  10
BRANCH   3  35
ATOM     35  O   LIG d   1       6.628  -2.878  -6.902  0.00  0.00    -0.387 OA
ATOM     36  H   LIG d   1       7.385  -2.461  -7.336  0.00  0.00     0.210 HD
ENDBRANCH   3  35
BRANCH   7  37
ATOM     37  C   LIG d   1       2.998   0.005  -7.280  0.00  0.00    -0.004 C 
ATOM     38  H   LIG d   1       2.261  -0.785  -7.137  0.00  0.00     0.084 H 
ATOM     39  H   LIG d   1       2.821   0.498  -8.236  0.00  0.00     0.084 H 
BRANCH  37  40
ATOM     40  N   LIG d   1       2.889   0.989  -6.187  0.00  0.00     0.233 N 
ATOM     41  H   LIG d   1       2.380   1.815  -6.524  0.00  0.00     0.202 HD
ATOM     42  H   LIG d   1       3.831   1.268  -5.887  0.00  0.00     0.202 HD
BRANCH  40  43
ATOM     43  C   LIG d   1       2.167   0.404  -5.042  0.00  0.00     0.010 C 
ATOM     44  H   LIG d   1       1.866  -0.616  -5.281  0.00  0.00     0.088 H 
ATOM     45  H   LIG d   1       1.283   1.003  -4.822  0.00  0.00     0.088 H 
BRANCH  43  46
ATOM     46  C   LIG d   1       3.076   0.390  -3.840  0.00  0.00     0.086 A 
ATOM     47  N   LIG d   1       3.728   1.485  -3.502  0.00  0.00    -0.255 NA
ATOM     48  C   LIG d   1       4.534   1.518  -2.458  0.00  0.00     0.028 A 
ATOM     49  C   LIG d   1       4.727   0.395  -1.678  0.00  0.00    -0.044 A 
ATOM     50  H   LIG d   1       5.052   2.434  -2.214  0.00  0.00     0.083 H 
ATOM     51  C   LIG d   1       4.052  -0.774  -1.998  0.00  0.00    -0.058 A 
ATOM     52  H   LIG d   1       5.390   0.428  -0.827  0.00  0.00     0.063 H 
ATOM     53  C   LIG d   1       3.214  -0.772  -3.103  0.00  0.00    -0.035 A 
ATOM     54  H   LIG d   1       4.181  -1.667  -1.404  0.00  0.00     0.062 H 
ATOM     55  H   LIG d   1       2.678  -1.665  -3.384  0.00  0.00     0.064 H 
ENDBRANCH  43  46
ENDBRANCH  40  43
ENDBRANCH  37  40
ENDBRANCH   7  37
BRANCH   5  56
ATOM     56  O   LIG d   1       4.056  -3.032  -7.263  0.00  0.00    -0.386 OA
ATOM     57  H   LIG d   1       4.298  -3.889  -6.887  0.00  0.00     0.210 HD
ENDBRANCH   5  56
TORSDOF 12
ENDMDL
MODEL 5
REMARK VINA RESULT:      -5.8      2.837      5.414
REMARK  12 active torsions:
REMARK  status: ('A' for Active; 'I' for Inactive)
REMARK    1  A    between atoms: C_1  and  O_2 
REMARK    2  A    between atoms: O_2  and  C_3 
REMARK    3  A    between atoms: C_6  and  C_9 
REMARK    4  A    between atoms: C_9  and  N_10 
REMARK       I    between atoms: N_10  and  C_11 
REMARK    5  A    between atoms: C_11  and  C_13 
REMARK    6  A    between atoms: C_13  and  C_14 
REMARK    7  A    between atoms: C_16  and  O_32 
REMARK    8  A    between atoms: C_18  and  O_31 
REMARK    9  A    between atoms: C_20  and  C_23 
REMARK   10  A    between atoms: C_23  and  N_55 
REMARK   11  A    between atoms: C_24  and  C_25 
REMARK   12  A    between atoms: C_24  and  N_55 
ROOT
ATOM      1  C   LIG d   1       6.840  -0.510  -5.617  0.00  0.00     0.096 C 
ATOM      2  H   LIG d   1       7.738  -0.261  -6.182  0.00  0.00     0.063 H 
ATOM      3  C   LIG d   1       6.381  -1.940  -5.964  0.00  0.00     0.110 C 
ATOM      4  H   LIG d   1       6.312  -2.548  -5.062  0.00  0.00     0.065 H 
ATOM      5  C   LIG d   1       4.984  -1.745  -6.600  0.00  0.00     0.115 C 
ATOM      6  H   LIG d   1       4.196  -1.909  -5.864  0.00  0.00     0.065 H 
ATOM      7  C   LIG d   1       5.030  -0.258  -7.038  0.00  0.00     0.127 C 
ATOM      8  H   LIG d   1       5.550  -0.153  -7.989  0.00  0.00     0.068 H 
ATOM      9  O   LIG d   1       5.772   0.381  -5.978  0.00  0.00    -0.362 OA
ENDROOT
BRANCH   1  10
ATOM     10  C   LIG d   1       7.120  -0.404  -4.116  0.00  0.00     0.053 C 
ATOM     11  H   LIG d   1       6.203  -0.602  -3.560  0.00  0.00     0.038 H 
ATOM     12  H   LIG d   1       7.879  -1.134  -3.835  0.00  0.00     0.038 H 
BRANCH  10  13
ATOM     13  C   LIG d   1       7.614   0.983  -3.793  0.00  0.00     0.216 C 
ATOM     14  N   LIG d   1       8.918   1.286  -3.945  0.00  0.00    -0.311 N 
ATOM     15  H   LIG d   1       9.539   0.612  -4.263  0.00  0.00     0.149 HD
ATOM     16  O   LIG d   1       6.837   1.826  -3.397  0.00  0.00    -0.276 OA
BRANCH  14  17
ATOM     17  C   LIG d   1       9.398   2.634  -3.632  0.00  0.00     0.037 C 
ATOM     18  H   LIG d   1       8.691   3.125  -2.963  0.00  0.00     0.051 H 
ATOM     19  H   LIG d   1      10.371   2.569  -3.147  0.00  0.00     0.051 H 
BRANCH  17  20
ATOM     20  C   LIG d   1       9.522   3.431  -4.904  0.00  0.00    -0.030 A 
ATOM     21  C   LIG d   1       9.638   4.808  -4.848  0.00  0.00    -0.054 A 
ATOM     22  C   LIG d   1       9.753   5.542  -6.013  0.00  0.00    -0.020 A 
ATOM     23  H   LIG d   1       9.639   5.311  -3.892  0.00  0.00     0.062 H 
ATOM     24  C   LIG d   1       9.752   4.896  -7.241  0.00  0.00     0.120 A 
ATOM     25  H   LIG d   1       9.844   6.617  -5.969  0.00  0.00     0.065 H 
ATOM     26  C   LIG d   1       9.636   3.514  -7.295  0.00  0.00    -0.020 A 
ATOM     27  C   LIG d   1       9.527   2.785  -6.126  0.00  0.00    -0.054 A 
ATOM     28  H   LIG d   1       9.634   3.009  -8.249  0.00  0.00     0.065 H 
ATOM     29  H   LIG d   1       9.441   1.710  -6.168  0.00  0.00     0.062 H 
BRANCH  24  30
ATOM     30  O   LIG d   1       9.865   5.613  -8.388  0.00  0.00    -0.495 OA
BRANCH  30  31
ATOM     31  C   LIG d   1       9.630   4.920  -9.615  0.00  0.00     0.079 C 
ATOM     32  H   LIG d   1       9.873   3.865  -9.488  0.00  0.00     0.066 H 
ATOM     33  H   LIG d   1       8.581   5.020  -9.894  0.00  0.00     0.066 H 
ATOM     34  H   LIG d   1      10.256   5.345 -10.399  0.00  0.00     0.066 H 
ENDBRANCH  30  31
ENDBRANCH  24  30
ENDBRANCH  17  20
ENDBRANCH  14  17
ENDBRANCH  10  13
ENDBRANCH   1  10
BRANCH   3  35
ATOM     35  O   LIG d   1       7.278  -2.538  -6.902  0.00  0.00    -0.387 OA
ATOM     36  H   LIG d   1       8.092  -2.036  -7.043  0.00  0.00     0.210 HD
ENDBRANCH   3  35
BRANCH   7  37
ATOM     37  C   LIG d   1       3.615   0.320  -7.131  0.00  0.00    -0.004 C 
ATOM     38  H   LIG d   1       3.241   0.201  -8.147  0.00  0.00     0.084 H 
ATOM     39  H   LIG d   1       3.638   1.379  -6.873  0.00  0.00     0.084 H 
BRANCH  37  40
ATOM     40  N   LIG d   1       2.737  -0.400  -6.190  0.00  0.00     0.233 N 
ATOM     41  H   LIG d   1       3.222  -1.238  -5.847  0.00  0.00     0.202 HD
ATOM     42  H   LIG d   1       1.876  -0.680  -6.677  0.00  0.00     0.202 HD
BRANCH  40  43
ATOM     43  C   LIG d   1       2.391   0.466  -5.049  0.00  0.00     0.010 C 
ATOM     44  H   LIG d   1       1.317   0.420  -4.865  0.00  0.00     0.088 H 
ATOM     45  H   LIG d   1       2.679   1.493  -5.267  0.00  0.00     0.088 H 
BRANCH  43  46
ATOM     46  C   LIG d   1       3.128  -0.013  -3.824  0.00  0.00     0.086 A 
ATOM     47  N   LIG d   1       3.323  -1.305  -3.643  0.00  0.00    -0.255 NA
ATOM     48  C   LIG d   1       3.963  -1.768  -2.587  0.00  0.00     0.028 A 
ATOM     49  C   LIG d   1       4.452  -0.908  -1.623  0.00  0.00    -0.044 A 
ATOM     50  H   LIG d   1       4.102  -2.833  -2.473  0.00  0.00     0.083 H 
ATOM     51  C   LIG d   1       4.273   0.458  -1.782  0.00  0.00    -0.058 A 
ATOM     52  H   LIG d   1       4.972  -1.295  -0.759  0.00  0.00     0.063 H 
ATOM     53  C   LIG d   1       3.595   0.908  -2.905  0.00  0.00    -0.035 A 
ATOM     54  H   LIG d   1       4.648   1.154  -1.046  0.00  0.00     0.062 H 
ATOM     55  H   LIG d   1       3.432   1.964  -3.058  0.00  0.00     0.064 H 
ENDBRANCH  43  46
ENDBRANCH  40  43
ENDBRANCH  37  40
ENDBRANCH   7  37
BRANCH   5  56
ATOM     56  O   LIG d   1       4.812  -2.604  -7.729  0.00  0.00    -0.386 OA
ATOM     57  H   LIG d   1       5.410  -2.412  -8.464  0.00  0.00     0.210 HD
ENDBRANCH   5  56
TORSDOF 12
ENDMDL
MODEL 6
REMARK VINA RESULT:      -5.7      3.854      6.683
REMARK  12 active torsions:
REMARK  status: ('A' for Active; 'I' for Inactive)
REMARK    1  A    between atoms: C_1  and  O_2 
REMARK    2  A    between atoms: O_2  and  C_3 
REMARK    3  A    between atoms: C_6  and  C_9 
REMARK    4  A    between atoms: C_9  and  N_10 
REMARK       I    between atoms: N_10  and  C_11 
REMARK    5  A    between atoms: C_11  and  C_13 
REMARK    6  A    between atoms: C_13  and  C_14 
REMARK    7  A    between atoms: C_16  and  O_32 
REMARK    8  A    between atoms: C_18  and  O_31 
REMARK    9  A    between atoms: C_20  and  C_23 
REMARK   10  A    between atoms: C_23  and  N_55 
REMARK   11  A    between atoms: C_24  and  C_25 
REMARK   12  A    between atoms: C_24  and  N_55 
ROOT
ATOM      1  C   LIG d   1       7.554   0.297  -5.293  0.00  0.00     0.096 C 
ATOM      2  H   LIG d   1       8.392   0.495  -5.962  0.00  0.00     0.063 H 
ATOM      3  C   LIG d   1       7.609  -1.164  -4.804  0.00  0.00     0.110 C 
ATOM      4  H   LIG d   1       7.624  -1.201  -3.715  0.00  0.00     0.065 H 
ATOM      5  C   LIG d   1       6.308  -1.797  -5.355  0.00  0.00     0.115 C 
ATOM      6  H   LIG d   1       5.528  -1.805  -4.593  0.00  0.00     0.065 H 
ATOM      7  C   LIG d   1       5.941  -0.832  -6.512  0.00  0.00     0.127 C 
ATOM      8  H   LIG d   1       6.514  -1.070  -7.408  0.00  0.00     0.068 H 
ATOM      9  O   LIG d   1       6.314   0.465  -5.999  0.00  0.00    -0.362 OA
ENDROOT
BRANCH   1  10
ATOM     10  C   LIG d   1       7.604   1.248  -4.095  0.00  0.00     0.053 C 
ATOM     11  H   LIG d   1       6.645   1.756  -3.996  0.00  0.00     0.038 H 
ATOM     12  H   LIG d   1       7.809   0.679  -3.188  0.00  0.00     0.038 H 
BRANCH  10  13
ATOM     13  C   LIG d   1       8.694   2.267  -4.307  0.00  0.00     0.216 C 
ATOM     14  N   LIG d   1       9.654   2.430  -3.375  0.00  0.00    -0.311 N 
ATOM     15  H   LIG d   1       9.644   1.891  -2.569  0.00  0.00     0.149 HD
ATOM     16  O   LIG d   1       8.707   2.940  -5.316  0.00  0.00    -0.276 OA
BRANCH  14  17
ATOM     17  C   LIG d   1      10.713   3.420  -3.581  0.00  0.00     0.037 C 
ATOM     18  H   LIG d   1      11.675   2.985  -3.310  0.00  0.00     0.051 H 
ATOM     19  H   LIG d   1      10.733   3.719  -4.629  0.00  0.00     0.051 H 
BRANCH  17  20
ATOM     20  C   LIG d   1      10.447   4.627  -2.720  0.00  0.00    -0.030 A 
ATOM     21  C   LIG d   1      10.995   4.706  -1.453  0.00  0.00    -0.054 A 
ATOM     22  C   LIG d   1      10.753   5.812  -0.661  0.00  0.00    -0.020 A 
ATOM     23  H   LIG d   1      11.614   3.903  -1.082  0.00  0.00     0.062 H 
ATOM     24  C   LIG d   1       9.958   6.845  -1.138  0.00  0.00     0.120 A 
ATOM     25  H   LIG d   1      11.183   5.874   0.328  0.00  0.00     0.065 H 
ATOM     26  C   LIG d   1       9.409   6.763  -2.409  0.00  0.00    -0.020 A 
ATOM     27  C   LIG d   1       9.659   5.657  -3.199  0.00  0.00    -0.054 A 
ATOM     28  H   LIG d   1       8.789   7.565  -2.783  0.00  0.00     0.065 H 
ATOM     29  H   LIG d   1       9.235   5.596  -4.190  0.00  0.00     0.062 H 
BRANCH  24  30
ATOM     30  O   LIG d   1       9.718   7.933  -0.362  0.00  0.00    -0.495 OA
BRANCH  30  31
ATOM     31  C   LIG d   1       9.667   9.201  -1.019  0.00  0.00     0.079 C 
ATOM     32  H   LIG d   1       8.687   9.333  -1.477  0.00  0.00     0.066 H 
ATOM     33  H   LIG d   1       9.836   9.994  -0.290  0.00  0.00     0.066 H 
ATOM     34  H   LIG d   1      10.437   9.244  -1.788  0.00  0.00     0.066 H 
ENDBRANCH  30  31
ENDBRANCH  24  30
ENDBRANCH  17  20
ENDBRANCH  14  17
ENDBRANCH  10  13
ENDBRANCH   1  10
BRANCH   3  35
ATOM     35  O   LIG d   1       8.754  -1.828  -5.343  0.00  0.00    -0.387 OA
ATOM     36  H   LIG d   1       8.563  -2.376  -6.116  0.00  0.00     0.210 HD
ENDBRANCH   3  35
BRANCH   7  37
ATOM     37  C   LIG d   1       4.440  -0.886  -6.803  0.00  0.00    -0.004 C 
ATOM     38  H   LIG d   1       3.987  -1.690  -6.224  0.00  0.00     0.084 H 
ATOM     39  H   LIG d   1       4.282  -1.070  -7.865  0.00  0.00     0.084 H 
BRANCH  37  40
ATOM     40  N   LIG d   1       3.829   0.402  -6.427  0.00  0.00     0.233 N 
ATOM     41  H   LIG d   1       3.412   0.836  -7.259  0.00  0.00     0.202 HD
ATOM     42  H   LIG d   1       4.553   1.023  -6.045  0.00  0.00     0.202 HD
BRANCH  40  43
ATOM     43  C   LIG d   1       2.782   0.194  -5.409  0.00  0.00     0.010 C 
ATOM     44  H   LIG d   1       2.322  -0.785  -5.550  0.00  0.00     0.088 H 
ATOM     45  H   LIG d   1       2.022   0.970  -5.501  0.00  0.00     0.088 H 
BRANCH  43  46
ATOM     46  C   LIG d   1       3.405   0.261  -4.038  0.00  0.00     0.086 A 
ATOM     47  N   LIG d   1       3.831   1.418  -3.571  0.00  0.00    -0.255 NA
ATOM     48  C   LIG d   1       4.382   1.523  -2.377  0.00  0.00     0.028 A 
ATOM     49  C   LIG d   1       4.538   0.413  -1.570  0.00  0.00    -0.044 A 
ATOM     50  H   LIG d   1       4.719   2.489  -2.029  0.00  0.00     0.083 H 
ATOM     51  C   LIG d   1       4.097  -0.820  -2.025  0.00  0.00    -0.058 A 
ATOM     52  H   LIG d   1       4.994   0.506  -0.596  0.00  0.00     0.063 H 
ATOM     53  C   LIG d   1       3.523  -0.892  -3.285  0.00  0.00    -0.035 A 
ATOM     54  H   LIG d   1       4.203  -1.704  -1.414  0.00  0.00     0.062 H 
ATOM     55  H   LIG d   1       3.173  -1.837  -3.673  0.00  0.00     0.064 H 
ENDBRANCH  43  46
ENDBRANCH  40  43
ENDBRANCH  37  40
ENDBRANCH   7  37
BRANCH   5  56
ATOM     56  O   LIG d   1       6.550  -3.116  -5.847  0.00  0.00    -0.386 OA
ATOM     57  H   LIG d   1       6.813  -3.749  -5.164  0.00  0.00     0.210 HD
ENDBRANCH   5  56
TORSDOF 12
ENDMDL
MODEL 7
REMARK VINA RESULT:      -5.7      3.917      7.564
REMARK  12 active torsions:
REMARK  status: ('A' for Active; 'I' for Inactive)
REMARK    1  A    between atoms: C_1  and  O_2 
REMARK    2  A    between atoms: O_2  and  C_3 
REMARK    3  A    between atoms: C_6  and  C_9 
REMARK    4  A    between atoms: C_9  and  N_10 
REMARK       I    between atoms: N_10  and  C_11 
REMARK    5  A    between atoms: C_11  and  C_13 
REMARK    6  A    between atoms: C_13  and  C_14 
REMARK    7  A    between atoms: C_16  and  O_32 
REMARK    8  A    between atoms: C_18  and  O_31 
REMARK    9  A    between atoms: C_20  and  C_23 
REMARK   10  A    between atoms: C_23  and  N_55 
REMARK   11  A    between atoms: C_24  and  C_25 
REMARK   12  A    between atoms: C_24  and  N_55 
ROOT
ATOM      1  C   LIG d   1       2.808  -0.670 -10.256  0.00  0.00     0.096 C 
ATOM      2  H   LIG d   1       3.493  -1.177 -10.936  0.00  0.00     0.063 H 
ATOM      3  C   LIG d   1       3.138   0.834 -10.204  0.00  0.00     0.110 C 
ATOM      4  H   LIG d   1       2.261   1.426 -10.465  0.00  0.00     0.065 H 
ATOM      5  C   LIG d   1       3.545   1.082  -8.731  0.00  0.00     0.115 C 
ATOM      6  H   LIG d   1       2.705   1.473  -8.157  0.00  0.00     0.065 H 
ATOM      7  C   LIG d   1       3.925  -0.344  -8.255  0.00  0.00     0.127 C 
ATOM      8  H   LIG d   1       4.940  -0.595  -8.562  0.00  0.00     0.068 H 
ATOM      9  O   LIG d   1       2.967  -1.189  -8.925  0.00  0.00    -0.362 OA
ENDROOT
BRANCH   1  10
ATOM     10  C   LIG d   1       1.365  -0.870 -10.723  0.00  0.00     0.053 C 
ATOM     11  H   LIG d   1       0.682  -0.608  -9.915  0.00  0.00     0.038 H 
ATOM     12  H   LIG d   1       1.170  -0.231 -11.585  0.00  0.00     0.038 H 
BRANCH  10  13
ATOM     13  C   LIG d   1       1.156  -2.312 -11.110  0.00  0.00     0.216 C 
ATOM     14  N   LIG d   1       0.598  -3.170 -10.234  0.00  0.00    -0.311 N 
ATOM     15  H   LIG d   1       0.328  -2.860  -9.355  0.00  0.00     0.149 HD
ATOM     16  O   LIG d   1       1.492  -2.699 -12.209  0.00  0.00    -0.276 OA
BRANCH  14  17
ATOM     17  C   LIG d   1       0.396  -4.572 -10.610  0.00  0.00     0.037 C 
ATOM     18  H   LIG d   1       0.889  -4.767 -11.562  0.00  0.00     0.051 H 
ATOM     19  H   LIG d   1       0.819  -5.218  -9.842  0.00  0.00     0.051 H 
BRANCH  17  20
ATOM     20  C   LIG d   1      -1.080  -4.848 -10.742  0.00  0.00    -0.030 A 
ATOM     21  C   LIG d   1      -1.733  -4.562 -11.926  0.00  0.00    -0.054 A 
ATOM     22  C   LIG d   1      -3.085  -4.815 -12.051  0.00  0.00    -0.020 A 
ATOM     23  H   LIG d   1      -1.184  -4.141 -12.756  0.00  0.00     0.062 H 
ATOM     24  C   LIG d   1      -3.789  -5.357 -10.985  0.00  0.00     0.120 A 
ATOM     25  H   LIG d   1      -3.595  -4.593 -12.977  0.00  0.00     0.065 H 
ATOM     26  C   LIG d   1      -3.132  -5.643  -9.797  0.00  0.00    -0.020 A 
ATOM     27  C   LIG d   1      -1.778  -5.393  -9.680  0.00  0.00    -0.054 A 
ATOM     28  H   LIG d   1      -3.678  -6.064  -8.965  0.00  0.00     0.065 H 
ATOM     29  H   LIG d   1      -1.266  -5.620  -8.757  0.00  0.00     0.062 H 
BRANCH  24  30
ATOM     30  O   LIG d   1      -5.118  -5.607 -11.103  0.00  0.00    -0.495 OA
BRANCH  30  31
ATOM     31  C   LIG d   1      -5.717  -5.352 -12.375  0.00  0.00     0.079 C 
ATOM     32  H   LIG d   1      -5.113  -4.627 -12.922  0.00  0.00     0.066 H 
ATOM     33  H   LIG d   1      -5.772  -6.281 -12.944  0.00  0.00     0.066 H 
ATOM     34  H   LIG d   1      -6.721  -4.953 -12.232  0.00  0.00     0.066 H 
ENDBRANCH  30  31
ENDBRANCH  24  30
ENDBRANCH  17  20
ENDBRANCH  14  17
ENDBRANCH  10  13
ENDBRANCH   1  10
BRANCH   3  35
ATOM     35  O   LIG d   1       4.225   1.138 -11.081  0.00  0.00    -0.387 OA
ATOM     36  H   LIG d   1       4.992   1.526 -10.637  0.00  0.00     0.210 HD
ENDBRANCH   3  35
BRANCH   7  37
ATOM     37  C   LIG d   1       3.779  -0.461  -6.736  0.00  0.00    -0.004 C 
ATOM     38  H   LIG d   1       4.766  -0.479  -6.276  0.00  0.00     0.084 H 
ATOM     39  H   LIG d   1       3.247  -1.380  -6.492  0.00  0.00     0.084 H 
BRANCH  37  40
ATOM     40  N   LIG d   1       3.019   0.699  -6.233  0.00  0.00     0.233 N 
ATOM     41  H   LIG d   1       2.400   1.046  -6.975  0.00  0.00     0.202 HD
ATOM     42  H   LIG d   1       3.675   1.442  -5.961  0.00  0.00     0.202 HD
BRANCH  40  43
ATOM     43  C   LIG d   1       2.209   0.313  -5.064  0.00  0.00     0.010 C 
ATOM     44  H   LIG d   1       1.794  -0.684  -5.218  0.00  0.00     0.088 H 
ATOM     45  H   LIG d   1       1.399   1.028  -4.926  0.00  0.00     0.088 H 
BRANCH  43  46
ATOM     46  C   LIG d   1       3.085   0.305  -3.837  0.00  0.00     0.086 A 
ATOM     47  N   LIG d   1       3.683   1.417  -3.456  0.00  0.00    -0.255 NA
ATOM     48  C   LIG d   1       4.458   1.457  -2.389  0.00  0.00     0.028 A 
ATOM     49  C   LIG d   1       4.676   0.323  -1.630  0.00  0.00    -0.044 A 
ATOM     50  H   LIG d   1       4.932   2.386  -2.109  0.00  0.00     0.083 H 
ATOM     51  C   LIG d   1       4.058  -0.864  -1.996  0.00  0.00    -0.058 A 
ATOM     52  H   LIG d   1       5.314   0.362  -0.761  0.00  0.00     0.063 H 
ATOM     53  C   LIG d   1       3.251  -0.867  -3.124  0.00  0.00    -0.035 A 
ATOM     54  H   LIG d   1       4.207  -1.764  -1.420  0.00  0.00     0.062 H 
ATOM     55  H   LIG d   1       2.760  -1.775  -3.441  0.00  0.00     0.064 H 
ENDBRANCH  43  46
ENDBRANCH  40  43
ENDBRANCH  37  40
ENDBRANCH   7  37
BRANCH   5  56
ATOM     56  O   LIG d   1       4.668   1.963  -8.653  0.00  0.00    -0.386 OA
ATOM     57  H   LIG d   1       5.410   1.705  -9.217  0.00  0.00     0.210 HD
ENDBRANCH   5  56
TORSDOF 12
ENDMDL
MODEL 8
REMARK VINA RESULT:      -5.6      2.966      4.368
REMARK  12 active torsions:
REMARK  status: ('A' for Active; 'I' for Inactive)
REMARK    1  A    between atoms: C_1  and  O_2 
REMARK    2  A    between atoms: O_2  and  C_3 
REMARK    3  A    between atoms: C_6  and  C_9 
REMARK    4  A    between atoms: C_9  and  N_10 
REMARK       I    between atoms: N_10  and  C_11 
REMARK    5  A    between atoms: C_11  and  C_13 
REMARK    6  A    between atoms: C_13  and  C_14 
REMARK    7  A    between atoms: C_16  and  O_32 
REMARK    8  A    between atoms: C_18  and  O_31 
REMARK    9  A    between atoms: C_20  and  C_23 
REMARK   10  A    between atoms: C_23  and  N_55 
REMARK   11  A    between atoms: C_24  and  C_25 
REMARK   12  A    between atoms: C_24  and  N_55 
ROOT
ATOM      1  C   LIG d   1       5.329   1.369  -9.533  0.00  0.00     0.096 C 
ATOM      2  H   LIG d   1       5.188   2.388  -9.894  0.00  0.00     0.063 H 
ATOM      3  C   LIG d   1       4.651   0.373 -10.494  0.00  0.00     0.110 C 
ATOM      4  H   LIG d   1       5.372  -0.364 -10.850  0.00  0.00     0.065 H 
ATOM      5  C   LIG d   1       3.559  -0.303  -9.631  0.00  0.00     0.115 C 
ATOM      6  H   LIG d   1       3.909  -1.260  -9.242  0.00  0.00     0.065 H 
ATOM      7  C   LIG d   1       3.367   0.723  -8.485  0.00  0.00     0.127 C 
ATOM      8  H   LIG d   1       2.710   1.533  -8.800  0.00  0.00     0.068 H 
ATOM      9  O   LIG d   1       4.703   1.215  -8.248  0.00  0.00    -0.362 OA
ENDROOT
BRANCH   1  10
ATOM     10  C   LIG d   1       6.822   1.053  -9.425  0.00  0.00     0.053 C 
ATOM     11  H   LIG d   1       7.070   0.234 -10.099  0.00  0.00     0.038 H 
ATOM     12  H   LIG d   1       7.401   1.936  -9.697  0.00  0.00     0.038 H 
BRANCH  10  13
ATOM     13  C   LIG d   1       7.150   0.655  -8.008  0.00  0.00     0.216 C 
ATOM     14  N   LIG d   1       7.404   1.603  -7.084  0.00  0.00    -0.311 N 
ATOM     15  H   LIG d   1       7.374   2.541  -7.329  0.00  0.00     0.149 HD
ATOM     16  O   LIG d   1       7.187  -0.517  -7.701  0.00  0.00    -0.276 OA
BRANCH  14  17
ATOM     17  C   LIG d   1       7.723   1.216  -5.708  0.00  0.00     0.037 C 
ATOM     18  H   LIG d   1       6.804   1.150  -5.126  0.00  0.00     0.051 H 
ATOM     19  H   LIG d   1       8.222   0.248  -5.709  0.00  0.00     0.051 H 
BRANCH  17  20
ATOM     20  C   LIG d   1       8.633   2.249  -5.094  0.00  0.00    -0.030 A 
ATOM     21  C   LIG d   1       9.233   3.204  -5.894  0.00  0.00    -0.054 A 
ATOM     22  C   LIG d   1      10.067   4.152  -5.335  0.00  0.00    -0.020 A 
ATOM     23  H   LIG d   1       9.048   3.208  -6.958  0.00  0.00     0.062 H 
ATOM     24  C   LIG d   1      10.303   4.146  -3.967  0.00  0.00     0.120 A 
ATOM     25  H   LIG d   1      10.534   4.899  -5.960  0.00  0.00     0.065 H 
ATOM     26  C   LIG d   1       9.700   3.187  -3.166  0.00  0.00    -0.020 A 
ATOM     27  C   LIG d   1       8.862   2.244  -3.731  0.00  0.00    -0.054 A 
ATOM     28  H   LIG d   1       9.883   3.179  -2.102  0.00  0.00     0.065 H 
ATOM     29  H   LIG d   1       8.390   1.500  -3.107  0.00  0.00     0.062 H 
BRANCH  24  30
ATOM     30  O   LIG d   1      11.122   5.077  -3.414  0.00  0.00    -0.495 OA
BRANCH  30  31
ATOM     31  C   LIG d   1      10.882   6.442  -3.760  0.00  0.00     0.079 C 
ATOM     32  H   LIG d   1      10.032   6.501  -4.440  0.00  0.00     0.066 H 
ATOM     33  H   LIG d   1      10.665   7.013  -2.857  0.00  0.00     0.066 H 
ATOM     34  H   LIG d   1      11.765   6.855  -4.247  0.00  0.00     0.066 H 
ENDBRANCH  30  31
ENDBRANCH  24  30
ENDBRANCH  17  20
ENDBRANCH  14  17
ENDBRANCH  10  13
ENDBRANCH   1  10
BRANCH   3  35
ATOM     35  O   LIG d   1       4.060   1.066 -11.596  0.00  0.00    -0.387 OA
ATOM     36  H   LIG d   1       3.317   0.599 -12.001  0.00  0.00     0.210 HD
ENDBRANCH   3  35
BRANCH   7  37
ATOM     37  C   LIG d   1       2.814   0.037  -7.234  0.00  0.00    -0.004 C 
ATOM     38  H   LIG d   1       3.113  -1.010  -7.233  0.00  0.00     0.084 H 
ATOM     39  H   LIG d   1       1.727   0.105  -7.233  0.00  0.00     0.084 H 
BRANCH  37  40
ATOM     40  N   LIG d   1       3.354   0.709  -6.037  0.00  0.00     0.233 N 
ATOM     41  H   LIG d   1       3.484   1.707  -6.238  0.00  0.00     0.202 HD
ATOM     42  H   LIG d   1       4.259   0.289  -5.792  0.00  0.00     0.202 HD
BRANCH  40  43
ATOM     43  C   LIG d   1       2.424   0.556  -4.903  0.00  0.00     0.010 C 
ATOM     44  H   LIG d   1       1.636  -0.148  -5.166  0.00  0.00     0.088 H 
ATOM     45  H   LIG d   1       1.983   1.522  -4.658  0.00  0.00     0.088 H 
BRANCH  43  46
ATOM     46  C   LIG d   1       3.183   0.035  -3.709  0.00  0.00     0.086 A 
ATOM     47  N   LIG d   1       3.810   0.879  -2.915  0.00  0.00    -0.255 NA
ATOM     48  C   LIG d   1       4.486   0.467  -1.859  0.00  0.00     0.028 A 
ATOM     49  C   LIG d   1       4.564  -0.876  -1.550  0.00  0.00    -0.044 A 
ATOM     50  H   LIG d   1       4.987   1.190  -1.232  0.00  0.00     0.083 H 
ATOM     51  C   LIG d   1       3.912  -1.795  -2.359  0.00  0.00    -0.058 A 
ATOM     52  H   LIG d   1       5.122  -1.207  -0.687  0.00  0.00     0.063 H 
ATOM     53  C   LIG d   1       3.212  -1.325  -3.460  0.00  0.00    -0.035 A 
ATOM     54  H   LIG d   1       3.953  -2.852  -2.140  0.00  0.00     0.062 H 
ATOM     55  H   LIG d   1       2.698  -2.012  -4.115  0.00  0.00     0.064 H 
ENDBRANCH  43  46
ENDBRANCH  40  43
ENDBRANCH  37  40
ENDBRANCH   7  37
BRANCH   5  56
ATOM     56  O   LIG d   1       2.350  -0.469 -10.376  0.00  0.00    -0.386 OA
ATOM     57  H   LIG d   1       2.327   0.030 -11.204  0.00  0.00     0.210 HD
ENDBRANCH   5  56
TORSDOF 12
ENDMDL
MODEL 9
REMARK VINA RESULT:      -5.5      2.210      5.046
REMARK  12 active torsions:
REMARK  status: ('A' for Active; 'I' for Inactive)
REMARK    1  A    between atoms: C_1  and  O_2 
REMARK    2  A    between atoms: O_2  and  C_3 
REMARK    3  A    between atoms: C_6  and  C_9 
REMARK    4  A    between atoms: C_9  and  N_10 
REMARK       I    between atoms: N_10  and  C_11 
REMARK    5  A    between atoms: C_11  and  C_13 
REMARK    6  A    between atoms: C_13  and  C_14 
REMARK    7  A    between atoms: C_16  and  O_32 
REMARK    8  A    between atoms: C_18  and  O_31 
REMARK    9  A    between atoms: C_20  and  C_23 
REMARK   10  A    between atoms: C_23  and  N_55 
REMARK   11  A    between atoms: C_24  and  C_25 
REMARK   12  A    between atoms: C_24  and  N_55 
ROOT
ATOM      1  C   LIG d   1       3.570  -4.800  -7.504  0.00  0.00     0.096 C 
ATOM      2  H   LIG d   1       2.614  -4.750  -6.983  0.00  0.00     0.063 H 
ATOM      3  C   LIG d   1       4.641  -5.409  -6.578  0.00  0.00     0.110 C 
ATOM      4  H   LIG d   1       5.097  -6.282  -7.047  0.00  0.00     0.065 H 
ATOM      5  C   LIG d   1       5.681  -4.276  -6.405  0.00  0.00     0.115 C 
ATOM      6  H   LIG d   1       6.518  -4.409  -7.092  0.00  0.00     0.065 H 
ATOM      7  C   LIG d   1       4.855  -3.017  -6.775  0.00  0.00     0.127 C 
ATOM      8  H   LIG d   1       4.256  -2.686  -5.928  0.00  0.00     0.068 H 
ATOM      9  O   LIG d   1       4.008  -3.475  -7.850  0.00  0.00    -0.362 OA
ENDROOT
BRANCH   1  10
ATOM     10  C   LIG d   1       3.432  -5.649  -8.770  0.00  0.00     0.053 C 
ATOM     11  H   LIG d   1       4.400  -6.082  -9.024  0.00  0.00     0.038 H 
ATOM     12  H   LIG d   1       2.711  -6.448  -8.595  0.00  0.00     0.038 H 
BRANCH  10  13
ATOM     13  C   LIG d   1       2.955  -4.781  -9.907  0.00  0.00     0.216 C 
ATOM     14  N   LIG d   1       1.925  -3.933  -9.721  0.00  0.00    -0.311 N 
ATOM     15  H   LIG d   1       1.490  -3.879  -8.855  0.00  0.00     0.149 HD
ATOM     16  O   LIG d   1       3.498  -4.848 -10.989  0.00  0.00    -0.276 OA
BRANCH  14  17
ATOM     17  C   LIG d   1       1.461  -3.091 -10.826  0.00  0.00     0.037 C 
ATOM     18  H   LIG d   1       1.721  -3.561 -11.775  0.00  0.00     0.051 H 
ATOM     19  H   LIG d   1       0.380  -2.972 -10.764  0.00  0.00     0.051 H 
BRANCH  17  20
ATOM     20  C   LIG d   1       2.121  -1.739 -10.738  0.00  0.00    -0.030 A 
ATOM     21  C   LIG d   1       1.884  -0.925  -9.645  0.00  0.00    -0.054 A 
ATOM     22  C   LIG d   1       2.488   0.314  -9.561  0.00  0.00    -0.020 A 
ATOM     23  H   LIG d   1       1.227  -1.260  -8.856  0.00  0.00     0.062 H 
ATOM     24  C   LIG d   1       3.333   0.743 -10.575  0.00  0.00     0.120 A 
ATOM     25  H   LIG d   1       2.304   0.949  -8.707  0.00  0.00     0.065 H 
ATOM     26  C   LIG d   1       3.568  -0.075 -11.670  0.00  0.00    -0.020 A 
ATOM     27  C   LIG d   1       2.967  -1.317 -11.746  0.00  0.00    -0.054 A 
ATOM     28  H   LIG d   1       4.225   0.257 -12.461  0.00  0.00     0.065 H 
ATOM     29  H   LIG d   1       3.153  -1.955 -12.596  0.00  0.00     0.062 H 
BRANCH  24  30
ATOM     30  O   LIG d   1       3.928   1.961 -10.495  0.00  0.00    -0.495 OA
BRANCH  30  31
ATOM     31  C   LIG d   1       3.986   2.573  -9.206  0.00  0.00     0.079 C 
ATOM     32  H   LIG d   1       4.951   3.066  -9.080  0.00  0.00     0.066 H 
ATOM     33  H   LIG d   1       3.188   3.312  -9.118  0.00  0.00     0.066 H 
ATOM     34  H   LIG d   1       3.864   1.813  -8.435  0.00  0.00     0.066 H 
ENDBRANCH  30  31
ENDBRANCH  24  30
ENDBRANCH  17  20
ENDBRANCH  14  17
ENDBRANCH  10  13
ENDBRANCH   1  10
BRANCH   3  35
ATOM     35  O   LIG d   1       4.069  -5.761  -5.317  0.00  0.00    -0.387 OA
ATOM     36  H   LIG d   1       4.625  -5.538  -4.558  0.00  0.00     0.210 HD
ENDBRANCH   3  35
BRANCH   7  37
ATOM     37  C   LIG d   1       5.775  -1.892  -7.256  0.00  0.00    -0.004 C 
ATOM     38  H   LIG d   1       5.634  -1.740  -8.325  0.00  0.00     0.084 H 
ATOM     39  H   LIG d   1       6.813  -2.163  -7.061  0.00  0.00     0.084 H 
BRANCH  37  40
ATOM     40  N   LIG d   1       5.442  -0.653  -6.529  0.00  0.00     0.233 N 
ATOM     41  H   LIG d   1       5.327   0.114  -7.201  0.00  0.00     0.202 HD
ATOM     42  H   LIG d   1       6.205  -0.426  -5.879  0.00  0.00     0.202 HD
BRANCH  40  43
ATOM     43  C   LIG d   1       4.191  -0.827  -5.768  0.00  0.00     0.010 C 
ATOM     44  H   LIG d   1       3.995  -1.889  -5.621  0.00  0.00     0.088 H 
ATOM     45  H   LIG d   1       3.364  -0.377  -6.316  0.00  0.00     0.088 H 
BRANCH  43  46
ATOM     46  C   LIG d   1       4.331  -0.154  -4.427  0.00  0.00     0.086 A 
ATOM     47  N   LIG d   1       5.493   0.357  -4.071  0.00  0.00    -0.255 NA
ATOM     48  C   LIG d   1       5.660   0.956  -2.908  0.00  0.00     0.028 A 
ATOM     49  C   LIG d   1       4.615   1.064  -2.011  0.00  0.00    -0.044 A 
ATOM     50  H   LIG d   1       6.628   1.362  -2.651  0.00  0.00     0.083 H 
ATOM     51  C   LIG d   1       3.375   0.544  -2.353  0.00  0.00    -0.058 A 
ATOM     52  H   LIG d   1       4.760   1.552  -1.059  0.00  0.00     0.063 H 
ATOM     53  C   LIG d   1       3.237  -0.078  -3.584  0.00  0.00    -0.035 A 
ATOM     54  H   LIG d   1       2.539   0.618  -1.673  0.00  0.00     0.062 H 
ATOM     55  H   LIG d   1       2.288  -0.499  -3.880  0.00  0.00     0.064 H 
ENDBRANCH  43  46
ENDBRANCH  40  43
ENDBRANCH  37  40
ENDBRANCH   7  37
BRANCH   5  56
ATOM     56  O   LIG d   1       6.139  -4.207  -5.053  0.00  0.00    -0.386 OA
ATOM     57  H   LIG d   1       5.524  -3.766  -4.452  0.00  0.00     0.210 HD
ENDBRANCH   5  56
TORSDOF 12
ENDMDL
