MODEL 1
REMARK VINA RESULT:      -7.4      0.000      0.000
REMARK  7 active torsions:
REMARK  status: ('A' for Active; 'I' for Inactive)
REMARK    1  A    between atoms: C_4  and  C_7 
REMARK    2  A    between atoms: C_7  and  N_8 
REMARK       I    between atoms: N_8  and  C_9 
REMARK    3  A    between atoms: C_9  and  C_11 
REMARK    4  A    between atoms: C_11  and  C_12 
REMARK    5  A    between atoms: C_17  and  C_19 
REMARK    6  A    between atoms: C_19  and  C_20 
REMARK    7  A    between atoms: C_22  and  C_25 
ROOT
ATOM      1  C   LIG d   1       4.806   0.830  -8.754  0.00  0.00    -0.020 C 
ATOM      2  H   LIG d   1       5.074   1.507  -7.943  0.00  0.00     0.031 H 
ATOM      3  C   LIG d   1       4.530   1.638 -10.025  0.00  0.00    -0.009 C 
ATOM      4  C   LIG d   1       4.214   0.679 -11.175  0.00  0.00    -0.033 C 
ATOM      5  C   LIG d   1       5.606  -1.045 -10.194  0.00  0.00    -0.030 C 
ATOM      6  C   LIG d   1       5.964  -0.138  -9.015  0.00  0.00     0.008 C 
ATOM      7  H   LIG d   1       6.865   0.427  -9.251  0.00  0.00     0.036 H 
ATOM      8  H   LIG d   1       3.680   2.299  -9.858  0.00  0.00     0.032 H 
ATOM      9  H   LIG d   1       5.409   2.231 -10.277  0.00  0.00     0.032 H 
ATOM     10  H   LIG d   1       3.327   0.095 -10.928  0.00  0.00     0.081 H 
ATOM     11  H   LIG d   1       4.032   1.251 -12.085  0.00  0.00     0.081 H 
ATOM     12  H   LIG d   1       6.434  -1.727 -10.392  0.00  0.00     0.082 H 
ATOM     13  H   LIG d   1       4.712  -1.621  -9.952  0.00  0.00     0.082 H 
ATOM     14  N   LIG d   1       5.358  -0.226 -11.396  0.00  0.00     0.227 N 
ATOM     15  H   LIG d   1       6.196   0.331 -11.603  0.00  0.00     0.201 HD
ATOM     16  H   LIG d   1       5.152  -0.843 -12.190  0.00  0.00     0.201 HD
ENDROOT
BRANCH   1  17
ATOM     17  C   LIG d   1       3.554   0.039  -8.369  0.00  0.00     0.027 C 
ATOM     18  H   LIG d   1       2.821   0.106  -9.174  0.00  0.00     0.036 H 
ATOM     19  H   LIG d   1       3.820  -1.005  -8.206  0.00  0.00     0.036 H 
BRANCH  17  20
ATOM     20  C   LIG d   1       2.967   0.612  -7.105  0.00  0.00     0.214 C 
ATOM     21  N   LIG d   1       2.715  -0.193  -6.054  0.00  0.00    -0.311 N 
ATOM     22  H   LIG d   1       2.911  -1.141  -6.111  0.00  0.00     0.149 HD
ATOM     23  O   LIG d   1       2.720   1.797  -7.034  0.00  0.00    -0.276 OA
BRANCH  21  24
ATOM     24  C   LIG d   1       2.143   0.363  -4.826  0.00  0.00     0.037 C 
ATOM     25  H   LIG d   1       2.092   1.450  -4.909  0.00  0.00     0.051 H 
ATOM     26  H   LIG d   1       1.141  -0.037  -4.676  0.00  0.00     0.051 H 
BRANCH  24  27
ATOM     27  C   LIG d   1       3.013  -0.010  -3.653  0.00  0.00    -0.030 A 
ATOM     28  C   LIG d   1       3.592   0.980  -2.879  0.00  0.00    -0.057 A 
ATOM     29  C   LIG d   1       4.390   0.638  -1.803  0.00  0.00    -0.061 A 
ATOM     30  H   LIG d   1       3.421   2.019  -3.116  0.00  0.00     0.062 H 
ATOM     31  C   LIG d   1       4.608  -0.693  -1.501  0.00  0.00    -0.062 A 
ATOM     32  H   LIG d   1       4.843   1.410  -1.199  0.00  0.00     0.062 H 
ATOM     33  C   LIG d   1       4.029  -1.683  -2.274  0.00  0.00    -0.061 A 
ATOM     34  H   LIG d   1       5.232  -0.961  -0.660  0.00  0.00     0.062 H 
ATOM     35  C   LIG d   1       3.228  -1.341  -3.347  0.00  0.00    -0.057 A 
ATOM     36  H   LIG d   1       4.200  -2.722  -2.037  0.00  0.00     0.062 H 
ATOM     37  H   LIG d   1       2.772  -2.113  -3.948  0.00  0.00     0.062 H 
ENDBRANCH  24  27
ENDBRANCH  21  24
ENDBRANCH  17  20
ENDBRANCH   1  17
BRANCH   6  38
ATOM     38  C   LIG d   1       6.206  -0.992  -7.769  0.00  0.00     0.001 C 
ATOM     39  H   LIG d   1       6.996  -1.713  -7.971  0.00  0.00     0.033 H 
ATOM     40  H   LIG d   1       5.290  -1.519  -7.506  0.00  0.00     0.033 H 
BRANCH  38  41
ATOM     41  C   LIG d   1       6.619  -0.101  -6.624  0.00  0.00     0.085 A 
ATOM     42  N   LIG d   1       6.011   0.026  -5.481  0.00  0.00    -0.083 NA
ATOM     43  O   LIG d   1       6.572   0.814  -4.755  0.00  0.00    -0.353 OA
ATOM     44  C   LIG d   1       7.671   1.327  -5.342  0.00  0.00     0.183 A 
ATOM     45  C   LIG d   1       7.740   0.756  -6.583  0.00  0.00     0.009 A 
ATOM     46  H   LIG d   1       8.482   0.919  -7.351  0.00  0.00     0.068 H 
BRANCH  44  47
ATOM     47  C   LIG d   1       8.607   2.309  -4.764  0.00  0.00     0.110 C 
ATOM     48  O   LIG d   1       9.336   2.953  -5.491  0.00  0.00    -0.541 OA
ATOM     49  O   LIG d   1       8.654   2.490  -3.430  0.00  0.00    -0.541 OA
ENDBRANCH  44  47
ENDBRANCH  38  41
ENDBRANCH   6  38
TORSDOF 7
ENDMDL
MODEL 2
REMARK VINA RESULT:      -7.0      0.999      1.457
REMARK  7 active torsions:
REMARK  status: ('A' for Active; 'I' for Inactive)
REMARK    1  A    between atoms: C_4  and  C_7 
REMARK    2  A    between atoms: C_7  and  N_8 
REMARK       I    between atoms: N_8  and  C_9 
REMARK    3  A    between atoms: C_9  and  C_11 
REMARK    4  A    between atoms: C_11  and  C_12 
REMARK    5  A    between atoms: C_17  and  C_19 
REMARK    6  A    between atoms: C_19  and  C_20 
REMARK    7  A    between atoms: C_22  and  C_25 
ROOT
ATOM      1  C   LIG d   1       4.569   0.507  -9.120  0.00  0.00    -0.020 C 
ATOM      2  H   LIG d   1       4.977   1.247  -8.432  0.00  0.00     0.031 H 
ATOM      3  C   LIG d   1       4.260   1.174 -10.463  0.00  0.00    -0.009 C 
ATOM      4  C   LIG d   1       3.745   0.118 -11.444  0.00  0.00    -0.033 C 
ATOM      5  C   LIG d   1       5.039  -1.614 -10.349  0.00  0.00    -0.030 C 
ATOM      6  C   LIG d   1       5.594  -0.610  -9.336  0.00  0.00     0.008 C 
ATOM      7  H   LIG d   1       6.522  -0.184  -9.716  0.00  0.00     0.036 H 
ATOM      8  H   LIG d   1       3.500   1.941 -10.322  0.00  0.00     0.032 H 
ATOM      9  H   LIG d   1       5.168   1.627 -10.862  0.00  0.00     0.032 H 
ATOM     10  H   LIG d   1       2.830  -0.327 -11.052  0.00  0.00     0.081 H 
ATOM     11  H   LIG d   1       3.538   0.586 -12.407  0.00  0.00     0.081 H 
ATOM     12  H   LIG d   1       5.772  -2.404 -10.516  0.00  0.00     0.082 H 
ATOM     13  H   LIG d   1       4.118  -2.050  -9.962  0.00  0.00     0.082 H 
ATOM     14  N   LIG d   1       4.766  -0.931 -11.628  0.00  0.00     0.227 N 
ATOM     15  H   LIG d   1       5.633  -0.503 -11.974  0.00  0.00     0.201 HD
ATOM     16  H   LIG d   1       4.426  -1.617 -12.312  0.00  0.00     0.201 HD
ENDROOT
BRANCH   1  17
ATOM     17  C   LIG d   1       3.284  -0.083  -8.534  0.00  0.00     0.027 C 
ATOM     18  H   LIG d   1       2.471   0.038  -9.251  0.00  0.00     0.036 H 
ATOM     19  H   LIG d   1       3.432  -1.142  -8.328  0.00  0.00     0.036 H 
BRANCH  17  20
ATOM     20  C   LIG d   1       2.939   0.636  -7.255  0.00  0.00     0.214 C 
ATOM     21  N   LIG d   1       2.709  -0.068  -6.129  0.00  0.00    -0.311 N 
ATOM     22  H   LIG d   1       2.765  -1.036  -6.141  0.00  0.00     0.149 HD
ATOM     23  O   LIG d   1       2.867   1.846  -7.240  0.00  0.00    -0.276 OA
BRANCH  21  24
ATOM     24  C   LIG d   1       2.372   0.630  -4.886  0.00  0.00     0.037 C 
ATOM     25  H   LIG d   1       2.640   1.684  -4.977  0.00  0.00     0.051 H 
ATOM     26  H   LIG d   1       1.302   0.542  -4.697  0.00  0.00     0.051 H 
BRANCH  24  27
ATOM     27  C   LIG d   1       3.136   0.016  -3.741  0.00  0.00    -0.030 A 
ATOM     28  C   LIG d   1       3.319  -1.354  -3.690  0.00  0.00    -0.057 A 
ATOM     29  C   LIG d   1       4.020  -1.918  -2.640  0.00  0.00    -0.061 A 
ATOM     30  H   LIG d   1       2.915  -1.982  -4.469  0.00  0.00     0.062 H 
ATOM     31  C   LIG d   1       4.539  -1.113  -1.644  0.00  0.00    -0.062 A 
ATOM     32  H   LIG d   1       4.163  -2.988  -2.599  0.00  0.00     0.062 H 
ATOM     33  C   LIG d   1       4.356   0.257  -1.695  0.00  0.00    -0.061 A 
ATOM     34  H   LIG d   1       5.086  -1.554  -0.823  0.00  0.00     0.062 H 
ATOM     35  C   LIG d   1       3.659   0.821  -2.747  0.00  0.00    -0.057 A 
ATOM     36  H   LIG d   1       4.760   0.885  -0.916  0.00  0.00     0.062 H 
ATOM     37  H   LIG d   1       3.519   1.891  -2.790  0.00  0.00     0.062 H 
ENDBRANCH  24  27
ENDBRANCH  21  24
ENDBRANCH  17  20
ENDBRANCH   1  17
BRANCH   6  38
ATOM     38  C   LIG d   1       5.862  -1.320  -8.007  0.00  0.00     0.001 C 
ATOM     39  H   LIG d   1       6.346  -2.277  -8.198  0.00  0.00     0.033 H 
ATOM     40  H   LIG d   1       4.919  -1.487  -7.487  0.00  0.00     0.033 H 
BRANCH  38  41
ATOM     41  C   LIG d   1       6.761  -0.463  -7.153  0.00  0.00     0.085 A 
ATOM     42  N   LIG d   1       7.920   0.022  -7.490  0.00  0.00    -0.083 NA
ATOM     43  O   LIG d   1       8.414   0.674  -6.599  0.00  0.00    -0.353 OA
ATOM     44  C   LIG d   1       7.614   0.713  -5.516  0.00  0.00     0.183 A 
ATOM     45  C   LIG d   1       6.510  -0.031  -5.832  0.00  0.00     0.009 A 
ATOM     46  H   LIG d   1       5.646  -0.237  -5.217  0.00  0.00     0.068 H 
BRANCH  44  47
ATOM     47  C   LIG d   1       7.876   1.413  -4.245  0.00  0.00     0.110 C 
ATOM     48  O   LIG d   1       9.018   1.575  -3.866  0.00  0.00    -0.541 OA
ATOM     49  O   LIG d   1       6.848   1.874  -3.505  0.00  0.00    -0.541 OA
ENDBRANCH  44  47
ENDBRANCH  38  41
ENDBRANCH   6  38
TORSDOF 7
ENDMDL
MODEL 3
REMARK VINA RESULT:      -7.0      3.666      4.844
REMARK  7 active torsions:
REMARK  status: ('A' for Active; 'I' for Inactive)
REMARK    1  A    between atoms: C_4  and  C_7 
REMARK    2  A    between atoms: C_7  and  N_8 
REMARK       I    between atoms: N_8  and  C_9 
REMARK    3  A    between atoms: C_9  and  C_11 
REMARK    4  A    between atoms: C_11  and  C_12 
REMARK    5  A    between atoms: C_17  and  C_19 
REMARK    6  A    between atoms: C_19  and  C_20 
REMARK    7  A    between atoms: C_22  and  C_25 
ROOT
ATOM      1  C   LIG d   1       4.394  -1.203  -8.299  0.00  0.00    -0.020 C 
ATOM      2  H   LIG d   1       4.401  -1.613  -7.289  0.00  0.00     0.031 H 
ATOM      3  C   LIG d   1       5.627  -0.319  -8.501  0.00  0.00    -0.009 C 
ATOM      4  C   LIG d   1       5.644   0.203  -9.940  0.00  0.00    -0.033 C 
ATOM      5  C   LIG d   1       4.475  -1.767 -10.730  0.00  0.00    -0.030 C 
ATOM      6  C   LIG d   1       4.423  -2.349  -9.315  0.00  0.00     0.008 C 
ATOM      7  H   LIG d   1       5.305  -2.966  -9.143  0.00  0.00     0.036 H 
ATOM      8  H   LIG d   1       5.590   0.521  -7.809  0.00  0.00     0.032 H 
ATOM      9  H   LIG d   1       6.529  -0.905  -8.317  0.00  0.00     0.032 H 
ATOM     10  H   LIG d   1       4.749   0.799 -10.120  0.00  0.00     0.081 H 
ATOM     11  H   LIG d   1       6.529   0.822 -10.092  0.00  0.00     0.081 H 
ATOM     12  H   LIG d   1       4.510  -2.580 -11.456  0.00  0.00     0.082 H 
ATOM     13  H   LIG d   1       3.585  -1.161 -10.906  0.00  0.00     0.082 H 
ATOM     14  N   LIG d   1       5.682  -0.932 -10.882  0.00  0.00     0.227 N 
ATOM     15  H   LIG d   1       6.514  -1.503 -10.690  0.00  0.00     0.201 HD
ATOM     16  H   LIG d   1       5.726  -0.573 -11.842  0.00  0.00     0.201 HD
ENDROOT
BRANCH   1  17
ATOM     17  C   LIG d   1       3.127  -0.369  -8.504  0.00  0.00     0.027 C 
ATOM     18  H   LIG d   1       3.254   0.272  -9.377  0.00  0.00     0.036 H 
ATOM     19  H   LIG d   1       2.277  -1.032  -8.661  0.00  0.00     0.036 H 
BRANCH  17  20
ATOM     20  C   LIG d   1       2.883   0.482  -7.285  0.00  0.00     0.214 C 
ATOM     21  N   LIG d   1       2.612  -0.101  -6.101  0.00  0.00    -0.311 N 
ATOM     22  H   LIG d   1       2.573  -1.068  -6.033  0.00  0.00     0.149 HD
ATOM     23  O   LIG d   1       2.930   1.691  -7.370  0.00  0.00    -0.276 OA
BRANCH  21  24
ATOM     24  C   LIG d   1       2.373   0.726  -4.915  0.00  0.00     0.037 C 
ATOM     25  H   LIG d   1       2.714   1.744  -5.109  0.00  0.00     0.051 H 
ATOM     26  H   LIG d   1       1.308   0.737  -4.687  0.00  0.00     0.051 H 
BRANCH  24  27
ATOM     27  C   LIG d   1       3.132   0.157  -3.744  0.00  0.00    -0.030 A 
ATOM     28  C   LIG d   1       3.780   1.003  -2.863  0.00  0.00    -0.057 A 
ATOM     29  C   LIG d   1       4.476   0.481  -1.789  0.00  0.00    -0.061 A 
ATOM     30  H   LIG d   1       3.741   2.072  -3.014  0.00  0.00     0.062 H 
ATOM     31  C   LIG d   1       4.524  -0.887  -1.596  0.00  0.00    -0.062 A 
ATOM     32  H   LIG d   1       4.982   1.142  -1.100  0.00  0.00     0.062 H 
ATOM     33  C   LIG d   1       3.877  -1.733  -2.477  0.00  0.00    -0.061 A 
ATOM     34  H   LIG d   1       5.069  -1.295  -0.757  0.00  0.00     0.062 H 
ATOM     35  C   LIG d   1       3.177  -1.211  -3.549  0.00  0.00    -0.057 A 
ATOM     36  H   LIG d   1       3.915  -2.802  -2.326  0.00  0.00     0.062 H 
ATOM     37  H   LIG d   1       2.668  -1.871  -4.235  0.00  0.00     0.062 H 
ENDBRANCH  24  27
ENDBRANCH  21  24
ENDBRANCH  17  20
ENDBRANCH   1  17
BRANCH   6  38
ATOM     38  C   LIG d   1       3.163  -3.202  -9.159  0.00  0.00     0.001 C 
ATOM     39  H   LIG d   1       2.787  -3.478 -10.143  0.00  0.00     0.033 H 
ATOM     40  H   LIG d   1       2.403  -2.633  -8.625  0.00  0.00     0.033 H 
BRANCH  38  41
ATOM     41  C   LIG d   1       3.496  -4.450  -8.381  0.00  0.00     0.085 A 
ATOM     42  N   LIG d   1       3.048  -5.650  -8.608  0.00  0.00    -0.083 NA
ATOM     43  O   LIG d   1       3.487  -6.454  -7.819  0.00  0.00    -0.353 OA
ATOM     44  C   LIG d   1       4.321  -5.872  -6.936  0.00  0.00     0.183 A 
ATOM     45  C   LIG d   1       4.354  -4.544  -7.263  0.00  0.00     0.009 A 
ATOM     46  H   LIG d   1       4.910  -3.753  -6.782  0.00  0.00     0.068 H 
BRANCH  44  47
ATOM     47  C   LIG d   1       5.049  -6.532  -5.837  0.00  0.00     0.110 C 
ATOM     48  O   LIG d   1       4.574  -7.510  -5.295  0.00  0.00    -0.541 OA
ATOM     49  O   LIG d   1       6.242  -6.051  -5.434  0.00  0.00    -0.541 OA
ENDBRANCH  44  47
ENDBRANCH  38  41
ENDBRANCH   6  38
TORSDOF 7
ENDMDL
MODEL 4
REMARK VINA RESULT:      -6.8      2.589      3.153
REMARK  7 active torsions:
REMARK  status: ('A' for Active; 'I' for Inactive)
REMARK    1  A    between atoms: C_4  and  C_7 
REMARK    2  A    between atoms: C_7  and  N_8 
REMARK       I    between atoms: N_8  and  C_9 
REMARK    3  A    between atoms: C_9  and  C_11 
REMARK    4  A    between atoms: C_11  and  C_12 
REMARK    5  A    between atoms: C_17  and  C_19 
REMARK    6  A    between atoms: C_19  and  C_20 
REMARK    7  A    between atoms: C_22  and  C_25 
ROOT
ATOM      1  C   LIG d   1       4.639  -1.014  -8.449  0.00  0.00    -0.020 C 
ATOM      2  H   LIG d   1       5.052  -0.949  -7.442  0.00  0.00     0.031 H 
ATOM      3  C   LIG d   1       5.433  -0.100  -9.387  0.00  0.00    -0.009 C 
ATOM      4  C   LIG d   1       4.888  -0.241 -10.810  0.00  0.00    -0.033 C 
ATOM      5  C   LIG d   1       4.212  -2.530 -10.386  0.00  0.00    -0.030 C 
ATOM      6  C   LIG d   1       4.737  -2.458  -8.950  0.00  0.00     0.008 C 
ATOM      7  H   LIG d   1       5.777  -2.781  -8.926  0.00  0.00     0.036 H 
ATOM      8  H   LIG d   1       5.332   0.934  -9.059  0.00  0.00     0.032 H 
ATOM      9  H   LIG d   1       6.484  -0.388  -9.370  0.00  0.00     0.032 H 
ATOM     10  H   LIG d   1       3.840   0.058 -10.829  0.00  0.00     0.081 H 
ATOM     11  H   LIG d   1       5.461   0.397 -11.483  0.00  0.00     0.081 H 
ATOM     12  H   LIG d   1       4.294  -3.554 -10.752  0.00  0.00     0.082 H 
ATOM     13  H   LIG d   1       3.167  -2.219 -10.407  0.00  0.00     0.082 H 
ATOM     14  N   LIG d   1       5.011  -1.643 -11.254  0.00  0.00     0.227 N 
ATOM     15  H   LIG d   1       5.997  -1.927 -11.209  0.00  0.00     0.201 HD
ATOM     16  H   LIG d   1       4.674  -1.723 -12.221  0.00  0.00     0.201 HD
ENDROOT
BRANCH   1  17
ATOM     17  C   LIG d   1       3.172  -0.577  -8.430  0.00  0.00     0.027 C 
ATOM     18  H   LIG d   1       2.945  -0.030  -9.346  0.00  0.00     0.036 H 
ATOM     19  H   LIG d   1       2.532  -1.457  -8.364  0.00  0.00     0.036 H 
BRANCH  17  20
ATOM     20  C   LIG d   1       2.928   0.313  -7.239  0.00  0.00     0.214 C 
ATOM     21  N   LIG d   1       2.585  -0.229  -6.053  0.00  0.00    -0.311 N 
ATOM     22  H   LIG d   1       2.495  -1.190  -5.967  0.00  0.00     0.149 HD
ATOM     23  O   LIG d   1       3.040   1.516  -7.347  0.00  0.00    -0.276 OA
BRANCH  21  24
ATOM     24  C   LIG d   1       2.347   0.636  -4.895  0.00  0.00     0.037 C 
ATOM     25  H   LIG d   1       2.670   1.652  -5.128  0.00  0.00     0.051 H 
ATOM     26  H   LIG d   1       1.285   0.638  -4.654  0.00  0.00     0.051 H 
BRANCH  24  27
ATOM     27  C   LIG d   1       3.129   0.121  -3.714  0.00  0.00    -0.030 A 
ATOM     28  C   LIG d   1       3.761   1.008  -2.863  0.00  0.00    -0.057 A 
ATOM     29  C   LIG d   1       4.478   0.536  -1.779  0.00  0.00    -0.061 A 
ATOM     30  H   LIG d   1       3.695   2.071  -3.045  0.00  0.00     0.062 H 
ATOM     31  C   LIG d   1       4.561  -0.824  -1.547  0.00  0.00    -0.062 A 
ATOM     32  H   LIG d   1       4.972   1.229  -1.114  0.00  0.00     0.062 H 
ATOM     33  C   LIG d   1       3.929  -1.712  -2.398  0.00  0.00    -0.061 A 
ATOM     34  H   LIG d   1       5.122  -1.194  -0.700  0.00  0.00     0.062 H 
ATOM     35  C   LIG d   1       3.209  -1.239  -3.478  0.00  0.00    -0.057 A 
ATOM     36  H   LIG d   1       3.995  -2.774  -2.215  0.00  0.00     0.062 H 
ATOM     37  H   LIG d   1       2.711  -1.931  -4.140  0.00  0.00     0.062 H 
ENDBRANCH  24  27
ENDBRANCH  21  24
ENDBRANCH  17  20
ENDBRANCH   1  17
BRANCH   6  38
ATOM     38  C   LIG d   1       3.897  -3.368  -8.053  0.00  0.00     0.001 C 
ATOM     39  H   LIG d   1       3.779  -4.340  -8.529  0.00  0.00     0.033 H 
ATOM     40  H   LIG d   1       2.916  -2.919  -7.895  0.00  0.00     0.033 H 
BRANCH  38  41
ATOM     41  C   LIG d   1       4.589  -3.539  -6.724  0.00  0.00     0.085 A 
ATOM     42  N   LIG d   1       4.106  -4.122  -5.666  0.00  0.00    -0.083 NA
ATOM     43  O   LIG d   1       4.889  -4.110  -4.745  0.00  0.00    -0.353 OA
ATOM     44  C   LIG d   1       6.041  -3.499  -5.087  0.00  0.00     0.183 A 
ATOM     45  C   LIG d   1       5.887  -3.099  -6.386  0.00  0.00     0.009 A 
ATOM     46  H   LIG d   1       6.596  -2.574  -7.009  0.00  0.00     0.068 H 
BRANCH  44  47
ATOM     47  C   LIG d   1       7.225  -3.301  -4.232  0.00  0.00     0.110 C 
ATOM     48  O   LIG d   1       7.270  -2.360  -3.466  0.00  0.00    -0.541 OA
ATOM     49  O   LIG d   1       8.258  -4.164  -4.301  0.00  0.00    -0.541 OA
ENDBRANCH  44  47
ENDBRANCH  38  41
ENDBRANCH   6  38
TORSDOF 7
ENDMDL
MODEL 5
REMARK VINA RESULT:      -6.6      4.656      7.176
REMARK  7 active torsions:
REMARK  status: ('A' for Active; 'I' for Inactive)
REMARK    1  A    between atoms: C_4  and  C_7 
REMARK    2  A    between atoms: C_7  and  N_8 
REMARK       I    between atoms: N_8  and  C_9 
REMARK    3  A    between atoms: C_9  and  C_11 
REMARK    4  A    between atoms: C_11  and  C_12 
REMARK    5  A    between atoms: C_17  and  C_19 
REMARK    6  A    between atoms: C_19  and  C_20 
REMARK    7  A    between atoms: C_22  and  C_25 
ROOT
ATOM      1  C   LIG d   1       9.614   3.652  -4.655  0.00  0.00    -0.020 C 
ATOM      2  H   LIG d   1       8.578   3.583  -4.323  0.00  0.00     0.031 H 
ATOM      3  C   LIG d   1       9.650   3.899  -6.166  0.00  0.00    -0.009 C 
ATOM      4  C   LIG d   1      11.104   4.056  -6.617  0.00  0.00    -0.033 C 
ATOM      5  C   LIG d   1      11.739   4.945  -4.454  0.00  0.00    -0.030 C 
ATOM      6  C   LIG d   1      10.304   4.816  -3.938  0.00  0.00     0.008 C 
ATOM      7  H   LIG d   1       9.761   5.739  -4.136  0.00  0.00     0.036 H 
ATOM      8  H   LIG d   1       9.197   3.054  -6.684  0.00  0.00     0.032 H 
ATOM      9  H   LIG d   1       9.098   4.809  -6.399  0.00  0.00     0.032 H 
ATOM     10  H   LIG d   1      11.654   3.141  -6.395  0.00  0.00     0.081 H 
ATOM     11  H   LIG d   1      11.134   4.246  -7.690  0.00  0.00     0.081 H 
ATOM     12  H   LIG d   1      12.230   5.782  -3.956  0.00  0.00     0.082 H 
ATOM     13  H   LIG d   1      12.286   4.026  -4.242  0.00  0.00     0.082 H 
ATOM     14  N   LIG d   1      11.726   5.191  -5.909  0.00  0.00     0.227 N 
ATOM     15  H   LIG d   1      11.188   6.045  -6.101  0.00  0.00     0.201 HD
ATOM     16  H   LIG d   1      12.690   5.310  -6.241  0.00  0.00     0.201 HD
ENDROOT
BRANCH   1  17
ATOM     17  C   LIG d   1      10.343   2.346  -4.333  0.00  0.00     0.027 C 
ATOM     18  H   LIG d   1      11.270   2.298  -4.905  0.00  0.00     0.036 H 
ATOM     19  H   LIG d   1      10.572   2.311  -3.268  0.00  0.00     0.036 H 
BRANCH  17  20
ATOM     20  C   LIG d   1       9.465   1.177  -4.697  0.00  0.00     0.214 C 
ATOM     21  N   LIG d   1       8.409   0.861  -3.922  0.00  0.00    -0.311 N 
ATOM     22  H   LIG d   1       8.214   1.386  -3.130  0.00  0.00     0.149 HD
ATOM     23  O   LIG d   1       9.709   0.520  -5.687  0.00  0.00    -0.276 OA
BRANCH  21  24
ATOM     24  C   LIG d   1       7.555  -0.276  -4.275  0.00  0.00     0.037 C 
ATOM     25  H   LIG d   1       7.254  -0.193  -5.319  0.00  0.00     0.051 H 
ATOM     26  H   LIG d   1       8.107  -1.205  -4.129  0.00  0.00     0.051 H 
BRANCH  24  27
ATOM     27  C   LIG d   1       6.330  -0.277  -3.397  0.00  0.00    -0.030 A 
ATOM     28  C   LIG d   1       5.821   0.917  -2.922  0.00  0.00    -0.057 A 
ATOM     29  C   LIG d   1       4.697   0.917  -2.116  0.00  0.00    -0.061 A 
ATOM     30  H   LIG d   1       6.300   1.850  -3.179  0.00  0.00     0.062 H 
ATOM     31  C   LIG d   1       4.083  -0.277  -1.787  0.00  0.00    -0.062 A 
ATOM     32  H   LIG d   1       4.298   1.850  -1.744  0.00  0.00     0.062 H 
ATOM     33  C   LIG d   1       4.593  -1.471  -2.263  0.00  0.00    -0.061 A 
ATOM     34  H   LIG d   1       3.205  -0.278  -1.158  0.00  0.00     0.062 H 
ATOM     35  C   LIG d   1       5.713  -1.471  -3.071  0.00  0.00    -0.057 A 
ATOM     36  H   LIG d   1       4.113  -2.404  -2.005  0.00  0.00     0.062 H 
ATOM     37  H   LIG d   1       6.110  -2.402  -3.447  0.00  0.00     0.062 H 
ENDBRANCH  24  27
ENDBRANCH  21  24
ENDBRANCH  17  20
ENDBRANCH   1  17
BRANCH   6  38
ATOM     38  C   LIG d   1      10.325   4.547  -2.432  0.00  0.00     0.001 C 
ATOM     39  H   LIG d   1      11.284   4.113  -2.154  0.00  0.00     0.033 H 
ATOM     40  H   LIG d   1       9.524   3.854  -2.176  0.00  0.00     0.033 H 
BRANCH  38  41
ATOM     41  C   LIG d   1      10.125   5.843  -1.689  0.00  0.00     0.085 A 
ATOM     42  N   LIG d   1      10.284   6.039  -0.413  0.00  0.00    -0.083 NA
ATOM     43  O   LIG d   1      10.051   7.183  -0.098  0.00  0.00    -0.353 OA
ATOM     44  C   LIG d   1       9.699   7.925  -1.166  0.00  0.00     0.183 A 
ATOM     45  C   LIG d   1       9.727   7.081  -2.241  0.00  0.00     0.009 A 
ATOM     46  H   LIG d   1       9.503   7.308  -3.273  0.00  0.00     0.068 H 
BRANCH  44  47
ATOM     47  C   LIG d   1       9.352   9.358  -1.173  0.00  0.00     0.110 C 
ATOM     48  O   LIG d   1       8.410   9.758  -0.519  0.00  0.00    -0.541 OA
ATOM     49  O   LIG d   1      10.080  10.224  -1.905  0.00  0.00    -0.541 OA
ENDBRANCH  44  47
ENDBRANCH  38  41
ENDBRANCH   6  38
TORSDOF 7
ENDMDL
MODEL 6
REMARK VINA RESULT:      -6.5      5.185      7.782
REMARK  7 active torsions:
REMARK  status: ('A' for Active; 'I' for Inactive)
REMARK    1  A    between atoms: C_4  and  C_7 
REMARK    2  A    between atoms: C_7  and  N_8 
REMARK       I    between atoms: N_8  and  C_9 
REMARK    3  A    between atoms: C_9  and  C_11 
REMARK    4  A    between atoms: C_11  and  C_12 
REMARK    5  A    between atoms: C_17  and  C_19 
REMARK    6  A    between atoms: C_19  and  C_20 
REMARK    7  A    between atoms: C_22  and  C_25 
ROOT
ATOM      1  C   LIG d   1       9.673   4.045  -3.925  0.00  0.00    -0.020 C 
ATOM      2  H   LIG d   1       8.671   3.965  -3.505  0.00  0.00     0.031 H 
ATOM      3  C   LIG d   1       9.576   4.309  -5.430  0.00  0.00    -0.009 C 
ATOM      4  C   LIG d   1      10.984   4.481  -6.005  0.00  0.00    -0.033 C 
ATOM      5  C   LIG d   1      11.800   5.351  -3.895  0.00  0.00    -0.030 C 
ATOM      6  C   LIG d   1      10.417   5.205  -3.258  0.00  0.00     0.008 C 
ATOM      7  H   LIG d   1       9.853   6.127  -3.397  0.00  0.00     0.036 H 
ATOM      8  H   LIG d   1       9.085   3.467  -5.916  0.00  0.00     0.032 H 
ATOM      9  H   LIG d   1       8.999   5.218  -5.604  0.00  0.00     0.032 H 
ATOM     10  H   LIG d   1      11.557   3.568  -5.843  0.00  0.00     0.081 H 
ATOM     11  H   LIG d   1      10.918   4.684  -7.074  0.00  0.00     0.081 H 
ATOM     12  H   LIG d   1      12.328   6.186  -3.432  0.00  0.00     0.082 H 
ATOM     13  H   LIG d   1      12.369   4.433  -3.743  0.00  0.00     0.082 H 
ATOM     14  N   LIG d   1      11.658   5.613  -5.340  0.00  0.00     0.227 N 
ATOM     15  H   LIG d   1      11.100   6.465  -5.475  0.00  0.00     0.201 HD
ATOM     16  H   LIG d   1      12.589   5.743  -5.754  0.00  0.00     0.201 HD
ENDROOT
BRANCH   1  17
ATOM     17  C   LIG d   1      10.436   2.741  -3.683  0.00  0.00     0.027 C 
ATOM     18  H   LIG d   1      11.397   2.783  -4.196  0.00  0.00     0.036 H 
ATOM     19  H   LIG d   1      10.600   2.609  -2.614  0.00  0.00     0.036 H 
BRANCH  17  20
ATOM     20  C   LIG d   1       9.632   1.582  -4.214  0.00  0.00     0.214 C 
ATOM     21  N   LIG d   1       8.394   1.347  -3.737  0.00  0.00    -0.311 N 
ATOM     22  H   LIG d   1       8.020   1.923  -3.052  0.00  0.00     0.149 HD
ATOM     23  O   LIG d   1      10.100   0.861  -5.070  0.00  0.00    -0.276 OA
BRANCH  21  24
ATOM     24  C   LIG d   1       7.612   0.220  -4.253  0.00  0.00     0.037 C 
ATOM     25  H   LIG d   1       7.308   0.429  -5.279  0.00  0.00     0.051 H 
ATOM     26  H   LIG d   1       8.219  -0.685  -4.230  0.00  0.00     0.051 H 
BRANCH  24  27
ATOM     27  C   LIG d   1       6.388   0.024  -3.396  0.00  0.00    -0.030 A 
ATOM     28  C   LIG d   1       5.737   1.121  -2.860  0.00  0.00    -0.057 A 
ATOM     29  C   LIG d   1       4.614   0.941  -2.074  0.00  0.00    -0.061 A 
ATOM     30  H   LIG d   1       6.107   2.116  -3.055  0.00  0.00     0.062 H 
ATOM     31  C   LIG d   1       4.141  -0.334  -1.826  0.00  0.00    -0.062 A 
ATOM     32  H   LIG d   1       4.106   1.797  -1.655  0.00  0.00     0.062 H 
ATOM     33  C   LIG d   1       4.791  -1.430  -2.362  0.00  0.00    -0.061 A 
ATOM     34  H   LIG d   1       3.263  -0.474  -1.211  0.00  0.00     0.062 H 
ATOM     35  C   LIG d   1       5.912  -1.250  -3.151  0.00  0.00    -0.057 A 
ATOM     36  H   LIG d   1       4.422  -2.425  -2.168  0.00  0.00     0.062 H 
ATOM     37  H   LIG d   1       6.418  -2.105  -3.574  0.00  0.00     0.062 H 
ENDBRANCH  24  27
ENDBRANCH  21  24
ENDBRANCH  17  20
ENDBRANCH   1  17
BRANCH   6  38
ATOM     38  C   LIG d   1      10.571   4.920  -1.762  0.00  0.00     0.001 C 
ATOM     39  H   LIG d   1      11.547   4.475  -1.576  0.00  0.00     0.033 H 
ATOM     40  H   LIG d   1       9.790   4.231  -1.442  0.00  0.00     0.033 H 
BRANCH  38  41
ATOM     41  C   LIG d   1      10.450   6.209  -0.991  0.00  0.00     0.085 A 
ATOM     42  N   LIG d   1       9.464   7.056  -1.042  0.00  0.00    -0.083 NA
ATOM     43  O   LIG d   1       9.641   8.003  -0.312  0.00  0.00    -0.353 OA
ATOM     44  C   LIG d   1      10.811   7.902   0.349  0.00  0.00     0.183 A 
ATOM     45  C   LIG d   1      11.385   6.734  -0.071  0.00  0.00     0.009 A 
ATOM     46  H   LIG d   1      12.331   6.309   0.232  0.00  0.00     0.068 H 
BRANCH  44  47
ATOM     47  C   LIG d   1      11.362   8.859   1.327  0.00  0.00     0.110 C 
ATOM     48  O   LIG d   1      11.296  10.052   1.112  0.00  0.00    -0.541 OA
ATOM     49  O   LIG d   1      11.937   8.408   2.460  0.00  0.00    -0.541 OA
ENDBRANCH  44  47
ENDBRANCH  38  41
ENDBRANCH   6  38
TORSDOF 7
ENDMDL
MODEL 7
REMARK VINA RESULT:      -6.5      2.245      2.748
REMARK  7 active torsions:
REMARK  status: ('A' for Active; 'I' for Inactive)
REMARK    1  A    between atoms: C_4  and  C_7 
REMARK    2  A    between atoms: C_7  and  N_8 
REMARK       I    between atoms: N_8  and  C_9 
REMARK    3  A    between atoms: C_9  and  C_11 
REMARK    4  A    between atoms: C_11  and  C_12 
REMARK    5  A    between atoms: C_17  and  C_19 
REMARK    6  A    between atoms: C_19  and  C_20 
REMARK    7  A    between atoms: C_22  and  C_25 
ROOT
ATOM      1  C   LIG d   1       3.401  -0.071  -9.590  0.00  0.00    -0.020 C 
ATOM      2  H   LIG d   1       3.528   0.992  -9.380  0.00  0.00     0.031 H 
ATOM      3  C   LIG d   1       2.366  -0.251 -10.703  0.00  0.00    -0.009 C 
ATOM      4  C   LIG d   1       2.237  -1.739 -11.036  0.00  0.00    -0.033 C 
ATOM      5  C   LIG d   1       4.539  -2.142 -10.395  0.00  0.00    -0.030 C 
ATOM      6  C   LIG d   1       4.737  -0.666 -10.044  0.00  0.00     0.008 C 
ATOM      7  H   LIG d   1       5.097  -0.127 -10.920  0.00  0.00     0.036 H 
ATOM      8  H   LIG d   1       1.403   0.133 -10.370  0.00  0.00     0.032 H 
ATOM      9  H   LIG d   1       2.689   0.293 -11.592  0.00  0.00     0.032 H 
ATOM     10  H   LIG d   1       1.902  -2.281 -10.152  0.00  0.00     0.081 H 
ATOM     11  H   LIG d   1       1.511  -1.870 -11.840  0.00  0.00     0.081 H 
ATOM     12  H   LIG d   1       5.485  -2.565 -10.732  0.00  0.00     0.082 H 
ATOM     13  H   LIG d   1       4.193  -2.682  -9.514  0.00  0.00     0.082 H 
ATOM     14  N   LIG d   1       3.543  -2.266 -11.477  0.00  0.00     0.227 N 
ATOM     15  H   LIG d   1       3.864  -1.735 -12.295  0.00  0.00     0.201 HD
ATOM     16  H   LIG d   1       3.440  -3.256 -11.730  0.00  0.00     0.201 HD
ENDROOT
BRANCH   1  17
ATOM     17  C   LIG d   1       2.923  -0.789  -8.326  0.00  0.00     0.027 C 
ATOM     18  H   LIG d   1       1.942  -1.228  -8.508  0.00  0.00     0.036 H 
ATOM     19  H   LIG d   1       3.631  -1.576  -8.066  0.00  0.00     0.036 H 
BRANCH  17  20
ATOM     20  C   LIG d   1       2.830   0.198  -7.191  0.00  0.00     0.214 C 
ATOM     21  N   LIG d   1       2.465  -0.220  -5.964  0.00  0.00    -0.311 N 
ATOM     22  H   LIG d   1       2.262  -1.156  -5.810  0.00  0.00     0.149 HD
ATOM     23  O   LIG d   1       3.083   1.369  -7.384  0.00  0.00    -0.276 OA
BRANCH  21  24
ATOM     24  C   LIG d   1       2.373   0.740  -4.861  0.00  0.00     0.037 C 
ATOM     25  H   LIG d   1       2.791   1.697  -5.177  0.00  0.00     0.051 H 
ATOM     26  H   LIG d   1       1.329   0.875  -4.580  0.00  0.00     0.051 H 
BRANCH  24  27
ATOM     27  C   LIG d   1       3.148   0.221  -3.677  0.00  0.00    -0.030 A 
ATOM     28  C   LIG d   1       3.218  -1.140  -3.440  0.00  0.00    -0.057 A 
ATOM     29  C   LIG d   1       3.928  -1.617  -2.354  0.00  0.00    -0.061 A 
ATOM     30  H   LIG d   1       2.718  -1.830  -4.104  0.00  0.00     0.062 H 
ATOM     31  C   LIG d   1       4.568  -0.733  -1.506  0.00  0.00    -0.062 A 
ATOM     32  H   LIG d   1       3.983  -2.680  -2.169  0.00  0.00     0.062 H 
ATOM     33  C   LIG d   1       4.498   0.627  -1.742  0.00  0.00    -0.061 A 
ATOM     34  H   LIG d   1       5.123  -1.106  -0.656  0.00  0.00     0.062 H 
ATOM     35  C   LIG d   1       3.792   1.104  -2.830  0.00  0.00    -0.057 A 
ATOM     36  H   LIG d   1       4.998   1.317  -1.078  0.00  0.00     0.062 H 
ATOM     37  H   LIG d   1       3.740   2.166  -3.018  0.00  0.00     0.062 H 
ENDBRANCH  24  27
ENDBRANCH  21  24
ENDBRANCH  17  20
ENDBRANCH   1  17
BRANCH   6  38
ATOM     38  C   LIG d   1       5.761  -0.543  -8.913  0.00  0.00     0.001 C 
ATOM     39  H   LIG d   1       6.495  -1.343  -8.999  0.00  0.00     0.033 H 
ATOM     40  H   LIG d   1       5.252  -0.617  -7.952  0.00  0.00     0.033 H 
BRANCH  38  41
ATOM     41  C   LIG d   1       6.458   0.791  -9.009  0.00  0.00     0.085 A 
ATOM     42  N   LIG d   1       5.919   1.926  -9.345  0.00  0.00    -0.083 NA
ATOM     43  O   LIG d   1       6.723   2.829  -9.337  0.00  0.00    -0.353 OA
ATOM     44  C   LIG d   1       7.946   2.395  -8.974  0.00  0.00     0.183 A 
ATOM     45  C   LIG d   1       7.822   1.051  -8.753  0.00  0.00     0.009 A 
ATOM     46  H   LIG d   1       8.587   0.352  -8.448  0.00  0.00     0.068 H 
BRANCH  44  47
ATOM     47  C   LIG d   1       9.171   3.205  -8.844  0.00  0.00     0.110 C 
ATOM     48  O   LIG d   1       9.149   4.241  -8.210  0.00  0.00    -0.541 OA
ATOM     49  O   LIG d   1      10.315   2.796  -9.428  0.00  0.00    -0.541 OA
ENDBRANCH  44  47
ENDBRANCH  38  41
ENDBRANCH   6  38
TORSDOF 7
ENDMDL
MODEL 8
REMARK VINA RESULT:      -6.4      3.565      5.684
REMARK  7 active torsions:
REMARK  status: ('A' for Active; 'I' for Inactive)
REMARK    1  A    between atoms: C_4  and  C_7 
REMARK    2  A    between atoms: C_7  and  N_8 
REMARK       I    between atoms: N_8  and  C_9 
REMARK    3  A    between atoms: C_9  and  C_11 
REMARK    4  A    between atoms: C_11  and  C_12 
REMARK    5  A    between atoms: C_17  and  C_19 
REMARK    6  A    between atoms: C_19  and  C_20 
REMARK    7  A    between atoms: C_22  and  C_25 
ROOT
ATOM      1  C   LIG d   1       5.018  -4.741  -6.140  0.00  0.00    -0.020 C 
ATOM      2  H   LIG d   1       4.667  -3.812  -5.691  0.00  0.00     0.031 H 
ATOM      3  C   LIG d   1       4.488  -5.930  -5.333  0.00  0.00    -0.009 C 
ATOM      4  C   LIG d   1       4.934  -7.232  -6.001  0.00  0.00    -0.033 C 
ATOM      5  C   LIG d   1       4.951  -6.175  -8.182  0.00  0.00    -0.030 C 
ATOM      6  C   LIG d   1       4.506  -4.841  -7.579  0.00  0.00     0.008 C 
ATOM      7  H   LIG d   1       3.417  -4.785  -7.583  0.00  0.00     0.036 H 
ATOM      8  H   LIG d   1       4.883  -5.887  -4.319  0.00  0.00     0.032 H 
ATOM      9  H   LIG d   1       3.399  -5.892  -5.302  0.00  0.00     0.032 H 
ATOM     10  H   LIG d   1       6.023  -7.277  -6.021  0.00  0.00     0.081 H 
ATOM     11  H   LIG d   1       4.545  -8.082  -5.438  0.00  0.00     0.081 H 
ATOM     12  H   LIG d   1       4.576  -6.256  -9.203  0.00  0.00     0.082 H 
ATOM     13  H   LIG d   1       6.041  -6.224  -8.191  0.00  0.00     0.082 H 
ATOM     14  N   LIG d   1       4.410  -7.290  -7.380  0.00  0.00     0.227 N 
ATOM     15  H   LIG d   1       3.386  -7.222  -7.356  0.00  0.00     0.201 HD
ATOM     16  H   LIG d   1       4.686  -8.181  -7.809  0.00  0.00     0.201 HD
ENDROOT
BRANCH   1  17
ATOM     17  C   LIG d   1       6.548  -4.764  -6.138  0.00  0.00     0.027 C 
ATOM     18  H   LIG d   1       6.895  -5.791  -6.019  0.00  0.00     0.036 H 
ATOM     19  H   LIG d   1       6.918  -4.363  -7.081  0.00  0.00     0.036 H 
BRANCH  17  20
ATOM     20  C   LIG d   1       7.062  -3.923  -4.997  0.00  0.00     0.214 C 
ATOM     21  N   LIG d   1       6.454  -2.761  -4.691  0.00  0.00    -0.311 N 
ATOM     22  H   LIG d   1       5.686  -2.465  -5.204  0.00  0.00     0.149 HD
ATOM     23  O   LIG d   1       8.023  -4.293  -4.357  0.00  0.00    -0.276 OA
BRANCH  21  24
ATOM     24  C   LIG d   1       6.953  -1.943  -3.583  0.00  0.00     0.037 C 
ATOM     25  H   LIG d   1       7.256  -2.592  -2.760  0.00  0.00     0.051 H 
ATOM     26  H   LIG d   1       7.809  -1.358  -3.919  0.00  0.00     0.051 H 
BRANCH  24  27
ATOM     27  C   LIG d   1       5.864  -1.014  -3.113  0.00  0.00    -0.030 A 
ATOM     28  C   LIG d   1       4.645  -1.526  -2.709  0.00  0.00    -0.057 A 
ATOM     29  C   LIG d   1       3.645  -0.674  -2.279  0.00  0.00    -0.061 A 
ATOM     30  H   LIG d   1       4.474  -2.592  -2.731  0.00  0.00     0.062 H 
ATOM     31  C   LIG d   1       3.866   0.691  -2.251  0.00  0.00    -0.062 A 
ATOM     32  H   LIG d   1       2.693  -1.074  -1.963  0.00  0.00     0.062 H 
ATOM     33  C   LIG d   1       5.085   1.203  -2.654  0.00  0.00    -0.061 A 
ATOM     34  H   LIG d   1       3.084   1.357  -1.914  0.00  0.00     0.062 H 
ATOM     35  C   LIG d   1       6.085   0.351  -3.080  0.00  0.00    -0.057 A 
ATOM     36  H   LIG d   1       5.256   2.269  -2.632  0.00  0.00     0.062 H 
ATOM     37  H   LIG d   1       7.039   0.750  -3.392  0.00  0.00     0.062 H 
ENDBRANCH  24  27
ENDBRANCH  21  24
ENDBRANCH  17  20
ENDBRANCH   1  17
BRANCH   6  38
ATOM     38  C   LIG d   1       5.080  -3.689  -8.406  0.00  0.00     0.001 C 
ATOM     39  H   LIG d   1       5.121  -3.980  -9.455  0.00  0.00     0.033 H 
ATOM     40  H   LIG d   1       6.084  -3.454  -8.054  0.00  0.00     0.033 H 
BRANCH  38  41
ATOM     41  C   LIG d   1       4.199  -2.475  -8.256  0.00  0.00     0.085 A 
ATOM     42  N   LIG d   1       3.098  -2.230  -8.903  0.00  0.00    -0.083 NA
ATOM     43  O   LIG d   1       2.604  -1.176  -8.574  0.00  0.00    -0.353 OA
ATOM     44  C   LIG d   1       3.339  -0.564  -7.624  0.00  0.00     0.183 A 
ATOM     45  C   LIG d   1       4.408  -1.383  -7.385  0.00  0.00     0.009 A 
ATOM     46  H   LIG d   1       5.221  -1.232  -6.689  0.00  0.00     0.068 H 
BRANCH  44  47
ATOM     47  C   LIG d   1       3.049   0.728  -6.976  0.00  0.00     0.110 C 
ATOM     48  O   LIG d   1       2.888   0.781  -5.774  0.00  0.00    -0.541 OA
ATOM     49  O   LIG d   1       2.964   1.850  -7.718  0.00  0.00    -0.541 OA
ENDBRANCH  44  47
ENDBRANCH  38  41
ENDBRANCH   6  38
TORSDOF 7
ENDMDL
MODEL 9
REMARK VINA RESULT:      -6.3      2.431      6.035
REMARK  7 active torsions:
REMARK  status: ('A' for Active; 'I' for Inactive)
REMARK    1  A    between atoms: C_4  and  C_7 
REMARK    2  A    between atoms: C_7  and  N_8 
REMARK       I    between atoms: N_8  and  C_9 
REMARK    3  A    between atoms: C_9  and  C_11 
REMARK    4  A    between atoms: C_11  and  C_12 
REMARK    5  A    between atoms: C_17  and  C_19 
REMARK    6  A    between atoms: C_19  and  C_20 
REMARK    7  A    between atoms: C_22  and  C_25 
ROOT
ATOM      1  C   LIG d   1       8.111   1.729  -6.285  0.00  0.00    -0.020 C 
ATOM      2  H   LIG d   1       7.096   2.085  -6.108  0.00  0.00     0.031 H 
ATOM      3  C   LIG d   1       9.110   2.827  -5.912  0.00  0.00    -0.009 C 
ATOM      4  C   LIG d   1      10.535   2.301  -6.103  0.00  0.00    -0.033 C 
ATOM      5  C   LIG d   1       9.822   0.034  -5.627  0.00  0.00    -0.030 C 
ATOM      6  C   LIG d   1       8.377   0.492  -5.421  0.00  0.00     0.008 C 
ATOM      7  H   LIG d   1       8.220   0.741  -4.371  0.00  0.00     0.036 H 
ATOM      8  H   LIG d   1       8.953   3.694  -6.552  0.00  0.00     0.032 H 
ATOM      9  H   LIG d   1       8.966   3.112  -4.869  0.00  0.00     0.032 H 
ATOM     10  H   LIG d   1      10.684   2.028  -7.148  0.00  0.00     0.081 H 
ATOM     11  H   LIG d   1      11.249   3.076  -5.824  0.00  0.00     0.081 H 
ATOM     12  H   LIG d   1      10.019  -0.838  -5.002  0.00  0.00     0.082 H 
ATOM     13  H   LIG d   1       9.975  -0.228  -6.674  0.00  0.00     0.082 H 
ATOM     14  N   LIG d   1      10.748   1.118  -5.246  0.00  0.00     0.227 N 
ATOM     15  H   LIG d   1      10.581   1.376  -4.266  0.00  0.00     0.201 HD
ATOM     16  H   LIG d   1      11.715   0.792  -5.356  0.00  0.00     0.201 HD
ENDROOT
BRANCH   1  17
ATOM     17  C   LIG d   1       8.278   1.366  -7.762  0.00  0.00     0.027 C 
ATOM     18  H   LIG d   1       9.258   1.696  -8.108  0.00  0.00     0.036 H 
ATOM     19  H   LIG d   1       8.194   0.286  -7.883  0.00  0.00     0.036 H 
BRANCH  17  20
ATOM     20  C   LIG d   1       7.203   2.047  -8.570  0.00  0.00     0.214 C 
ATOM     21  N   LIG d   1       5.916   1.677  -8.426  0.00  0.00    -0.311 N 
ATOM     22  H   LIG d   1       5.680   0.973  -7.802  0.00  0.00     0.149 HD
ATOM     23  O   LIG d   1       7.498   2.927  -9.352  0.00  0.00    -0.276 OA
BRANCH  21  24
ATOM     24  C   LIG d   1       4.871   2.338  -9.212  0.00  0.00     0.037 C 
ATOM     25  H   LIG d   1       4.319   3.029  -8.574  0.00  0.00     0.051 H 
ATOM     26  H   LIG d   1       5.328   2.888 -10.035  0.00  0.00     0.051 H 
BRANCH  24  27
ATOM     27  C   LIG d   1       3.927   1.302  -9.765  0.00  0.00    -0.030 A 
ATOM     28  C   LIG d   1       2.861   0.862  -9.002  0.00  0.00    -0.057 A 
ATOM     29  C   LIG d   1       1.994  -0.089  -9.509  0.00  0.00    -0.061 A 
ATOM     30  H   LIG d   1       2.705   1.261  -8.011  0.00  0.00     0.062 H 
ATOM     31  C   LIG d   1       2.194  -0.598 -10.778  0.00  0.00    -0.062 A 
ATOM     32  H   LIG d   1       1.161  -0.433  -8.914  0.00  0.00     0.062 H 
ATOM     33  C   LIG d   1       3.260  -0.159 -11.541  0.00  0.00    -0.061 A 
ATOM     34  H   LIG d   1       1.517  -1.342 -11.174  0.00  0.00     0.062 H 
ATOM     35  C   LIG d   1       4.124   0.795 -11.036  0.00  0.00    -0.057 A 
ATOM     36  H   LIG d   1       3.416  -0.558 -12.532  0.00  0.00     0.062 H 
ATOM     37  H   LIG d   1       4.954   1.142 -11.632  0.00  0.00     0.062 H 
ENDBRANCH  24  27
ENDBRANCH  21  24
ENDBRANCH  17  20
ENDBRANCH   1  17
BRANCH   6  38
ATOM     38  C   LIG d   1       7.421  -0.631  -5.829  0.00  0.00     0.001 C 
ATOM     39  H   LIG d   1       7.761  -1.571  -5.398  0.00  0.00     0.033 H 
ATOM     40  H   LIG d   1       7.402  -0.714  -6.915  0.00  0.00     0.033 H 
BRANCH  38  41
ATOM     41  C   LIG d   1       6.035  -0.318  -5.325  0.00  0.00     0.085 A 
ATOM     42  N   LIG d   1       5.002   0.009  -6.045  0.00  0.00    -0.083 NA
ATOM     43  O   LIG d   1       4.020   0.203  -5.366  0.00  0.00    -0.353 OA
ATOM     44  C   LIG d   1       4.282   0.018  -4.058  0.00  0.00     0.183 A 
ATOM     45  C   LIG d   1       5.605  -0.322  -3.980  0.00  0.00     0.009 A 
ATOM     46  H   LIG d   1       6.185  -0.546  -3.096  0.00  0.00     0.068 H 
BRANCH  44  47
ATOM     47  C   LIG d   1       3.335   0.157  -2.936  0.00  0.00     0.110 C 
ATOM     48  O   LIG d   1       3.439   1.090  -2.166  0.00  0.00    -0.541 OA
ATOM     49  O   LIG d   1       2.355  -0.752  -2.766  0.00  0.00    -0.541 OA
ENDBRANCH  44  47
ENDBRANCH  38  41
ENDBRANCH   6  38
TORSDOF 7
ENDMDL
