MODEL 1
REMARK VINA RESULT:      -5.7      0.000      0.000
REMARK  12 active torsions:
REMARK  status: ('A' for Active; 'I' for Inactive)
REMARK    1  A    between atoms: C_1  and  C_2 
REMARK       I    between atoms: C_2  and  N_4 
REMARK    2  A    between atoms: N_4  and  C_5 
REMARK    3  A    between atoms: C_5  and  C_6 
REMARK    4  A    between atoms: C_5  and  C_7 
REMARK    5  A    between atoms: C_5  and  C_22 
REMARK    6  A    between atoms: C_7  and  C_8 
REMARK    7  A    between atoms: C_11  and  O_18 
REMARK    8  A    between atoms: C_12  and  O_14 
REMARK    9  A    between atoms: O_14  and  C_15 
REMARK   10  A    between atoms: C_15  and  C_17 
REMARK   11  A    between atoms: O_18  and  C_19 
REMARK   12  A    between atoms: C_19  and  C_21 
ROOT
ATOM      1  C   LIG d   1       3.251  -0.127  -6.792  0.00  0.00    -0.041 A 
ATOM      2  C   LIG d   1       2.602   0.676  -5.873  0.00  0.00    -0.055 A 
ATOM      3  C   LIG d   1       2.919   0.592  -4.531  0.00  0.00    -0.015 A 
ATOM      4  C   LIG d   1       3.892  -0.299  -4.103  0.00  0.00     0.174 A 
ATOM      5  C   LIG d   1       4.546  -1.106  -5.027  0.00  0.00     0.174 A 
ATOM      6  C   LIG d   1       4.225  -1.014  -6.373  0.00  0.00    -0.012 A 
ATOM      7  H   LIG d   1       1.844   1.370  -6.204  0.00  0.00     0.062 H 
ATOM      8  H   LIG d   1       2.410   1.221  -3.815  0.00  0.00     0.066 H 
ATOM      9  H   LIG d   1       4.735  -1.636  -7.093  0.00  0.00     0.066 H 
ENDROOT
BRANCH   1  10
ATOM     10  C   LIG d   1       2.902  -0.031  -8.254  0.00  0.00    -0.001 C 
ATOM     11  H   LIG d   1       2.932  -1.025  -8.702  0.00  0.00     0.034 H 
ATOM     12  H   LIG d   1       1.899   0.385  -8.362  0.00  0.00     0.034 H 
BRANCH  10  13
ATOM     13  C   LIG d   1       3.909   0.878  -8.962  0.00  0.00     0.075 C 
BRANCH  13  14
ATOM     14  N   LIG d   1       5.188   0.839  -8.249  0.00  0.00    -0.305 N 
ATOM     15  C   LIG d   1       6.176   1.688  -8.593  0.00  0.00     0.211 C 
ATOM     16  O   LIG d   1       6.008   2.485  -9.492  0.00  0.00    -0.276 OA
ATOM     17  H   LIG d   1       5.323   0.202  -7.531  0.00  0.00     0.150 HD
BRANCH  15  18
ATOM     18  C   LIG d   1       7.492   1.648  -7.859  0.00  0.00     0.012 C 
ATOM     19  H   LIG d   1       7.583   2.531  -7.227  0.00  0.00     0.032 H 
ATOM     20  H   LIG d   1       7.536   0.752  -7.240  0.00  0.00     0.032 H 
ATOM     21  H   LIG d   1       8.310   1.631  -8.580  0.00  0.00     0.032 H 
ENDBRANCH  15  18
ENDBRANCH  13  14
BRANCH  13  22
ATOM     22  C   LIG d   1       3.377   2.313  -8.979  0.00  0.00    -0.038 C 
ATOM     23  H   LIG d   1       2.698   2.458  -8.137  0.00  0.00     0.025 H 
ATOM     24  H   LIG d   1       4.210   3.010  -8.897  0.00  0.00     0.025 H 
ATOM     25  H   LIG d   1       2.843   2.492  -9.911  0.00  0.00     0.025 H 
ENDBRANCH  13  22
BRANCH  13  26
ATOM     26  C   LIG d   1       4.108   0.400 -10.378  0.00  0.00     0.065 C 
ATOM     27  O   LIG d   1       3.768   1.098 -11.305  0.00  0.00    -0.548 OA
ATOM     28  O   LIG d   1       4.661  -0.801 -10.609  0.00  0.00    -0.548 OA
ENDBRANCH  13  26
ENDBRANCH  10  13
ENDBRANCH   1  10
BRANCH   5  29
ATOM     29  O   LIG d   1       5.501  -1.982  -4.614  0.00  0.00    -0.422 OA
BRANCH  29  30
ATOM     30  C   LIG d   1       5.180  -3.285  -4.630  0.00  0.00     0.309 C 
ATOM     31  O   LIG d   1       4.237  -3.684  -3.989  0.00  0.00    -0.251 OA
BRANCH  30  32
ATOM     32  C   LIG d   1       5.997  -4.252  -5.449  0.00  0.00     0.034 C 
ATOM     33  H   LIG d   1       5.850  -4.044  -6.509  0.00  0.00     0.034 H 
ATOM     34  H   LIG d   1       5.680  -5.271  -5.231  0.00  0.00     0.034 H 
ATOM     35  H   LIG d   1       7.052  -4.139  -5.200  0.00  0.00     0.034 H 
ENDBRANCH  30  32
ENDBRANCH  29  30
ENDBRANCH   5  29
BRANCH   4  36
ATOM     36  O   LIG d   1       4.206  -0.382  -2.783  0.00  0.00    -0.422 OA
BRANCH  36  37
ATOM     37  C   LIG d   1       4.968   0.599  -2.275  0.00  0.00     0.309 C 
ATOM     38  O   LIG d   1       4.706   1.070  -1.193  0.00  0.00    -0.251 OA
BRANCH  37  39
ATOM     39  C   LIG d   1       6.152   1.114  -3.053  0.00  0.00     0.034 C 
ATOM     40  H   LIG d   1       6.366   2.140  -2.753  0.00  0.00     0.034 H 
ATOM     41  H   LIG d   1       7.021   0.487  -2.852  0.00  0.00     0.034 H 
ATOM     42  H   LIG d   1       5.923   1.089  -4.119  0.00  0.00     0.034 H 
ENDBRANCH  37  39
ENDBRANCH  36  37
ENDBRANCH   4  36
TORSDOF 12
ENDMDL
MODEL 2
REMARK VINA RESULT:      -5.6      1.223      2.773
REMARK  12 active torsions:
REMARK  status: ('A' for Active; 'I' for Inactive)
REMARK    1  A    between atoms: C_1  and  C_2 
REMARK       I    between atoms: C_2  and  N_4 
REMARK    2  A    between atoms: N_4  and  C_5 
REMARK    3  A    between atoms: C_5  and  C_6 
REMARK    4  A    between atoms: C_5  and  C_7 
REMARK    5  A    between atoms: C_5  and  C_22 
REMARK    6  A    between atoms: C_7  and  C_8 
REMARK    7  A    between atoms: C_11  and  O_18 
REMARK    8  A    between atoms: C_12  and  O_14 
REMARK    9  A    between atoms: O_14  and  C_15 
REMARK   10  A    between atoms: C_15  and  C_17 
REMARK   11  A    between atoms: O_18  and  C_19 
REMARK   12  A    between atoms: C_19  and  C_21 
ROOT
ATOM      1  C   LIG d   1       3.531  -0.381  -6.969  0.00  0.00    -0.041 A 
ATOM      2  C   LIG d   1       4.543  -1.321  -7.049  0.00  0.00    -0.055 A 
ATOM      3  C   LIG d   1       5.107  -1.834  -5.897  0.00  0.00    -0.015 A 
ATOM      4  C   LIG d   1       4.660  -1.406  -4.656  0.00  0.00     0.174 A 
ATOM      5  C   LIG d   1       3.642  -0.461  -4.575  0.00  0.00     0.174 A 
ATOM      6  C   LIG d   1       3.077   0.045  -5.735  0.00  0.00    -0.012 A 
ATOM      7  H   LIG d   1       4.892  -1.655  -8.014  0.00  0.00     0.062 H 
ATOM      8  H   LIG d   1       5.897  -2.568  -5.963  0.00  0.00     0.066 H 
ATOM      9  H   LIG d   1       2.284   0.776  -5.675  0.00  0.00     0.066 H 
ENDROOT
BRANCH   1  10
ATOM     10  C   LIG d   1       2.919   0.173  -8.228  0.00  0.00    -0.001 C 
ATOM     11  H   LIG d   1       2.622  -0.648  -8.880  0.00  0.00     0.034 H 
ATOM     12  H   LIG d   1       2.043   0.771  -7.974  0.00  0.00     0.034 H 
BRANCH  10  13
ATOM     13  C   LIG d   1       3.943   1.052  -8.950  0.00  0.00     0.075 C 
BRANCH  13  14
ATOM     14  N   LIG d   1       5.230   0.976  -8.255  0.00  0.00    -0.305 N 
ATOM     15  C   LIG d   1       6.230   1.811  -8.597  0.00  0.00     0.211 C 
ATOM     16  O   LIG d   1       6.066   2.626  -9.480  0.00  0.00    -0.276 OA
ATOM     17  H   LIG d   1       5.361   0.324  -7.549  0.00  0.00     0.150 HD
BRANCH  15  18
ATOM     18  C   LIG d   1       7.555   1.733  -7.881  0.00  0.00     0.012 C 
ATOM     19  H   LIG d   1       7.613   2.527  -7.138  0.00  0.00     0.032 H 
ATOM     20  H   LIG d   1       7.644   0.765  -7.387  0.00  0.00     0.032 H 
ATOM     21  H   LIG d   1       8.364   1.849  -8.602  0.00  0.00     0.032 H 
ENDBRANCH  15  18
ENDBRANCH  13  14
BRANCH  13  22
ATOM     22  C   LIG d   1       3.453   2.502  -8.961  0.00  0.00    -0.038 C 
ATOM     23  H   LIG d   1       2.808   2.673  -8.098  0.00  0.00     0.025 H 
ATOM     24  H   LIG d   1       4.309   3.175  -8.913  0.00  0.00     0.025 H 
ATOM     25  H   LIG d   1       2.893   2.690  -9.876  0.00  0.00     0.025 H 
ENDBRANCH  13  22
BRANCH  13  26
ATOM     26  C   LIG d   1       4.108   0.568 -10.368  0.00  0.00     0.065 C 
ATOM     27  O   LIG d   1       3.787   1.280 -11.291  0.00  0.00    -0.548 OA
ATOM     28  O   LIG d   1       4.611  -0.653 -10.606  0.00  0.00    -0.548 OA
ENDBRANCH  13  26
ENDBRANCH  10  13
ENDBRANCH   1  10
BRANCH   5  29
ATOM     29  O   LIG d   1       3.199  -0.038  -3.361  0.00  0.00    -0.422 OA
BRANCH  29  30
ATOM     30  C   LIG d   1       3.752   1.080  -2.866  0.00  0.00     0.309 C 
ATOM     31  O   LIG d   1       3.609   2.132  -3.442  0.00  0.00    -0.251 OA
BRANCH  30  32
ATOM     32  C   LIG d   1       4.552   1.023  -1.589  0.00  0.00     0.034 C 
ATOM     33  H   LIG d   1       3.928   0.631  -0.787  0.00  0.00     0.034 H 
ATOM     34  H   LIG d   1       4.891   2.026  -1.329  0.00  0.00     0.034 H 
ATOM     35  H   LIG d   1       5.415   0.374  -1.730  0.00  0.00     0.034 H 
ENDBRANCH  30  32
ENDBRANCH  29  30
ENDBRANCH   5  29
BRANCH   4  36
ATOM     36  O   LIG d   1       5.214  -1.910  -3.521  0.00  0.00    -0.422 OA
BRANCH  36  37
ATOM     37  C   LIG d   1       6.527  -1.701  -3.339  0.00  0.00     0.309 C 
ATOM     38  O   LIG d   1       6.935  -0.588  -3.102  0.00  0.00    -0.251 OA
BRANCH  37  39
ATOM     39  C   LIG d   1       7.494  -2.854  -3.431  0.00  0.00     0.034 C 
ATOM     40  H   LIG d   1       6.940  -3.793  -3.444  0.00  0.00     0.034 H 
ATOM     41  H   LIG d   1       8.081  -2.764  -4.345  0.00  0.00     0.034 H 
ATOM     42  H   LIG d   1       8.160  -2.838  -2.567  0.00  0.00     0.034 H 
ENDBRANCH  37  39
ENDBRANCH  36  37
ENDBRANCH   4  36
TORSDOF 12
ENDMDL
MODEL 3
REMARK VINA RESULT:      -5.2      1.685      2.233
REMARK  12 active torsions:
REMARK  status: ('A' for Active; 'I' for Inactive)
REMARK    1  A    between atoms: C_1  and  C_2 
REMARK       I    between atoms: C_2  and  N_4 
REMARK    2  A    between atoms: N_4  and  C_5 
REMARK    3  A    between atoms: C_5  and  C_6 
REMARK    4  A    between atoms: C_5  and  C_7 
REMARK    5  A    between atoms: C_5  and  C_22 
REMARK    6  A    between atoms: C_7  and  C_8 
REMARK    7  A    between atoms: C_11  and  O_18 
REMARK    8  A    between atoms: C_12  and  O_14 
REMARK    9  A    between atoms: O_14  and  C_15 
REMARK   10  A    between atoms: C_15  and  C_17 
REMARK   11  A    between atoms: O_18  and  C_19 
REMARK   12  A    between atoms: C_19  and  C_21 
ROOT
ATOM      1  C   LIG d   1       3.999  -0.425  -7.534  0.00  0.00    -0.041 A 
ATOM      2  C   LIG d   1       2.906   0.330  -7.154  0.00  0.00    -0.055 A 
ATOM      3  C   LIG d   1       2.608   0.498  -5.815  0.00  0.00    -0.015 A 
ATOM      4  C   LIG d   1       3.406  -0.093  -4.848  0.00  0.00     0.174 A 
ATOM      5  C   LIG d   1       4.507  -0.853  -5.230  0.00  0.00     0.174 A 
ATOM      6  C   LIG d   1       4.803  -1.013  -6.574  0.00  0.00    -0.012 A 
ATOM      7  H   LIG d   1       2.282   0.791  -7.906  0.00  0.00     0.062 H 
ATOM      8  H   LIG d   1       1.753   1.089  -5.522  0.00  0.00     0.066 H 
ATOM      9  H   LIG d   1       5.659  -1.599  -6.873  0.00  0.00     0.066 H 
ENDROOT
BRANCH   1  10
ATOM     10  C   LIG d   1       4.320  -0.603  -8.994  0.00  0.00    -0.001 C 
ATOM     11  H   LIG d   1       4.810  -1.566  -9.145  0.00  0.00     0.034 H 
ATOM     12  H   LIG d   1       3.397  -0.571  -9.576  0.00  0.00     0.034 H 
BRANCH  10  13
ATOM     13  C   LIG d   1       5.252   0.520  -9.454  0.00  0.00     0.075 C 
BRANCH  13  14
ATOM     14  N   LIG d   1       6.010   0.077 -10.626  0.00  0.00    -0.305 N 
ATOM     15  C   LIG d   1       6.798  -1.012 -10.546  0.00  0.00     0.211 C 
ATOM     16  O   LIG d   1       6.881  -1.627  -9.503  0.00  0.00    -0.276 OA
ATOM     17  H   LIG d   1       5.944   0.569 -11.460  0.00  0.00     0.150 HD
BRANCH  15  18
ATOM     18  C   LIG d   1       7.579  -1.468 -11.752  0.00  0.00     0.012 C 
ATOM     19  H   LIG d   1       8.224  -2.300 -11.474  0.00  0.00     0.032 H 
ATOM     20  H   LIG d   1       6.887  -1.790 -12.532  0.00  0.00     0.032 H 
ATOM     21  H   LIG d   1       8.188  -0.644 -12.124  0.00  0.00     0.032 H 
ENDBRANCH  15  18
ENDBRANCH  13  14
BRANCH  13  22
ATOM     22  C   LIG d   1       6.219   0.874  -8.323  0.00  0.00    -0.038 C 
ATOM     23  H   LIG d   1       6.724   1.812  -8.557  0.00  0.00     0.025 H 
ATOM     24  H   LIG d   1       5.664   0.984  -7.391  0.00  0.00     0.025 H 
ATOM     25  H   LIG d   1       6.958   0.081  -8.215  0.00  0.00     0.025 H 
ENDBRANCH  13  22
BRANCH  13  26
ATOM     26  C   LIG d   1       4.434   1.735  -9.814  0.00  0.00     0.065 C 
ATOM     27  O   LIG d   1       3.728   1.719 -10.794  0.00  0.00    -0.548 OA
ATOM     28  O   LIG d   1       4.491   2.833  -9.045  0.00  0.00    -0.548 OA
ENDBRANCH  13  26
ENDBRANCH  10  13
ENDBRANCH   1  10
BRANCH   5  29
ATOM     29  O   LIG d   1       5.294  -1.435  -4.286  0.00  0.00    -0.422 OA
BRANCH  29  30
ATOM     30  C   LIG d   1       5.323  -2.777  -4.259  0.00  0.00     0.309 C 
ATOM     31  O   LIG d   1       4.344  -3.396  -3.916  0.00  0.00    -0.251 OA
BRANCH  30  32
ATOM     32  C   LIG d   1       6.577  -3.512  -4.659  0.00  0.00     0.034 C 
ATOM     33  H   LIG d   1       6.422  -3.998  -5.621  0.00  0.00     0.034 H 
ATOM     34  H   LIG d   1       6.812  -4.264  -3.906  0.00  0.00     0.034 H 
ATOM     35  H   LIG d   1       7.403  -2.806  -4.737  0.00  0.00     0.034 H 
ENDBRANCH  30  32
ENDBRANCH  29  30
ENDBRANCH   5  29
BRANCH   4  36
ATOM     36  O   LIG d   1       3.115   0.071  -3.530  0.00  0.00    -0.422 OA
BRANCH  36  37
ATOM     37  C   LIG d   1       3.706   1.097  -2.899  0.00  0.00     0.309 C 
ATOM     38  O   LIG d   1       3.577   2.222  -3.321  0.00  0.00    -0.251 OA
BRANCH  37  39
ATOM     39  C   LIG d   1       4.531   0.846  -1.662  0.00  0.00     0.034 C 
ATOM     40  H   LIG d   1       4.665   1.782  -1.119  0.00  0.00     0.034 H 
ATOM     41  H   LIG d   1       4.022   0.124  -1.024  0.00  0.00     0.034 H 
ATOM     42  H   LIG d   1       5.506   0.452  -1.951  0.00  0.00     0.034 H 
ENDBRANCH  37  39
ENDBRANCH  36  37
ENDBRANCH   4  36
TORSDOF 12
ENDMDL
MODEL 4
REMARK VINA RESULT:      -5.2      3.228      5.788
REMARK  12 active torsions:
REMARK  status: ('A' for Active; 'I' for Inactive)
REMARK    1  A    between atoms: C_1  and  C_2 
REMARK       I    between atoms: C_2  and  N_4 
REMARK    2  A    between atoms: N_4  and  C_5 
REMARK    3  A    between atoms: C_5  and  C_6 
REMARK    4  A    between atoms: C_5  and  C_7 
REMARK    5  A    between atoms: C_5  and  C_22 
REMARK    6  A    between atoms: C_7  and  C_8 
REMARK    7  A    between atoms: C_11  and  O_18 
REMARK    8  A    between atoms: C_12  and  O_14 
REMARK    9  A    between atoms: O_14  and  C_15 
REMARK   10  A    between atoms: C_15  and  C_17 
REMARK   11  A    between atoms: O_18  and  C_19 
REMARK   12  A    between atoms: C_19  and  C_21 
ROOT
ATOM      1  C   LIG d   1       5.561  -1.961  -3.489  0.00  0.00    -0.041 A 
ATOM      2  C   LIG d   1       6.932  -1.816  -3.388  0.00  0.00    -0.055 A 
ATOM      3  C   LIG d   1       7.774  -2.723  -4.002  0.00  0.00    -0.015 A 
ATOM      4  C   LIG d   1       7.244  -3.784  -4.721  0.00  0.00     0.174 A 
ATOM      5  C   LIG d   1       5.865  -3.930  -4.823  0.00  0.00     0.174 A 
ATOM      6  C   LIG d   1       5.026  -3.013  -4.208  0.00  0.00    -0.012 A 
ATOM      7  H   LIG d   1       7.346  -0.991  -2.828  0.00  0.00     0.062 H 
ATOM      8  H   LIG d   1       8.845  -2.606  -3.921  0.00  0.00     0.066 H 
ATOM      9  H   LIG d   1       3.955  -3.122  -4.290  0.00  0.00     0.066 H 
ENDROOT
BRANCH   1  10
ATOM     10  C   LIG d   1       4.648  -0.968  -2.818  0.00  0.00    -0.001 C 
ATOM     11  H   LIG d   1       3.614  -1.295  -2.925  0.00  0.00     0.034 H 
ATOM     12  H   LIG d   1       4.900  -0.900  -1.759  0.00  0.00     0.034 H 
BRANCH  10  13
ATOM     13  C   LIG d   1       4.819   0.405  -3.471  0.00  0.00     0.075 C 
BRANCH  13  14
ATOM     14  N   LIG d   1       4.545   0.301  -4.907  0.00  0.00    -0.305 N 
ATOM     15  C   LIG d   1       3.301   0.012  -5.336  0.00  0.00     0.211 C 
ATOM     16  O   LIG d   1       2.408  -0.164  -4.534  0.00  0.00    -0.276 OA
ATOM     17  H   LIG d   1       5.260   0.442  -5.547  0.00  0.00     0.150 HD
BRANCH  15  18
ATOM     18  C   LIG d   1       3.020  -0.095  -6.813  0.00  0.00     0.012 C 
ATOM     19  H   LIG d   1       2.336   0.700  -7.110  0.00  0.00     0.032 H 
ATOM     20  H   LIG d   1       3.953   0.002  -7.369  0.00  0.00     0.032 H 
ATOM     21  H   LIG d   1       2.567  -1.063  -7.028  0.00  0.00     0.032 H 
ENDBRANCH  15  18
ENDBRANCH  13  14
BRANCH  13  22
ATOM     22  C   LIG d   1       6.252   0.896  -3.258  0.00  0.00    -0.038 C 
ATOM     23  H   LIG d   1       6.271   1.618  -2.441  0.00  0.00     0.025 H 
ATOM     24  H   LIG d   1       6.893   0.050  -3.009  0.00  0.00     0.025 H 
ATOM     25  H   LIG d   1       6.614   1.370  -4.170  0.00  0.00     0.025 H 
ENDBRANCH  13  22
BRANCH  13  26
ATOM     26  C   LIG d   1       3.856   1.382  -2.846  0.00  0.00     0.065 C 
ATOM     27  O   LIG d   1       3.303   1.104  -1.807  0.00  0.00    -0.548 OA
ATOM     28  O   LIG d   1       3.612   2.559  -3.442  0.00  0.00    -0.548 OA
ENDBRANCH  13  26
ENDBRANCH  10  13
ENDBRANCH   1  10
BRANCH   5  29
ATOM     29  O   LIG d   1       5.339  -4.968  -5.527  0.00  0.00    -0.422 OA
BRANCH  29  30
ATOM     30  C   LIG d   1       4.338  -4.684  -6.374  0.00  0.00     0.309 C 
ATOM     31  O   LIG d   1       3.283  -5.264  -6.279  0.00  0.00    -0.251 OA
BRANCH  30  32
ATOM     32  C   LIG d   1       4.530  -3.640  -7.445  0.00  0.00     0.034 C 
ATOM     33  H   LIG d   1       5.536  -3.227  -7.374  0.00  0.00     0.034 H 
ATOM     34  H   LIG d   1       3.799  -2.843  -7.309  0.00  0.00     0.034 H 
ATOM     35  H   LIG d   1       4.391  -4.095  -8.425  0.00  0.00     0.034 H 
ENDBRANCH  30  32
ENDBRANCH  29  30
ENDBRANCH   5  29
BRANCH   4  36
ATOM     36  O   LIG d   1       8.071  -4.677  -5.326  0.00  0.00    -0.422 OA
BRANCH  36  37
ATOM     37  C   LIG d   1       8.881  -4.205  -6.286  0.00  0.00     0.309 C 
ATOM     38  O   LIG d   1      10.079  -4.217  -6.127  0.00  0.00    -0.251 OA
BRANCH  37  39
ATOM     39  C   LIG d   1       8.297  -3.658  -7.564  0.00  0.00     0.034 C 
ATOM     40  H   LIG d   1       7.515  -4.328  -7.922  0.00  0.00     0.034 H 
ATOM     41  H   LIG d   1       7.875  -2.671  -7.378  0.00  0.00     0.034 H 
ATOM     42  H   LIG d   1       9.081  -3.582  -8.318  0.00  0.00     0.034 H 
ENDBRANCH  37  39
ENDBRANCH  36  37
ENDBRANCH   4  36
TORSDOF 12
ENDMDL
MODEL 5
REMARK VINA RESULT:      -5.2      2.259      6.395
REMARK  12 active torsions:
REMARK  status: ('A' for Active; 'I' for Inactive)
REMARK    1  A    between atoms: C_1  and  C_2 
REMARK       I    between atoms: C_2  and  N_4 
REMARK    2  A    between atoms: N_4  and  C_5 
REMARK    3  A    between atoms: C_5  and  C_6 
REMARK    4  A    between atoms: C_5  and  C_7 
REMARK    5  A    between atoms: C_5  and  C_22 
REMARK    6  A    between atoms: C_7  and  C_8 
REMARK    7  A    between atoms: C_11  and  O_18 
REMARK    8  A    between atoms: C_12  and  O_14 
REMARK    9  A    between atoms: O_14  and  C_15 
REMARK   10  A    between atoms: C_15  and  C_17 
REMARK   11  A    between atoms: O_18  and  C_19 
REMARK   12  A    between atoms: C_19  and  C_21 
ROOT
ATOM      1  C   LIG d   1       3.682  -0.880  -5.577  0.00  0.00    -0.041 A 
ATOM      2  C   LIG d   1       4.431  -1.930  -6.075  0.00  0.00    -0.055 A 
ATOM      3  C   LIG d   1       4.513  -2.139  -7.439  0.00  0.00    -0.015 A 
ATOM      4  C   LIG d   1       3.843  -1.294  -8.311  0.00  0.00     0.174 A 
ATOM      5  C   LIG d   1       3.090  -0.238  -7.810  0.00  0.00     0.174 A 
ATOM      6  C   LIG d   1       3.016  -0.032  -6.441  0.00  0.00    -0.012 A 
ATOM      7  H   LIG d   1       4.953  -2.589  -5.398  0.00  0.00     0.062 H 
ATOM      8  H   LIG d   1       5.099  -2.960  -7.825  0.00  0.00     0.066 H 
ATOM      9  H   LIG d   1       2.435   0.791  -6.050  0.00  0.00     0.066 H 
ENDROOT
BRANCH   1  10
ATOM     10  C   LIG d   1       3.597  -0.657  -4.090  0.00  0.00    -0.001 C 
ATOM     11  H   LIG d   1       2.771   0.022  -3.871  0.00  0.00     0.034 H 
ATOM     12  H   LIG d   1       3.426  -1.610  -3.588  0.00  0.00     0.034 H 
BRANCH  10  13
ATOM     13  C   LIG d   1       4.907  -0.044  -3.589  0.00  0.00     0.075 C 
BRANCH  13  14
ATOM     14  N   LIG d   1       5.735   0.341  -4.734  0.00  0.00    -0.305 N 
ATOM     15  C   LIG d   1       7.021   0.697  -4.545  0.00  0.00     0.211 C 
ATOM     16  O   LIG d   1       7.493   0.699  -3.427  0.00  0.00    -0.276 OA
ATOM     17  H   LIG d   1       5.358   0.339  -5.627  0.00  0.00     0.150 HD
BRANCH  15  18
ATOM     18  C   LIG d   1       7.874   1.093  -5.723  0.00  0.00     0.012 C 
ATOM     19  H   LIG d   1       7.413   1.934  -6.238  0.00  0.00     0.032 H 
ATOM     20  H   LIG d   1       8.866   1.380  -5.372  0.00  0.00     0.032 H 
ATOM     21  H   LIG d   1       7.961   0.249  -6.408  0.00  0.00     0.032 H 
ENDBRANCH  15  18
ENDBRANCH  13  14
BRANCH  13  22
ATOM     22  C   LIG d   1       5.656  -1.071  -2.737  0.00  0.00    -0.038 C 
ATOM     23  H   LIG d   1       5.281  -1.036  -1.714  0.00  0.00     0.025 H 
ATOM     24  H   LIG d   1       5.498  -2.068  -3.148  0.00  0.00     0.025 H 
ATOM     25  H   LIG d   1       6.721  -0.840  -2.743  0.00  0.00     0.025 H 
ENDBRANCH  13  22
BRANCH  13  26
ATOM     26  C   LIG d   1       4.604   1.175  -2.755  0.00  0.00     0.065 C 
ATOM     27  O   LIG d   1       4.101   2.148  -3.267  0.00  0.00    -0.548 OA
ATOM     28  O   LIG d   1       4.893   1.180  -1.445  0.00  0.00    -0.548 OA
ENDBRANCH  13  26
ENDBRANCH  10  13
ENDBRANCH   1  10
BRANCH   5  29
ATOM     29  O   LIG d   1       2.431   0.594  -8.661  0.00  0.00    -0.422 OA
BRANCH  29  30
ATOM     30  C   LIG d   1       3.024   1.762  -8.951  0.00  0.00     0.309 C 
ATOM     31  O   LIG d   1       2.986   2.673  -8.159  0.00  0.00    -0.251 OA
BRANCH  30  32
ATOM     32  C   LIG d   1       3.738   1.938 -10.268  0.00  0.00     0.034 C 
ATOM     33  H   LIG d   1       3.560   1.066 -10.897  0.00  0.00     0.034 H 
ATOM     34  H   LIG d   1       4.808   2.044 -10.088  0.00  0.00     0.034 H 
ATOM     35  H   LIG d   1       3.364   2.830 -10.768  0.00  0.00     0.034 H 
ENDBRANCH  30  32
ENDBRANCH  29  30
ENDBRANCH   5  29
BRANCH   4  36
ATOM     36  O   LIG d   1       3.924  -1.498  -9.653  0.00  0.00    -0.422 OA
BRANCH  36  37
ATOM     37  C   LIG d   1       3.326  -2.597 -10.139  0.00  0.00     0.309 C 
ATOM     38  O   LIG d   1       3.992  -3.487 -10.614  0.00  0.00    -0.251 OA
BRANCH  37  39
ATOM     39  C   LIG d   1       1.825  -2.722 -10.093  0.00  0.00     0.034 C 
ATOM     40  H   LIG d   1       1.464  -3.121 -11.042  0.00  0.00     0.034 H 
ATOM     41  H   LIG d   1       1.540  -3.395  -9.284  0.00  0.00     0.034 H 
ATOM     42  H   LIG d   1       1.384  -1.740  -9.922  0.00  0.00     0.034 H 
ENDBRANCH  37  39
ENDBRANCH  36  37
ENDBRANCH   4  36
TORSDOF 12
ENDMDL
MODEL 6
REMARK VINA RESULT:      -5.1      3.590      5.656
REMARK  12 active torsions:
REMARK  status: ('A' for Active; 'I' for Inactive)
REMARK    1  A    between atoms: C_1  and  C_2 
REMARK       I    between atoms: C_2  and  N_4 
REMARK    2  A    between atoms: N_4  and  C_5 
REMARK    3  A    between atoms: C_5  and  C_6 
REMARK    4  A    between atoms: C_5  and  C_7 
REMARK    5  A    between atoms: C_5  and  C_22 
REMARK    6  A    between atoms: C_7  and  C_8 
REMARK    7  A    between atoms: C_11  and  O_18 
REMARK    8  A    between atoms: C_12  and  O_14 
REMARK    9  A    between atoms: O_14  and  C_15 
REMARK   10  A    between atoms: C_15  and  C_17 
REMARK   11  A    between atoms: O_18  and  C_19 
REMARK   12  A    between atoms: C_19  and  C_21 
ROOT
ATOM      1  C   LIG d   1       5.787  -2.198  -3.552  0.00  0.00    -0.041 A 
ATOM      2  C   LIG d   1       7.149  -2.301  -3.340  0.00  0.00    -0.055 A 
ATOM      3  C   LIG d   1       7.917  -3.124  -4.140  0.00  0.00    -0.015 A 
ATOM      4  C   LIG d   1       7.322  -3.851  -5.160  0.00  0.00     0.174 A 
ATOM      5  C   LIG d   1       5.951  -3.749  -5.374  0.00  0.00     0.174 A 
ATOM      6  C   LIG d   1       5.188  -2.917  -4.570  0.00  0.00    -0.012 A 
ATOM      7  H   LIG d   1       7.614  -1.735  -2.546  0.00  0.00     0.062 H 
ATOM      8  H   LIG d   1       8.981  -3.201  -3.972  0.00  0.00     0.066 H 
ATOM      9  H   LIG d   1       4.124  -2.832  -4.737  0.00  0.00     0.066 H 
ENDROOT
BRANCH   1  10
ATOM     10  C   LIG d   1       4.955  -1.298  -2.677  0.00  0.00    -0.001 C 
ATOM     11  H   LIG d   1       3.999  -1.778  -2.466  0.00  0.00     0.034 H 
ATOM     12  H   LIG d   1       5.482  -1.113  -1.740  0.00  0.00     0.034 H 
BRANCH  10  13
ATOM     13  C   LIG d   1       4.710   0.030  -3.396  0.00  0.00     0.075 C 
BRANCH  13  14
ATOM     14  N   LIG d   1       5.738   0.227  -4.422  0.00  0.00    -0.305 N 
ATOM     15  C   LIG d   1       6.815   0.992  -4.157  0.00  0.00     0.211 C 
ATOM     16  O   LIG d   1       6.935   1.518  -3.071  0.00  0.00    -0.276 OA
ATOM     17  H   LIG d   1       5.641  -0.193  -5.290  0.00  0.00     0.150 HD
BRANCH  15  18
ATOM     18  C   LIG d   1       7.872   1.194  -5.213  0.00  0.00     0.012 C 
ATOM     19  H   LIG d   1       7.922   2.250  -5.478  0.00  0.00     0.032 H 
ATOM     20  H   LIG d   1       8.839   0.871  -4.825  0.00  0.00     0.032 H 
ATOM     21  H   LIG d   1       7.620   0.608  -6.097  0.00  0.00     0.032 H 
ENDBRANCH  15  18
ENDBRANCH  13  14
BRANCH  13  22
ATOM     22  C   LIG d   1       4.772   1.176  -2.384  0.00  0.00    -0.038 C 
ATOM     23  H   LIG d   1       3.865   1.174  -1.778  0.00  0.00     0.025 H 
ATOM     24  H   LIG d   1       5.640   1.044  -1.738  0.00  0.00     0.025 H 
ATOM     25  H   LIG d   1       4.853   2.125  -2.913  0.00  0.00     0.025 H 
ENDBRANCH  13  22
BRANCH  13  26
ATOM     26  C   LIG d   1       3.350   0.007  -4.045  0.00  0.00     0.065 C 
ATOM     27  O   LIG d   1       3.157   0.625  -5.066  0.00  0.00    -0.548 OA
ATOM     28  O   LIG d   1       2.354  -0.700  -3.490  0.00  0.00    -0.548 OA
ENDBRANCH  13  26
ENDBRANCH  10  13
ENDBRANCH   1  10
BRANCH   5  29
ATOM     29  O   LIG d   1       5.362  -4.459  -6.372  0.00  0.00    -0.422 OA
BRANCH  29  30
ATOM     30  C   LIG d   1       4.518  -5.437  -6.008  0.00  0.00     0.309 C 
ATOM     31  O   LIG d   1       3.325  -5.276  -6.110  0.00  0.00    -0.251 OA
BRANCH  30  32
ATOM     32  C   LIG d   1       5.059  -6.738  -5.472  0.00  0.00     0.034 C 
ATOM     33  H   LIG d   1       5.289  -7.406  -6.302  0.00  0.00     0.034 H 
ATOM     34  H   LIG d   1       4.313  -7.203  -4.828  0.00  0.00     0.034 H 
ATOM     35  H   LIG d   1       5.965  -6.546  -4.898  0.00  0.00     0.034 H 
ENDBRANCH  30  32
ENDBRANCH  29  30
ENDBRANCH   5  29
BRANCH   4  36
ATOM     36  O   LIG d   1       8.076  -4.662  -5.949  0.00  0.00    -0.422 OA
BRANCH  36  37
ATOM     37  C   LIG d   1       9.001  -5.418  -5.337  0.00  0.00     0.309 C 
ATOM     38  O   LIG d   1      10.175  -5.168  -5.477  0.00  0.00    -0.251 OA
BRANCH  37  39
ATOM     39  C   LIG d   1       8.576  -6.580  -4.477  0.00  0.00     0.034 C 
ATOM     40  H   LIG d   1       8.220  -6.210  -3.515  0.00  0.00     0.034 H 
ATOM     41  H   LIG d   1       7.777  -7.129  -4.975  0.00  0.00     0.034 H 
ATOM     42  H   LIG d   1       9.428  -7.243  -4.317  0.00  0.00     0.034 H 
ENDBRANCH  37  39
ENDBRANCH  36  37
ENDBRANCH   4  36
TORSDOF 12
ENDMDL
MODEL 7
REMARK VINA RESULT:      -4.9      2.229      3.185
REMARK  12 active torsions:
REMARK  status: ('A' for Active; 'I' for Inactive)
REMARK    1  A    between atoms: C_1  and  C_2 
REMARK       I    between atoms: C_2  and  N_4 
REMARK    2  A    between atoms: N_4  and  C_5 
REMARK    3  A    between atoms: C_5  and  C_6 
REMARK    4  A    between atoms: C_5  and  C_7 
REMARK    5  A    between atoms: C_5  and  C_22 
REMARK    6  A    between atoms: C_7  and  C_8 
REMARK    7  A    between atoms: C_11  and  O_18 
REMARK    8  A    between atoms: C_12  and  O_14 
REMARK    9  A    between atoms: O_14  and  C_15 
REMARK   10  A    between atoms: C_15  and  C_17 
REMARK   11  A    between atoms: O_18  and  C_19 
REMARK   12  A    between atoms: C_19  and  C_21 
ROOT
ATOM      1  C   LIG d   1       3.727  -0.390  -7.334  0.00  0.00    -0.041 A 
ATOM      2  C   LIG d   1       2.748   0.339  -6.684  0.00  0.00    -0.055 A 
ATOM      3  C   LIG d   1       2.705   0.367  -5.303  0.00  0.00    -0.015 A 
ATOM      4  C   LIG d   1       3.645  -0.336  -4.566  0.00  0.00     0.174 A 
ATOM      5  C   LIG d   1       4.630  -1.069  -5.219  0.00  0.00     0.174 A 
ATOM      6  C   LIG d   1       4.670  -1.089  -6.605  0.00  0.00    -0.012 A 
ATOM      7  H   LIG d   1       2.015   0.887  -7.257  0.00  0.00     0.062 H 
ATOM      8  H   LIG d   1       1.939   0.937  -4.799  0.00  0.00     0.066 H 
ATOM      9  H   LIG d   1       5.437  -1.653  -7.114  0.00  0.00     0.066 H 
ENDROOT
BRANCH   1  10
ATOM     10  C   LIG d   1       3.770  -0.416  -8.839  0.00  0.00    -0.001 C 
ATOM     11  H   LIG d   1       3.136   0.377  -9.235  0.00  0.00     0.034 H 
ATOM     12  H   LIG d   1       4.796  -0.262  -9.177  0.00  0.00     0.034 H 
BRANCH  10  13
ATOM     13  C   LIG d   1       3.267  -1.770  -9.342  0.00  0.00     0.075 C 
BRANCH  13  14
ATOM     14  N   LIG d   1       3.332  -2.750  -8.255  0.00  0.00    -0.305 N 
ATOM     15  C   LIG d   1       3.675  -4.026  -8.519  0.00  0.00     0.211 C 
ATOM     16  O   LIG d   1       3.929  -4.365  -9.656  0.00  0.00    -0.276 OA
ATOM     17  H   LIG d   1       3.129  -2.480  -7.346  0.00  0.00     0.150 HD
BRANCH  15  18
ATOM     18  C   LIG d   1       3.743  -5.035  -7.400  0.00  0.00     0.012 C 
ATOM     19  H   LIG d   1       2.840  -5.644  -7.406  0.00  0.00     0.032 H 
ATOM     20  H   LIG d   1       4.615  -5.675  -7.541  0.00  0.00     0.032 H 
ATOM     21  H   LIG d   1       3.825  -4.514  -6.446  0.00  0.00     0.032 H 
ENDBRANCH  15  18
ENDBRANCH  13  14
BRANCH  13  22
ATOM     22  C   LIG d   1       4.141  -2.239 -10.506  0.00  0.00    -0.038 C 
ATOM     23  H   LIG d   1       5.133  -1.794 -10.417  0.00  0.00     0.025 H 
ATOM     24  H   LIG d   1       4.228  -3.326 -10.482  0.00  0.00     0.025 H 
ATOM     25  H   LIG d   1       3.688  -1.932 -11.448  0.00  0.00     0.025 H 
ENDBRANCH  13  22
BRANCH  13  26
ATOM     26  C   LIG d   1       1.840  -1.633  -9.809  0.00  0.00     0.065 C 
ATOM     27  O   LIG d   1       1.326  -0.541  -9.870  0.00  0.00    -0.548 OA
ATOM     28  O   LIG d   1       1.140  -2.724 -10.158  0.00  0.00    -0.548 OA
ENDBRANCH  13  26
ENDBRANCH  10  13
ENDBRANCH   1  10
BRANCH   5  29
ATOM     29  O   LIG d   1       5.555  -1.761  -4.501  0.00  0.00    -0.422 OA
BRANCH  29  30
ATOM     30  C   LIG d   1       5.477  -3.100  -4.537  0.00  0.00     0.309 C 
ATOM     31  O   LIG d   1       4.473  -3.658  -4.164  0.00  0.00    -0.251 OA
BRANCH  30  32
ATOM     32  C   LIG d   1       6.644  -3.909  -5.045  0.00  0.00     0.034 C 
ATOM     33  H   LIG d   1       6.647  -3.897  -6.135  0.00  0.00     0.034 H 
ATOM     34  H   LIG d   1       6.553  -4.936  -4.693  0.00  0.00     0.034 H 
ATOM     35  H   LIG d   1       7.573  -3.479  -4.675  0.00  0.00     0.034 H 
ENDBRANCH  30  32
ENDBRANCH  29  30
ENDBRANCH   5  29
BRANCH   4  36
ATOM     36  O   LIG d   1       3.604  -0.309  -3.207  0.00  0.00    -0.422 OA
BRANCH  36  37
ATOM     37  C   LIG d   1       4.012   0.820  -2.608  0.00  0.00     0.309 C 
ATOM     38  O   LIG d   1       3.217   1.510  -2.014  0.00  0.00    -0.251 OA
BRANCH  37  39
ATOM     39  C   LIG d   1       5.461   1.229  -2.675  0.00  0.00     0.034 C 
ATOM     40  H   LIG d   1       5.539   2.310  -2.560  0.00  0.00     0.034 H 
ATOM     41  H   LIG d   1       6.015   0.737  -1.875  0.00  0.00     0.034 H 
ATOM     42  H   LIG d   1       5.876   0.935  -3.640  0.00  0.00     0.034 H 
ENDBRANCH  37  39
ENDBRANCH  36  37
ENDBRANCH   4  36
TORSDOF 12
ENDMDL
MODEL 8
REMARK VINA RESULT:      -4.9      2.628      6.153
REMARK  12 active torsions:
REMARK  status: ('A' for Active; 'I' for Inactive)
REMARK    1  A    between atoms: C_1  and  C_2 
REMARK       I    between atoms: C_2  and  N_4 
REMARK    2  A    between atoms: N_4  and  C_5 
REMARK    3  A    between atoms: C_5  and  C_6 
REMARK    4  A    between atoms: C_5  and  C_7 
REMARK    5  A    between atoms: C_5  and  C_22 
REMARK    6  A    between atoms: C_7  and  C_8 
REMARK    7  A    between atoms: C_11  and  O_18 
REMARK    8  A    between atoms: C_12  and  O_14 
REMARK    9  A    between atoms: O_14  and  C_15 
REMARK   10  A    between atoms: C_15  and  C_17 
REMARK   11  A    between atoms: O_18  and  C_19 
REMARK   12  A    between atoms: C_19  and  C_21 
ROOT
ATOM      1  C   LIG d   1       7.007  -0.082  -4.096  0.00  0.00    -0.041 A 
ATOM      2  C   LIG d   1       7.517   1.080  -3.546  0.00  0.00    -0.055 A 
ATOM      3  C   LIG d   1       8.086   2.042  -4.359  0.00  0.00    -0.015 A 
ATOM      4  C   LIG d   1       8.146   1.844  -5.730  0.00  0.00     0.174 A 
ATOM      5  C   LIG d   1       7.632   0.675  -6.284  0.00  0.00     0.174 A 
ATOM      6  C   LIG d   1       7.059  -0.283  -5.462  0.00  0.00    -0.012 A 
ATOM      7  H   LIG d   1       7.471   1.236  -2.479  0.00  0.00     0.062 H 
ATOM      8  H   LIG d   1       8.483   2.948  -3.926  0.00  0.00     0.066 H 
ATOM      9  H   LIG d   1       6.656  -1.189  -5.890  0.00  0.00     0.066 H 
ENDROOT
BRANCH   1  10
ATOM     10  C   LIG d   1       6.387  -1.126  -3.205  0.00  0.00    -0.001 C 
ATOM     11  H   LIG d   1       6.671  -2.119  -3.556  0.00  0.00     0.034 H 
ATOM     12  H   LIG d   1       6.741  -0.988  -2.183  0.00  0.00     0.034 H 
BRANCH  10  13
ATOM     13  C   LIG d   1       4.863  -0.989  -3.240  0.00  0.00     0.075 C 
BRANCH  13  14
ATOM     14  N   LIG d   1       4.458  -0.357  -4.498  0.00  0.00    -0.305 N 
ATOM     15  C   LIG d   1       3.161  -0.067  -4.718  0.00  0.00     0.211 C 
ATOM     16  O   LIG d   1       2.328  -0.329  -3.876  0.00  0.00    -0.276 OA
ATOM     17  H   LIG d   1       5.124  -0.147  -5.171  0.00  0.00     0.150 HD
BRANCH  15  18
ATOM     18  C   LIG d   1       2.744   0.584  -6.012  0.00  0.00     0.012 C 
ATOM     19  H   LIG d   1       1.815   1.134  -5.859  0.00  0.00     0.032 H 
ATOM     20  H   LIG d   1       3.523   1.272  -6.341  0.00  0.00     0.032 H 
ATOM     21  H   LIG d   1       2.592  -0.182  -6.772  0.00  0.00     0.032 H 
ENDBRANCH  15  18
ENDBRANCH  13  14
BRANCH  13  22
ATOM     22  C   LIG d   1       4.402  -0.128  -2.063  0.00  0.00    -0.038 C 
ATOM     23  H   LIG d   1       5.086   0.713  -1.939  0.00  0.00     0.025 H 
ATOM     24  H   LIG d   1       3.398   0.248  -2.259  0.00  0.00     0.025 H 
ATOM     25  H   LIG d   1       4.395  -0.728  -1.154  0.00  0.00     0.025 H 
ENDBRANCH  13  22
BRANCH  13  26
ATOM     26  C   LIG d   1       4.234  -2.356  -3.139  0.00  0.00     0.065 C 
ATOM     27  O   LIG d   1       3.562  -2.641  -2.176  0.00  0.00    -0.548 OA
ATOM     28  O   LIG d   1       4.422  -3.254  -4.118  0.00  0.00    -0.548 OA
ENDBRANCH  13  26
ENDBRANCH  10  13
ENDBRANCH   1  10
BRANCH   5  29
ATOM     29  O   LIG d   1       7.689   0.475  -7.627  0.00  0.00    -0.422 OA
BRANCH  29  30
ATOM     30  C   LIG d   1       6.529   0.530  -8.300  0.00  0.00     0.309 C 
ATOM     31  O   LIG d   1       5.863   1.537  -8.278  0.00  0.00    -0.251 OA
BRANCH  30  32
ATOM     32  C   LIG d   1       6.057  -0.667  -9.087  0.00  0.00     0.034 C 
ATOM     33  H   LIG d   1       6.730  -1.506  -8.910  0.00  0.00     0.034 H 
ATOM     34  H   LIG d   1       6.050  -0.424 -10.149  0.00  0.00     0.034 H 
ATOM     35  H   LIG d   1       5.050  -0.936  -8.769  0.00  0.00     0.034 H 
ENDBRANCH  30  32
ENDBRANCH  29  30
ENDBRANCH   5  29
BRANCH   4  36
ATOM     36  O   LIG d   1       8.705   2.789  -6.531  0.00  0.00    -0.422 OA
BRANCH  36  37
ATOM     37  C   LIG d   1       9.992   3.094  -6.307  0.00  0.00     0.309 C 
ATOM     38  O   LIG d   1      10.847   2.253  -6.454  0.00  0.00    -0.251 OA
BRANCH  37  39
ATOM     39  C   LIG d   1      10.373   4.486  -5.871  0.00  0.00     0.034 C 
ATOM     40  H   LIG d   1      11.224   4.434  -5.192  0.00  0.00     0.034 H 
ATOM     41  H   LIG d   1      10.639   5.081  -6.744  0.00  0.00     0.034 H 
ATOM     42  H   LIG d   1       9.528   4.949  -5.359  0.00  0.00     0.034 H 
ENDBRANCH  37  39
ENDBRANCH  36  37
ENDBRANCH   4  36
TORSDOF 12
ENDMDL
MODEL 9
REMARK VINA RESULT:      -4.9      2.289      3.382
REMARK  12 active torsions:
REMARK  status: ('A' for Active; 'I' for Inactive)
REMARK    1  A    between atoms: C_1  and  C_2 
REMARK       I    between atoms: C_2  and  N_4 
REMARK    2  A    between atoms: N_4  and  C_5 
REMARK    3  A    between atoms: C_5  and  C_6 
REMARK    4  A    between atoms: C_5  and  C_7 
REMARK    5  A    between atoms: C_5  and  C_22 
REMARK    6  A    between atoms: C_7  and  C_8 
REMARK    7  A    between atoms: C_11  and  O_18 
REMARK    8  A    between atoms: C_12  and  O_14 
REMARK    9  A    between atoms: O_14  and  C_15 
REMARK   10  A    between atoms: C_15  and  C_17 
REMARK   11  A    between atoms: O_18  and  C_19 
REMARK   12  A    between atoms: C_19  and  C_21 
ROOT
ATOM      1  C   LIG d   1       4.380  -0.991  -7.162  0.00  0.00    -0.041 A 
ATOM      2  C   LIG d   1       3.314  -0.128  -6.990  0.00  0.00    -0.055 A 
ATOM      3  C   LIG d   1       2.901   0.222  -5.719  0.00  0.00    -0.015 A 
ATOM      4  C   LIG d   1       3.557  -0.293  -4.611  0.00  0.00     0.174 A 
ATOM      5  C   LIG d   1       4.630  -1.161  -4.783  0.00  0.00     0.174 A 
ATOM      6  C   LIG d   1       5.042  -1.504  -6.062  0.00  0.00    -0.012 A 
ATOM      7  H   LIG d   1       2.802   0.273  -7.852  0.00  0.00     0.062 H 
ATOM      8  H   LIG d   1       2.068   0.896  -5.588  0.00  0.00     0.066 H 
ATOM      9  H   LIG d   1       5.878  -2.174  -6.199  0.00  0.00     0.066 H 
ENDROOT
BRANCH   1  10
ATOM     10  C   LIG d   1       4.827  -1.368  -8.550  0.00  0.00    -0.001 C 
ATOM     11  H   LIG d   1       4.627  -0.542  -9.234  0.00  0.00     0.034 H 
ATOM     12  H   LIG d   1       5.896  -1.582  -8.543  0.00  0.00     0.034 H 
BRANCH  10  13
ATOM     13  C   LIG d   1       4.061  -2.609  -9.014  0.00  0.00     0.075 C 
BRANCH  13  14
ATOM     14  N   LIG d   1       2.733  -2.216  -9.489  0.00  0.00    -0.305 N 
ATOM     15  C   LIG d   1       2.608  -1.240 -10.409  0.00  0.00     0.211 C 
ATOM     16  O   LIG d   1       3.596  -0.686 -10.845  0.00  0.00    -0.276 OA
ATOM     17  H   LIG d   1       1.943  -2.659  -9.141  0.00  0.00     0.150 HD
BRANCH  15  18
ATOM     18  C   LIG d   1       1.241  -0.835 -10.898  0.00  0.00     0.012 C 
ATOM     19  H   LIG d   1       1.209   0.246 -11.031  0.00  0.00     0.032 H 
ATOM     20  H   LIG d   1       1.037  -1.324 -11.851  0.00  0.00     0.032 H 
ATOM     21  H   LIG d   1       0.490  -1.135 -10.167  0.00  0.00     0.032 H 
ENDBRANCH  15  18
ENDBRANCH  13  14
BRANCH  13  22
ATOM     22  C   LIG d   1       3.918  -3.586  -7.845  0.00  0.00    -0.038 C 
ATOM     23  H   LIG d   1       3.366  -3.105  -7.037  0.00  0.00     0.025 H 
ATOM     24  H   LIG d   1       3.378  -4.473  -8.176  0.00  0.00     0.025 H 
ATOM     25  H   LIG d   1       4.906  -3.874  -7.488  0.00  0.00     0.025 H 
ENDBRANCH  13  22
BRANCH  13  26
ATOM     26  C   LIG d   1       4.818  -3.276 -10.135  0.00  0.00     0.065 C 
ATOM     27  O   LIG d   1       5.948  -2.930 -10.390  0.00  0.00    -0.548 OA
ATOM     28  O   LIG d   1       4.238  -4.253 -10.848  0.00  0.00    -0.548 OA
ENDBRANCH  13  26
ENDBRANCH  10  13
ENDBRANCH   1  10
BRANCH   5  29
ATOM     29  O   LIG d   1       5.278  -1.669  -3.701  0.00  0.00    -0.422 OA
BRANCH  29  30
ATOM     30  C   LIG d   1       6.597  -1.437  -3.615  0.00  0.00     0.309 C 
ATOM     31  O   LIG d   1       7.005  -0.308  -3.479  0.00  0.00    -0.251 OA
BRANCH  30  32
ATOM     32  C   LIG d   1       7.570  -2.585  -3.688  0.00  0.00     0.034 C 
ATOM     33  H   LIG d   1       7.053  -3.479  -4.038  0.00  0.00     0.034 H 
ATOM     34  H   LIG d   1       7.987  -2.771  -2.698  0.00  0.00     0.034 H 
ATOM     35  H   LIG d   1       8.375  -2.337  -4.380  0.00  0.00     0.034 H 
ENDBRANCH  30  32
ENDBRANCH  29  30
ENDBRANCH   5  29
BRANCH   4  36
ATOM     36  O   LIG d   1       3.153   0.050  -3.359  0.00  0.00    -0.422 OA
BRANCH  36  37
ATOM     37  C   LIG d   1       3.705   1.148  -2.820  0.00  0.00     0.309 C 
ATOM     38  O   LIG d   1       3.543   2.226  -3.343  0.00  0.00    -0.251 OA
BRANCH  37  39
ATOM     39  C   LIG d   1       4.528   1.038  -1.562  0.00  0.00     0.034 C 
ATOM     40  H   LIG d   1       4.445   0.028  -1.161  0.00  0.00     0.034 H 
ATOM     41  H   LIG d   1       5.572   1.255  -1.790  0.00  0.00     0.034 H 
ATOM     42  H   LIG d   1       4.161   1.753  -0.825  0.00  0.00     0.034 H 
ENDBRANCH  37  39
ENDBRANCH  36  37
ENDBRANCH   4  36
TORSDOF 12
ENDMDL
