MODEL 1
REMARK VINA RESULT:      -6.5      0.000      0.000
REMARK  9 active torsions:
REMARK  status: ('A' for Active; 'I' for Inactive)
REMARK    1  A    between atoms: C_1  and  C_2 
REMARK    2  A    between atoms: C_5  and  N_21 
REMARK    3  A    between atoms: C_10  and  C_11 
REMARK    4  A    between atoms: C_11  and  C_13 
REMARK    5  A    between atoms: C_17  and  O_19 
REMARK    6  A    between atoms: O_19  and  C_20 
REMARK       I    between atoms: N_21  and  C_22 
REMARK    7  A    between atoms: C_22  and  C_24 
REMARK    8  A    between atoms: C_27  and  O_30 
REMARK    9  A    between atoms: O_30  and  C_31 
ROOT
ATOM      1  C   LIG d   1       8.891   1.761  -5.236  0.00  0.00     0.006 A 
ATOM      2  C   LIG d   1       7.657   0.979  -5.250  0.00  0.00     0.025 A 
ATOM      3  C   LIG d   1       6.935   0.320  -6.249  0.00  0.00    -0.029 A 
ATOM      4  C   LIG d   1       5.770  -0.348  -5.920  0.00  0.00     0.035 A 
ATOM      5  C   LIG d   1       5.319  -0.362  -4.601  0.00  0.00    -0.037 A 
ATOM      6  C   LIG d   1       6.024   0.285  -3.610  0.00  0.00    -0.017 A 
ATOM      7  C   LIG d   1       7.199   0.962  -3.920  0.00  0.00     0.136 A 
ATOM      8  O   LIG d   1       8.077   1.668  -3.177  0.00  0.00    -0.451 OA
ATOM      9  C   LIG d   1       9.079   2.144  -3.944  0.00  0.00     0.179 A 
ATOM     10  H   LIG d   1       7.285   0.330  -7.271  0.00  0.00     0.064 H 
ATOM     11  H   LIG d   1       4.408  -0.885  -4.353  0.00  0.00     0.064 H 
ATOM     12  H   LIG d   1       5.665   0.266  -2.592  0.00  0.00     0.066 H 
ENDROOT
BRANCH   4  13
ATOM     13  N   LIG d   1       5.040  -1.010  -6.914  0.00  0.00    -0.281 N 
ATOM     14  C   LIG d   1       4.025  -0.381  -7.538  0.00  0.00     0.248 C 
ATOM     15  O   LIG d   1       3.804   0.792  -7.308  0.00  0.00    -0.270 OA
ATOM     16  H   LIG d   1       5.266  -1.923  -7.155  0.00  0.00     0.155 HD
BRANCH  14  17
ATOM     17  C   LIG d   1       3.179  -1.115  -8.499  0.00  0.00     0.037 A 
ATOM     18  C   LIG d   1       2.134  -0.461  -9.156  0.00  0.00    -0.046 A 
ATOM     19  C   LIG d   1       1.349  -1.150 -10.054  0.00  0.00    -0.019 A 
ATOM     20  H   LIG d   1       1.942   0.584  -8.960  0.00  0.00     0.063 H 
ATOM     21  C   LIG d   1       1.596  -2.494 -10.306  0.00  0.00     0.120 A 
ATOM     22  H   LIG d   1       0.541  -0.645 -10.562  0.00  0.00     0.065 H 
ATOM     23  C   LIG d   1       2.634  -3.149  -9.655  0.00  0.00    -0.019 A 
ATOM     24  C   LIG d   1       3.427  -2.465  -8.760  0.00  0.00    -0.046 A 
ATOM     25  H   LIG d   1       2.822  -4.194  -9.853  0.00  0.00     0.065 H 
ATOM     26  H   LIG d   1       4.238  -2.974  -8.258  0.00  0.00     0.063 H 
BRANCH  21  27
ATOM     27  O   LIG d   1       0.819  -3.170 -11.191  0.00  0.00    -0.495 OA
BRANCH  27  28
ATOM     28  C   LIG d   1       0.071  -4.277 -10.684  0.00  0.00     0.079 C 
ATOM     29  H   LIG d   1      -0.879  -4.347 -11.215  0.00  0.00     0.066 H 
ATOM     30  H   LIG d   1       0.638  -5.196 -10.832  0.00  0.00     0.066 H 
ATOM     31  H   LIG d   1      -0.116  -4.133  -9.620  0.00  0.00     0.066 H 
ENDBRANCH  27  28
ENDBRANCH  21  27
ENDBRANCH  14  17
ENDBRANCH   4  13
BRANCH   1  32
ATOM     32  C   LIG d   1       9.774   2.083  -6.415  0.00  0.00    -0.035 C 
ATOM     33  H   LIG d   1       9.805   1.227  -7.090  0.00  0.00     0.028 H 
ATOM     34  H   LIG d   1       9.374   2.948  -6.942  0.00  0.00     0.028 H 
ATOM     35  H   LIG d   1      10.781   2.305  -6.064  0.00  0.00     0.028 H 
ENDBRANCH   1  32
BRANCH   9  36
ATOM     36  C   LIG d   1      10.204   2.952  -3.458  0.00  0.00     0.228 C 
ATOM     37  O   LIG d   1      11.291   2.436  -3.277  0.00  0.00    -0.283 OA
BRANCH  36  38
ATOM     38  C   LIG d   1      10.016   4.394  -3.188  0.00  0.00     0.029 A 
ATOM     39  C   LIG d   1      10.212   4.897  -1.901  0.00  0.00    -0.009 A 
ATOM     40  C   LIG d   1      10.039   6.248  -1.656  0.00  0.00     0.121 A 
ATOM     41  H   LIG d   1      10.500   4.234  -1.099  0.00  0.00     0.066 H 
ATOM     42  C   LIG d   1       9.661   7.098  -2.687  0.00  0.00    -0.020 A 
ATOM     43  C   LIG d   1       9.461   6.601  -3.963  0.00  0.00    -0.058 A 
ATOM     44  H   LIG d   1       9.523   8.151  -2.493  0.00  0.00     0.065 H 
ATOM     45  C   LIG d   1       9.636   5.256  -4.219  0.00  0.00    -0.051 A 
ATOM     46  H   LIG d   1       9.168   7.267  -4.760  0.00  0.00     0.062 H 
ATOM     47  H   LIG d   1       9.480   4.872  -5.216  0.00  0.00     0.062 H 
BRANCH  40  48
ATOM     48  O   LIG d   1      10.233   6.742  -0.405  0.00  0.00    -0.495 OA
BRANCH  48  49
ATOM     49  C   LIG d   1      11.038   5.963   0.483  0.00  0.00     0.079 C 
ATOM     50  H   LIG d   1      11.096   6.459   1.451  0.00  0.00     0.066 H 
ATOM     51  H   LIG d   1      10.590   4.976   0.606  0.00  0.00     0.066 H 
ATOM     52  H   LIG d   1      12.040   5.857   0.067  0.00  0.00     0.066 H 
ENDBRANCH  48  49
ENDBRANCH  40  48
ENDBRANCH  36  38
ENDBRANCH   9  36
TORSDOF 9
ENDMDL
MODEL 2
REMARK VINA RESULT:      -6.3      2.681     11.260
REMARK  9 active torsions:
REMARK  status: ('A' for Active; 'I' for Inactive)
REMARK    1  A    between atoms: C_1  and  C_2 
REMARK    2  A    between atoms: C_5  and  N_21 
REMARK    3  A    between atoms: C_10  and  C_11 
REMARK    4  A    between atoms: C_11  and  C_13 
REMARK    5  A    between atoms: C_17  and  O_19 
REMARK    6  A    between atoms: O_19  and  C_20 
REMARK       I    between atoms: N_21  and  C_22 
REMARK    7  A    between atoms: C_22  and  C_24 
REMARK    8  A    between atoms: C_27  and  O_30 
REMARK    9  A    between atoms: O_30  and  C_31 
ROOT
ATOM      1  C   LIG d   1       7.794   1.364  -5.161  0.00  0.00     0.006 A 
ATOM      2  C   LIG d   1       8.707   2.445  -4.795  0.00  0.00     0.025 A 
ATOM      3  C   LIG d   1       9.074   3.039  -3.584  0.00  0.00    -0.029 A 
ATOM      4  C   LIG d   1       9.992   4.072  -3.584  0.00  0.00     0.035 A 
ATOM      5  C   LIG d   1      10.545   4.519  -4.783  0.00  0.00    -0.037 A 
ATOM      6  C   LIG d   1      10.188   3.939  -5.980  0.00  0.00    -0.017 A 
ATOM      7  C   LIG d   1       9.267   2.898  -6.003  0.00  0.00     0.136 A 
ATOM      8  O   LIG d   1       8.740   2.158  -7.001  0.00  0.00    -0.451 OA
ATOM      9  C   LIG d   1       7.870   1.249  -6.515  0.00  0.00     0.179 A 
ATOM     10  H   LIG d   1       8.646   2.692  -2.655  0.00  0.00     0.064 H 
ATOM     11  H   LIG d   1      11.261   5.327  -4.773  0.00  0.00     0.064 H 
ATOM     12  H   LIG d   1      10.625   4.294  -6.903  0.00  0.00     0.066 H 
ENDROOT
BRANCH   4  13
ATOM     13  N   LIG d   1      10.366   4.673  -2.375  0.00  0.00    -0.281 N 
ATOM     14  C   LIG d   1       9.965   5.929  -2.094  0.00  0.00     0.248 C 
ATOM     15  O   LIG d   1       9.199   6.504  -2.843  0.00  0.00    -0.270 OA
ATOM     16  H   LIG d   1      10.913   4.186  -1.740  0.00  0.00     0.155 HD
BRANCH  14  17
ATOM     17  C   LIG d   1      10.455   6.606  -0.879  0.00  0.00     0.037 A 
ATOM     18  C   LIG d   1      10.594   7.996  -0.858  0.00  0.00    -0.046 A 
ATOM     19  C   LIG d   1      11.051   8.624   0.279  0.00  0.00    -0.019 A 
ATOM     20  H   LIG d   1      10.344   8.577  -1.734  0.00  0.00     0.063 H 
ATOM     21  C   LIG d   1      11.374   7.877   1.405  0.00  0.00     0.120 A 
ATOM     22  H   LIG d   1      11.158   9.699   0.295  0.00  0.00     0.065 H 
ATOM     23  C   LIG d   1      11.237   6.494   1.390  0.00  0.00    -0.019 A 
ATOM     24  C   LIG d   1      10.776   5.859   0.258  0.00  0.00    -0.046 A 
ATOM     25  H   LIG d   1      11.490   5.917   2.267  0.00  0.00     0.065 H 
ATOM     26  H   LIG d   1      10.665   4.784   0.249  0.00  0.00     0.063 H 
BRANCH  21  27
ATOM     27  O   LIG d   1      11.824   8.500   2.524  0.00  0.00    -0.495 OA
BRANCH  27  28
ATOM     28  C   LIG d   1      12.200   9.872   2.396  0.00  0.00     0.079 C 
ATOM     29  H   LIG d   1      11.411  10.418   1.877  0.00  0.00     0.066 H 
ATOM     30  H   LIG d   1      12.349  10.303   3.386  0.00  0.00     0.066 H 
ATOM     31  H   LIG d   1      13.127   9.944   1.826  0.00  0.00     0.066 H 
ENDBRANCH  27  28
ENDBRANCH  21  27
ENDBRANCH  14  17
ENDBRANCH   4  13
BRANCH   1  32
ATOM     32  C   LIG d   1       6.938   0.545  -4.228  0.00  0.00    -0.035 C 
ATOM     33  H   LIG d   1       6.315  -0.135  -4.810  0.00  0.00     0.028 H 
ATOM     34  H   LIG d   1       7.578  -0.030  -3.559  0.00  0.00     0.028 H 
ATOM     35  H   LIG d   1       6.303   1.209  -3.642  0.00  0.00     0.028 H 
ENDBRANCH   1  32
BRANCH   9  36
ATOM     36  C   LIG d   1       7.119   0.283  -7.324  0.00  0.00     0.228 C 
ATOM     37  O   LIG d   1       7.519  -0.861  -7.434  0.00  0.00    -0.283 OA
BRANCH  36  38
ATOM     38  C   LIG d   1       5.874   0.698  -8.006  0.00  0.00     0.029 A 
ATOM     39  C   LIG d   1       4.705  -0.048  -7.846  0.00  0.00    -0.009 A 
ATOM     40  C   LIG d   1       3.542   0.350  -8.483  0.00  0.00     0.121 A 
ATOM     41  H   LIG d   1       4.707  -0.930  -7.224  0.00  0.00     0.066 H 
ATOM     42  C   LIG d   1       3.543   1.482  -9.289  0.00  0.00    -0.020 A 
ATOM     43  C   LIG d   1       4.702   2.219  -9.453  0.00  0.00    -0.058 A 
ATOM     44  H   LIG d   1       2.637   1.787  -9.788  0.00  0.00     0.065 H 
ATOM     45  C   LIG d   1       5.865   1.835  -8.817  0.00  0.00    -0.051 A 
ATOM     46  H   LIG d   1       4.696   3.098 -10.080  0.00  0.00     0.062 H 
ATOM     47  H   LIG d   1       6.768   2.414  -8.947  0.00  0.00     0.062 H 
BRANCH  40  48
ATOM     48  O   LIG d   1       2.401  -0.371  -8.326  0.00  0.00    -0.495 OA
BRANCH  48  49
ATOM     49  C   LIG d   1       1.725  -0.783  -9.516  0.00  0.00     0.079 C 
ATOM     50  H   LIG d   1       2.327  -0.521 -10.385  0.00  0.00     0.066 H 
ATOM     51  H   LIG d   1       1.572  -1.863  -9.492  0.00  0.00     0.066 H 
ATOM     52  H   LIG d   1       0.759  -0.281  -9.578  0.00  0.00     0.066 H 
ENDBRANCH  48  49
ENDBRANCH  40  48
ENDBRANCH  36  38
ENDBRANCH   9  36
TORSDOF 9
ENDMDL
MODEL 3
REMARK VINA RESULT:      -6.3      1.853      2.683
REMARK  9 active torsions:
REMARK  status: ('A' for Active; 'I' for Inactive)
REMARK    1  A    between atoms: C_1  and  C_2 
REMARK    2  A    between atoms: C_5  and  N_21 
REMARK    3  A    between atoms: C_10  and  C_11 
REMARK    4  A    between atoms: C_11  and  C_13 
REMARK    5  A    between atoms: C_17  and  O_19 
REMARK    6  A    between atoms: O_19  and  C_20 
REMARK       I    between atoms: N_21  and  C_22 
REMARK    7  A    between atoms: C_22  and  C_24 
REMARK    8  A    between atoms: C_27  and  O_30 
REMARK    9  A    between atoms: O_30  and  C_31 
ROOT
ATOM      1  C   LIG d   1       8.722   2.204  -5.016  0.00  0.00     0.006 A 
ATOM      2  C   LIG d   1       8.417   2.020  -6.434  0.00  0.00     0.025 A 
ATOM      3  C   LIG d   1       7.406   1.353  -7.132  0.00  0.00    -0.029 A 
ATOM      4  C   LIG d   1       7.405   1.371  -8.514  0.00  0.00     0.035 A 
ATOM      5  C   LIG d   1       8.407   2.050  -9.205  0.00  0.00    -0.037 A 
ATOM      6  C   LIG d   1       9.408   2.709  -8.526  0.00  0.00    -0.017 A 
ATOM      7  C   LIG d   1       9.426   2.704  -7.135  0.00  0.00     0.136 A 
ATOM      8  O   LIG d   1      10.260   3.248  -6.224  0.00  0.00    -0.451 OA
ATOM      9  C   LIG d   1       9.853   2.959  -4.971  0.00  0.00     0.179 A 
ATOM     10  H   LIG d   1       6.629   0.827  -6.595  0.00  0.00     0.064 H 
ATOM     11  H   LIG d   1       8.399   2.059 -10.285  0.00  0.00     0.064 H 
ATOM     12  H   LIG d   1      10.178   3.232  -9.073  0.00  0.00     0.066 H 
ENDROOT
BRANCH   4  13
ATOM     13  N   LIG d   1       6.396   0.705  -9.220  0.00  0.00    -0.281 N 
ATOM     14  C   LIG d   1       5.267   1.358  -9.559  0.00  0.00     0.248 C 
ATOM     15  O   LIG d   1       5.163   2.549  -9.338  0.00  0.00    -0.270 OA
ATOM     16  H   LIG d   1       6.510  -0.226  -9.467  0.00  0.00     0.155 HD
BRANCH  14  17
ATOM     17  C   LIG d   1       4.155   0.627 -10.197  0.00  0.00     0.037 A 
ATOM     18  C   LIG d   1       2.959   0.425  -9.502  0.00  0.00    -0.046 A 
ATOM     19  C   LIG d   1       1.923  -0.256 -10.102  0.00  0.00    -0.019 A 
ATOM     20  H   LIG d   1       2.848   0.802  -8.496  0.00  0.00     0.063 H 
ATOM     21  C   LIG d   1       2.066  -0.742 -11.396  0.00  0.00     0.120 A 
ATOM     22  H   LIG d   1       0.999  -0.413  -9.566  0.00  0.00     0.065 H 
ATOM     23  C   LIG d   1       3.253  -0.543 -12.090  0.00  0.00    -0.019 A 
ATOM     24  C   LIG d   1       4.292   0.142 -11.500  0.00  0.00    -0.046 A 
ATOM     25  H   LIG d   1       3.361  -0.923 -13.096  0.00  0.00     0.065 H 
ATOM     26  H   LIG d   1       5.213   0.300 -12.042  0.00  0.00     0.063 H 
BRANCH  21  27
ATOM     27  O   LIG d   1       1.043  -1.413 -11.984  0.00  0.00    -0.495 OA
BRANCH  27  28
ATOM     28  C   LIG d   1       0.927  -2.806 -11.688  0.00  0.00     0.079 C 
ATOM     29  H   LIG d   1      -0.126  -3.067 -11.575  0.00  0.00     0.066 H 
ATOM     30  H   LIG d   1       1.360  -3.388 -12.501  0.00  0.00     0.066 H 
ATOM     31  H   LIG d   1       1.457  -3.027 -10.761  0.00  0.00     0.066 H 
ENDBRANCH  27  28
ENDBRANCH  21  27
ENDBRANCH  14  17
ENDBRANCH   4  13
BRANCH   1  32
ATOM     32  C   LIG d   1       7.946   1.663  -3.844  0.00  0.00    -0.035 C 
ATOM     33  H   LIG d   1       8.616   1.104  -3.191  0.00  0.00     0.028 H 
ATOM     34  H   LIG d   1       7.503   2.489  -3.289  0.00  0.00     0.028 H 
ATOM     35  H   LIG d   1       7.156   1.003  -4.204  0.00  0.00     0.028 H 
ENDBRANCH   1  32
BRANCH   9  36
ATOM     36  C   LIG d   1      10.529   3.395  -3.743  0.00  0.00     0.228 C 
ATOM     37  O   LIG d   1      11.322   2.656  -3.190  0.00  0.00    -0.283 OA
BRANCH  36  38
ATOM     38  C   LIG d   1      10.247   4.732  -3.178  0.00  0.00     0.029 A 
ATOM     39  C   LIG d   1      10.387   4.956  -1.807  0.00  0.00    -0.009 A 
ATOM     40  C   LIG d   1      10.126   6.212  -1.286  0.00  0.00     0.121 A 
ATOM     41  H   LIG d   1      10.701   4.154  -1.157  0.00  0.00     0.066 H 
ATOM     42  C   LIG d   1       9.715   7.241  -2.123  0.00  0.00    -0.020 A 
ATOM     43  C   LIG d   1       9.571   7.019  -3.481  0.00  0.00    -0.058 A 
ATOM     44  H   LIG d   1       9.508   8.218  -1.714  0.00  0.00     0.065 H 
ATOM     45  C   LIG d   1       9.834   5.773  -4.013  0.00  0.00    -0.051 A 
ATOM     46  H   LIG d   1       9.252   7.823  -4.127  0.00  0.00     0.062 H 
ATOM     47  H   LIG d   1       9.721   5.603  -5.073  0.00  0.00     0.062 H 
BRANCH  40  48
ATOM     48  O   LIG d   1      10.265   6.436   0.047  0.00  0.00    -0.495 OA
BRANCH  48  49
ATOM     49  C   LIG d   1      11.353   5.782   0.705  0.00  0.00     0.079 C 
ATOM     50  H   LIG d   1      12.266   6.358   0.556  0.00  0.00     0.066 H 
ATOM     51  H   LIG d   1      11.141   5.706   1.772  0.00  0.00     0.066 H 
ATOM     52  H   LIG d   1      11.482   4.783   0.288  0.00  0.00     0.066 H 
ENDBRANCH  48  49
ENDBRANCH  40  48
ENDBRANCH  36  38
ENDBRANCH   9  36
TORSDOF 9
ENDMDL
MODEL 4
REMARK VINA RESULT:      -6.1      3.830      9.912
REMARK  9 active torsions:
REMARK  status: ('A' for Active; 'I' for Inactive)
REMARK    1  A    between atoms: C_1  and  C_2 
REMARK    2  A    between atoms: C_5  and  N_21 
REMARK    3  A    between atoms: C_10  and  C_11 
REMARK    4  A    between atoms: C_11  and  C_13 
REMARK    5  A    between atoms: C_17  and  O_19 
REMARK    6  A    between atoms: O_19  and  C_20 
REMARK       I    between atoms: N_21  and  C_22 
REMARK    7  A    between atoms: C_22  and  C_24 
REMARK    8  A    between atoms: C_27  and  O_30 
REMARK    9  A    between atoms: O_30  and  C_31 
ROOT
ATOM      1  C   LIG d   1       7.933   1.124  -5.608  0.00  0.00     0.006 A 
ATOM      2  C   LIG d   1       8.668   2.344  -5.281  0.00  0.00     0.025 A 
ATOM      3  C   LIG d   1       9.153   3.418  -6.034  0.00  0.00    -0.029 A 
ATOM      4  C   LIG d   1       9.828   4.444  -5.400  0.00  0.00     0.035 A 
ATOM      5  C   LIG d   1      10.024   4.407  -4.020  0.00  0.00    -0.037 A 
ATOM      6  C   LIG d   1       9.549   3.353  -3.271  0.00  0.00    -0.017 A 
ATOM      7  C   LIG d   1       8.867   2.310  -3.889  0.00  0.00     0.136 A 
ATOM      8  O   LIG d   1       8.304   1.176  -3.423  0.00  0.00    -0.451 OA
ATOM      9  C   LIG d   1       7.750   0.469  -4.429  0.00  0.00     0.179 A 
ATOM     10  H   LIG d   1       9.001   3.446  -7.103  0.00  0.00     0.064 H 
ATOM     11  H   LIG d   1      10.553   5.212  -3.534  0.00  0.00     0.064 H 
ATOM     12  H   LIG d   1       9.707   3.336  -2.203  0.00  0.00     0.066 H 
ENDROOT
BRANCH   4  13
ATOM     13  N   LIG d   1      10.318   5.523  -6.146  0.00  0.00    -0.281 N 
ATOM     14  C   LIG d   1       9.766   6.744  -6.008  0.00  0.00     0.248 C 
ATOM     15  O   LIG d   1       8.910   6.933  -5.165  0.00  0.00    -0.270 OA
ATOM     16  H   LIG d   1      11.055   5.391  -6.763  0.00  0.00     0.155 HD
BRANCH  14  17
ATOM     17  C   LIG d   1      10.200   7.854  -6.879  0.00  0.00     0.037 A 
ATOM     18  C   LIG d   1      10.194   7.699  -8.267  0.00  0.00    -0.046 A 
ATOM     19  C   LIG d   1      10.598   8.738  -9.076  0.00  0.00    -0.019 A 
ATOM     20  H   LIG d   1       9.874   6.765  -8.705  0.00  0.00     0.063 H 
ATOM     21  C   LIG d   1      11.011   9.939  -8.512  0.00  0.00     0.120 A 
ATOM     22  H   LIG d   1      10.594   8.618 -10.149  0.00  0.00     0.065 H 
ATOM     23  C   LIG d   1      11.018  10.098  -7.132  0.00  0.00    -0.019 A 
ATOM     24  C   LIG d   1      10.610   9.066  -6.316  0.00  0.00    -0.046 A 
ATOM     25  H   LIG d   1      11.340  11.033  -6.698  0.00  0.00     0.065 H 
ATOM     26  H   LIG d   1      10.611   9.192  -5.243  0.00  0.00     0.063 H 
BRANCH  21  27
ATOM     27  O   LIG d   1      11.408  10.961  -9.313  0.00  0.00    -0.495 OA
BRANCH  27  28
ATOM     28  C   LIG d   1      11.610  12.231  -8.692  0.00  0.00     0.079 C 
ATOM     29  H   LIG d   1      12.359  12.137  -7.905  0.00  0.00     0.066 H 
ATOM     30  H   LIG d   1      11.953  12.950  -9.436  0.00  0.00     0.066 H 
ATOM     31  H   LIG d   1      10.671  12.578  -8.260  0.00  0.00     0.066 H 
ENDBRANCH  27  28
ENDBRANCH  21  27
ENDBRANCH  14  17
ENDBRANCH   4  13
BRANCH   1  32
ATOM     32  C   LIG d   1       7.476   0.679  -6.973  0.00  0.00    -0.035 C 
ATOM     33  H   LIG d   1       7.028   1.523  -7.499  0.00  0.00     0.028 H 
ATOM     34  H   LIG d   1       8.330   0.309  -7.539  0.00  0.00     0.028 H 
ATOM     35  H   LIG d   1       6.738  -0.116  -6.868  0.00  0.00     0.028 H 
ENDBRANCH   1  32
BRANCH   9  36
ATOM     36  C   LIG d   1       7.054  -0.814  -4.276  0.00  0.00     0.228 C 
ATOM     37  O   LIG d   1       7.643  -1.856  -4.493  0.00  0.00    -0.283 OA
BRANCH  36  38
ATOM     38  C   LIG d   1       5.635  -0.841  -3.857  0.00  0.00     0.029 A 
ATOM     39  C   LIG d   1       4.652  -0.287  -4.679  0.00  0.00    -0.009 A 
ATOM     40  C   LIG d   1       3.326  -0.320  -4.282  0.00  0.00     0.121 A 
ATOM     41  H   LIG d   1       4.925   0.163  -5.622  0.00  0.00     0.066 H 
ATOM     42  C   LIG d   1       2.978  -0.892  -3.066  0.00  0.00    -0.020 A 
ATOM     43  C   LIG d   1       3.952  -1.436  -2.247  0.00  0.00    -0.058 A 
ATOM     44  H   LIG d   1       1.944  -0.912  -2.757  0.00  0.00     0.065 H 
ATOM     45  C   LIG d   1       5.276  -1.414  -2.635  0.00  0.00    -0.051 A 
ATOM     46  H   LIG d   1       3.675  -1.880  -1.303  0.00  0.00     0.062 H 
ATOM     47  H   LIG d   1       6.034  -1.841  -1.994  0.00  0.00     0.062 H 
BRANCH  40  48
ATOM     48  O   LIG d   1       2.365   0.214  -5.081  0.00  0.00    -0.495 OA
BRANCH  48  49
ATOM     49  C   LIG d   1       2.686   0.372  -6.465  0.00  0.00     0.079 C 
ATOM     50  H   LIG d   1       3.723   0.083  -6.633  0.00  0.00     0.066 H 
ATOM     51  H   LIG d   1       2.031  -0.261  -7.065  0.00  0.00     0.066 H 
ATOM     52  H   LIG d   1       2.548   1.414  -6.754  0.00  0.00     0.066 H 
ENDBRANCH  48  49
ENDBRANCH  40  48
ENDBRANCH  36  38
ENDBRANCH   9  36
TORSDOF 9
ENDMDL
MODEL 5
REMARK VINA RESULT:      -5.9      3.221     10.744
REMARK  9 active torsions:
REMARK  status: ('A' for Active; 'I' for Inactive)
REMARK    1  A    between atoms: C_1  and  C_2 
REMARK    2  A    between atoms: C_5  and  N_21 
REMARK    3  A    between atoms: C_10  and  C_11 
REMARK    4  A    between atoms: C_11  and  C_13 
REMARK    5  A    between atoms: C_17  and  O_19 
REMARK    6  A    between atoms: O_19  and  C_20 
REMARK       I    between atoms: N_21  and  C_22 
REMARK    7  A    between atoms: C_22  and  C_24 
REMARK    8  A    between atoms: C_27  and  O_30 
REMARK    9  A    between atoms: O_30  and  C_31 
ROOT
ATOM      1  C   LIG d   1       6.254  -3.997  -5.473  0.00  0.00     0.006 A 
ATOM      2  C   LIG d   1       6.268  -2.762  -4.692  0.00  0.00     0.025 A 
ATOM      3  C   LIG d   1       7.194  -1.728  -4.523  0.00  0.00    -0.029 A 
ATOM      4  C   LIG d   1       6.891  -0.671  -3.687  0.00  0.00     0.035 A 
ATOM      5  C   LIG d   1       5.670  -0.637  -3.015  0.00  0.00    -0.037 A 
ATOM      6  C   LIG d   1       4.751  -1.651  -3.175  0.00  0.00    -0.017 A 
ATOM      7  C   LIG d   1       5.036  -2.724  -4.013  0.00  0.00     0.136 A 
ATOM      8  O   LIG d   1       4.348  -3.832  -4.354  0.00  0.00    -0.451 OA
ATOM      9  C   LIG d   1       5.056  -4.590  -5.216  0.00  0.00     0.179 A 
ATOM     10  H   LIG d   1       8.140  -1.755  -5.045  0.00  0.00     0.064 H 
ATOM     11  H   LIG d   1       5.442   0.192  -2.363  0.00  0.00     0.064 H 
ATOM     12  H   LIG d   1       3.808  -1.613  -2.650  0.00  0.00     0.066 H 
ENDROOT
BRANCH   4  13
ATOM     13  N   LIG d   1       7.813   0.368  -3.512  0.00  0.00    -0.281 N 
ATOM     14  C   LIG d   1       7.868   1.378  -4.402  0.00  0.00     0.248 C 
ATOM     15  O   LIG d   1       7.052   1.440  -5.302  0.00  0.00    -0.270 OA
ATOM     16  H   LIG d   1       8.414   0.361  -2.750  0.00  0.00     0.155 HD
BRANCH  14  17
ATOM     17  C   LIG d   1       8.917   2.409  -4.286  0.00  0.00     0.037 A 
ATOM     18  C   LIG d   1       9.801   2.392  -3.205  0.00  0.00    -0.046 A 
ATOM     19  C   LIG d   1      10.780   3.355  -3.102  0.00  0.00    -0.019 A 
ATOM     20  H   LIG d   1       9.717   1.623  -2.450  0.00  0.00     0.063 H 
ATOM     21  C   LIG d   1      10.888   4.344  -4.072  0.00  0.00     0.120 A 
ATOM     22  H   LIG d   1      11.464   3.342  -2.266  0.00  0.00     0.065 H 
ATOM     23  C   LIG d   1      10.011   4.365  -5.150  0.00  0.00    -0.019 A 
ATOM     24  C   LIG d   1       9.033   3.402  -5.263  0.00  0.00    -0.046 A 
ATOM     25  H   LIG d   1      10.098   5.136  -5.902  0.00  0.00     0.065 H 
ATOM     26  H   LIG d   1       8.355   3.417  -6.104  0.00  0.00     0.063 H 
BRANCH  21  27
ATOM     27  O   LIG d   1      11.854   5.292  -3.967  0.00  0.00    -0.495 OA
BRANCH  27  28
ATOM     28  C   LIG d   1      12.200   5.722  -2.649  0.00  0.00     0.079 C 
ATOM     29  H   LIG d   1      12.952   5.051  -2.233  0.00  0.00     0.066 H 
ATOM     30  H   LIG d   1      12.600   6.735  -2.690  0.00  0.00     0.066 H 
ATOM     31  H   LIG d   1      11.311   5.708  -2.017  0.00  0.00     0.066 H 
ENDBRANCH  27  28
ENDBRANCH  21  27
ENDBRANCH  14  17
ENDBRANCH   4  13
BRANCH   1  32
ATOM     32  C   LIG d   1       7.346  -4.511  -6.375  0.00  0.00    -0.035 C 
ATOM     33  H   LIG d   1       7.108  -4.265  -7.410  0.00  0.00     0.028 H 
ATOM     34  H   LIG d   1       8.293  -4.048  -6.100  0.00  0.00     0.028 H 
ATOM     35  H   LIG d   1       7.426  -5.593  -6.268  0.00  0.00     0.028 H 
ENDBRANCH   1  32
BRANCH   9  36
ATOM     36  C   LIG d   1       4.605  -5.863  -5.789  0.00  0.00     0.228 C 
ATOM     37  O   LIG d   1       4.606  -6.872  -5.109  0.00  0.00    -0.283 OA
BRANCH  36  38
ATOM     38  C   LIG d   1       4.148  -5.921  -7.195  0.00  0.00     0.029 A 
ATOM     39  C   LIG d   1       3.564  -4.800  -7.787  0.00  0.00    -0.009 A 
ATOM     40  C   LIG d   1       3.143  -4.859  -9.105  0.00  0.00     0.121 A 
ATOM     41  H   LIG d   1       3.443  -3.889  -7.220  0.00  0.00     0.066 H 
ATOM     42  C   LIG d   1       3.292  -6.034  -9.830  0.00  0.00    -0.020 A 
ATOM     43  C   LIG d   1       3.866  -7.147  -9.243  0.00  0.00    -0.058 A 
ATOM     44  H   LIG d   1       2.959  -6.079 -10.855  0.00  0.00     0.065 H 
ATOM     45  C   LIG d   1       4.294  -7.098  -7.932  0.00  0.00    -0.051 A 
ATOM     46  H   LIG d   1       3.980  -8.058  -9.812  0.00  0.00     0.062 H 
ATOM     47  H   LIG d   1       4.743  -7.969  -7.477  0.00  0.00     0.062 H 
BRANCH  40  48
ATOM     48  O   LIG d   1       2.577  -3.769  -9.687  0.00  0.00    -0.495 OA
BRANCH  48  49
ATOM     49  C   LIG d   1       3.153  -2.497  -9.378  0.00  0.00     0.079 C 
ATOM     50  H   LIG d   1       3.041  -2.297  -8.313  0.00  0.00     0.066 H 
ATOM     51  H   LIG d   1       4.212  -2.505  -9.638  0.00  0.00     0.066 H 
ATOM     52  H   LIG d   1       2.645  -1.720  -9.950  0.00  0.00     0.066 H 
ENDBRANCH  48  49
ENDBRANCH  40  48
ENDBRANCH  36  38
ENDBRANCH   9  36
TORSDOF 9
ENDMDL
MODEL 6
REMARK VINA RESULT:      -5.9      3.698      5.431
REMARK  9 active torsions:
REMARK  status: ('A' for Active; 'I' for Inactive)
REMARK    1  A    between atoms: C_1  and  C_2 
REMARK    2  A    between atoms: C_5  and  N_21 
REMARK    3  A    between atoms: C_10  and  C_11 
REMARK    4  A    between atoms: C_11  and  C_13 
REMARK    5  A    between atoms: C_17  and  O_19 
REMARK    6  A    between atoms: O_19  and  C_20 
REMARK       I    between atoms: N_21  and  C_22 
REMARK    7  A    between atoms: C_22  and  C_24 
REMARK    8  A    between atoms: C_27  and  O_30 
REMARK    9  A    between atoms: O_30  and  C_31 
ROOT
ATOM      1  C   LIG d   1      10.110   5.811  -5.638  0.00  0.00     0.006 A 
ATOM      2  C   LIG d   1       9.890   4.580  -4.882  0.00  0.00     0.025 A 
ATOM      3  C   LIG d   1       9.175   3.404  -5.126  0.00  0.00    -0.029 A 
ATOM      4  C   LIG d   1       9.170   2.401  -4.176  0.00  0.00     0.035 A 
ATOM      5  C   LIG d   1       9.873   2.561  -2.983  0.00  0.00    -0.037 A 
ATOM      6  C   LIG d   1      10.580   3.717  -2.734  0.00  0.00    -0.017 A 
ATOM      7  C   LIG d   1      10.599   4.739  -3.677  0.00  0.00     0.136 A 
ATOM      8  O   LIG d   1      11.189   5.952  -3.708  0.00  0.00    -0.451 OA
ATOM      9  C   LIG d   1      10.907   6.593  -4.860  0.00  0.00     0.179 A 
ATOM     10  H   LIG d   1       8.630   3.280  -6.051  0.00  0.00     0.064 H 
ATOM     11  H   LIG d   1       9.863   1.773  -2.246  0.00  0.00     0.064 H 
ATOM     12  H   LIG d   1      11.122   3.829  -1.807  0.00  0.00     0.066 H 
ENDROOT
BRANCH   4  13
ATOM     13  N   LIG d   1       8.455   1.220  -4.412  0.00  0.00    -0.281 N 
ATOM     14  C   LIG d   1       7.217   1.067  -3.902  0.00  0.00     0.248 C 
ATOM     15  O   LIG d   1       6.681   1.991  -3.320  0.00  0.00    -0.270 OA
ATOM     16  H   LIG d   1       8.851   0.511  -4.942  0.00  0.00     0.155 HD
BRANCH  14  17
ATOM     17  C   LIG d   1       6.511  -0.220  -4.048  0.00  0.00     0.037 A 
ATOM     18  C   LIG d   1       6.651  -0.968  -5.220  0.00  0.00    -0.046 A 
ATOM     19  C   LIG d   1       5.991  -2.170  -5.350  0.00  0.00    -0.019 A 
ATOM     20  H   LIG d   1       7.275  -0.603  -6.022  0.00  0.00     0.063 H 
ATOM     21  C   LIG d   1       5.188  -2.639  -4.318  0.00  0.00     0.120 A 
ATOM     22  H   LIG d   1       6.099  -2.748  -6.256  0.00  0.00     0.065 H 
ATOM     23  C   LIG d   1       5.046  -1.899  -3.151  0.00  0.00    -0.019 A 
ATOM     24  C   LIG d   1       5.707  -0.699  -3.010  0.00  0.00    -0.046 A 
ATOM     25  H   LIG d   1       4.420  -2.267  -2.351  0.00  0.00     0.065 H 
ATOM     26  H   LIG d   1       5.600  -0.127  -2.100  0.00  0.00     0.063 H 
BRANCH  21  27
ATOM     27  O   LIG d   1       4.539  -3.824  -4.452  0.00  0.00    -0.495 OA
BRANCH  27  28
ATOM     28  C   LIG d   1       4.931  -4.659  -5.543  0.00  0.00     0.079 C 
ATOM     29  H   LIG d   1       4.157  -5.406  -5.725  0.00  0.00     0.066 H 
ATOM     30  H   LIG d   1       5.064  -4.049  -6.437  0.00  0.00     0.066 H 
ATOM     31  H   LIG d   1       5.869  -5.158  -5.301  0.00  0.00     0.066 H 
ENDBRANCH  27  28
ENDBRANCH  21  27
ENDBRANCH  14  17
ENDBRANCH   4  13
BRANCH   1  32
ATOM     32  C   LIG d   1       9.560   6.149  -7.001  0.00  0.00    -0.035 C 
ATOM     33  H   LIG d   1       9.743   7.202  -7.215  0.00  0.00     0.028 H 
ATOM     34  H   LIG d   1      10.052   5.533  -7.753  0.00  0.00     0.028 H 
ATOM     35  H   LIG d   1       8.488   5.955  -7.018  0.00  0.00     0.028 H 
ENDBRANCH   1  32
BRANCH   9  36
ATOM     36  C   LIG d   1      11.388   7.932  -5.221  0.00  0.00     0.228 C 
ATOM     37  O   LIG d   1      12.403   8.057  -5.880  0.00  0.00    -0.283 OA
BRANCH  36  38
ATOM     38  C   LIG d   1      10.638   9.130  -4.784  0.00  0.00     0.029 A 
ATOM     39  C   LIG d   1      10.454   9.382  -3.424  0.00  0.00    -0.009 A 
ATOM     40  C   LIG d   1       9.755  10.508  -3.022  0.00  0.00     0.121 A 
ATOM     41  H   LIG d   1      10.857   8.704  -2.688  0.00  0.00     0.066 H 
ATOM     42  C   LIG d   1       9.231  11.376  -3.971  0.00  0.00    -0.020 A 
ATOM     43  C   LIG d   1       9.408  11.124  -5.320  0.00  0.00    -0.058 A 
ATOM     44  H   LIG d   1       8.683  12.251  -3.655  0.00  0.00     0.065 H 
ATOM     45  C   LIG d   1      10.108  10.008  -5.731  0.00  0.00    -0.051 A 
ATOM     46  H   LIG d   1       8.998  11.803  -6.052  0.00  0.00     0.062 H 
ATOM     47  H   LIG d   1      10.245   9.815  -6.785  0.00  0.00     0.062 H 
BRANCH  40  48
ATOM     48  O   LIG d   1       9.577  10.761  -1.699  0.00  0.00    -0.495 OA
BRANCH  48  49
ATOM     49  C   LIG d   1       8.904   9.759  -0.932  0.00  0.00     0.079 C 
ATOM     50  H   LIG d   1       9.410   8.803  -1.060  0.00  0.00     0.066 H 
ATOM     51  H   LIG d   1       8.916  10.039   0.122  0.00  0.00     0.066 H 
ATOM     52  H   LIG d   1       7.872   9.673  -1.274  0.00  0.00     0.066 H 
ENDBRANCH  48  49
ENDBRANCH  40  48
ENDBRANCH  36  38
ENDBRANCH   9  36
TORSDOF 9
ENDMDL
MODEL 7
REMARK VINA RESULT:      -5.9      5.142      7.855
REMARK  9 active torsions:
REMARK  status: ('A' for Active; 'I' for Inactive)
REMARK    1  A    between atoms: C_1  and  C_2 
REMARK    2  A    between atoms: C_5  and  N_21 
REMARK    3  A    between atoms: C_10  and  C_11 
REMARK    4  A    between atoms: C_11  and  C_13 
REMARK    5  A    between atoms: C_17  and  O_19 
REMARK    6  A    between atoms: O_19  and  C_20 
REMARK       I    between atoms: N_21  and  C_22 
REMARK    7  A    between atoms: C_22  and  C_24 
REMARK    8  A    between atoms: C_27  and  O_30 
REMARK    9  A    between atoms: O_30  and  C_31 
ROOT
ATOM      1  C   LIG d   1       3.167  -0.852  -8.102  0.00  0.00     0.006 A 
ATOM      2  C   LIG d   1       2.547  -1.742  -9.081  0.00  0.00     0.025 A 
ATOM      3  C   LIG d   1       1.529  -1.589 -10.027  0.00  0.00    -0.029 A 
ATOM      4  C   LIG d   1       1.170  -2.661 -10.821  0.00  0.00     0.035 A 
ATOM      5  C   LIG d   1       1.819  -3.887 -10.679  0.00  0.00    -0.037 A 
ATOM      6  C   LIG d   1       2.823  -4.047  -9.750  0.00  0.00    -0.017 A 
ATOM      7  C   LIG d   1       3.200  -2.981  -8.941  0.00  0.00     0.136 A 
ATOM      8  O   LIG d   1       4.125  -2.846  -7.968  0.00  0.00    -0.451 OA
ATOM      9  C   LIG d   1       4.115  -1.594  -7.467  0.00  0.00     0.179 A 
ATOM     10  H   LIG d   1       1.027  -0.638 -10.137  0.00  0.00     0.064 H 
ATOM     11  H   LIG d   1       1.531  -4.719 -11.303  0.00  0.00     0.064 H 
ATOM     12  H   LIG d   1       3.318  -5.001  -9.650  0.00  0.00     0.066 H 
ENDROOT
BRANCH   4  13
ATOM     13  N   LIG d   1       0.151  -2.516 -11.771  0.00  0.00    -0.281 N 
ATOM     14  C   LIG d   1       0.453  -2.170 -13.037  0.00  0.00     0.248 C 
ATOM     15  O   LIG d   1       1.616  -2.079 -13.381  0.00  0.00    -0.270 OA
ATOM     16  H   LIG d   1      -0.774  -2.665 -11.517  0.00  0.00     0.155 HD
BRANCH  14  17
ATOM     17  C   LIG d   1      -0.626  -1.900 -14.007  0.00  0.00     0.037 A 
ATOM     18  C   LIG d   1      -0.451  -2.216 -15.357  0.00  0.00    -0.046 A 
ATOM     19  C   LIG d   1      -1.461  -1.964 -16.258  0.00  0.00    -0.019 A 
ATOM     20  H   LIG d   1       0.476  -2.658 -15.693  0.00  0.00     0.063 H 
ATOM     21  C   LIG d   1      -2.653  -1.395 -15.826  0.00  0.00     0.120 A 
ATOM     22  H   LIG d   1      -1.326  -2.208 -17.301  0.00  0.00     0.065 H 
ATOM     23  C   LIG d   1      -2.832  -1.079 -14.485  0.00  0.00    -0.019 A 
ATOM     24  C   LIG d   1      -1.828  -1.334 -13.576  0.00  0.00    -0.046 A 
ATOM     25  H   LIG d   1      -3.760  -0.637 -14.153  0.00  0.00     0.065 H 
ATOM     26  H   LIG d   1      -1.970  -1.092 -12.533  0.00  0.00     0.063 H 
BRANCH  21  27
ATOM     27  O   LIG d   1      -3.646  -1.148 -16.718  0.00  0.00    -0.495 OA
BRANCH  27  28
ATOM     28  C   LIG d   1      -4.369   0.075 -16.561  0.00  0.00     0.079 C 
ATOM     29  H   LIG d   1      -5.228  -0.092 -15.910  0.00  0.00     0.066 H 
ATOM     30  H   LIG d   1      -3.718   0.828 -16.117  0.00  0.00     0.066 H 
ATOM     31  H   LIG d   1      -4.713   0.422 -17.536  0.00  0.00     0.066 H 
ENDBRANCH  27  28
ENDBRANCH  21  27
ENDBRANCH  14  17
ENDBRANCH   4  13
BRANCH   1  32
ATOM     32  C   LIG d   1       2.823   0.593  -7.845  0.00  0.00    -0.035 C 
ATOM     33  H   LIG d   1       3.168   1.202  -8.680  0.00  0.00     0.028 H 
ATOM     34  H   LIG d   1       1.744   0.696  -7.739  0.00  0.00     0.028 H 
ATOM     35  H   LIG d   1       3.311   0.924  -6.928  0.00  0.00     0.028 H 
ENDBRANCH   1  32
BRANCH   9  36
ATOM     36  C   LIG d   1       4.993  -1.106  -6.397  0.00  0.00     0.228 C 
ATOM     37  O   LIG d   1       6.028  -0.530  -6.675  0.00  0.00    -0.283 OA
BRANCH  36  38
ATOM     38  C   LIG d   1       4.619  -1.312  -4.981  0.00  0.00     0.029 A 
ATOM     39  C   LIG d   1       4.239  -0.226  -4.192  0.00  0.00    -0.009 A 
ATOM     40  C   LIG d   1       3.886  -0.427  -2.868  0.00  0.00     0.121 A 
ATOM     41  H   LIG d   1       4.217   0.768  -4.613  0.00  0.00     0.066 H 
ATOM     42  C   LIG d   1       3.921  -1.705  -2.326  0.00  0.00    -0.020 A 
ATOM     43  C   LIG d   1       4.303  -2.783  -3.106  0.00  0.00    -0.058 A 
ATOM     44  H   LIG d   1       3.650  -1.859  -1.293  0.00  0.00     0.065 H 
ATOM     45  C   LIG d   1       4.652  -2.594  -4.428  0.00  0.00    -0.051 A 
ATOM     46  H   LIG d   1       4.329  -3.774  -2.679  0.00  0.00     0.062 H 
ATOM     47  H   LIG d   1       4.949  -3.438  -5.034  0.00  0.00     0.062 H 
BRANCH  40  48
ATOM     48  O   LIG d   1       3.510   0.627  -2.098  0.00  0.00    -0.495 OA
BRANCH  48  49
ATOM     49  C   LIG d   1       3.501   1.914  -2.719  0.00  0.00     0.079 C 
ATOM     50  H   LIG d   1       4.396   2.029  -3.330  0.00  0.00     0.066 H 
ATOM     51  H   LIG d   1       2.616   2.007  -3.350  0.00  0.00     0.066 H 
ATOM     52  H   LIG d   1       3.483   2.689  -1.951  0.00  0.00     0.066 H 
ENDBRANCH  48  49
ENDBRANCH  40  48
ENDBRANCH  36  38
ENDBRANCH   9  36
TORSDOF 9
ENDMDL
MODEL 8
REMARK VINA RESULT:      -5.8      2.254     11.243
REMARK  9 active torsions:
REMARK  status: ('A' for Active; 'I' for Inactive)
REMARK    1  A    between atoms: C_1  and  C_2 
REMARK    2  A    between atoms: C_5  and  N_21 
REMARK    3  A    between atoms: C_10  and  C_11 
REMARK    4  A    between atoms: C_11  and  C_13 
REMARK    5  A    between atoms: C_17  and  O_19 
REMARK    6  A    between atoms: O_19  and  C_20 
REMARK       I    between atoms: N_21  and  C_22 
REMARK    7  A    between atoms: C_22  and  C_24 
REMARK    8  A    between atoms: C_27  and  O_30 
REMARK    9  A    between atoms: O_30  and  C_31 
ROOT
ATOM      1  C   LIG d   1       6.644   0.491  -4.340  0.00  0.00     0.006 A 
ATOM      2  C   LIG d   1       7.690   1.486  -4.564  0.00  0.00     0.025 A 
ATOM      3  C   LIG d   1       8.257   2.494  -3.779  0.00  0.00    -0.029 A 
ATOM      4  C   LIG d   1       9.259   3.287  -4.307  0.00  0.00     0.035 A 
ATOM      5  C   LIG d   1       9.700   3.081  -5.613  0.00  0.00    -0.037 A 
ATOM      6  C   LIG d   1       9.147   2.090  -6.394  0.00  0.00    -0.017 A 
ATOM      7  C   LIG d   1       8.138   1.281  -5.882  0.00  0.00     0.136 A 
ATOM      8  O   LIG d   1       7.427   0.259  -6.400  0.00  0.00    -0.451 OA
ATOM      9  C   LIG d   1       6.543  -0.216  -5.499  0.00  0.00     0.179 A 
ATOM     10  H   LIG d   1       7.916   2.653  -2.766  0.00  0.00     0.064 H 
ATOM     11  H   LIG d   1      10.482   3.705  -6.017  0.00  0.00     0.064 H 
ATOM     12  H   LIG d   1       9.497   1.940  -7.404  0.00  0.00     0.066 H 
ENDROOT
BRANCH   4  13
ATOM     13  N   LIG d   1       9.832   4.299  -3.527  0.00  0.00    -0.281 N 
ATOM     14  C   LIG d   1      10.663   3.982  -2.515  0.00  0.00     0.248 C 
ATOM     15  O   LIG d   1      10.994   2.826  -2.340  0.00  0.00    -0.270 OA
ATOM     16  H   LIG d   1       9.631   5.229  -3.716  0.00  0.00     0.155 HD
BRANCH  14  17
ATOM     17  C   LIG d   1      11.172   5.039  -1.619  0.00  0.00     0.037 A 
ATOM     18  C   LIG d   1      12.549   5.223  -1.463  0.00  0.00    -0.046 A 
ATOM     19  C   LIG d   1      13.018   6.211  -0.627  0.00  0.00    -0.019 A 
ATOM     20  H   LIG d   1      13.243   4.592  -1.999  0.00  0.00     0.063 H 
ATOM     21  C   LIG d   1      12.126   7.024   0.061  0.00  0.00     0.120 A 
ATOM     22  H   LIG d   1      14.082   6.354  -0.507  0.00  0.00     0.065 H 
ATOM     23  C   LIG d   1      10.757   6.844  -0.090  0.00  0.00    -0.019 A 
ATOM     24  C   LIG d   1      10.278   5.861  -0.929  0.00  0.00    -0.046 A 
ATOM     25  H   LIG d   1      10.066   7.477   0.447  0.00  0.00     0.065 H 
ATOM     26  H   LIG d   1       9.213   5.726  -1.050  0.00  0.00     0.063 H 
BRANCH  21  27
ATOM     27  O   LIG d   1      12.594   7.996   0.885  0.00  0.00    -0.495 OA
BRANCH  27  28
ATOM     28  C   LIG d   1      11.752   9.133   1.090  0.00  0.00     0.079 C 
ATOM     29  H   LIG d   1      12.367  10.031   1.166  0.00  0.00     0.066 H 
ATOM     30  H   LIG d   1      11.065   9.233   0.249  0.00  0.00     0.066 H 
ATOM     31  H   LIG d   1      11.183   9.003   2.011  0.00  0.00     0.066 H 
ENDBRANCH  27  28
ENDBRANCH  21  27
ENDBRANCH  14  17
ENDBRANCH   4  13
BRANCH   1  32
ATOM     32  C   LIG d   1       5.837   0.291  -3.082  0.00  0.00    -0.035 C 
ATOM     33  H   LIG d   1       4.866  -0.134  -3.337  0.00  0.00     0.028 H 
ATOM     34  H   LIG d   1       6.368  -0.388  -2.416  0.00  0.00     0.028 H 
ATOM     35  H   LIG d   1       5.695   1.250  -2.586  0.00  0.00     0.028 H 
ENDBRANCH   1  32
BRANCH   9  36
ATOM     36  C   LIG d   1       5.612  -1.326  -5.732  0.00  0.00     0.228 C 
ATOM     37  O   LIG d   1       5.707  -2.348  -5.078  0.00  0.00    -0.283 OA
BRANCH  36  38
ATOM     38  C   LIG d   1       4.557  -1.203  -6.762  0.00  0.00     0.029 A 
ATOM     39  C   LIG d   1       4.500  -2.115  -7.817  0.00  0.00    -0.009 A 
ATOM     40  C   LIG d   1       3.507  -1.997  -8.775  0.00  0.00     0.121 A 
ATOM     41  H   LIG d   1       5.225  -2.913  -7.884  0.00  0.00     0.066 H 
ATOM     42  C   LIG d   1       2.580  -0.967  -8.691  0.00  0.00    -0.020 A 
ATOM     43  C   LIG d   1       2.639  -0.059  -7.650  0.00  0.00    -0.058 A 
ATOM     44  H   LIG d   1       1.809  -0.875  -9.442  0.00  0.00     0.065 H 
ATOM     45  C   LIG d   1       3.620  -0.170  -6.686  0.00  0.00    -0.051 A 
ATOM     46  H   LIG d   1       1.915   0.740  -7.590  0.00  0.00     0.062 H 
ATOM     47  H   LIG d   1       3.663   0.540  -5.874  0.00  0.00     0.062 H 
BRANCH  40  48
ATOM     48  O   LIG d   1       3.444  -2.886  -9.801  0.00  0.00    -0.495 OA
BRANCH  48  49
ATOM     49  C   LIG d   1       2.189  -3.533 -10.023  0.00  0.00     0.079 C 
ATOM     50  H   LIG d   1       2.083  -4.368  -9.331  0.00  0.00     0.066 H 
ATOM     51  H   LIG d   1       1.379  -2.820  -9.861  0.00  0.00     0.066 H 
ATOM     52  H   LIG d   1       2.147  -3.903 -11.048  0.00  0.00     0.066 H 
ENDBRANCH  48  49
ENDBRANCH  40  48
ENDBRANCH  36  38
ENDBRANCH   9  36
TORSDOF 9
ENDMDL
MODEL 9
REMARK VINA RESULT:      -5.8      3.743      5.934
REMARK  9 active torsions:
REMARK  status: ('A' for Active; 'I' for Inactive)
REMARK    1  A    between atoms: C_1  and  C_2 
REMARK    2  A    between atoms: C_5  and  N_21 
REMARK    3  A    between atoms: C_10  and  C_11 
REMARK    4  A    between atoms: C_11  and  C_13 
REMARK    5  A    between atoms: C_17  and  O_19 
REMARK    6  A    between atoms: O_19  and  C_20 
REMARK       I    between atoms: N_21  and  C_22 
REMARK    7  A    between atoms: C_22  and  C_24 
REMARK    8  A    between atoms: C_27  and  O_30 
REMARK    9  A    between atoms: O_30  and  C_31 
ROOT
ATOM      1  C   LIG d   1      10.349   5.469  -6.100  0.00  0.00     0.006 A 
ATOM      2  C   LIG d   1      10.019   4.338  -5.236  0.00  0.00     0.025 A 
ATOM      3  C   LIG d   1       9.270   3.170  -5.408  0.00  0.00    -0.029 A 
ATOM      4  C   LIG d   1       9.149   2.278  -4.359  0.00  0.00     0.035 A 
ATOM      5  C   LIG d   1       9.768   2.543  -3.139  0.00  0.00    -0.037 A 
ATOM      6  C   LIG d   1      10.508   3.692  -2.961  0.00  0.00    -0.017 A 
ATOM      7  C   LIG d   1      10.643   4.602  -4.004  0.00  0.00     0.136 A 
ATOM      8  O   LIG d   1      11.288   5.781  -4.117  0.00  0.00    -0.451 OA
ATOM      9  C   LIG d   1      11.122   6.302  -5.350  0.00  0.00     0.179 A 
ATOM     10  H   LIG d   1       8.791   2.965  -6.354  0.00  0.00     0.064 H 
ATOM     11  H   LIG d   1       9.668   1.841  -2.325  0.00  0.00     0.064 H 
ATOM     12  H   LIG d   1      10.983   3.885  -2.011  0.00  0.00     0.066 H 
ENDROOT
BRANCH   4  13
ATOM     13  N   LIG d   1       8.400   1.106  -4.523  0.00  0.00    -0.281 N 
ATOM     14  C   LIG d   1       7.184   0.998  -3.953  0.00  0.00     0.248 C 
ATOM     15  O   LIG d   1       6.694   1.951  -3.379  0.00  0.00    -0.270 OA
ATOM     16  H   LIG d   1       8.757   0.372  -5.047  0.00  0.00     0.155 HD
BRANCH  14  17
ATOM     17  C   LIG d   1       6.446  -0.279  -4.023  0.00  0.00     0.037 A 
ATOM     18  C   LIG d   1       5.745  -0.746  -2.908  0.00  0.00    -0.046 A 
ATOM     19  C   LIG d   1       5.057  -1.936  -2.979  0.00  0.00    -0.019 A 
ATOM     20  H   LIG d   1       5.744  -0.173  -1.992  0.00  0.00     0.063 H 
ATOM     21  C   LIG d   1       5.059  -2.673  -4.158  0.00  0.00     0.120 A 
ATOM     22  H   LIG d   1       4.515  -2.298  -2.118  0.00  0.00     0.065 H 
ATOM     23  C   LIG d   1       5.755  -2.212  -5.269  0.00  0.00    -0.019 A 
ATOM     24  C   LIG d   1       6.441  -1.019  -5.208  0.00  0.00    -0.046 A 
ATOM     25  H   LIG d   1       5.755  -2.788  -6.183  0.00  0.00     0.065 H 
ATOM     26  H   LIG d   1       6.977  -0.660  -6.074  0.00  0.00     0.063 H 
BRANCH  21  27
ATOM     27  O   LIG d   1       4.380  -3.846  -4.223  0.00  0.00    -0.495 OA
BRANCH  27  28
ATOM     28  C   LIG d   1       4.740  -4.747  -5.272  0.00  0.00     0.079 C 
ATOM     29  H   LIG d   1       4.629  -4.247  -6.235  0.00  0.00     0.066 H 
ATOM     30  H   LIG d   1       5.777  -5.059  -5.143  0.00  0.00     0.066 H 
ATOM     31  H   LIG d   1       4.091  -5.622  -5.239  0.00  0.00     0.066 H 
ENDBRANCH  27  28
ENDBRANCH  21  27
ENDBRANCH  14  17
ENDBRANCH   4  13
BRANCH   1  32
ATOM     32  C   LIG d   1       9.918   5.675  -7.530  0.00  0.00    -0.035 C 
ATOM     33  H   LIG d   1       8.841   5.533  -7.608  0.00  0.00     0.028 H 
ATOM     34  H   LIG d   1      10.176   6.686  -7.845  0.00  0.00     0.028 H 
ATOM     35  H   LIG d   1      10.427   4.954  -8.170  0.00  0.00     0.028 H 
ENDBRANCH   1  32
BRANCH   9  36
ATOM     36  C   LIG d   1      11.689   7.574  -5.813  0.00  0.00     0.228 C 
ATOM     37  O   LIG d   1      12.802   7.601  -6.304  0.00  0.00    -0.283 OA
BRANCH  36  38
ATOM     38  C   LIG d   1      10.907   8.822  -5.685  0.00  0.00     0.029 A 
ATOM     39  C   LIG d   1      10.728   9.653  -6.793  0.00  0.00    -0.009 A 
ATOM     40  C   LIG d   1       9.990  10.818  -6.666  0.00  0.00     0.121 A 
ATOM     41  H   LIG d   1      11.160   9.386  -7.745  0.00  0.00     0.066 H 
ATOM     42  C   LIG d   1       9.441  11.163  -5.439  0.00  0.00    -0.020 A 
ATOM     43  C   LIG d   1       9.623  10.344  -4.339  0.00  0.00    -0.058 A 
ATOM     44  H   LIG d   1       8.870  12.074  -5.342  0.00  0.00     0.065 H 
ATOM     45  C   LIG d   1      10.351   9.178  -4.455  0.00  0.00    -0.051 A 
ATOM     46  H   LIG d   1       9.193  10.618  -3.387  0.00  0.00     0.062 H 
ATOM     47  H   LIG d   1      10.490   8.540  -3.594  0.00  0.00     0.062 H 
BRANCH  40  48
ATOM     48  O   LIG d   1       9.809  11.627  -7.743  0.00  0.00    -0.495 OA
BRANCH  48  49
ATOM     49  C   LIG d   1       9.576  13.013  -7.482  0.00  0.00     0.079 C 
ATOM     50  H   LIG d   1       8.865  13.405  -8.208  0.00  0.00     0.066 H 
ATOM     51  H   LIG d   1       9.171  13.129  -6.476  0.00  0.00     0.066 H 
ATOM     52  H   LIG d   1      10.516  13.561  -7.561  0.00  0.00     0.066 H 
ENDBRANCH  48  49
ENDBRANCH  40  48
ENDBRANCH  36  38
ENDBRANCH   9  36
TORSDOF 9
ENDMDL
