MODEL 1
REMARK VINA RESULT:      -7.7      0.000      0.000
REMARK  5 active torsions:
REMARK  status: ('A' for Active; 'I' for Inactive)
REMARK    1  A    between atoms: C_1  and  C_2 
REMARK    2  A    between atoms: C_7  and  C_9 
REMARK    3  A    between atoms: C_7  and  C_10 
REMARK    4  A    between atoms: N_31  and  C_38 
REMARK    5  A    between atoms: N_34  and  C_37 
ROOT
ATOM      1  C   LIG d   1       5.212  -2.352  -4.680  0.00  0.00    -0.010 C 
ATOM      2  C   LIG d   1       5.740  -2.058  -3.231  0.00  0.00    -0.027 C 
ATOM      3  C   LIG d   1       6.191  -0.591  -3.425  0.00  0.00     0.030 C 
ATOM      4  H   LIG d   1       6.947  -0.292  -2.686  0.00  0.00     0.050 H 
ATOM      5  C   LIG d   1       4.938   0.291  -3.393  0.00  0.00    -0.029 C 
ATOM      6  C   LIG d   1       3.704  -0.390  -3.938  0.00  0.00    -0.033 C 
ATOM      7  C   LIG d   1       3.897  -1.611  -4.817  0.00  0.00    -0.041 C 
ATOM      8  N   LIG d   1       6.716  -0.511  -4.803  0.00  0.00    -0.270 N 
ATOM      9  C   LIG d   1       6.366  -1.764  -5.490  0.00  0.00     0.057 C 
ATOM     10  H   LIG d   1       7.243  -2.453  -5.368  0.00  0.00     0.052 H 
ATOM     11  C   LIG d   1       6.175  -1.531  -6.969  0.00  0.00     0.147 C 
ATOM     12  C   LIG d   1       7.442  -0.850  -7.522  0.00  0.00     0.004 C 
ATOM     13  C   LIG d   1       7.814   0.369  -6.727  0.00  0.00     0.043 A 
ATOM     14  C   LIG d   1       7.434   0.518  -5.384  0.00  0.00     0.276 A 
ATOM     15  N   LIG d   1       7.746   1.588  -4.684  0.00  0.00    -0.191 N 
ATOM     16  C   LIG d   1       8.464   2.584  -5.219  0.00  0.00     0.218 A 
ATOM     17  C   LIG d   1       8.810   3.695  -4.423  0.00  0.00     0.056 A 
ATOM     18  C   LIG d   1       9.561   4.678  -5.010  0.00  0.00     0.172 A 
ATOM     19  C   LIG d   1       9.961   4.602  -6.365  0.00  0.00     0.167 A 
ATOM     20  C   LIG d   1       9.635   3.537  -7.159  0.00  0.00    -0.003 A 
ATOM     21  C   LIG d   1       8.878   2.501  -6.570  0.00  0.00     0.050 A 
ATOM     22  C   LIG d   1       8.532   1.365  -7.327  0.00  0.00    -0.037 A 
ATOM     23  O   LIG d   1      10.675   5.714  -6.663  0.00  0.00    -0.453 OA
ATOM     24  C   LIG d   1      10.388   6.656  -5.609  0.00  0.00     0.233 C 
ATOM     25  O   LIG d   1      10.039   5.830  -4.481  0.00  0.00    -0.452 OA
ATOM     26  C   LIG d   1       6.043  -2.863  -7.675  0.00  0.00     0.240 C 
ATOM     27  O   LIG d   1       6.996  -3.609  -7.698  0.00  0.00    -0.274 OA
ATOM     28  N   LIG d   1       4.904  -3.225  -8.277  0.00  0.00    -0.228 N 
ATOM     29  C   LIG d   1       3.864  -2.385  -8.405  0.00  0.00     0.317 C 
ATOM     30  O   LIG d   1       2.830  -2.785  -8.899  0.00  0.00    -0.252 OA
ATOM     31  N   LIG d   1       3.954  -1.108  -8.002  0.00  0.00    -0.228 N 
ATOM     32  C   LIG d   1       5.004  -0.654  -7.303  0.00  0.00     0.240 C 
ATOM     33  O   LIG d   1       5.013   0.506  -6.952  0.00  0.00    -0.274 OA
ATOM     34  H   LIG d   1       4.963  -2.175  -2.489  0.00  0.00     0.029 H 
ATOM     35  H   LIG d   1       6.591  -2.708  -3.005  0.00  0.00     0.029 H 
ATOM     36  H   LIG d   1       4.749   0.606  -2.351  0.00  0.00     0.029 H 
ATOM     37  H   LIG d   1       5.133   1.215  -3.961  0.00  0.00     0.029 H 
ATOM     38  H   LIG d   1       3.714  -1.339  -5.860  0.00  0.00     0.028 H 
ATOM     39  H   LIG d   1       3.081  -2.323  -4.568  0.00  0.00     0.028 H 
ATOM     40  H   LIG d   1       8.261  -1.565  -7.478  0.00  0.00     0.033 H 
ATOM     41  H   LIG d   1       7.263  -0.563  -8.557  0.00  0.00     0.033 H 
ATOM     42  H   LIG d   1       8.496   3.768  -3.389  0.00  0.00     0.072 H 
ATOM     43  H   LIG d   1       9.939   3.494  -8.196  0.00  0.00     0.066 H 
ATOM     44  H   LIG d   1       8.832   1.278  -8.362  0.00  0.00     0.063 H 
ATOM     45  H   LIG d   1      11.274   7.252  -5.383  0.00  0.00     0.117 H 
ATOM     46  H   LIG d   1       9.557   7.302  -5.888  0.00  0.00     0.117 H 
ATOM     47  H   LIG d   1       7.433   1.657  -3.770  0.00  0.00     0.455 HD
ENDROOT
BRANCH   1  48
ATOM     48  C   LIG d   1       5.042  -3.869  -4.890  0.00  0.00    -0.058 C 
ATOM     49  H   LIG d   1       5.472  -4.153  -5.850  0.00  0.00     0.024 H 
ATOM     50  H   LIG d   1       5.554  -4.406  -4.090  0.00  0.00     0.024 H 
ATOM     51  H   LIG d   1       3.982  -4.121  -4.877  0.00  0.00     0.024 H 
ENDBRANCH   1  48
BRANCH  31  52
ATOM     52  C   LIG d   1       2.875  -0.183  -8.366  0.00  0.00     0.012 C 
ATOM     53  H   LIG d   1       1.960  -0.746  -8.545  0.00  0.00     0.043 H 
ATOM     54  H   LIG d   1       2.714   0.525  -7.552  0.00  0.00     0.043 H 
ATOM     55  H   LIG d   1       3.152   0.360  -9.270  0.00  0.00     0.043 H 
ENDBRANCH  31  52
BRANCH  28  56
ATOM     56  C   LIG d   1       4.788  -4.584  -8.818  0.00  0.00     0.012 C 
ATOM     57  H   LIG d   1       5.425  -4.680  -9.697  0.00  0.00     0.043 H 
ATOM     58  H   LIG d   1       5.100  -5.303  -8.062  0.00  0.00     0.043 H 
ATOM     59  H   LIG d   1       3.752  -4.776  -9.097  0.00  0.00     0.043 H 
ENDBRANCH  28  56
BRANCH   6  60
ATOM     60  C   LIG d   1       2.912   0.666  -4.748  0.00  0.00    -0.060 C 
ATOM     61  H   LIG d   1       2.035   0.198  -5.197  0.00  0.00     0.024 H 
ATOM     62  H   LIG d   1       2.594   1.471  -4.084  0.00  0.00     0.024 H 
ATOM     63  H   LIG d   1       3.549   1.074  -5.533  0.00  0.00     0.024 H 
ENDBRANCH   6  60
BRANCH   6  64
ATOM     64  C   LIG d   1       2.787  -0.776  -2.758  0.00  0.00    -0.060 C 
ATOM     65  H   LIG d   1       2.647  -1.857  -2.744  0.00  0.00     0.024 H 
ATOM     66  H   LIG d   1       3.247  -0.458  -1.822  0.00  0.00     0.024 H 
ATOM     67  H   LIG d   1       1.821  -0.286  -2.873  0.00  0.00     0.024 H 
ENDBRANCH   6  64
TORSDOF 5
ENDMDL
MODEL 2
REMARK VINA RESULT:      -7.1      2.825      6.918
REMARK  5 active torsions:
REMARK  status: ('A' for Active; 'I' for Inactive)
REMARK    1  A    between atoms: C_1  and  C_2 
REMARK    2  A    between atoms: C_7  and  C_9 
REMARK    3  A    between atoms: C_7  and  C_10 
REMARK    4  A    between atoms: N_31  and  C_38 
REMARK    5  A    between atoms: N_34  and  C_37 
ROOT
ATOM      1  C   LIG d   1       4.922  -2.863  -4.465  0.00  0.00    -0.010 C 
ATOM      2  C   LIG d   1       4.700  -4.301  -5.054  0.00  0.00    -0.027 C 
ATOM      3  C   LIG d   1       5.037  -4.016  -6.536  0.00  0.00     0.030 C 
ATOM      4  H   LIG d   1       4.579  -4.752  -7.211  0.00  0.00     0.050 H 
ATOM      5  C   LIG d   1       6.563  -3.950  -6.665  0.00  0.00    -0.029 C 
ATOM      6  C   LIG d   1       7.252  -3.421  -5.429  0.00  0.00    -0.033 C 
ATOM      7  C   LIG d   1       6.419  -2.637  -4.432  0.00  0.00    -0.041 C 
ATOM      8  N   LIG d   1       4.542  -2.651  -6.805  0.00  0.00    -0.270 N 
ATOM      9  C   LIG d   1       4.173  -2.045  -5.516  0.00  0.00     0.057 C 
ATOM     10  H   LIG d   1       3.077  -2.240  -5.372  0.00  0.00     0.052 H 
ATOM     11  C   LIG d   1       4.366  -0.549  -5.550  0.00  0.00     0.147 C 
ATOM     12  C   LIG d   1       3.583   0.016  -6.750  0.00  0.00     0.004 C 
ATOM     13  C   LIG d   1       3.922  -0.699  -8.027  0.00  0.00     0.043 A 
ATOM     14  C   LIG d   1       4.405  -2.018  -8.027  0.00  0.00     0.276 A 
ATOM     15  N   LIG d   1       4.715  -2.648  -9.140  0.00  0.00    -0.191 N 
ATOM     16  C   LIG d   1       4.565  -2.063 -10.336  0.00  0.00     0.218 A 
ATOM     17  C   LIG d   1       4.872  -2.787 -11.506  0.00  0.00     0.056 A 
ATOM     18  C   LIG d   1       4.684  -2.151 -12.704  0.00  0.00     0.172 A 
ATOM     19  C   LIG d   1       4.219  -0.817 -12.776  0.00  0.00     0.167 A 
ATOM     20  C   LIG d   1       3.918  -0.093 -11.656  0.00  0.00    -0.003 A 
ATOM     21  C   LIG d   1       4.085  -0.733 -10.408  0.00  0.00     0.050 A 
ATOM     22  C   LIG d   1       3.768  -0.050  -9.219  0.00  0.00    -0.037 A 
ATOM     23  O   LIG d   1       4.145  -0.460 -14.081  0.00  0.00    -0.453 OA
ATOM     24  C   LIG d   1       4.929  -1.436 -14.798  0.00  0.00     0.233 C 
ATOM     25  O   LIG d   1       4.882  -2.610 -13.963  0.00  0.00    -0.452 OA
ATOM     26  C   LIG d   1       3.769   0.064  -4.301  0.00  0.00     0.240 C 
ATOM     27  O   LIG d   1       2.570   0.007  -4.139  0.00  0.00    -0.274 OA
ATOM     28  N   LIG d   1       4.533   0.669  -3.385  0.00  0.00    -0.228 N 
ATOM     29  C   LIG d   1       5.844   0.886  -3.577  0.00  0.00     0.317 C 
ATOM     30  O   LIG d   1       6.506   1.378  -2.687  0.00  0.00    -0.252 OA
ATOM     31  N   LIG d   1       6.433   0.573  -4.743  0.00  0.00    -0.228 N 
ATOM     32  C   LIG d   1       5.797  -0.121  -5.698  0.00  0.00     0.240 C 
ATOM     33  O   LIG d   1       6.394  -0.388  -6.719  0.00  0.00    -0.274 OA
ATOM     34  H   LIG d   1       5.356  -5.028  -4.596  0.00  0.00     0.029 H 
ATOM     35  H   LIG d   1       3.654  -4.597  -4.935  0.00  0.00     0.029 H 
ATOM     36  H   LIG d   1       6.947  -4.961  -6.891  0.00  0.00     0.029 H 
ATOM     37  H   LIG d   1       6.825  -3.323  -7.533  0.00  0.00     0.029 H 
ATOM     38  H   LIG d   1       6.652  -1.573  -4.524  0.00  0.00     0.028 H 
ATOM     39  H   LIG d   1       6.780  -2.914  -3.419  0.00  0.00     0.028 H 
ATOM     40  H   LIG d   1       2.520  -0.100  -6.550  0.00  0.00     0.033 H 
ATOM     41  H   LIG d   1       3.819   1.074  -6.858  0.00  0.00     0.033 H 
ATOM     42  H   LIG d   1       5.242  -3.804 -11.459  0.00  0.00     0.072 H 
ATOM     43  H   LIG d   1       3.572   0.930 -11.723  0.00  0.00     0.066 H 
ATOM     44  H   LIG d   1       3.403   0.967  -9.246  0.00  0.00     0.063 H 
ATOM     45  H   LIG d   1       4.478  -1.643 -15.769  0.00  0.00     0.117 H 
ATOM     46  H   LIG d   1       5.953  -1.089 -14.921  0.00  0.00     0.117 H 
ATOM     47  H   LIG d   1       5.075  -3.545  -9.085  0.00  0.00     0.455 HD
ENDROOT
BRANCH   1  48
ATOM     48  C   LIG d   1       4.293  -2.757  -3.062  0.00  0.00    -0.058 C 
ATOM     49  H   LIG d   1       3.366  -2.186  -3.122  0.00  0.00     0.024 H 
ATOM     50  H   LIG d   1       4.080  -3.758  -2.683  0.00  0.00     0.024 H 
ATOM     51  H   LIG d   1       4.987  -2.255  -2.390  0.00  0.00     0.024 H 
ENDBRANCH   1  48
BRANCH  31  52
ATOM     52  C   LIG d   1       7.807   1.031  -4.978  0.00  0.00     0.012 C 
ATOM     53  H   LIG d   1       8.507   0.314  -4.549  0.00  0.00     0.043 H 
ATOM     54  H   LIG d   1       7.983   1.115  -6.050  0.00  0.00     0.043 H 
ATOM     55  H   LIG d   1       7.950   2.004  -4.508  0.00  0.00     0.043 H 
ENDBRANCH  31  52
BRANCH  28  56
ATOM     56  C   LIG d   1       3.918   1.115  -2.131  0.00  0.00     0.012 C 
ATOM     57  H   LIG d   1       4.659   1.642  -1.530  0.00  0.00     0.043 H 
ATOM     58  H   LIG d   1       3.087   1.784  -2.352  0.00  0.00     0.043 H 
ATOM     59  H   LIG d   1       3.551   0.250  -1.579  0.00  0.00     0.043 H 
ENDBRANCH  28  56
BRANCH   6  60
ATOM     60  C   LIG d   1       8.418  -2.516  -5.900  0.00  0.00    -0.060 C 
ATOM     61  H   LIG d   1       8.152  -1.470  -5.747  0.00  0.00     0.024 H 
ATOM     62  H   LIG d   1       9.315  -2.750  -5.326  0.00  0.00     0.024 H 
ATOM     63  H   LIG d   1       8.608  -2.692  -6.959  0.00  0.00     0.024 H 
ENDBRANCH   6  60
BRANCH   6  64
ATOM     64  C   LIG d   1       7.920  -4.600  -4.689  0.00  0.00    -0.060 C 
ATOM     65  H   LIG d   1       8.466  -4.224  -3.824  0.00  0.00     0.024 H 
ATOM     66  H   LIG d   1       7.154  -5.301  -4.358  0.00  0.00     0.024 H 
ATOM     67  H   LIG d   1       8.610  -5.107  -5.362  0.00  0.00     0.024 H 
ENDBRANCH   6  64
TORSDOF 5
ENDMDL
MODEL 3
REMARK VINA RESULT:      -7.1      8.052     11.172
REMARK  5 active torsions:
REMARK  status: ('A' for Active; 'I' for Inactive)
REMARK    1  A    between atoms: C_1  and  C_2 
REMARK    2  A    between atoms: C_7  and  C_9 
REMARK    3  A    between atoms: C_7  and  C_10 
REMARK    4  A    between atoms: N_31  and  C_38 
REMARK    5  A    between atoms: N_34  and  C_37 
ROOT
ATOM      1  C   LIG d   1      10.599   5.528  -3.636  0.00  0.00    -0.010 C 
ATOM      2  C   LIG d   1       9.822   5.254  -4.972  0.00  0.00    -0.027 C 
ATOM      3  C   LIG d   1      10.059   6.609  -5.679  0.00  0.00     0.030 C 
ATOM      4  H   LIG d   1       9.297   6.813  -6.443  0.00  0.00     0.050 H 
ATOM      5  C   LIG d   1      11.485   6.601  -6.240  0.00  0.00    -0.029 C 
ATOM      6  C   LIG d   1      12.457   5.793  -5.410  0.00  0.00    -0.033 C 
ATOM      7  C   LIG d   1      12.074   5.476  -3.978  0.00  0.00    -0.041 C 
ATOM      8  N   LIG d   1      10.043   7.628  -4.609  0.00  0.00    -0.270 N 
ATOM      9  C   LIG d   1      10.064   6.923  -3.318  0.00  0.00     0.057 C 
ATOM     10  H   LIG d   1       8.995   6.805  -3.000  0.00  0.00     0.052 H 
ATOM     11  C   LIG d   1      10.762   7.750  -2.266  0.00  0.00     0.147 C 
ATOM     12  C   LIG d   1      10.088   9.135  -2.209  0.00  0.00     0.004 C 
ATOM     13  C   LIG d   1      10.003   9.772  -3.567  0.00  0.00     0.043 A 
ATOM     14  C   LIG d   1       9.992   9.003  -4.742  0.00  0.00     0.276 A 
ATOM     15  N   LIG d   1       9.929   9.554  -5.936  0.00  0.00    -0.191 N 
ATOM     16  C   LIG d   1       9.852  10.882  -6.086  0.00  0.00     0.218 A 
ATOM     17  C   LIG d   1       9.746  11.429  -7.381  0.00  0.00     0.056 A 
ATOM     18  C   LIG d   1       9.651  12.791  -7.480  0.00  0.00     0.172 A 
ATOM     19  C   LIG d   1       9.676  13.627  -6.339  0.00  0.00     0.167 A 
ATOM     20  C   LIG d   1       9.781  13.121  -5.073  0.00  0.00    -0.003 A 
ATOM     21  C   LIG d   1       9.861  11.718  -4.942  0.00  0.00     0.050 A 
ATOM     22  C   LIG d   1       9.945  11.133  -3.664  0.00  0.00    -0.037 A 
ATOM     23  O   LIG d   1       9.576  14.915  -6.749  0.00  0.00    -0.453 OA
ATOM     24  C   LIG d   1       9.880  14.899  -8.159  0.00  0.00     0.233 C 
ATOM     25  O   LIG d   1       9.526  13.568  -8.583  0.00  0.00    -0.452 OA
ATOM     26  C   LIG d   1      10.568   7.106  -0.910  0.00  0.00     0.240 C 
ATOM     27  O   LIG d   1       9.453   7.059  -0.440  0.00  0.00    -0.274 OA
ATOM     28  N   LIG d   1      11.599   6.599  -0.223  0.00  0.00    -0.228 N 
ATOM     29  C   LIG d   1      12.870   6.747  -0.627  0.00  0.00     0.317 C 
ATOM     30  O   LIG d   1      13.763   6.210  -0.004  0.00  0.00    -0.252 OA
ATOM     31  N   LIG d   1      13.170   7.487  -1.707  0.00  0.00    -0.228 N 
ATOM     32  C   LIG d   1      12.224   7.965  -2.528  0.00  0.00     0.240 C 
ATOM     33  O   LIG d   1      12.564   8.609  -3.497  0.00  0.00    -0.274 OA
ATOM     34  H   LIG d   1      10.232   4.411  -5.509  0.00  0.00     0.029 H 
ATOM     35  H   LIG d   1       8.760   5.097  -4.761  0.00  0.00     0.029 H 
ATOM     36  H   LIG d   1      11.463   6.198  -7.268  0.00  0.00     0.029 H 
ATOM     37  H   LIG d   1      11.845   7.639  -6.326  0.00  0.00     0.029 H 
ATOM     38  H   LIG d   1      12.651   6.111  -3.300  0.00  0.00     0.028 H 
ATOM     39  H   LIG d   1      12.434   4.446  -3.766  0.00  0.00     0.028 H 
ATOM     40  H   LIG d   1       9.083   9.010  -1.812  0.00  0.00     0.033 H 
ATOM     41  H   LIG d   1      10.665   9.779  -1.546  0.00  0.00     0.033 H 
ATOM     42  H   LIG d   1       9.741  10.799  -8.261  0.00  0.00     0.072 H 
ATOM     43  H   LIG d   1       9.808  13.770  -4.208  0.00  0.00     0.066 H 
ATOM     44  H   LIG d   1       9.957  11.748  -2.775  0.00  0.00     0.063 H 
ATOM     45  H   LIG d   1       9.273  15.639  -8.684  0.00  0.00     0.117 H 
ATOM     46  H   LIG d   1      10.938  15.090  -8.325  0.00  0.00     0.117 H 
ATOM     47  H   LIG d   1       9.957   8.982  -6.717  0.00  0.00     0.455 HD
ENDROOT
BRANCH   1  48
ATOM     48  C   LIG d   1      10.218   4.481  -2.571  0.00  0.00    -0.058 C 
ATOM     49  H   LIG d   1       9.672   3.665  -3.044  0.00  0.00     0.024 H 
ATOM     50  H   LIG d   1      11.124   4.091  -2.105  0.00  0.00     0.024 H 
ATOM     51  H   LIG d   1       9.591   4.947  -1.812  0.00  0.00     0.024 H 
ENDBRANCH   1  48
BRANCH  31  52
ATOM     52  C   LIG d   1      14.579   7.797  -1.973  0.00  0.00     0.012 C 
ATOM     53  H   LIG d   1      14.738   8.871  -1.882  0.00  0.00     0.043 H 
ATOM     54  H   LIG d   1      15.208   7.274  -1.252  0.00  0.00     0.043 H 
ATOM     55  H   LIG d   1      14.838   7.475  -2.982  0.00  0.00     0.043 H 
ENDBRANCH  31  52
BRANCH  28  56
ATOM     56  C   LIG d   1      11.331   5.861   1.016  0.00  0.00     0.012 C 
ATOM     57  H   LIG d   1      11.455   4.793   0.837  0.00  0.00     0.043 H 
ATOM     58  H   LIG d   1      12.027   6.184   1.789  0.00  0.00     0.043 H 
ATOM     59  H   LIG d   1      10.309   6.058   1.342  0.00  0.00     0.043 H 
ENDBRANCH  28  56
BRANCH   6  60
ATOM     60  C   LIG d   1      13.801   6.564  -5.391  0.00  0.00    -0.060 C 
ATOM     61  H   LIG d   1      14.168   6.680  -6.411  0.00  0.00     0.024 H 
ATOM     62  H   LIG d   1      13.650   7.547  -4.945  0.00  0.00     0.024 H 
ATOM     63  H   LIG d   1      14.530   6.007  -4.803  0.00  0.00     0.024 H 
ENDBRANCH   6  60
BRANCH   6  64
ATOM     64  C   LIG d   1      12.754   4.468  -6.144  0.00  0.00    -0.060 C 
ATOM     65  H   LIG d   1      11.907   3.791  -6.029  0.00  0.00     0.024 H 
ATOM     66  H   LIG d   1      12.917   4.668  -7.203  0.00  0.00     0.024 H 
ATOM     67  H   LIG d   1      13.646   4.009  -5.719  0.00  0.00     0.024 H 
ENDBRANCH   6  64
TORSDOF 5
ENDMDL
MODEL 4
REMARK VINA RESULT:      -6.8      3.288      8.004
REMARK  5 active torsions:
REMARK  status: ('A' for Active; 'I' for Inactive)
REMARK    1  A    between atoms: C_1  and  C_2 
REMARK    2  A    between atoms: C_7  and  C_9 
REMARK    3  A    between atoms: C_7  and  C_10 
REMARK    4  A    between atoms: N_31  and  C_38 
REMARK    5  A    between atoms: N_34  and  C_37 
ROOT
ATOM      1  C   LIG d   1       7.259  -0.428  -4.903  0.00  0.00    -0.010 C 
ATOM      2  C   LIG d   1       8.715  -0.942  -5.183  0.00  0.00    -0.027 C 
ATOM      3  C   LIG d   1       8.380  -2.171  -6.059  0.00  0.00     0.030 C 
ATOM      4  H   LIG d   1       9.188  -2.915  -6.051  0.00  0.00     0.050 H 
ATOM      5  C   LIG d   1       8.043  -1.665  -7.466  0.00  0.00    -0.029 C 
ATOM      6  C   LIG d   1       7.395  -0.300  -7.479  0.00  0.00    -0.033 C 
ATOM      7  C   LIG d   1       6.769   0.201  -6.191  0.00  0.00    -0.041 C 
ATOM      8  N   LIG d   1       7.126  -2.726  -5.510  0.00  0.00    -0.270 N 
ATOM      9  C   LIG d   1       6.591  -1.754  -4.543  0.00  0.00     0.057 C 
ATOM     10  H   LIG d   1       6.978  -2.059  -3.535  0.00  0.00     0.052 H 
ATOM     11  C   LIG d   1       5.084  -1.822  -4.490  0.00  0.00     0.147 C 
ATOM     12  C   LIG d   1       4.673  -3.279  -4.202  0.00  0.00     0.004 C 
ATOM     13  C   LIG d   1       5.321  -4.243  -5.155  0.00  0.00     0.043 A 
ATOM     14  C   LIG d   1       6.532  -3.941  -5.799  0.00  0.00     0.276 A 
ATOM     15  N   LIG d   1       7.100  -4.774  -6.643  0.00  0.00    -0.191 N 
ATOM     16  C   LIG d   1       6.556  -5.967  -6.917  0.00  0.00     0.218 A 
ATOM     17  C   LIG d   1       7.217  -6.847  -7.797  0.00  0.00     0.056 A 
ATOM     18  C   LIG d   1       6.630  -8.062  -8.029  0.00  0.00     0.172 A 
ATOM     19  C   LIG d   1       5.400  -8.423  -7.430  0.00  0.00     0.167 A 
ATOM     20  C   LIG d   1       4.737  -7.586  -6.575  0.00  0.00    -0.003 A 
ATOM     21  C   LIG d   1       5.332  -6.335  -6.305  0.00  0.00     0.050 A 
ATOM     22  C   LIG d   1       4.713  -5.439  -5.412  0.00  0.00    -0.037 A 
ATOM     23  O   LIG d   1       5.067  -9.666  -7.853  0.00  0.00    -0.453 OA
ATOM     24  C   LIG d   1       5.890  -9.918  -9.011  0.00  0.00     0.233 C 
ATOM     25  O   LIG d   1       7.050  -9.087  -8.808  0.00  0.00    -0.452 OA
ATOM     26  C   LIG d   1       4.584  -0.982  -3.334  0.00  0.00     0.240 C 
ATOM     27  O   LIG d   1       4.853  -1.325  -2.204  0.00  0.00    -0.274 OA
ATOM     28  N   LIG d   1       3.849   0.117  -3.536  0.00  0.00    -0.228 N 
ATOM     29  C   LIG d   1       3.402   0.465  -4.753  0.00  0.00     0.317 C 
ATOM     30  O   LIG d   1       2.796   1.508  -4.893  0.00  0.00    -0.252 OA
ATOM     31  N   LIG d   1       3.609  -0.326  -5.818  0.00  0.00    -0.228 N 
ATOM     32  C   LIG d   1       4.409  -1.401  -5.761  0.00  0.00     0.240 C 
ATOM     33  O   LIG d   1       4.569  -2.061  -6.765  0.00  0.00    -0.274 OA
ATOM     34  H   LIG d   1       9.312  -0.200  -5.694  0.00  0.00     0.029 H 
ATOM     35  H   LIG d   1       9.192  -1.242  -4.245  0.00  0.00     0.029 H 
ATOM     36  H   LIG d   1       8.970  -1.633  -8.066  0.00  0.00     0.029 H 
ATOM     37  H   LIG d   1       7.382  -2.393  -7.964  0.00  0.00     0.029 H 
ATOM     38  H   LIG d   1       5.680   0.130  -6.267  0.00  0.00     0.028 H 
ATOM     39  H   LIG d   1       6.973   1.292  -6.134  0.00  0.00     0.028 H 
ATOM     40  H   LIG d   1       4.976  -3.526  -3.187  0.00  0.00     0.033 H 
ATOM     41  H   LIG d   1       3.590  -3.361  -4.288  0.00  0.00     0.033 H 
ATOM     42  H   LIG d   1       8.152  -6.573  -8.272  0.00  0.00     0.072 H 
ATOM     43  H   LIG d   1       3.793  -7.870  -6.130  0.00  0.00     0.066 H 
ATOM     44  H   LIG d   1       3.778  -5.693  -4.935  0.00  0.00     0.063 H 
ATOM     45  H   LIG d   1       6.178 -10.969  -9.048  0.00  0.00     0.117 H 
ATOM     46  H   LIG d   1       5.366  -9.635  -9.922  0.00  0.00     0.117 H 
ATOM     47  H   LIG d   1       7.918  -4.507  -7.086  0.00  0.00     0.455 HD
ENDROOT
BRANCH   1  48
ATOM     48  C   LIG d   1       7.262   0.579  -3.736  0.00  0.00    -0.058 C 
ATOM     49  H   LIG d   1       7.273   0.037  -2.790  0.00  0.00     0.024 H 
ATOM     50  H   LIG d   1       8.149   1.210  -3.804  0.00  0.00     0.024 H 
ATOM     51  H   LIG d   1       6.369   1.199  -3.790  0.00  0.00     0.024 H 
ENDBRANCH   1  48
BRANCH  31  52
ATOM     52  C   LIG d   1       2.914  -0.009  -7.070  0.00  0.00     0.012 C 
ATOM     53  H   LIG d   1       2.429   0.963  -6.980  0.00  0.00     0.043 H 
ATOM     54  H   LIG d   1       3.633   0.018  -7.889  0.00  0.00     0.043 H 
ATOM     55  H   LIG d   1       2.162  -0.772  -7.272  0.00  0.00     0.043 H 
ENDBRANCH  31  52
BRANCH  28  56
ATOM     56  C   LIG d   1       3.515   0.968  -2.389  0.00  0.00     0.012 C 
ATOM     57  H   LIG d   1       4.294   0.880  -1.633  0.00  0.00     0.043 H 
ATOM     58  H   LIG d   1       3.440   2.004  -2.716  0.00  0.00     0.043 H 
ATOM     59  H   LIG d   1       2.562   0.650  -1.967  0.00  0.00     0.043 H 
ENDBRANCH  28  56
BRANCH   6  60
ATOM     60  C   LIG d   1       6.298  -0.318  -8.573  0.00  0.00    -0.060 C 
ATOM     61  H   LIG d   1       5.492  -0.986  -8.269  0.00  0.00     0.024 H 
ATOM     62  H   LIG d   1       5.904   0.689  -8.710  0.00  0.00     0.024 H 
ATOM     63  H   LIG d   1       6.728  -0.670  -9.511  0.00  0.00     0.024 H 
ENDBRANCH   6  60
BRANCH   6  64
ATOM     64  C   LIG d   1       8.433   0.739  -7.955  0.00  0.00    -0.060 C 
ATOM     65  H   LIG d   1       8.038   1.281  -8.814  0.00  0.00     0.024 H 
ATOM     66  H   LIG d   1       8.641   1.441  -7.148  0.00  0.00     0.024 H 
ATOM     67  H   LIG d   1       9.353   0.229  -8.239  0.00  0.00     0.024 H 
ENDBRANCH   6  64
TORSDOF 5
ENDMDL
MODEL 5
REMARK VINA RESULT:      -6.8      6.650     12.989
REMARK  5 active torsions:
REMARK  status: ('A' for Active; 'I' for Inactive)
REMARK    1  A    between atoms: C_1  and  C_2 
REMARK    2  A    between atoms: C_7  and  C_9 
REMARK    3  A    between atoms: C_7  and  C_10 
REMARK    4  A    between atoms: N_31  and  C_38 
REMARK    5  A    between atoms: N_34  and  C_37 
ROOT
ATOM      1  C   LIG d   1       9.832  13.119  -4.401  0.00  0.00    -0.010 C 
ATOM      2  C   LIG d   1       8.946  12.718  -3.169  0.00  0.00    -0.027 C 
ATOM      3  C   LIG d   1       9.295  11.214  -3.091  0.00  0.00     0.030 C 
ATOM      4  H   LIG d   1       8.516  10.636  -2.576  0.00  0.00     0.050 H 
ATOM      5  C   LIG d   1      10.672  11.088  -2.429  0.00  0.00    -0.029 C 
ATOM      6  C   LIG d   1      11.593  12.251  -2.722  0.00  0.00    -0.033 C 
ATOM      7  C   LIG d   1      11.267  13.132  -3.912  0.00  0.00    -0.041 C 
ATOM      8  N   LIG d   1       9.468  10.768  -4.488  0.00  0.00    -0.270 N 
ATOM      9  C   LIG d   1       9.487  11.966  -5.342  0.00  0.00     0.057 C 
ATOM     10  H   LIG d   1       8.433  12.127  -5.693  0.00  0.00     0.052 H 
ATOM     11  C   LIG d   1      10.342  11.741  -6.565  0.00  0.00     0.147 C 
ATOM     12  C   LIG d   1       9.842  10.473  -7.283  0.00  0.00     0.004 C 
ATOM     13  C   LIG d   1       9.747   9.301  -6.347  0.00  0.00     0.043 A 
ATOM     14  C   LIG d   1       9.571   9.474  -4.965  0.00  0.00     0.276 A 
ATOM     15  N   LIG d   1       9.497   8.454  -4.137  0.00  0.00    -0.191 N 
ATOM     16  C   LIG d   1       9.568   7.191  -4.580  0.00  0.00     0.218 A 
ATOM     17  C   LIG d   1       9.446   6.127  -3.664  0.00  0.00     0.056 A 
ATOM     18  C   LIG d   1       9.506   4.856  -4.170  0.00  0.00     0.172 A 
ATOM     19  C   LIG d   1       9.702   4.609  -5.549  0.00  0.00     0.167 A 
ATOM     20  C   LIG d   1       9.826   5.624  -6.456  0.00  0.00    -0.003 A 
ATOM     21  C   LIG d   1       9.749   6.945  -5.963  0.00  0.00     0.050 A 
ATOM     22  C   LIG d   1       9.844   8.034  -6.849  0.00  0.00    -0.037 A 
ATOM     23  O   LIG d   1       9.729   3.268  -5.744  0.00  0.00    -0.453 OA
ATOM     24  C   LIG d   1       9.939   2.688  -4.440  0.00  0.00     0.233 C 
ATOM     25  O   LIG d   1       9.404   3.667  -3.527  0.00  0.00    -0.452 OA
ATOM     26  C   LIG d   1      10.160  12.896  -7.526  0.00  0.00     0.240 C 
ATOM     27  O   LIG d   1       9.079  13.056  -8.048  0.00  0.00    -0.274 OA
ATOM     28  N   LIG d   1      11.165  13.732  -7.813  0.00  0.00    -0.228 N 
ATOM     29  C   LIG d   1      12.417  13.522  -7.376  0.00  0.00     0.317 C 
ATOM     30  O   LIG d   1      13.278  14.346  -7.608  0.00  0.00    -0.252 OA
ATOM     31  N   LIG d   1      12.733  12.410  -6.692  0.00  0.00    -0.228 N 
ATOM     32  C   LIG d   1      11.800  11.549  -6.264  0.00  0.00     0.240 C 
ATOM     33  O   LIG d   1      12.152  10.575  -5.633  0.00  0.00    -0.274 OA
ATOM     34  H   LIG d   1       9.218  13.271  -2.281  0.00  0.00     0.029 H 
ATOM     35  H   LIG d   1       7.888  12.867  -3.406  0.00  0.00     0.029 H 
ATOM     36  H   LIG d   1      10.537  10.997  -1.337  0.00  0.00     0.029 H 
ATOM     37  H   LIG d   1      11.146  10.149  -2.758  0.00  0.00     0.029 H 
ATOM     38  H   LIG d   1      11.956  12.905  -4.730  0.00  0.00     0.028 H 
ATOM     39  H   LIG d   1      11.515  14.175  -3.622  0.00  0.00     0.028 H 
ATOM     40  H   LIG d   1       8.856  10.679  -7.694  0.00  0.00     0.033 H 
ATOM     41  H   LIG d   1      10.531  10.231  -8.091  0.00  0.00     0.033 H 
ATOM     42  H   LIG d   1       9.310   6.306  -2.605  0.00  0.00     0.072 H 
ATOM     43  H   LIG d   1       9.985   5.423  -7.507  0.00  0.00     0.066 H 
ATOM     44  H   LIG d   1       9.985   7.874  -7.909  0.00  0.00     0.063 H 
ATOM     45  H   LIG d   1       9.391   1.749  -4.352  0.00  0.00     0.117 H 
ATOM     46  H   LIG d   1      11.000   2.529  -4.258  0.00  0.00     0.117 H 
ATOM     47  H   LIG d   1       9.408   8.626  -3.188  0.00  0.00     0.455 HD
ENDROOT
BRANCH   1  48
ATOM     48  C   LIG d   1       9.399  14.492  -4.949  0.00  0.00    -0.058 C 
ATOM     49  H   LIG d   1      10.118  15.250  -4.638  0.00  0.00     0.024 H 
ATOM     50  H   LIG d   1       9.360  14.453  -6.038  0.00  0.00     0.024 H 
ATOM     51  H   LIG d   1       8.413  14.744  -4.559  0.00  0.00     0.024 H 
ENDBRANCH   1  48
BRANCH  31  52
ATOM     52  C   LIG d   1      14.149  12.128  -6.434  0.00  0.00     0.012 C 
ATOM     53  H   LIG d   1      14.736  12.371  -7.320  0.00  0.00     0.043 H 
ATOM     54  H   LIG d   1      14.493  12.731  -5.594  0.00  0.00     0.043 H 
ATOM     55  H   LIG d   1      14.271  11.071  -6.196  0.00  0.00     0.043 H 
ENDBRANCH  31  52
BRANCH  28  56
ATOM     56  C   LIG d   1      10.891  14.914  -8.637  0.00  0.00     0.012 C 
ATOM     57  H   LIG d   1      11.341  15.792  -8.173  0.00  0.00     0.043 H 
ATOM     58  H   LIG d   1      11.314  14.770  -9.630  0.00  0.00     0.043 H 
ATOM     59  H   LIG d   1       9.814  15.057  -8.718  0.00  0.00     0.043 H 
ENDBRANCH  28  56
BRANCH   6  60
ATOM     60  C   LIG d   1      13.016  11.674  -2.924  0.00  0.00    -0.060 C 
ATOM     61  H   LIG d   1      13.414  11.342  -1.965  0.00  0.00     0.024 H 
ATOM     62  H   LIG d   1      12.973  10.830  -3.612  0.00  0.00     0.024 H 
ATOM     63  H   LIG d   1      13.665  12.447  -3.338  0.00  0.00     0.024 H 
ENDBRANCH   6  60
BRANCH   6  64
ATOM     64  C   LIG d   1      11.684  13.140  -1.464  0.00  0.00    -0.060 C 
ATOM     65  H   LIG d   1      12.133  12.572  -0.649  0.00  0.00     0.024 H 
ATOM     66  H   LIG d   1      12.301  14.012  -1.680  0.00  0.00     0.024 H 
ATOM     67  H   LIG d   1      10.685  13.464  -1.174  0.00  0.00     0.024 H 
ENDBRANCH   6  64
TORSDOF 5
ENDMDL
MODEL 6
REMARK VINA RESULT:      -6.7      1.388      1.708
REMARK  5 active torsions:
REMARK  status: ('A' for Active; 'I' for Inactive)
REMARK    1  A    between atoms: C_1  and  C_2 
REMARK    2  A    between atoms: C_7  and  C_9 
REMARK    3  A    between atoms: C_7  and  C_10 
REMARK    4  A    between atoms: N_31  and  C_38 
REMARK    5  A    between atoms: N_34  and  C_37 
ROOT
ATOM      1  C   LIG d   1       6.291  -3.071  -6.060  0.00  0.00    -0.010 C 
ATOM      2  C   LIG d   1       7.064  -3.445  -4.747  0.00  0.00    -0.027 C 
ATOM      3  C   LIG d   1       7.376  -2.022  -4.229  0.00  0.00     0.030 C 
ATOM      4  H   LIG d   1       8.238  -2.012  -3.547  0.00  0.00     0.050 H 
ATOM      5  C   LIG d   1       6.099  -1.467  -3.589  0.00  0.00    -0.029 C 
ATOM      6  C   LIG d   1       4.829  -1.972  -4.237  0.00  0.00    -0.033 C 
ATOM      7  C   LIG d   1       4.930  -2.564  -5.629  0.00  0.00    -0.041 C 
ATOM      8  N   LIG d   1       7.625  -1.202  -5.432  0.00  0.00    -0.270 N 
ATOM      9  C   LIG d   1       7.231  -1.997  -6.605  0.00  0.00     0.057 C 
ATOM     10  H   LIG d   1       8.158  -2.517  -6.966  0.00  0.00     0.052 H 
ATOM     11  C   LIG d   1       6.750  -1.103  -7.723  0.00  0.00     0.147 C 
ATOM     12  C   LIG d   1       7.843  -0.058  -8.016  0.00  0.00     0.004 C 
ATOM     13  C   LIG d   1       8.280   0.659  -6.770  0.00  0.00     0.043 A 
ATOM     14  C   LIG d   1       8.153   0.074  -5.500  0.00  0.00     0.276 A 
ATOM     15  N   LIG d   1       8.523   0.700  -4.403  0.00  0.00    -0.191 N 
ATOM     16  C   LIG d   1       9.061   1.925  -4.449  0.00  0.00     0.218 A 
ATOM     17  C   LIG d   1       9.481   2.544  -3.254  0.00  0.00     0.056 A 
ATOM     18  C   LIG d   1      10.043   3.789  -3.356  0.00  0.00     0.172 A 
ATOM     19  C   LIG d   1      10.183   4.445  -4.601  0.00  0.00     0.167 A 
ATOM     20  C   LIG d   1       9.781   3.867  -5.774  0.00  0.00    -0.003 A 
ATOM     21  C   LIG d   1       9.216   2.575  -5.697  0.00  0.00     0.050 A 
ATOM     22  C   LIG d   1       8.806   1.916  -6.872  0.00  0.00    -0.037 A 
ATOM     23  O   LIG d   1      10.755   5.654  -4.386  0.00  0.00    -0.453 OA
ATOM     24  C   LIG d   1      10.614   5.906  -2.973  0.00  0.00     0.233 C 
ATOM     25  O   LIG d   1      10.538   4.593  -2.384  0.00  0.00    -0.452 OA
ATOM     26  C   LIG d   1       6.571  -1.925  -8.981  0.00  0.00     0.240 C 
ATOM     27  O   LIG d   1       7.548  -2.412  -9.504  0.00  0.00    -0.274 OA
ATOM     28  N   LIG d   1       5.364  -2.113  -9.527  0.00  0.00    -0.228 N 
ATOM     29  C   LIG d   1       4.268  -1.484  -9.074  0.00  0.00     0.317 C 
ATOM     30  O   LIG d   1       3.186  -1.742  -9.561  0.00  0.00    -0.252 OA
ATOM     31  N   LIG d   1       4.351  -0.569  -8.096  0.00  0.00    -0.228 N 
ATOM     32  C   LIG d   1       5.483  -0.362  -7.409  0.00  0.00     0.240 C 
ATOM     33  O   LIG d   1       5.484   0.466  -6.523  0.00  0.00    -0.274 OA
ATOM     34  H   LIG d   1       6.451  -4.025  -4.071  0.00  0.00     0.029 H 
ATOM     35  H   LIG d   1       7.982  -3.987  -4.995  0.00  0.00     0.029 H 
ATOM     36  H   LIG d   1       6.090  -1.732  -2.517  0.00  0.00     0.029 H 
ATOM     37  H   LIG d   1       6.123  -0.366  -3.632  0.00  0.00     0.029 H 
ATOM     38  H   LIG d   1       4.535  -1.849  -6.356  0.00  0.00     0.028 H 
ATOM     39  H   LIG d   1       4.223  -3.420  -5.670  0.00  0.00     0.028 H 
ATOM     40  H   LIG d   1       8.699  -0.571  -8.449  0.00  0.00     0.033 H 
ATOM     41  H   LIG d   1       7.453   0.667  -8.729  0.00  0.00     0.033 H 
ATOM     42  H   LIG d   1       9.364   2.056  -2.294  0.00  0.00     0.072 H 
ATOM     43  H   LIG d   1       9.885   4.382  -6.719  0.00  0.00     0.066 H 
ATOM     44  H   LIG d   1       8.911   2.390  -7.837  0.00  0.00     0.063 H 
ATOM     45  H   LIG d   1      11.487   6.441  -2.595  0.00  0.00     0.117 H 
ATOM     46  H   LIG d   1       9.706   6.473  -2.774  0.00  0.00     0.117 H 
ATOM     47  H   LIG d   1       8.385   0.267  -3.548  0.00  0.00     0.455 HD
ENDROOT
BRANCH   1  48
ATOM     48  C   LIG d   1       6.182  -4.298  -6.986  0.00  0.00    -0.058 C 
ATOM     49  H   LIG d   1       5.569  -4.046  -7.852  0.00  0.00     0.024 H 
ATOM     50  H   LIG d   1       7.178  -4.592  -7.318  0.00  0.00     0.024 H 
ATOM     51  H   LIG d   1       5.721  -5.122  -6.442  0.00  0.00     0.024 H 
ENDBRANCH   1  48
BRANCH  31  52
ATOM     52  C   LIG d   1       3.166   0.242  -7.795  0.00  0.00     0.012 C 
ATOM     53  H   LIG d   1       3.378   1.289  -8.012  0.00  0.00     0.043 H 
ATOM     54  H   LIG d   1       2.330  -0.093  -8.409  0.00  0.00     0.043 H 
ATOM     55  H   LIG d   1       2.909   0.134  -6.741  0.00  0.00     0.043 H 
ENDBRANCH  31  52
BRANCH  28  56
ATOM     56  C   LIG d   1       5.234  -3.034 -10.661  0.00  0.00     0.012 C 
ATOM     57  H   LIG d   1       5.286  -2.473 -11.594  0.00  0.00     0.043 H 
ATOM     58  H   LIG d   1       6.043  -3.764 -10.630  0.00  0.00     0.043 H 
ATOM     59  H   LIG d   1       4.276  -3.551 -10.601  0.00  0.00     0.043 H 
ENDBRANCH  28  56
BRANCH   6  60
ATOM     60  C   LIG d   1       3.832  -0.787  -4.287  0.00  0.00    -0.060 C 
ATOM     61  H   LIG d   1       4.382   0.153  -4.245  0.00  0.00     0.024 H 
ATOM     62  H   LIG d   1       3.260  -0.832  -5.214  0.00  0.00     0.024 H 
ATOM     63  H   LIG d   1       3.152  -0.849  -3.438  0.00  0.00     0.024 H 
ENDBRANCH   6  60
BRANCH   6  64
ATOM     64  C   LIG d   1       4.179  -3.017  -3.305  0.00  0.00    -0.060 C 
ATOM     65  H   LIG d   1       3.328  -2.568  -2.793  0.00  0.00     0.024 H 
ATOM     66  H   LIG d   1       3.839  -3.867  -3.896  0.00  0.00     0.024 H 
ATOM     67  H   LIG d   1       4.909  -3.354  -2.571  0.00  0.00     0.024 H 
ENDBRANCH   6  64
TORSDOF 5
ENDMDL
MODEL 7
REMARK VINA RESULT:      -6.3      6.560     10.293
REMARK  5 active torsions:
REMARK  status: ('A' for Active; 'I' for Inactive)
REMARK    1  A    between atoms: C_1  and  C_2 
REMARK    2  A    between atoms: C_7  and  C_9 
REMARK    3  A    between atoms: C_7  and  C_10 
REMARK    4  A    between atoms: N_31  and  C_38 
REMARK    5  A    between atoms: N_34  and  C_37 
ROOT
ATOM      1  C   LIG d   1      10.287   5.941  -5.861  0.00  0.00    -0.010 C 
ATOM      2  C   LIG d   1       9.543   7.105  -6.606  0.00  0.00    -0.027 C 
ATOM      3  C   LIG d   1       9.944   8.283  -5.687  0.00  0.00     0.030 C 
ATOM      4  H   LIG d   1       9.238   9.121  -5.762  0.00  0.00     0.050 H 
ATOM      5  C   LIG d   1      11.384   8.677  -6.033  0.00  0.00    -0.029 C 
ATOM      6  C   LIG d   1      12.235   7.515  -6.493  0.00  0.00    -0.033 C 
ATOM      7  C   LIG d   1      11.763   6.113  -6.159  0.00  0.00    -0.041 C 
ATOM      8  N   LIG d   1       9.986   7.728  -4.319  0.00  0.00    -0.270 N 
ATOM      9  C   LIG d   1       9.882   6.265  -4.424  0.00  0.00     0.057 C 
ATOM     10  H   LIG d   1       8.794   6.012  -4.320  0.00  0.00     0.052 H 
ATOM     11  C   LIG d   1      10.615   5.591  -3.289  0.00  0.00     0.147 C 
ATOM     12  C   LIG d   1      10.082   6.159  -1.960  0.00  0.00     0.004 C 
ATOM     13  C   LIG d   1      10.117   7.661  -1.939  0.00  0.00     0.043 A 
ATOM     14  C   LIG d   1      10.078   8.416  -3.122  0.00  0.00     0.276 A 
ATOM     15  N   LIG d   1      10.120   9.731  -3.113  0.00  0.00    -0.191 N 
ATOM     16  C   LIG d   1      10.183  10.418  -1.965  0.00  0.00     0.218 A 
ATOM     17  C   LIG d   1      10.187  11.827  -1.998  0.00  0.00     0.056 A 
ATOM     18  C   LIG d   1      10.233  12.482  -0.796  0.00  0.00     0.172 A 
ATOM     19  C   LIG d   1      10.294  11.784   0.433  0.00  0.00     0.167 A 
ATOM     20  C   LIG d   1      10.295  10.418   0.491  0.00  0.00    -0.003 A 
ATOM     21  C   LIG d   1      10.229   9.719  -0.734  0.00  0.00     0.050 A 
ATOM     22  C   LIG d   1      10.200   8.311  -0.740  0.00  0.00    -0.037 A 
ATOM     23  O   LIG d   1      10.341  12.692   1.438  0.00  0.00    -0.453 OA
ATOM     24  C   LIG d   1      10.700  13.943   0.817  0.00  0.00     0.233 C 
ATOM     25  O   LIG d   1      10.232  13.812  -0.540  0.00  0.00    -0.452 OA
ATOM     26  C   LIG d   1      10.301   4.110  -3.297  0.00  0.00     0.240 C 
ATOM     27  O   LIG d   1       9.168   3.752  -3.062  0.00  0.00    -0.274 OA
ATOM     28  N   LIG d   1      11.246   3.197  -3.548  0.00  0.00    -0.228 N 
ATOM     29  C   LIG d   1      12.541   3.524  -3.676  0.00  0.00     0.317 C 
ATOM     30  O   LIG d   1      13.349   2.667  -3.971  0.00  0.00    -0.252 OA
ATOM     31  N   LIG d   1      12.959   4.785  -3.475  0.00  0.00    -0.228 N 
ATOM     32  C   LIG d   1      12.100   5.801  -3.311  0.00  0.00     0.240 C 
ATOM     33  O   LIG d   1      12.544   6.918  -3.155  0.00  0.00    -0.274 OA
ATOM     34  H   LIG d   1       9.888   7.216  -7.624  0.00  0.00     0.029 H 
ATOM     35  H   LIG d   1       8.463   6.933  -6.582  0.00  0.00     0.029 H 
ATOM     36  H   LIG d   1      11.364   9.448  -6.823  0.00  0.00     0.029 H 
ATOM     37  H   LIG d   1      11.850   9.151  -5.154  0.00  0.00     0.029 H 
ATOM     38  H   LIG d   1      12.371   5.711  -5.345  0.00  0.00     0.028 H 
ATOM     39  H   LIG d   1      12.008   5.471  -7.032  0.00  0.00     0.028 H 
ATOM     40  H   LIG d   1       9.053   5.827  -1.834  0.00  0.00     0.033 H 
ATOM     41  H   LIG d   1      10.691   5.774  -1.144  0.00  0.00     0.033 H 
ATOM     42  H   LIG d   1      10.155  12.369  -2.934  0.00  0.00     0.072 H 
ATOM     43  H   LIG d   1      10.351   9.895   1.436  0.00  0.00     0.066 H 
ATOM     44  H   LIG d   1      10.237   7.753   0.185  0.00  0.00     0.063 H 
ATOM     45  H   LIG d   1      10.193  14.771   1.315  0.00  0.00     0.117 H 
ATOM     46  H   LIG d   1      11.779  14.088   0.843  0.00  0.00     0.117 H 
ATOM     47  H   LIG d   1      10.123  10.205  -3.957  0.00  0.00     0.455 HD
ENDROOT
BRANCH   1  48
ATOM     48  C   LIG d   1       9.759   4.575  -6.340  0.00  0.00    -0.058 C 
ATOM     49  H   LIG d   1      10.365   4.224  -7.176  0.00  0.00     0.024 H 
ATOM     50  H   LIG d   1       9.817   3.856  -5.522  0.00  0.00     0.024 H 
ATOM     51  H   LIG d   1       8.723   4.678  -6.661  0.00  0.00     0.024 H 
ENDBRANCH   1  48
BRANCH  31  52
ATOM     52  C   LIG d   1      14.402   5.041  -3.409  0.00  0.00     0.012 C 
ATOM     53  H   LIG d   1      14.589   6.103  -3.563  0.00  0.00     0.043 H 
ATOM     54  H   LIG d   1      14.779   4.744  -2.430  0.00  0.00     0.043 H 
ATOM     55  H   LIG d   1      14.908   4.466  -4.184  0.00  0.00     0.043 H 
ENDBRANCH  31  52
BRANCH  28  56
ATOM     56  C   LIG d   1      10.854   1.790  -3.685  0.00  0.00     0.012 C 
ATOM     57  H   LIG d   1      11.595   1.263  -4.284  0.00  0.00     0.043 H 
ATOM     58  H   LIG d   1      10.792   1.333  -2.698  0.00  0.00     0.043 H 
ATOM     59  H   LIG d   1       9.882   1.730  -4.174  0.00  0.00     0.043 H 
ENDBRANCH  28  56
BRANCH   6  60
ATOM     60  C   LIG d   1      13.647   7.706  -5.886  0.00  0.00    -0.060 C 
ATOM     61  H   LIG d   1      13.645   7.372  -4.848  0.00  0.00     0.024 H 
ATOM     62  H   LIG d   1      14.370   7.121  -6.455  0.00  0.00     0.024 H 
ATOM     63  H   LIG d   1      13.920   8.760  -5.928  0.00  0.00     0.024 H 
ENDBRANCH   6  60
BRANCH   6  64
ATOM     64  C   LIG d   1      12.428   7.616  -8.022  0.00  0.00    -0.060 C 
ATOM     65  H   LIG d   1      12.709   8.635  -8.286  0.00  0.00     0.024 H 
ATOM     66  H   LIG d   1      13.215   6.930  -8.334  0.00  0.00     0.024 H 
ATOM     67  H   LIG d   1      11.497   7.353  -8.524  0.00  0.00     0.024 H 
ENDBRANCH   6  64
TORSDOF 5
ENDMDL
MODEL 8
REMARK VINA RESULT:      -6.3      6.398      9.087
REMARK  5 active torsions:
REMARK  status: ('A' for Active; 'I' for Inactive)
REMARK    1  A    between atoms: C_1  and  C_2 
REMARK    2  A    between atoms: C_7  and  C_9 
REMARK    3  A    between atoms: C_7  and  C_10 
REMARK    4  A    between atoms: N_31  and  C_38 
REMARK    5  A    between atoms: N_34  and  C_37 
ROOT
ATOM      1  C   LIG d   1       9.616   6.980  -8.984  0.00  0.00    -0.010 C 
ATOM      2  C   LIG d   1       8.907   8.312  -8.551  0.00  0.00    -0.027 C 
ATOM      3  C   LIG d   1       9.465   8.432  -7.113  0.00  0.00     0.030 C 
ATOM      4  H   LIG d   1       8.822   9.050  -6.473  0.00  0.00     0.050 H 
ATOM      5  C   LIG d   1      10.900   8.960  -7.211  0.00  0.00    -0.029 C 
ATOM      6  C   LIG d   1      11.623   8.519  -8.463  0.00  0.00    -0.033 C 
ATOM      7  C   LIG d   1      11.073   7.323  -9.216  0.00  0.00    -0.041 C 
ATOM      8  N   LIG d   1       9.568   7.049  -6.606  0.00  0.00    -0.270 N 
ATOM      9  C   LIG d   1       9.346   6.137  -7.739  0.00  0.00     0.057 C 
ATOM     10  H   LIG d   1       8.253   5.884  -7.737  0.00  0.00     0.052 H 
ATOM     11  C   LIG d   1      10.110   4.849  -7.550  0.00  0.00     0.147 C 
ATOM     12  C   LIG d   1       9.724   4.250  -6.184  0.00  0.00     0.004 C 
ATOM     13  C   LIG d   1       9.875   5.249  -5.072  0.00  0.00     0.043 A 
ATOM     14  C   LIG d   1       9.803   6.631  -5.308  0.00  0.00     0.276 A 
ATOM     15  N   LIG d   1       9.946   7.513  -4.342  0.00  0.00    -0.191 N 
ATOM     16  C   LIG d   1      10.147   7.130  -3.074  0.00  0.00     0.218 A 
ATOM     17  C   LIG d   1      10.255   8.107  -2.063  0.00  0.00     0.056 A 
ATOM     18  C   LIG d   1      10.442   7.663  -0.781  0.00  0.00     0.172 A 
ATOM     19  C   LIG d   1      10.543   6.286  -0.475  0.00  0.00     0.167 A 
ATOM     20  C   LIG d   1      10.445   5.320  -1.438  0.00  0.00    -0.003 A 
ATOM     21  C   LIG d   1      10.233   5.751  -2.766  0.00  0.00     0.050 A 
ATOM     22  C   LIG d   1      10.097   4.805  -3.799  0.00  0.00    -0.037 A 
ATOM     23  O   LIG d   1      10.735   6.158   0.861  0.00  0.00    -0.453 OA
ATOM     24  C   LIG d   1      11.140   7.463   1.323  0.00  0.00     0.233 C 
ATOM     25  O   LIG d   1      10.562   8.373   0.367  0.00  0.00    -0.452 OA
ATOM     26  C   LIG d   1       9.684   3.853  -8.608  0.00  0.00     0.240 C 
ATOM     27  O   LIG d   1       8.549   3.433  -8.591  0.00  0.00    -0.274 OA
ATOM     28  N   LIG d   1      10.536   3.426  -9.547  0.00  0.00    -0.228 N 
ATOM     29  C   LIG d   1      11.839   3.747  -9.532  0.00  0.00     0.317 C 
ATOM     30  O   LIG d   1      12.555   3.389 -10.445  0.00  0.00    -0.252 OA
ATOM     31  N   LIG d   1      12.365   4.452  -8.517  0.00  0.00    -0.228 N 
ATOM     32  C   LIG d   1      11.601   5.014  -7.570  0.00  0.00     0.240 C 
ATOM     33  O   LIG d   1      12.139   5.655  -6.692  0.00  0.00    -0.274 OA
ATOM     34  H   LIG d   1       9.182   9.139  -9.189  0.00  0.00     0.029 H 
ATOM     35  H   LIG d   1       7.822   8.173  -8.544  0.00  0.00     0.029 H 
ATOM     36  H   LIG d   1      10.879  10.063  -7.173  0.00  0.00     0.029 H 
ATOM     37  H   LIG d   1      11.466   8.634  -6.323  0.00  0.00     0.029 H 
ATOM     38  H   LIG d   1      11.709   6.454  -9.030  0.00  0.00     0.028 H 
ATOM     39  H   LIG d   1      11.202   7.534 -10.299  0.00  0.00     0.028 H 
ATOM     40  H   LIG d   1       8.686   3.928  -6.232  0.00  0.00     0.033 H 
ATOM     41  H   LIG d   1      10.362   3.391  -5.984  0.00  0.00     0.033 H 
ATOM     42  H   LIG d   1      10.194   9.164  -2.290  0.00  0.00     0.072 H 
ATOM     43  H   LIG d   1      10.533   4.270  -1.193  0.00  0.00     0.066 H 
ATOM     44  H   LIG d   1      10.162   3.746  -3.591  0.00  0.00     0.063 H 
ATOM     45  H   LIG d   1      10.736   7.652   2.319  0.00  0.00     0.117 H 
ATOM     46  H   LIG d   1      12.225   7.547   1.331  0.00  0.00     0.117 H 
ATOM     47  H   LIG d   1       9.920   8.456  -4.561  0.00  0.00     0.455 HD
ENDROOT
BRANCH   1  48
ATOM     48  C   LIG d   1       8.950   6.408 -10.251  0.00  0.00    -0.058 C 
ATOM     49  H   LIG d   1       8.533   5.425 -10.030  0.00  0.00     0.024 H 
ATOM     50  H   LIG d   1       8.152   7.077 -10.575  0.00  0.00     0.024 H 
ATOM     51  H   LIG d   1       9.693   6.318 -11.042  0.00  0.00     0.024 H 
ENDBRANCH   1  48
BRANCH  31  52
ATOM     52  C   LIG d   1      13.824   4.583  -8.439  0.00  0.00     0.012 C 
ATOM     53  H   LIG d   1      14.082   5.321  -7.680  0.00  0.00     0.043 H 
ATOM     54  H   LIG d   1      14.262   3.621  -8.174  0.00  0.00     0.043 H 
ATOM     55  H   LIG d   1      14.212   4.905  -9.406  0.00  0.00     0.043 H 
ENDBRANCH  31  52
BRANCH  28  56
ATOM     56  C   LIG d   1      10.029   2.574 -10.629  0.00  0.00     0.012 C 
ATOM     57  H   LIG d   1       9.534   1.702 -10.203  0.00  0.00     0.043 H 
ATOM     58  H   LIG d   1       9.318   3.138 -11.232  0.00  0.00     0.043 H 
ATOM     59  H   LIG d   1      10.861   2.250 -11.255  0.00  0.00     0.043 H 
ENDBRANCH  28  56
BRANCH   6  60
ATOM     60  C   LIG d   1      13.088   8.206  -8.066  0.00  0.00    -0.060 C 
ATOM     61  H   LIG d   1      13.723   8.254  -8.952  0.00  0.00     0.024 H 
ATOM     62  H   LIG d   1      13.431   8.938  -7.334  0.00  0.00     0.024 H 
ATOM     63  H   LIG d   1      13.141   7.207  -7.634  0.00  0.00     0.024 H 
ENDBRANCH   6  60
BRANCH   6  64
ATOM     64  C   LIG d   1      11.707   9.715  -9.435  0.00  0.00    -0.060 C 
ATOM     65  H   LIG d   1      12.262   9.421 -10.326  0.00  0.00     0.024 H 
ATOM     66  H   LIG d   1      10.700  10.021  -9.720  0.00  0.00     0.024 H 
ATOM     67  H   LIG d   1      12.215  10.545  -8.947  0.00  0.00     0.024 H 
ENDBRANCH   6  64
TORSDOF 5
ENDMDL
MODEL 9
REMARK VINA RESULT:      -6.3      7.383     11.460
REMARK  5 active torsions:
REMARK  status: ('A' for Active; 'I' for Inactive)
REMARK    1  A    between atoms: C_1  and  C_2 
REMARK    2  A    between atoms: C_7  and  C_9 
REMARK    3  A    between atoms: C_7  and  C_10 
REMARK    4  A    between atoms: N_31  and  C_38 
REMARK    5  A    between atoms: N_34  and  C_37 
ROOT
ATOM      1  C   LIG d   1      10.479   8.135  -1.520  0.00  0.00    -0.010 C 
ATOM      2  C   LIG d   1       9.951   6.666  -1.360  0.00  0.00    -0.027 C 
ATOM      3  C   LIG d   1      10.211   6.152  -2.795  0.00  0.00     0.030 C 
ATOM      4  H   LIG d   1       9.573   5.294  -3.047  0.00  0.00     0.050 H 
ATOM      5  C   LIG d   1      11.707   5.843  -2.917  0.00  0.00    -0.029 C 
ATOM      6  C   LIG d   1      12.581   6.739  -2.069  0.00  0.00    -0.033 C 
ATOM      7  C   LIG d   1      11.990   8.046  -1.576  0.00  0.00    -0.041 C 
ATOM      8  N   LIG d   1       9.953   7.301  -3.686  0.00  0.00    -0.270 N 
ATOM      9  C   LIG d   1       9.809   8.499  -2.843  0.00  0.00     0.057 C 
ATOM     10  H   LIG d   1       8.711   8.617  -2.640  0.00  0.00     0.052 H 
ATOM     11  C   LIG d   1      10.269   9.733  -3.580  0.00  0.00     0.147 C 
ATOM     12  C   LIG d   1       9.506   9.815  -4.916  0.00  0.00     0.004 C 
ATOM     13  C   LIG d   1       9.603   8.535  -5.696  0.00  0.00     0.043 A 
ATOM     14  C   LIG d   1       9.835   7.303  -5.064  0.00  0.00     0.276 A 
ATOM     15  N   LIG d   1       9.932   6.178  -5.740  0.00  0.00    -0.191 N 
ATOM     16  C   LIG d   1       9.794   6.153  -7.073  0.00  0.00     0.218 A 
ATOM     17  C   LIG d   1       9.866   4.922  -7.755  0.00  0.00     0.056 A 
ATOM     18  C   LIG d   1       9.699   4.947  -9.113  0.00  0.00     0.172 A 
ATOM     19  C   LIG d   1       9.482   6.155  -9.817  0.00  0.00     0.167 A 
ATOM     20  C   LIG d   1       9.412   7.363  -9.178  0.00  0.00    -0.003 A 
ATOM     21  C   LIG d   1       9.561   7.361  -7.774  0.00  0.00     0.050 A 
ATOM     22  C   LIG d   1       9.472   8.568  -7.056  0.00  0.00    -0.037 A 
ATOM     23  O   LIG d   1       9.367   5.868 -11.136  0.00  0.00    -0.453 OA
ATOM     24  C   LIG d   1       9.898   4.536 -11.292  0.00  0.00     0.233 C 
ATOM     25  O   LIG d   1       9.706   3.924 -10.002  0.00  0.00    -0.452 OA
ATOM     26  C   LIG d   1       9.898  10.963  -2.780  0.00  0.00     0.240 C 
ATOM     27  O   LIG d   1       8.727  11.230  -2.629  0.00  0.00    -0.274 OA
ATOM     28  N   LIG d   1      10.833  11.760  -2.250  0.00  0.00    -0.228 N 
ATOM     29  C   LIG d   1      12.141  11.595  -2.502  0.00  0.00     0.317 C 
ATOM     30  O   LIG d   1      12.953  12.302  -1.942  0.00  0.00    -0.252 OA
ATOM     31  N   LIG d   1      12.565  10.663  -3.371  0.00  0.00    -0.228 N 
ATOM     32  C   LIG d   1      11.736   9.746  -3.892  0.00  0.00     0.240 C 
ATOM     33  O   LIG d   1      12.189   8.920  -4.655  0.00  0.00    -0.274 OA
ATOM     34  H   LIG d   1      10.497   6.123  -0.602  0.00  0.00     0.029 H 
ATOM     35  H   LIG d   1       8.881   6.676  -1.130  0.00  0.00     0.029 H 
ATOM     36  H   LIG d   1      11.880   4.791  -2.631  0.00  0.00     0.029 H 
ATOM     37  H   LIG d   1      12.008   5.926  -3.974  0.00  0.00     0.029 H 
ATOM     38  H   LIG d   1      12.405   8.873  -2.158  0.00  0.00     0.028 H 
ATOM     39  H   LIG d   1      12.377   8.209  -0.547  0.00  0.00     0.028 H 
ATOM     40  H   LIG d   1       8.460  10.021  -4.701  0.00  0.00     0.033 H 
ATOM     41  H   LIG d   1       9.922  10.629  -5.509  0.00  0.00     0.033 H 
ATOM     42  H   LIG d   1      10.046   3.994  -7.226  0.00  0.00     0.072 H 
ATOM     43  H   LIG d   1       9.254   8.281  -9.728  0.00  0.00     0.066 H 
ATOM     44  H   LIG d   1       9.299   9.504  -7.567  0.00  0.00     0.063 H 
ATOM     45  H   LIG d   1       9.338   3.993 -12.056  0.00  0.00     0.117 H 
ATOM     46  H   LIG d   1      10.955   4.572 -11.550  0.00  0.00     0.117 H 
ATOM     47  H   LIG d   1      10.125   5.359  -5.261  0.00  0.00     0.455 HD
ENDROOT
BRANCH   1  48
ATOM     48  C   LIG d   1       9.998   9.008  -0.344  0.00  0.00    -0.058 C 
ATOM     49  H   LIG d   1      10.039  10.059  -0.631  0.00  0.00     0.024 H 
ATOM     50  H   LIG d   1       8.971   8.740  -0.090  0.00  0.00     0.024 H 
ATOM     51  H   LIG d   1      10.641   8.841   0.519  0.00  0.00     0.024 H 
ENDBRANCH   1  48
BRANCH  31  52
ATOM     52  C   LIG d   1      13.975  10.673  -3.775  0.00  0.00     0.012 C 
ATOM     53  H   LIG d   1      14.178  11.569  -4.362  0.00  0.00     0.043 H 
ATOM     54  H   LIG d   1      14.607  10.670  -2.887  0.00  0.00     0.043 H 
ATOM     55  H   LIG d   1      14.188   9.789  -4.375  0.00  0.00     0.043 H 
ENDBRANCH  31  52
BRANCH  28  56
ATOM     56  C   LIG d   1      10.415  12.853  -1.366  0.00  0.00     0.012 C 
ATOM     57  H   LIG d   1      10.682  13.808  -1.818  0.00  0.00     0.043 H 
ATOM     58  H   LIG d   1       9.336  12.809  -1.219  0.00  0.00     0.043 H 
ATOM     59  H   LIG d   1      10.917  12.754  -0.403  0.00  0.00     0.043 H 
ENDBRANCH  28  56
BRANCH   6  60
ATOM     60  C   LIG d   1      13.850   7.065  -2.896  0.00  0.00    -0.060 C 
ATOM     61  H   LIG d   1      13.695   7.991  -3.450  0.00  0.00     0.024 H 
ATOM     62  H   LIG d   1      14.702   7.181  -2.225  0.00  0.00     0.024 H 
ATOM     63  H   LIG d   1      14.046   6.252  -3.595  0.00  0.00     0.024 H 
ENDBRANCH   6  60
BRANCH   6  64
ATOM     64  C   LIG d   1      13.080   5.935  -0.849  0.00  0.00    -0.060 C 
ATOM     65  H   LIG d   1      13.212   6.607  -0.001  0.00  0.00     0.024 H 
ATOM     66  H   LIG d   1      12.347   5.170  -0.595  0.00  0.00     0.024 H 
ATOM     67  H   LIG d   1      14.031   5.463  -1.090  0.00  0.00     0.024 H 
ENDBRANCH   6  64
TORSDOF 5
ENDMDL
MODEL 10
REMARK VINA RESULT:      -6.2      5.170      9.114
REMARK  5 active torsions:
REMARK  status: ('A' for Active; 'I' for Inactive)
REMARK    1  A    between atoms: C_1  and  C_2 
REMARK    2  A    between atoms: C_7  and  C_9 
REMARK    3  A    between atoms: C_7  and  C_10 
REMARK    4  A    between atoms: N_31  and  C_38 
REMARK    5  A    between atoms: N_34  and  C_37 
ROOT
ATOM      1  C   LIG d   1      10.294   5.549  -6.694  0.00  0.00    -0.010 C 
ATOM      2  C   LIG d   1       9.918   7.065  -6.853  0.00  0.00    -0.027 C 
ATOM      3  C   LIG d   1      10.551   7.614  -5.553  0.00  0.00     0.030 C 
ATOM      4  H   LIG d   1      10.089   8.560  -5.238  0.00  0.00     0.050 H 
ATOM      5  C   LIG d   1      12.062   7.731  -5.781  0.00  0.00    -0.029 C 
ATOM      6  C   LIG d   1      12.613   6.685  -6.724  0.00  0.00    -0.033 C 
ATOM      7  C   LIG d   1      11.779   5.443  -6.972  0.00  0.00    -0.041 C 
ATOM      8  N   LIG d   1      10.368   6.556  -4.539  0.00  0.00    -0.270 N 
ATOM      9  C   LIG d   1       9.900   5.346  -5.233  0.00  0.00     0.057 C 
ATOM     10  H   LIG d   1       8.779   5.362  -5.184  0.00  0.00     0.052 H 
ATOM     11  C   LIG d   1      10.367   4.102  -4.516  0.00  0.00     0.147 C 
ATOM     12  C   LIG d   1       9.918   4.190  -3.045  0.00  0.00     0.004 C 
ATOM     13  C   LIG d   1      10.335   5.486  -2.409  0.00  0.00     0.043 A 
ATOM     14  C   LIG d   1      10.561   6.642  -3.172  0.00  0.00     0.276 A 
ATOM     15  N   LIG d   1      10.938   7.778  -2.624  0.00  0.00    -0.191 N 
ATOM     16  C   LIG d   1      11.105   7.890  -1.300  0.00  0.00     0.218 A 
ATOM     17  C   LIG d   1      11.471   9.135  -0.750  0.00  0.00     0.056 A 
ATOM     18  C   LIG d   1      11.611   9.202   0.611  0.00  0.00     0.172 A 
ATOM     19  C   LIG d   1      11.418   8.071   1.438  0.00  0.00     0.167 A 
ATOM     20  C   LIG d   1      11.066   6.852   0.928  0.00  0.00    -0.003 A 
ATOM     21  C   LIG d   1      10.897   6.761  -0.471  0.00  0.00     0.050 A 
ATOM     22  C   LIG d   1      10.510   5.540  -1.055  0.00  0.00    -0.037 A 
ATOM     23  O   LIG d   1      11.636   8.439   2.724  0.00  0.00    -0.453 OA
ATOM     24  C   LIG d   1      12.339   9.697   2.656  0.00  0.00     0.233 C 
ATOM     25  O   LIG d   1      11.935  10.260   1.392  0.00  0.00    -0.452 OA
ATOM     26  C   LIG d   1       9.686   2.891  -5.117  0.00  0.00     0.240 C 
ATOM     27  O   LIG d   1       8.487   2.773  -4.991  0.00  0.00    -0.274 OA
ATOM     28  N   LIG d   1      10.379   1.953  -5.772  0.00  0.00    -0.228 N 
ATOM     29  C   LIG d   1      11.721   1.958  -5.821  0.00  0.00     0.317 C 
ATOM     30  O   LIG d   1      12.299   1.122  -6.485  0.00  0.00    -0.252 OA
ATOM     31  N   LIG d   1      12.433   2.870  -5.141  0.00  0.00    -0.228 N 
ATOM     32  C   LIG d   1      11.855   3.913  -4.528  0.00  0.00     0.240 C 
ATOM     33  O   LIG d   1      12.560   4.712  -3.949  0.00  0.00    -0.274 OA
ATOM     34  H   LIG d   1      10.340   7.492  -7.751  0.00  0.00     0.029 H 
ATOM     35  H   LIG d   1       8.830   7.183  -6.845  0.00  0.00     0.029 H 
ATOM     36  H   LIG d   1      12.287   8.735  -6.181  0.00  0.00     0.029 H 
ATOM     37  H   LIG d   1      12.580   7.664  -4.811  0.00  0.00     0.029 H 
ATOM     38  H   LIG d   1      12.215   4.600  -6.429  0.00  0.00     0.028 H 
ATOM     39  H   LIG d   1      11.904   5.177  -8.044  0.00  0.00     0.028 H 
ATOM     40  H   LIG d   1       8.833   4.112  -3.013  0.00  0.00     0.033 H 
ATOM     41  H   LIG d   1      10.359   3.361  -2.493  0.00  0.00     0.033 H 
ATOM     42  H   LIG d   1      11.635  10.003  -1.376  0.00  0.00     0.072 H 
ATOM     43  H   LIG d   1      10.930   5.992   1.570  0.00  0.00     0.066 H 
ATOM     44  H   LIG d   1      10.347   4.662  -0.445  0.00  0.00     0.063 H 
ATOM     45  H   LIG d   1      12.031  10.346   3.476  0.00  0.00     0.117 H 
ATOM     46  H   LIG d   1      13.415   9.535   2.682  0.00  0.00     0.117 H 
ATOM     47  H   LIG d   1      11.112   8.538  -3.197  0.00  0.00     0.455 HD
ENDROOT
BRANCH   1  48
ATOM     48  C   LIG d   1       9.464   4.688  -7.665  0.00  0.00    -0.058 C 
ATOM     49  H   LIG d   1      10.085   4.394  -8.512  0.00  0.00     0.024 H 
ATOM     50  H   LIG d   1       9.110   3.796  -7.147  0.00  0.00     0.024 H 
ATOM     51  H   LIG d   1       8.611   5.263  -8.023  0.00  0.00     0.024 H 
ENDBRANCH   1  48
BRANCH  31  52
ATOM     52  C   LIG d   1      13.887   2.696  -5.052  0.00  0.00     0.012 C 
ATOM     53  H   LIG d   1      14.222   2.953  -4.047  0.00  0.00     0.043 H 
ATOM     54  H   LIG d   1      14.143   1.658  -5.266  0.00  0.00     0.043 H 
ATOM     55  H   LIG d   1      14.376   3.348  -5.775  0.00  0.00     0.043 H 
ENDBRANCH  31  52
BRANCH  28  56
ATOM     56  C   LIG d   1       9.649   0.879  -6.455  0.00  0.00     0.012 C 
ATOM     57  H   LIG d   1       9.944   0.849  -7.503  0.00  0.00     0.043 H 
ATOM     58  H   LIG d   1       9.883  -0.075  -5.984  0.00  0.00     0.043 H 
ATOM     59  H   LIG d   1       8.578   1.066  -6.384  0.00  0.00     0.043 H 
ENDBRANCH  28  56
BRANCH   6  60
ATOM     60  C   LIG d   1      13.989   6.239  -6.167  0.00  0.00    -0.060 C 
ATOM     61  H   LIG d   1      13.997   5.156  -6.043  0.00  0.00     0.024 H 
ATOM     62  H   LIG d   1      14.775   6.532  -6.863  0.00  0.00     0.024 H 
ATOM     63  H   LIG d   1      14.161   6.717  -5.203  0.00  0.00     0.024 H 
ENDBRANCH   6  60
BRANCH   6  64
ATOM     64  C   LIG d   1      12.917   7.352  -8.083  0.00  0.00    -0.060 C 
ATOM     65  H   LIG d   1      13.744   6.833  -8.566  0.00  0.00     0.024 H 
ATOM     66  H   LIG d   1      12.033   7.297  -8.719  0.00  0.00     0.024 H 
ATOM     67  H   LIG d   1      13.186   8.395  -7.924  0.00  0.00     0.024 H 
ENDBRANCH   6  64
TORSDOF 5
ENDMDL
