MODEL 1
REMARK VINA RESULT:      -6.8      0.000      0.000
REMARK  4 active torsions:
REMARK  status: ('A' for Active; 'I' for Inactive)
REMARK    1  A    between atoms: C_4  and  N_7 
REMARK    2  A    between atoms: C_9  and  C_21 
REMARK    3  A    between atoms: C_10  and  C_12 
REMARK    4  A    between atoms: C_15  and  N_18 
ROOT
ATOM      1  N   LIG d   1      10.073   2.085  -7.936  0.00  0.00    -0.238 N 
ATOM      2  C   LIG d   1       9.054   1.361  -7.431  0.00  0.00     0.044 A 
ATOM      3  C   LIG d   1       8.842   1.769  -6.143  0.00  0.00     0.083 A 
ATOM      4  C   LIG d   1       9.822   2.823  -5.871  0.00  0.00     0.105 A 
ATOM      5  N   LIG d   1      10.539   2.975  -6.963  0.00  0.00    -0.166 NA
ATOM      6  H   LIG d   1       8.501   0.593  -7.952  0.00  0.00     0.084 H 
ENDROOT
BRANCH   3   7
ATOM      7  C   LIG d   1       7.824   1.250  -5.210  0.00  0.00     0.232 A 
ATOM      8  O   LIG d   1       7.226   1.969  -4.241  0.00  0.00    -0.435 OA
ATOM      9  C   LIG d   1       6.354   1.162  -3.595  0.00  0.00     0.156 A 
ATOM     10  C   LIG d   1       6.449  -0.097  -4.208  0.00  0.00     0.111 A 
ATOM     11  C   LIG d   1       5.478   1.350  -2.537  0.00  0.00    -0.016 A 
ATOM     12  N   LIG d   1       7.373   0.020  -5.198  0.00  0.00    -0.209 NA
ATOM     13  C   LIG d   1       5.660  -1.152  -3.745  0.00  0.00    -0.014 A 
ATOM     14  C   LIG d   1       4.795  -0.948  -2.693  0.00  0.00     0.043 A 
ATOM     15  H   LIG d   1       5.727  -2.124  -4.212  0.00  0.00     0.065 H 
ATOM     16  C   LIG d   1       4.705   0.299  -2.090  0.00  0.00    -0.040 A 
ATOM     17 CL   LIG d   1       3.812  -2.259  -2.118  0.00  0.00    -0.084 Cl
ATOM     18  H   LIG d   1       4.023   0.447  -1.266  0.00  0.00     0.063 H 
ATOM     19  H   LIG d   1       5.401   2.318  -2.064  0.00  0.00     0.066 H 
ENDBRANCH   3   7
BRANCH   4  20
ATOM     20  C   LIG d   1       9.981   3.573  -4.601  0.00  0.00     0.003 A 
ATOM     21  C   LIG d   1      10.646   2.991  -3.524  0.00  0.00    -0.046 A 
ATOM     22  C   LIG d   1      10.797   3.695  -2.347  0.00  0.00     0.016 A 
ATOM     23  H   LIG d   1      11.048   1.991  -3.610  0.00  0.00     0.063 H 
ATOM     24  C   LIG d   1      10.278   4.972  -2.231  0.00  0.00     0.273 A 
ATOM     25  H   LIG d   1      11.317   3.248  -1.513  0.00  0.00     0.069 H 
ATOM     26  C   LIG d   1       9.612   5.553  -3.295  0.00  0.00     0.016 A 
ATOM     27  C   LIG d   1       9.461   4.860  -4.479  0.00  0.00    -0.046 A 
ATOM     28  H   LIG d   1       9.209   6.550  -3.200  0.00  0.00     0.069 H 
ATOM     29  H   LIG d   1       8.941   5.314  -5.310  0.00  0.00     0.063 H 
BRANCH  24  30
ATOM     30  N   LIG d   1      10.437   5.722  -0.964  0.00  0.00     0.080 N 
ATOM     31  O   LIG d   1      11.220   5.338  -0.128  0.00  0.00     0.041 OA
ATOM     32  O   LIG d   1       9.782   6.719  -0.767  0.00  0.00    -0.576 OA
ENDBRANCH  24  30
ENDBRANCH   4  20
BRANCH   1  33
ATOM     33  C   LIG d   1      10.589   1.959  -9.231  0.00  0.00     0.065 A 
ATOM     34  C   LIG d   1      11.960   2.026  -9.444  0.00  0.00    -0.036 A 
ATOM     35  C   LIG d   1      12.466   1.902 -10.722  0.00  0.00    -0.060 A 
ATOM     36  H   LIG d   1      12.629   2.174  -8.608  0.00  0.00     0.064 H 
ATOM     37  C   LIG d   1      11.610   1.713 -11.792  0.00  0.00    -0.062 A 
ATOM     38  H   LIG d   1      13.532   1.954 -10.887  0.00  0.00     0.062 H 
ATOM     39  C   LIG d   1      10.244   1.646 -11.584  0.00  0.00    -0.060 A 
ATOM     40  H   LIG d   1      12.008   1.621 -12.791  0.00  0.00     0.062 H 
ATOM     41  C   LIG d   1       9.731   1.769 -10.308  0.00  0.00    -0.036 A 
ATOM     42  H   LIG d   1       9.578   1.498 -12.421  0.00  0.00     0.062 H 
ATOM     43  H   LIG d   1       8.665   1.717 -10.146  0.00  0.00     0.064 H 
ENDBRANCH   1  33
TORSDOF 4
ENDMDL
MODEL 2
REMARK VINA RESULT:      -6.7      2.972      6.994
REMARK  4 active torsions:
REMARK  status: ('A' for Active; 'I' for Inactive)
REMARK    1  A    between atoms: C_4  and  N_7 
REMARK    2  A    between atoms: C_9  and  C_21 
REMARK    3  A    between atoms: C_10  and  C_12 
REMARK    4  A    between atoms: C_15  and  N_18 
ROOT
ATOM      1  N   LIG d   1       6.859   0.504  -4.054  0.00  0.00    -0.238 N 
ATOM      2  C   LIG d   1       7.300   0.435  -5.326  0.00  0.00     0.044 A 
ATOM      3  C   LIG d   1       8.243   1.410  -5.500  0.00  0.00     0.083 A 
ATOM      4  C   LIG d   1       8.364   2.110  -4.218  0.00  0.00     0.105 A 
ATOM      5  N   LIG d   1       7.517   1.541  -3.387  0.00  0.00    -0.166 NA
ATOM      6  H   LIG d   1       6.968  -0.266  -6.076  0.00  0.00     0.084 H 
ENDROOT
BRANCH   3   7
ATOM      7  C   LIG d   1       8.994   1.701  -6.736  0.00  0.00     0.232 A 
ATOM      8  O   LIG d   1      10.286   1.385  -6.948  0.00  0.00    -0.435 OA
ATOM      9  C   LIG d   1      10.623   1.804  -8.188  0.00  0.00     0.156 A 
ATOM     10  C   LIG d   1       9.476   2.403  -8.732  0.00  0.00     0.111 A 
ATOM     11  C   LIG d   1      11.791   1.750  -8.933  0.00  0.00    -0.016 A 
ATOM     12  N   LIG d   1       8.503   2.309  -7.788  0.00  0.00    -0.209 NA
ATOM     13  C   LIG d   1       9.522   2.942 -10.019  0.00  0.00    -0.014 A 
ATOM     14  C   LIG d   1      10.691   2.879 -10.745  0.00  0.00     0.043 A 
ATOM     15  H   LIG d   1       8.643   3.404 -10.444  0.00  0.00     0.065 H 
ATOM     16  C   LIG d   1      11.822   2.286 -10.204  0.00  0.00    -0.040 A 
ATOM     17 CL   LIG d   1      10.749   3.548 -12.347  0.00  0.00    -0.084 Cl
ATOM     18  H   LIG d   1      12.734   2.243 -10.782  0.00  0.00     0.063 H 
ATOM     19  H   LIG d   1      12.676   1.288  -8.519  0.00  0.00     0.066 H 
ENDBRANCH   3   7
BRANCH   4  20
ATOM     20  C   LIG d   1       9.265   3.248  -3.916  0.00  0.00     0.003 A 
ATOM     21  C   LIG d   1       9.144   4.443  -4.622  0.00  0.00    -0.046 A 
ATOM     22  C   LIG d   1       9.981   5.501  -4.333  0.00  0.00     0.016 A 
ATOM     23  H   LIG d   1       8.392   4.544  -5.392  0.00  0.00     0.063 H 
ATOM     24  C   LIG d   1      10.948   5.373  -3.352  0.00  0.00     0.273 A 
ATOM     25  H   LIG d   1       9.884   6.430  -4.875  0.00  0.00     0.069 H 
ATOM     26  C   LIG d   1      11.078   4.186  -2.652  0.00  0.00     0.016 A 
ATOM     27  C   LIG d   1      10.241   3.125  -2.929  0.00  0.00    -0.046 A 
ATOM     28  H   LIG d   1      11.834   4.091  -1.887  0.00  0.00     0.069 H 
ATOM     29  H   LIG d   1      10.342   2.199  -2.381  0.00  0.00     0.063 H 
BRANCH  24  30
ATOM     30  N   LIG d   1      11.848   6.509  -3.049  0.00  0.00     0.080 N 
ATOM     31  O   LIG d   1      11.449   7.644  -3.161  0.00  0.00     0.041 OA
ATOM     32  O   LIG d   1      12.983   6.300  -2.690  0.00  0.00    -0.576 OA
ENDBRANCH  24  30
ENDBRANCH   4  20
BRANCH   1  33
ATOM     33  C   LIG d   1       5.886  -0.331  -3.491  0.00  0.00     0.065 A 
ATOM     34  C   LIG d   1       5.157   0.095  -2.389  0.00  0.00    -0.036 A 
ATOM     35  C   LIG d   1       4.199  -0.730  -1.834  0.00  0.00    -0.060 A 
ATOM     36  H   LIG d   1       5.340   1.072  -1.965  0.00  0.00     0.064 H 
ATOM     37  C   LIG d   1       3.965  -1.982  -2.375  0.00  0.00    -0.062 A 
ATOM     38  H   LIG d   1       3.632  -0.399  -0.977  0.00  0.00     0.062 H 
ATOM     39  C   LIG d   1       4.689  -2.409  -3.473  0.00  0.00    -0.060 A 
ATOM     40  H   LIG d   1       3.218  -2.627  -1.938  0.00  0.00     0.062 H 
ATOM     41  C   LIG d   1       5.649  -1.589  -4.032  0.00  0.00    -0.036 A 
ATOM     42  H   LIG d   1       4.504  -3.386  -3.894  0.00  0.00     0.062 H 
ATOM     43  H   LIG d   1       6.214  -1.924  -4.889  0.00  0.00     0.064 H 
ENDBRANCH   1  33
TORSDOF 4
ENDMDL
MODEL 3
REMARK VINA RESULT:      -6.7      6.371      8.405
REMARK  4 active torsions:
REMARK  status: ('A' for Active; 'I' for Inactive)
REMARK    1  A    between atoms: C_4  and  N_7 
REMARK    2  A    between atoms: C_9  and  C_21 
REMARK    3  A    between atoms: C_10  and  C_12 
REMARK    4  A    between atoms: C_15  and  N_18 
ROOT
ATOM      1  N   LIG d   1       6.897  -5.526  -5.841  0.00  0.00    -0.238 N 
ATOM      2  C   LIG d   1       6.174  -5.093  -6.893  0.00  0.00     0.044 A 
ATOM      3  C   LIG d   1       5.542  -3.937  -6.525  0.00  0.00     0.083 A 
ATOM      4  C   LIG d   1       5.929  -3.672  -5.137  0.00  0.00     0.105 A 
ATOM      5  N   LIG d   1       6.731  -4.645  -4.767  0.00  0.00    -0.166 NA
ATOM      6  H   LIG d   1       6.106  -5.574  -7.857  0.00  0.00     0.084 H 
ENDROOT
BRANCH   3   7
ATOM      7  C   LIG d   1       4.646  -3.118  -7.362  0.00  0.00     0.232 A 
ATOM      8  O   LIG d   1       4.361  -1.819  -7.147  0.00  0.00    -0.435 OA
ATOM      9  C   LIG d   1       3.512  -1.409  -8.116  0.00  0.00     0.156 A 
ATOM     10  C   LIG d   1       3.278  -2.522  -8.938  0.00  0.00     0.111 A 
ATOM     11  C   LIG d   1       2.895  -0.200  -8.400  0.00  0.00    -0.016 A 
ATOM     12  N   LIG d   1       4.006  -3.547  -8.422  0.00  0.00    -0.209 NA
ATOM     13  C   LIG d   1       2.423  -2.403 -10.036  0.00  0.00    -0.014 A 
ATOM     14  C   LIG d   1       1.819  -1.195 -10.304  0.00  0.00     0.043 A 
ATOM     15  H   LIG d   1       2.238  -3.255 -10.673  0.00  0.00     0.065 H 
ATOM     16  C   LIG d   1       2.053  -0.097  -9.488  0.00  0.00    -0.040 A 
ATOM     17 CL   LIG d   1       0.757  -1.045 -11.669  0.00  0.00    -0.084 Cl
ATOM     18  H   LIG d   1       1.573   0.846  -9.707  0.00  0.00     0.063 H 
ATOM     19  H   LIG d   1       3.074   0.660  -7.771  0.00  0.00     0.066 H 
ENDBRANCH   3   7
BRANCH   4  20
ATOM     20  C   LIG d   1       5.492  -2.525  -4.304  0.00  0.00     0.003 A 
ATOM     21  C   LIG d   1       6.277  -1.376  -4.230  0.00  0.00    -0.046 A 
ATOM     22  C   LIG d   1       5.863  -0.309  -3.458  0.00  0.00     0.016 A 
ATOM     23  H   LIG d   1       7.206  -1.317  -4.778  0.00  0.00     0.063 H 
ATOM     24  C   LIG d   1       4.678  -0.383  -2.749  0.00  0.00     0.273 A 
ATOM     25  H   LIG d   1       6.468   0.584  -3.404  0.00  0.00     0.069 H 
ATOM     26  C   LIG d   1       3.897  -1.524  -2.815  0.00  0.00     0.016 A 
ATOM     27  C   LIG d   1       4.298  -2.594  -3.589  0.00  0.00    -0.046 A 
ATOM     28  H   LIG d   1       2.973  -1.578  -2.260  0.00  0.00     0.069 H 
ATOM     29  H   LIG d   1       3.688  -3.484  -3.640  0.00  0.00     0.063 H 
BRANCH  24  30
ATOM     30  N   LIG d   1       4.241   0.761  -1.918  0.00  0.00     0.080 N 
ATOM     31  O   LIG d   1       4.980   1.213  -1.076  0.00  0.00     0.041 OA
ATOM     32  O   LIG d   1       3.145   1.243  -2.083  0.00  0.00    -0.576 OA
ENDBRANCH  24  30
ENDBRANCH   4  20
BRANCH   1  33
ATOM     33  C   LIG d   1       7.686  -6.682  -5.824  0.00  0.00     0.065 A 
ATOM     34  C   LIG d   1       8.068  -7.282  -7.016  0.00  0.00    -0.036 A 
ATOM     35  C   LIG d   1       8.846  -8.423  -6.996  0.00  0.00    -0.060 A 
ATOM     36  H   LIG d   1       7.757  -6.856  -7.959  0.00  0.00     0.064 H 
ATOM     37  C   LIG d   1       9.245  -8.969  -5.790  0.00  0.00    -0.062 A 
ATOM     38  H   LIG d   1       9.144  -8.889  -7.924  0.00  0.00     0.062 H 
ATOM     39  C   LIG d   1       8.866  -8.374  -4.600  0.00  0.00    -0.060 A 
ATOM     40  H   LIG d   1       9.850  -9.864  -5.777  0.00  0.00     0.062 H 
ATOM     41  C   LIG d   1       8.088  -7.233  -4.613  0.00  0.00    -0.036 A 
ATOM     42  H   LIG d   1       9.179  -8.803  -3.660  0.00  0.00     0.062 H 
ATOM     43  H   LIG d   1       7.793  -6.770  -3.683  0.00  0.00     0.064 H 
ENDBRANCH   1  33
TORSDOF 4
ENDMDL
MODEL 4
REMARK VINA RESULT:      -6.7      3.501      7.942
REMARK  4 active torsions:
REMARK  status: ('A' for Active; 'I' for Inactive)
REMARK    1  A    between atoms: C_4  and  N_7 
REMARK    2  A    between atoms: C_9  and  C_21 
REMARK    3  A    between atoms: C_10  and  C_12 
REMARK    4  A    between atoms: C_15  and  N_18 
ROOT
ATOM      1  N   LIG d   1       6.654   0.414  -4.201  0.00  0.00    -0.238 N 
ATOM      2  C   LIG d   1       7.323   1.363  -3.518  0.00  0.00     0.044 A 
ATOM      3  C   LIG d   1       8.128   2.031  -4.399  0.00  0.00     0.083 A 
ATOM      4  C   LIG d   1       7.909   1.419  -5.712  0.00  0.00     0.105 A 
ATOM      5  N   LIG d   1       7.029   0.456  -5.547  0.00  0.00    -0.166 NA
ATOM      6  H   LIG d   1       7.240   1.562  -2.460  0.00  0.00     0.084 H 
ENDROOT
BRANCH   3   7
ATOM      7  C   LIG d   1       9.037   3.150  -4.089  0.00  0.00     0.232 A 
ATOM      8  O   LIG d   1       9.071   4.324  -4.749  0.00  0.00    -0.435 OA
ATOM      9  C   LIG d   1      10.024   5.097  -4.183  0.00  0.00     0.156 A 
ATOM     10  C   LIG d   1      10.586   4.340  -3.143  0.00  0.00     0.111 A 
ATOM     11  C   LIG d   1      10.493   6.378  -4.434  0.00  0.00    -0.016 A 
ATOM     12  N   LIG d   1       9.935   3.147  -3.135  0.00  0.00    -0.209 NA
ATOM     13  C   LIG d   1      11.615   4.882  -2.371  0.00  0.00    -0.014 A 
ATOM     14  C   LIG d   1      12.069   6.156  -2.634  0.00  0.00     0.043 A 
ATOM     15  H   LIG d   1      12.052   4.306  -1.569  0.00  0.00     0.065 H 
ATOM     16  C   LIG d   1      11.510   6.901  -3.663  0.00  0.00    -0.040 A 
ATOM     17 CL   LIG d   1      13.348   6.832  -1.674  0.00  0.00    -0.084 Cl
ATOM     18  H   LIG d   1      11.874   7.898  -3.861  0.00  0.00     0.063 H 
ATOM     19  H   LIG d   1      10.062   6.964  -5.232  0.00  0.00     0.066 H 
ENDBRANCH   3   7
BRANCH   4  20
ATOM     20  C   LIG d   1       8.563   1.807  -6.986  0.00  0.00     0.003 A 
ATOM     21  C   LIG d   1       7.795   2.265  -8.054  0.00  0.00    -0.046 A 
ATOM     22  C   LIG d   1       8.408   2.631  -9.235  0.00  0.00     0.016 A 
ATOM     23  H   LIG d   1       6.721   2.340  -7.958  0.00  0.00     0.063 H 
ATOM     24  C   LIG d   1       9.782   2.531  -9.364  0.00  0.00     0.273 A 
ATOM     25  H   LIG d   1       7.815   2.992 -10.062  0.00  0.00     0.069 H 
ATOM     26  C   LIG d   1      10.549   2.070  -8.308  0.00  0.00     0.016 A 
ATOM     27  C   LIG d   1       9.947   1.708  -7.121  0.00  0.00    -0.046 A 
ATOM     28  H   LIG d   1      11.621   1.994  -8.413  0.00  0.00     0.069 H 
ATOM     29  H   LIG d   1      10.546   1.349  -6.297  0.00  0.00     0.063 H 
BRANCH  24  30
ATOM     30  N   LIG d   1      10.435   2.918 -10.634  0.00  0.00     0.080 N 
ATOM     31  O   LIG d   1      11.567   2.563 -10.866  0.00  0.00     0.041 OA
ATOM     32  O   LIG d   1       9.835   3.590 -11.441  0.00  0.00    -0.576 OA
ENDBRANCH  24  30
ENDBRANCH   4  20
BRANCH   1  33
ATOM     33  C   LIG d   1       5.730  -0.481  -3.646  0.00  0.00     0.065 A 
ATOM     34  C   LIG d   1       5.470  -1.691  -4.275  0.00  0.00    -0.036 A 
ATOM     35  C   LIG d   1       4.559  -2.572  -3.726  0.00  0.00    -0.060 A 
ATOM     36  H   LIG d   1       5.981  -1.944  -5.193  0.00  0.00     0.064 H 
ATOM     37  C   LIG d   1       3.904  -2.249  -2.551  0.00  0.00    -0.062 A 
ATOM     38  H   LIG d   1       4.357  -3.513  -4.215  0.00  0.00     0.062 H 
ATOM     39  C   LIG d   1       4.161  -1.044  -1.922  0.00  0.00    -0.060 A 
ATOM     40  H   LIG d   1       3.189  -2.937  -2.126  0.00  0.00     0.062 H 
ATOM     41  C   LIG d   1       5.071  -0.159  -2.466  0.00  0.00    -0.036 A 
ATOM     42  H   LIG d   1       3.649  -0.795  -1.005  0.00  0.00     0.062 H 
ATOM     43  H   LIG d   1       5.271   0.781  -1.974  0.00  0.00     0.064 H 
ENDBRANCH   1  33
TORSDOF 4
ENDMDL
MODEL 5
REMARK VINA RESULT:      -6.7      5.945      9.295
REMARK  4 active torsions:
REMARK  status: ('A' for Active; 'I' for Inactive)
REMARK    1  A    between atoms: C_4  and  N_7 
REMARK    2  A    between atoms: C_9  and  C_21 
REMARK    3  A    between atoms: C_10  and  C_12 
REMARK    4  A    between atoms: C_15  and  N_18 
ROOT
ATOM      1  N   LIG d   1       5.016  -6.423  -5.996  0.00  0.00    -0.238 N 
ATOM      2  C   LIG d   1       4.605  -5.752  -7.090  0.00  0.00     0.044 A 
ATOM      3  C   LIG d   1       4.550  -4.422  -6.774  0.00  0.00     0.083 A 
ATOM      4  C   LIG d   1       4.964  -4.307  -5.374  0.00  0.00     0.105 A 
ATOM      5  N   LIG d   1       5.227  -5.523  -4.947  0.00  0.00    -0.166 NA
ATOM      6  H   LIG d   1       4.362  -6.187  -8.048  0.00  0.00     0.084 H 
ENDROOT
BRANCH   3   7
ATOM      7  C   LIG d   1       4.151  -3.320  -7.669  0.00  0.00     0.232 A 
ATOM      8  O   LIG d   1       3.170  -3.388  -8.589  0.00  0.00    -0.435 OA
ATOM      9  C   LIG d   1       3.093  -2.190  -9.212  0.00  0.00     0.156 A 
ATOM     10  C   LIG d   1       4.082  -1.378  -8.636  0.00  0.00     0.111 A 
ATOM     11  C   LIG d   1       2.287  -1.684 -10.220  0.00  0.00    -0.016 A 
ATOM     12  N   LIG d   1       4.702  -2.132  -7.690  0.00  0.00    -0.209 NA
ATOM     13  C   LIG d   1       4.249  -0.067  -9.086  0.00  0.00    -0.014 A 
ATOM     14  C   LIG d   1       3.439   0.419 -10.089  0.00  0.00     0.043 A 
ATOM     15  H   LIG d   1       5.008   0.564  -8.648  0.00  0.00     0.065 H 
ATOM     16  C   LIG d   1       2.462  -0.387 -10.655  0.00  0.00    -0.040 A 
ATOM     17 CL   LIG d   1       3.644   2.050 -10.649  0.00  0.00    -0.084 Cl
ATOM     18  H   LIG d   1       1.833   0.004 -11.441  0.00  0.00     0.063 H 
ATOM     19  H   LIG d   1       1.523  -2.306 -10.665  0.00  0.00     0.066 H 
ENDBRANCH   3   7
BRANCH   4  20
ATOM     20  C   LIG d   1       5.063  -3.055  -4.584  0.00  0.00     0.003 A 
ATOM     21  C   LIG d   1       6.185  -2.238  -4.706  0.00  0.00    -0.046 A 
ATOM     22  C   LIG d   1       6.269  -1.071  -3.974  0.00  0.00     0.016 A 
ATOM     23  H   LIG d   1       6.986  -2.513  -5.376  0.00  0.00     0.063 H 
ATOM     24  C   LIG d   1       5.248  -0.719  -3.109  0.00  0.00     0.273 A 
ATOM     25  H   LIG d   1       7.135  -0.434  -4.071  0.00  0.00     0.069 H 
ATOM     26  C   LIG d   1       4.134  -1.530  -2.979  0.00  0.00     0.016 A 
ATOM     27  C   LIG d   1       4.037  -2.695  -3.712  0.00  0.00    -0.046 A 
ATOM     28  H   LIG d   1       3.339  -1.251  -2.304  0.00  0.00     0.069 H 
ATOM     29  H   LIG d   1       3.167  -3.328  -3.611  0.00  0.00     0.063 H 
BRANCH  24  30
ATOM     30  N   LIG d   1       5.345   0.530  -2.321  0.00  0.00     0.080 N 
ATOM     31  O   LIG d   1       6.105   1.405  -2.664  0.00  0.00     0.041 OA
ATOM     32  O   LIG d   1       4.663   0.674  -1.332  0.00  0.00    -0.576 OA
ENDBRANCH  24  30
ENDBRANCH   4  20
BRANCH   1  33
ATOM     33  C   LIG d   1       5.197  -7.810  -5.919  0.00  0.00     0.065 A 
ATOM     34  C   LIG d   1       4.590  -8.643  -6.849  0.00  0.00    -0.036 A 
ATOM     35  C   LIG d   1       4.769 -10.010  -6.771  0.00  0.00    -0.060 A 
ATOM     36  H   LIG d   1       3.977  -8.222  -7.634  0.00  0.00     0.064 H 
ATOM     37  C   LIG d   1       5.553 -10.550  -5.767  0.00  0.00    -0.062 A 
ATOM     38  H   LIG d   1       4.297 -10.659  -7.495  0.00  0.00     0.062 H 
ATOM     39  C   LIG d   1       6.159  -9.723  -4.840  0.00  0.00    -0.060 A 
ATOM     40  H   LIG d   1       5.688 -11.620  -5.706  0.00  0.00     0.062 H 
ATOM     41  C   LIG d   1       5.983  -8.355  -4.912  0.00  0.00    -0.036 A 
ATOM     42  H   LIG d   1       6.770 -10.147  -4.057  0.00  0.00     0.062 H 
ATOM     43  H   LIG d   1       6.457  -7.710  -4.187  0.00  0.00     0.064 H 
ENDBRANCH   1  33
TORSDOF 4
ENDMDL
MODEL 6
REMARK VINA RESULT:      -6.6      6.404     10.419
REMARK  4 active torsions:
REMARK  status: ('A' for Active; 'I' for Inactive)
REMARK    1  A    between atoms: C_4  and  N_7 
REMARK    2  A    between atoms: C_9  and  C_21 
REMARK    3  A    between atoms: C_10  and  C_12 
REMARK    4  A    between atoms: C_15  and  N_18 
ROOT
ATOM      1  N   LIG d   1       4.709  -7.383  -6.326  0.00  0.00    -0.238 N 
ATOM      2  C   LIG d   1       4.962  -6.525  -5.318  0.00  0.00     0.044 A 
ATOM      3  C   LIG d   1       4.914  -5.255  -5.822  0.00  0.00     0.083 A 
ATOM      4  C   LIG d   1       4.606  -5.381  -7.248  0.00  0.00     0.105 A 
ATOM      5  N   LIG d   1       4.498  -6.666  -7.508  0.00  0.00    -0.166 NA
ATOM      6  H   LIG d   1       5.167  -6.793  -4.293  0.00  0.00     0.084 H 
ENDROOT
BRANCH   3   7
ATOM      7  C   LIG d   1       5.130  -4.001  -5.075  0.00  0.00     0.232 A 
ATOM      8  O   LIG d   1       6.276  -3.293  -5.067  0.00  0.00    -0.435 OA
ATOM      9  C   LIG d   1       6.097  -2.211  -4.278  0.00  0.00     0.156 A 
ATOM     10  C   LIG d   1       4.784  -2.288  -3.789  0.00  0.00     0.111 A 
ATOM     11  C   LIG d   1       6.910  -1.151  -3.906  0.00  0.00    -0.016 A 
ATOM     12  N   LIG d   1       4.237  -3.415  -4.316  0.00  0.00    -0.209 NA
ATOM     13  C   LIG d   1       4.306  -1.296  -2.930  0.00  0.00    -0.014 A 
ATOM     14  C   LIG d   1       5.127  -0.250  -2.571  0.00  0.00     0.043 A 
ATOM     15  H   LIG d   1       3.297  -1.348  -2.550  0.00  0.00     0.065 H 
ATOM     16  C   LIG d   1       6.425  -0.178  -3.057  0.00  0.00    -0.040 A 
ATOM     17 CL   LIG d   1       4.535   0.985  -1.504  0.00  0.00    -0.084 Cl
ATOM     18  H   LIG d   1       7.061   0.646  -2.769  0.00  0.00     0.063 H 
ATOM     19  H   LIG d   1       7.920  -1.087  -4.282  0.00  0.00     0.066 H 
ENDBRANCH   3   7
BRANCH   4  20
ATOM     20  C   LIG d   1       4.452  -4.271  -8.219  0.00  0.00     0.003 A 
ATOM     21  C   LIG d   1       3.221  -4.044  -8.833  0.00  0.00    -0.046 A 
ATOM     22  C   LIG d   1       3.081  -3.005  -9.730  0.00  0.00     0.016 A 
ATOM     23  H   LIG d   1       2.376  -4.677  -8.603  0.00  0.00     0.063 H 
ATOM     24  C   LIG d   1       4.162  -2.197 -10.031  0.00  0.00     0.273 A 
ATOM     25  H   LIG d   1       2.127  -2.826 -10.203  0.00  0.00     0.069 H 
ATOM     26  C   LIG d   1       5.389  -2.421  -9.430  0.00  0.00     0.016 A 
ATOM     27  C   LIG d   1       5.538  -3.453  -8.526  0.00  0.00    -0.046 A 
ATOM     28  H   LIG d   1       6.230  -1.788  -9.668  0.00  0.00     0.069 H 
ATOM     29  H   LIG d   1       6.495  -3.627  -8.056  0.00  0.00     0.063 H 
BRANCH  24  30
ATOM     30  N   LIG d   1       4.009  -1.088 -11.000  0.00  0.00     0.080 N 
ATOM     31  O   LIG d   1       2.938  -0.883 -11.520  0.00  0.00     0.041 OA
ATOM     32  O   LIG d   1       4.957  -0.387 -11.269  0.00  0.00    -0.576 OA
ENDBRANCH  24  30
ENDBRANCH   4  20
BRANCH   1  33
ATOM     33  C   LIG d   1       4.670  -8.778  -6.209  0.00  0.00     0.065 A 
ATOM     34  C   LIG d   1       4.641  -9.371  -4.954  0.00  0.00    -0.036 A 
ATOM     35  C   LIG d   1       4.603 -10.747  -4.842  0.00  0.00    -0.060 A 
ATOM     36  H   LIG d   1       4.647  -8.756  -4.065  0.00  0.00     0.064 H 
ATOM     37  C   LIG d   1       4.595 -11.535  -5.978  0.00  0.00    -0.062 A 
ATOM     38  H   LIG d   1       4.580 -11.208  -3.865  0.00  0.00     0.062 H 
ATOM     39  C   LIG d   1       4.624 -10.948  -7.230  0.00  0.00    -0.060 A 
ATOM     40  H   LIG d   1       4.570 -12.611  -5.888  0.00  0.00     0.062 H 
ATOM     41  C   LIG d   1       4.662  -9.573  -7.349  0.00  0.00    -0.036 A 
ATOM     42  H   LIG d   1       4.618 -11.566  -8.115  0.00  0.00     0.062 H 
ATOM     43  H   LIG d   1       4.685  -9.115  -8.327  0.00  0.00     0.064 H 
ENDBRANCH   1  33
TORSDOF 4
ENDMDL
MODEL 7
REMARK VINA RESULT:      -6.6      1.556      1.891
REMARK  4 active torsions:
REMARK  status: ('A' for Active; 'I' for Inactive)
REMARK    1  A    between atoms: C_4  and  N_7 
REMARK    2  A    between atoms: C_9  and  C_21 
REMARK    3  A    between atoms: C_10  and  C_12 
REMARK    4  A    between atoms: C_15  and  N_18 
ROOT
ATOM      1  N   LIG d   1       9.664   3.473  -8.474  0.00  0.00    -0.238 N 
ATOM      2  C   LIG d   1       8.949   2.421  -8.029  0.00  0.00     0.044 A 
ATOM      3  C   LIG d   1       8.921   2.475  -6.663  0.00  0.00     0.083 A 
ATOM      4  C   LIG d   1       9.687   3.663  -6.276  0.00  0.00     0.105 A 
ATOM      5  N   LIG d   1      10.116   4.224  -7.385  0.00  0.00    -0.166 NA
ATOM      6  H   LIG d   1       8.480   1.666  -8.643  0.00  0.00     0.084 H 
ENDROOT
BRANCH   3   7
ATOM      7  C   LIG d   1       8.251   1.525  -5.756  0.00  0.00     0.232 A 
ATOM      8  O   LIG d   1       8.537   0.212  -5.663  0.00  0.00    -0.435 OA
ATOM      9  C   LIG d   1       7.725  -0.332  -4.730  0.00  0.00     0.156 A 
ATOM     10  C   LIG d   1       6.914   0.710  -4.253  0.00  0.00     0.111 A 
ATOM     11  C   LIG d   1       7.572  -1.612  -4.220  0.00  0.00    -0.016 A 
ATOM     12  N   LIG d   1       7.286   1.832  -4.925  0.00  0.00    -0.209 NA
ATOM     13  C   LIG d   1       5.958   0.448  -3.270  0.00  0.00    -0.014 A 
ATOM     14  C   LIG d   1       5.819  -0.830  -2.775  0.00  0.00     0.043 A 
ATOM     15  H   LIG d   1       5.330   1.244  -2.898  0.00  0.00     0.065 H 
ATOM     16  C   LIG d   1       6.623  -1.857  -3.250  0.00  0.00    -0.040 A 
ATOM     17 CL   LIG d   1       4.631  -1.158  -1.552  0.00  0.00    -0.084 Cl
ATOM     18  H   LIG d   1       6.506  -2.856  -2.855  0.00  0.00     0.063 H 
ATOM     19  H   LIG d   1       8.195  -2.416  -4.584  0.00  0.00     0.066 H 
ENDBRANCH   3   7
BRANCH   4  20
ATOM     20  C   LIG d   1       9.937   4.139  -4.893  0.00  0.00     0.003 A 
ATOM     21  C   LIG d   1      10.666   3.353  -4.003  0.00  0.00    -0.046 A 
ATOM     22  C   LIG d   1      10.901   3.804  -2.720  0.00  0.00     0.016 A 
ATOM     23  H   LIG d   1      11.051   2.393  -4.317  0.00  0.00     0.063 H 
ATOM     24  C   LIG d   1      10.403   5.029  -2.313  0.00  0.00     0.273 A 
ATOM     25  H   LIG d   1      11.469   3.198  -2.031  0.00  0.00     0.069 H 
ATOM     26  C   LIG d   1       9.673   5.811  -3.191  0.00  0.00     0.016 A 
ATOM     27  C   LIG d   1       9.439   5.373  -4.478  0.00  0.00    -0.046 A 
ATOM     28  H   LIG d   1       9.288   6.767  -2.868  0.00  0.00     0.069 H 
ATOM     29  H   LIG d   1       8.870   5.984  -5.163  0.00  0.00     0.063 H 
BRANCH  24  30
ATOM     30  N   LIG d   1      10.652   5.505  -0.934  0.00  0.00     0.080 N 
ATOM     31  O   LIG d   1      11.502   4.978  -0.256  0.00  0.00     0.041 OA
ATOM     32  O   LIG d   1      10.005   6.424  -0.487  0.00  0.00    -0.576 OA
ENDBRANCH  24  30
ENDBRANCH   4  20
BRANCH   1  33
ATOM     33  C   LIG d   1       9.920   3.764  -9.820  0.00  0.00     0.065 A 
ATOM     34  C   LIG d   1      10.276   2.748 -10.696  0.00  0.00    -0.036 A 
ATOM     35  C   LIG d   1      10.529   3.038 -12.022  0.00  0.00    -0.060 A 
ATOM     36  H   LIG d   1      10.356   1.731 -10.341  0.00  0.00     0.064 H 
ATOM     37  C   LIG d   1      10.428   4.340 -12.479  0.00  0.00    -0.062 A 
ATOM     38  H   LIG d   1      10.806   2.248 -12.705  0.00  0.00     0.062 H 
ATOM     39  C   LIG d   1      10.074   5.355 -11.608  0.00  0.00    -0.060 A 
ATOM     40  H   LIG d   1      10.630   4.566 -13.515  0.00  0.00     0.062 H 
ATOM     41  C   LIG d   1       9.820   5.071 -10.281  0.00  0.00    -0.036 A 
ATOM     42  H   LIG d   1       9.996   6.370 -11.967  0.00  0.00     0.062 H 
ATOM     43  H   LIG d   1       9.543   5.864  -9.601  0.00  0.00     0.064 H 
ENDBRANCH   1  33
TORSDOF 4
ENDMDL
MODEL 8
REMARK VINA RESULT:      -6.5      3.295      7.047
REMARK  4 active torsions:
REMARK  status: ('A' for Active; 'I' for Inactive)
REMARK    1  A    between atoms: C_4  and  N_7 
REMARK    2  A    between atoms: C_9  and  C_21 
REMARK    3  A    between atoms: C_10  and  C_12 
REMARK    4  A    between atoms: C_15  and  N_18 
ROOT
ATOM      1  N   LIG d   1       7.142   0.320  -3.766  0.00  0.00    -0.238 N 
ATOM      2  C   LIG d   1       8.087  -0.158  -4.600  0.00  0.00     0.044 A 
ATOM      3  C   LIG d   1       9.007   0.833  -4.809  0.00  0.00     0.083 A 
ATOM      4  C   LIG d   1       8.560   1.990  -4.029  0.00  0.00     0.105 A 
ATOM      5  N   LIG d   1       7.443   1.643  -3.428  0.00  0.00    -0.166 NA
ATOM      6  H   LIG d   1       8.114  -1.149  -5.028  0.00  0.00     0.084 H 
ENDROOT
BRANCH   3   7
ATOM      7  C   LIG d   1      10.213   0.752  -5.654  0.00  0.00     0.232 A 
ATOM      8  O   LIG d   1      10.341   1.309  -6.874  0.00  0.00    -0.435 OA
ATOM      9  C   LIG d   1      11.579   1.027  -7.337  0.00  0.00     0.156 A 
ATOM     10  C   LIG d   1      12.210   0.260  -6.345  0.00  0.00     0.111 A 
ATOM     11  C   LIG d   1      12.257   1.334  -8.507  0.00  0.00    -0.016 A 
ATOM     12  N   LIG d   1      11.316   0.123  -5.331  0.00  0.00    -0.209 NA
ATOM     13  C   LIG d   1      13.517  -0.190  -6.547  0.00  0.00    -0.014 A 
ATOM     14  C   LIG d   1      14.175   0.124  -7.715  0.00  0.00     0.043 A 
ATOM     15  H   LIG d   1      14.009  -0.781  -5.788  0.00  0.00     0.065 H 
ATOM     16  C   LIG d   1      13.548   0.883  -8.692  0.00  0.00    -0.040 A 
ATOM     17 CL   LIG d   1      15.801  -0.434  -7.966  0.00  0.00    -0.084 Cl
ATOM     18  H   LIG d   1      14.073   1.123  -9.605  0.00  0.00     0.063 H 
ATOM     19  H   LIG d   1      11.776   1.926  -9.271  0.00  0.00     0.066 H 
ENDBRANCH   3   7
BRANCH   4  20
ATOM     20  C   LIG d   1       9.237   3.307  -3.939  0.00  0.00     0.003 A 
ATOM     21  C   LIG d   1       9.104   4.233  -4.972  0.00  0.00    -0.046 A 
ATOM     22  C   LIG d   1       9.730   5.460  -4.881  0.00  0.00     0.016 A 
ATOM     23  H   LIG d   1       8.509   3.995  -5.841  0.00  0.00     0.063 H 
ATOM     24  C   LIG d   1      10.499   5.765  -3.772  0.00  0.00     0.273 A 
ATOM     25  H   LIG d   1       9.625   6.180  -5.678  0.00  0.00     0.069 H 
ATOM     26  C   LIG d   1      10.640   4.847  -2.746  0.00  0.00     0.016 A 
ATOM     27  C   LIG d   1      10.012   3.621  -2.824  0.00  0.00    -0.046 A 
ATOM     28  H   LIG d   1      11.240   5.091  -1.883  0.00  0.00     0.069 H 
ATOM     29  H   LIG d   1      10.121   2.905  -2.023  0.00  0.00     0.063 H 
BRANCH  24  30
ATOM     30  N   LIG d   1      11.174   7.080  -3.681  0.00  0.00     0.080 N 
ATOM     31  O   LIG d   1      11.073   7.744  -2.677  0.00  0.00     0.041 OA
ATOM     32  O   LIG d   1      11.828   7.488  -4.613  0.00  0.00    -0.576 OA
ENDBRANCH  24  30
ENDBRANCH   4  20
BRANCH   1  33
ATOM     33  C   LIG d   1       6.028  -0.397  -3.313  0.00  0.00     0.065 A 
ATOM     34  C   LIG d   1       5.167   0.170  -2.382  0.00  0.00    -0.036 A 
ATOM     35  C   LIG d   1       4.069  -0.539  -1.937  0.00  0.00    -0.060 A 
ATOM     36  H   LIG d   1       5.357   1.165  -2.006  0.00  0.00     0.064 H 
ATOM     37  C   LIG d   1       3.825  -1.813  -2.417  0.00  0.00    -0.062 A 
ATOM     38  H   LIG d   1       3.399  -0.098  -1.213  0.00  0.00     0.062 H 
ATOM     39  C   LIG d   1       4.680  -2.381  -3.344  0.00  0.00    -0.060 A 
ATOM     40  H   LIG d   1       2.968  -2.367  -2.064  0.00  0.00     0.062 H 
ATOM     41  C   LIG d   1       5.780  -1.677  -3.793  0.00  0.00    -0.036 A 
ATOM     42  H   LIG d   1       4.488  -3.375  -3.717  0.00  0.00     0.062 H 
ATOM     43  H   LIG d   1       6.448  -2.121  -4.517  0.00  0.00     0.064 H 
ENDBRANCH   1  33
TORSDOF 4
ENDMDL
MODEL 9
REMARK VINA RESULT:      -6.5      7.094     10.900
REMARK  4 active torsions:
REMARK  status: ('A' for Active; 'I' for Inactive)
REMARK    1  A    between atoms: C_4  and  N_7 
REMARK    2  A    between atoms: C_9  and  C_21 
REMARK    3  A    between atoms: C_10  and  C_12 
REMARK    4  A    between atoms: C_15  and  N_18 
ROOT
ATOM      1  N   LIG d   1       5.220  -2.025  -4.118  0.00  0.00    -0.238 N 
ATOM      2  C   LIG d   1       6.528  -2.348  -4.088  0.00  0.00     0.044 A 
ATOM      3  C   LIG d   1       6.686  -3.539  -4.743  0.00  0.00     0.083 A 
ATOM      4  C   LIG d   1       5.354  -3.946  -5.196  0.00  0.00     0.105 A 
ATOM      5  N   LIG d   1       4.510  -3.020  -4.798  0.00  0.00    -0.166 NA
ATOM      6  H   LIG d   1       7.314  -1.770  -3.626  0.00  0.00     0.084 H 
ENDROOT
BRANCH   3   7
ATOM      7  C   LIG d   1       7.950  -4.269  -4.953  0.00  0.00     0.232 A 
ATOM      8  O   LIG d   1       8.566  -5.030  -4.027  0.00  0.00    -0.435 OA
ATOM      9  C   LIG d   1       9.689  -5.538  -4.581  0.00  0.00     0.156 A 
ATOM     10  C   LIG d   1       9.743  -5.047  -5.894  0.00  0.00     0.111 A 
ATOM     11  C   LIG d   1      10.694  -6.373  -4.115  0.00  0.00    -0.016 A 
ATOM     12  N   LIG d   1       8.642  -4.269  -6.065  0.00  0.00    -0.209 NA
ATOM     13  C   LIG d   1      10.811  -5.401  -6.722  0.00  0.00    -0.014 A 
ATOM     14  C   LIG d   1      11.800  -6.232  -6.242  0.00  0.00     0.043 A 
ATOM     15  H   LIG d   1      10.860  -5.028  -7.734  0.00  0.00     0.065 H 
ATOM     16  C   LIG d   1      11.742  -6.715  -4.943  0.00  0.00    -0.040 A 
ATOM     17 CL   LIG d   1      13.128  -6.674  -7.271  0.00  0.00    -0.084 Cl
ATOM     18  H   LIG d   1      12.524  -7.365  -4.578  0.00  0.00     0.063 H 
ATOM     19  H   LIG d   1      10.655  -6.754  -3.105  0.00  0.00     0.066 H 
ENDBRANCH   3   7
BRANCH   4  20
ATOM     20  C   LIG d   1       5.019  -5.176  -5.955  0.00  0.00     0.003 A 
ATOM     21  C   LIG d   1       4.482  -5.081  -7.238  0.00  0.00    -0.046 A 
ATOM     22  C   LIG d   1       4.178  -6.228  -7.943  0.00  0.00     0.016 A 
ATOM     23  H   LIG d   1       4.309  -4.112  -7.683  0.00  0.00     0.063 H 
ATOM     24  C   LIG d   1       4.393  -7.470  -7.373  0.00  0.00     0.273 A 
ATOM     25  H   LIG d   1       3.767  -6.156  -8.939  0.00  0.00     0.069 H 
ATOM     26  C   LIG d   1       4.919  -7.570  -6.097  0.00  0.00     0.016 A 
ATOM     27  C   LIG d   1       5.234  -6.430  -5.387  0.00  0.00    -0.046 A 
ATOM     28  H   LIG d   1       5.085  -8.542  -5.657  0.00  0.00     0.069 H 
ATOM     29  H   LIG d   1       5.645  -6.509  -4.391  0.00  0.00     0.063 H 
BRANCH  24  30
ATOM     30  N   LIG d   1       4.059  -8.697  -8.130  0.00  0.00     0.080 N 
ATOM     31  O   LIG d   1       3.532  -8.615  -9.215  0.00  0.00     0.041 OA
ATOM     32  O   LIG d   1       4.315  -9.783  -7.663  0.00  0.00    -0.576 OA
ENDBRANCH  24  30
ENDBRANCH   4  20
BRANCH   1  33
ATOM     33  C   LIG d   1       4.658  -0.875  -3.551  0.00  0.00     0.065 A 
ATOM     34  C   LIG d   1       3.715  -0.141  -4.256  0.00  0.00    -0.036 A 
ATOM     35  C   LIG d   1       3.163   0.994  -3.695  0.00  0.00    -0.060 A 
ATOM     36  H   LIG d   1       3.411  -0.457  -5.245  0.00  0.00     0.064 H 
ATOM     37  C   LIG d   1       3.549   1.400  -2.431  0.00  0.00    -0.062 A 
ATOM     38  H   LIG d   1       2.428   1.565  -4.244  0.00  0.00     0.062 H 
ATOM     39  C   LIG d   1       4.490   0.672  -1.726  0.00  0.00    -0.060 A 
ATOM     40  H   LIG d   1       3.120   2.290  -1.996  0.00  0.00     0.062 H 
ATOM     41  C   LIG d   1       5.046  -0.464  -2.281  0.00  0.00    -0.036 A 
ATOM     42  H   LIG d   1       4.790   0.991  -0.739  0.00  0.00     0.062 H 
ATOM     43  H   LIG d   1       5.780  -1.032  -1.730  0.00  0.00     0.064 H 
ENDBRANCH   1  33
TORSDOF 4
ENDMDL
