MODEL 1
REMARK VINA RESULT:      -6.1      0.000      0.000
REMARK  10 active torsions:
REMARK  status: ('A' for Active; 'I' for Inactive)
REMARK    1  A    between atoms: C_1  and  C_2 
REMARK    2  A    between atoms: C_2  and  N_3 
REMARK    3  A    between atoms: N_3  and  C_4 
REMARK    4  A    between atoms: N_3  and  S_6 
REMARK    5  A    between atoms: C_4  and  C_5 
REMARK    6  A    between atoms: S_6  and  C_9 
REMARK    7  A    between atoms: C_12  and  C_15 
REMARK    8  A    between atoms: C_18  and  S_21 
REMARK    9  A    between atoms: S_21  and  C_24 
REMARK   10  A    between atoms: C_27  and  C_30 
ROOT
ATOM      1  C   LIG d   1      10.808   8.758  -1.689  0.00  0.00     0.105 A 
ATOM      2  C   LIG d   1       9.853   7.953  -1.095  0.00  0.00    -0.035 A 
ATOM      3  C   LIG d   1       9.552   6.719  -1.636  0.00  0.00    -0.052 A 
ATOM      4  C   LIG d   1      10.221   6.282  -2.778  0.00  0.00    -0.018 A 
ATOM      5  C   LIG d   1      11.185   7.095  -3.370  0.00  0.00    -0.052 A 
ATOM      6  C   LIG d   1      11.474   8.329  -2.823  0.00  0.00    -0.035 A 
ATOM      7  H   LIG d   1       9.338   8.291  -0.207  0.00  0.00     0.064 H 
ATOM      8  H   LIG d   1       8.804   6.093  -1.174  0.00  0.00     0.062 H 
ATOM      9  H   LIG d   1      11.706   6.761  -4.255  0.00  0.00     0.062 H 
ATOM     10  H   LIG d   1      12.222   8.960  -3.280  0.00  0.00     0.064 H 
ENDROOT
BRANCH   4  11
ATOM     11  C   LIG d   1       9.907   4.954  -3.362  0.00  0.00    -0.018 A 
ATOM     12  C   LIG d   1      10.265   3.790  -2.684  0.00  0.00    -0.052 A 
ATOM     13  C   LIG d   1       9.970   2.557  -3.232  0.00  0.00    -0.036 A 
ATOM     14  H   LIG d   1      10.774   3.852  -1.734  0.00  0.00     0.062 H 
ATOM     15  C   LIG d   1       9.318   2.477  -4.449  0.00  0.00     0.094 A 
ATOM     16  H   LIG d   1      10.248   1.655  -2.708  0.00  0.00     0.064 H 
ATOM     17  C   LIG d   1       8.959   3.628  -5.125  0.00  0.00    -0.036 A 
ATOM     18  C   LIG d   1       9.245   4.867  -4.585  0.00  0.00    -0.052 A 
ATOM     19  H   LIG d   1       8.450   3.560  -6.075  0.00  0.00     0.064 H 
ATOM     20  H   LIG d   1       8.961   5.765  -5.112  0.00  0.00     0.062 H 
BRANCH  15  21
ATOM     21  S   LIG d   1       8.944   0.899  -5.142  0.00  0.00     0.025 S 
ATOM     22  O   LIG d   1       8.458   1.139  -6.456  0.00  0.00    -0.164 OA
ATOM     23  O   LIG d   1      10.066   0.066  -4.884  0.00  0.00    -0.164 OA
BRANCH  21  24
ATOM     24  C   LIG d   1       7.598   0.233  -4.221  0.00  0.00     0.094 A 
ATOM     25  C   LIG d   1       7.423  -1.136  -4.147  0.00  0.00    -0.036 A 
ATOM     26  C   LIG d   1       6.367  -1.660  -3.424  0.00  0.00    -0.057 A 
ATOM     27  H   LIG d   1       8.109  -1.798  -4.654  0.00  0.00     0.064 H 
ATOM     28  C   LIG d   1       5.488  -0.813  -2.773  0.00  0.00    -0.050 A 
ATOM     29  H   LIG d   1       6.229  -2.729  -3.366  0.00  0.00     0.062 H 
ATOM     30  C   LIG d   1       5.664   0.556  -2.847  0.00  0.00    -0.057 A 
ATOM     31  C   LIG d   1       6.722   1.079  -3.567  0.00  0.00    -0.036 A 
ATOM     32  H   LIG d   1       4.978   1.217  -2.339  0.00  0.00     0.062 H 
ATOM     33  H   LIG d   1       6.863   2.148  -3.621  0.00  0.00     0.064 H 
BRANCH  28  34
ATOM     34  C   LIG d   1       4.337  -1.383  -1.985  0.00  0.00    -0.040 C 
ATOM     35  H   LIG d   1       3.698  -0.572  -1.637  0.00  0.00     0.028 H 
ATOM     36  H   LIG d   1       3.759  -2.055  -2.619  0.00  0.00     0.028 H 
ATOM     37  H   LIG d   1       4.722  -1.936  -1.127  0.00  0.00     0.028 H 
ENDBRANCH  28  34
ENDBRANCH  21  24
ENDBRANCH  15  21
ENDBRANCH   4  11
BRANCH   1  38
ATOM     38  S   LIG d   1      11.181  10.334  -0.995  0.00  0.00     0.061 S 
ATOM     39  O   LIG d   1      12.582  10.522  -1.146  0.00  0.00    -0.153 OA
ATOM     40  O   LIG d   1      10.538  10.383   0.271  0.00  0.00    -0.153 OA
BRANCH  38  41
ATOM     41  N   LIG d   1      10.447  11.474  -1.944  0.00  0.00    -0.177 N 
BRANCH  41  42
ATOM     42  C   LIG d   1       9.138  11.196  -2.543  0.00  0.00     0.018 C 
ATOM     43  H   LIG d   1       8.779  10.226  -2.200  0.00  0.00     0.044 H 
ATOM     44  H   LIG d   1       8.431  11.971  -2.246  0.00  0.00     0.044 H 
BRANCH  42  45
ATOM     45  C   LIG d   1       9.267  11.182  -4.067  0.00  0.00    -0.051 C 
ATOM     46  H   LIG d   1      10.300  10.968  -4.343  0.00  0.00     0.024 H 
ATOM     47  H   LIG d   1       8.614  10.414  -4.480  0.00  0.00     0.024 H 
ATOM     48  H   LIG d   1       8.980  12.156  -4.465  0.00  0.00     0.024 H 
ENDBRANCH  42  45
ENDBRANCH  41  42
BRANCH  41  49
ATOM     49  C   LIG d   1      11.104  12.760  -2.188  0.00  0.00     0.018 C 
ATOM     50  H   LIG d   1      12.133  12.716  -1.829  0.00  0.00     0.044 H 
ATOM     51  H   LIG d   1      11.103  12.972  -3.257  0.00  0.00     0.044 H 
BRANCH  49  52
ATOM     52  C   LIG d   1      10.352  13.867  -1.447  0.00  0.00    -0.051 C 
ATOM     53  H   LIG d   1       9.754  14.438  -2.159  0.00  0.00     0.024 H 
ATOM     54  H   LIG d   1       9.699  13.423  -0.697  0.00  0.00     0.024 H 
ATOM     55  H   LIG d   1      11.067  14.529  -0.960  0.00  0.00     0.024 H 
ENDBRANCH  49  52
ENDBRANCH  41  49
ENDBRANCH  38  41
ENDBRANCH   1  38
TORSDOF 10
ENDMDL
MODEL 2
REMARK VINA RESULT:      -6.0      1.409      2.217
REMARK  10 active torsions:
REMARK  status: ('A' for Active; 'I' for Inactive)
REMARK    1  A    between atoms: C_1  and  C_2 
REMARK    2  A    between atoms: C_2  and  N_3 
REMARK    3  A    between atoms: N_3  and  C_4 
REMARK    4  A    between atoms: N_3  and  S_6 
REMARK    5  A    between atoms: C_4  and  C_5 
REMARK    6  A    between atoms: S_6  and  C_9 
REMARK    7  A    between atoms: C_12  and  C_15 
REMARK    8  A    between atoms: C_18  and  S_21 
REMARK    9  A    between atoms: S_21  and  C_24 
REMARK   10  A    between atoms: C_27  and  C_30 
ROOT
ATOM      1  C   LIG d   1      10.789   8.880  -1.879  0.00  0.00     0.105 A 
ATOM      2  C   LIG d   1      11.630   8.304  -2.814  0.00  0.00    -0.035 A 
ATOM      3  C   LIG d   1      11.351   7.050  -3.318  0.00  0.00    -0.052 A 
ATOM      4  C   LIG d   1      10.212   6.369  -2.891  0.00  0.00    -0.018 A 
ATOM      5  C   LIG d   1       9.366   6.955  -1.952  0.00  0.00    -0.052 A 
ATOM      6  C   LIG d   1       9.658   8.208  -1.451  0.00  0.00    -0.035 A 
ATOM      7  H   LIG d   1      12.510   8.835  -3.148  0.00  0.00     0.064 H 
ATOM      8  H   LIG d   1      12.010   6.599  -4.045  0.00  0.00     0.062 H 
ATOM      9  H   LIG d   1       8.483   6.432  -1.618  0.00  0.00     0.062 H 
ATOM     10  H   LIG d   1       9.003   8.665  -0.725  0.00  0.00     0.064 H 
ENDROOT
BRANCH   4  11
ATOM     11  C   LIG d   1       9.902   5.023  -3.434  0.00  0.00    -0.018 A 
ATOM     12  C   LIG d   1      10.258   3.881  -2.718  0.00  0.00    -0.052 A 
ATOM     13  C   LIG d   1       9.967   2.632  -3.229  0.00  0.00    -0.036 A 
ATOM     14  H   LIG d   1      10.761   3.973  -1.767  0.00  0.00     0.062 H 
ATOM     15  C   LIG d   1       9.323   2.512  -4.447  0.00  0.00     0.094 A 
ATOM     16  H   LIG d   1      10.243   1.746  -2.676  0.00  0.00     0.064 H 
ATOM     17  C   LIG d   1       8.967   3.641  -5.160  0.00  0.00    -0.036 A 
ATOM     18  C   LIG d   1       9.248   4.897  -4.657  0.00  0.00    -0.052 A 
ATOM     19  H   LIG d   1       8.463   3.542  -6.111  0.00  0.00     0.064 H 
ATOM     20  H   LIG d   1       8.967   5.778  -5.214  0.00  0.00     0.062 H 
BRANCH  15  21
ATOM     21  S   LIG d   1       8.954   0.913  -5.091  0.00  0.00     0.025 S 
ATOM     22  O   LIG d   1       8.493   1.110  -6.421  0.00  0.00    -0.164 OA
ATOM     23  O   LIG d   1      10.068   0.086  -4.785  0.00  0.00    -0.164 OA
BRANCH  21  24
ATOM     24  C   LIG d   1       7.590   0.283  -4.172  0.00  0.00     0.094 A 
ATOM     25  C   LIG d   1       7.384  -1.081  -4.089  0.00  0.00    -0.036 A 
ATOM     26  C   LIG d   1       6.313  -1.576  -3.367  0.00  0.00    -0.057 A 
ATOM     27  H   LIG d   1       8.058  -1.761  -4.588  0.00  0.00     0.064 H 
ATOM     28  C   LIG d   1       5.450  -0.706  -2.728  0.00  0.00    -0.050 A 
ATOM     29  H   LIG d   1       6.152  -2.641  -3.303  0.00  0.00     0.062 H 
ATOM     30  C   LIG d   1       5.657   0.659  -2.810  0.00  0.00    -0.057 A 
ATOM     31  C   LIG d   1       6.730   1.153  -3.529  0.00  0.00    -0.036 A 
ATOM     32  H   LIG d   1       4.983   1.339  -2.311  0.00  0.00     0.062 H 
ATOM     33  H   LIG d   1       6.894   2.219  -3.590  0.00  0.00     0.064 H 
BRANCH  28  34
ATOM     34  C   LIG d   1       4.283  -1.244  -1.940  0.00  0.00    -0.040 C 
ATOM     35  H   LIG d   1       4.502  -1.176  -0.875  0.00  0.00     0.028 H 
ATOM     36  H   LIG d   1       3.392  -0.660  -2.167  0.00  0.00     0.028 H 
ATOM     37  H   LIG d   1       4.113  -2.287  -2.211  0.00  0.00     0.028 H 
ENDBRANCH  28  34
ENDBRANCH  21  24
ENDBRANCH  15  21
ENDBRANCH   4  11
BRANCH   1  38
ATOM     38  S   LIG d   1      11.156  10.479  -1.236  0.00  0.00     0.061 S 
ATOM     39  O   LIG d   1       9.925  11.185  -1.178  0.00  0.00    -0.153 OA
ATOM     40  O   LIG d   1      12.278  10.961  -1.963  0.00  0.00    -0.153 OA
BRANCH  38  41
ATOM     41  N   LIG d   1      11.658  10.274   0.328  0.00  0.00    -0.177 N 
BRANCH  41  42
ATOM     42  C   LIG d   1      12.401   9.069   0.708  0.00  0.00     0.018 C 
ATOM     43  H   LIG d   1      12.584   8.460  -0.178  0.00  0.00     0.044 H 
ATOM     44  H   LIG d   1      13.353   9.355   1.156  0.00  0.00     0.044 H 
BRANCH  42  45
ATOM     45  C   LIG d   1      11.583   8.263   1.720  0.00  0.00    -0.051 C 
ATOM     46  H   LIG d   1      11.993   8.411   2.718  0.00  0.00     0.024 H 
ATOM     47  H   LIG d   1      10.547   8.599   1.698  0.00  0.00     0.024 H 
ATOM     48  H   LIG d   1      11.627   7.205   1.461  0.00  0.00     0.024 H 
ENDBRANCH  42  45
ENDBRANCH  41  42
BRANCH  41  49
ATOM     49  C   LIG d   1      11.359  11.296   1.334  0.00  0.00     0.018 C 
ATOM     50  H   LIG d   1      10.333  11.641   1.208  0.00  0.00     0.044 H 
ATOM     51  H   LIG d   1      11.478  10.871   2.331  0.00  0.00     0.044 H 
BRANCH  49  52
ATOM     52  C   LIG d   1      12.318  12.476   1.165  0.00  0.00    -0.051 C 
ATOM     53  H   LIG d   1      12.150  13.198   1.966  0.00  0.00     0.024 H 
ATOM     54  H   LIG d   1      13.346  12.118   1.208  0.00  0.00     0.024 H 
ATOM     55  H   LIG d   1      12.140  12.954   0.202  0.00  0.00     0.024 H 
ENDBRANCH  49  52
ENDBRANCH  41  49
ENDBRANCH  38  41
ENDBRANCH   1  38
TORSDOF 10
ENDMDL
MODEL 3
REMARK VINA RESULT:      -6.0      1.441      1.929
REMARK  10 active torsions:
REMARK  status: ('A' for Active; 'I' for Inactive)
REMARK    1  A    between atoms: C_1  and  C_2 
REMARK    2  A    between atoms: C_2  and  N_3 
REMARK    3  A    between atoms: N_3  and  C_4 
REMARK    4  A    between atoms: N_3  and  S_6 
REMARK    5  A    between atoms: C_4  and  C_5 
REMARK    6  A    between atoms: S_6  and  C_9 
REMARK    7  A    between atoms: C_12  and  C_15 
REMARK    8  A    between atoms: C_18  and  S_21 
REMARK    9  A    between atoms: S_21  and  C_24 
REMARK   10  A    between atoms: C_27  and  C_30 
ROOT
ATOM      1  C   LIG d   1      11.833   7.759  -0.814  0.00  0.00     0.105 A 
ATOM      2  C   LIG d   1      11.914   7.761  -2.195  0.00  0.00    -0.035 A 
ATOM      3  C   LIG d   1      11.386   6.714  -2.922  0.00  0.00    -0.052 A 
ATOM      4  C   LIG d   1      10.760   5.658  -2.263  0.00  0.00    -0.018 A 
ATOM      5  C   LIG d   1      10.676   5.663  -0.872  0.00  0.00    -0.052 A 
ATOM      6  C   LIG d   1      11.212   6.713  -0.155  0.00  0.00    -0.035 A 
ATOM      7  H   LIG d   1      12.396   8.583  -2.706  0.00  0.00     0.064 H 
ATOM      8  H   LIG d   1      11.454   6.715  -4.000  0.00  0.00     0.062 H 
ATOM      9  H   LIG d   1      10.192   4.847  -0.356  0.00  0.00     0.062 H 
ATOM     10  H   LIG d   1      11.147   6.719   0.923  0.00  0.00     0.064 H 
ENDROOT
BRANCH   4  11
ATOM     11  C   LIG d   1      10.184   4.532  -3.040  0.00  0.00    -0.018 A 
ATOM     12  C   LIG d   1       9.380   4.786  -4.148  0.00  0.00    -0.052 A 
ATOM     13  C   LIG d   1       8.848   3.735  -4.867  0.00  0.00    -0.036 A 
ATOM     14  H   LIG d   1       9.172   5.804  -4.444  0.00  0.00     0.062 H 
ATOM     15  C   LIG d   1       9.113   2.431  -4.489  0.00  0.00     0.094 A 
ATOM     16  H   LIG d   1       8.223   3.931  -5.726  0.00  0.00     0.064 H 
ATOM     17  C   LIG d   1       9.911   2.173  -3.391  0.00  0.00    -0.036 A 
ATOM     18  C   LIG d   1      10.453   3.217  -2.667  0.00  0.00    -0.052 A 
ATOM     19  H   LIG d   1      10.115   1.153  -3.100  0.00  0.00     0.064 H 
ATOM     20  H   LIG d   1      11.079   3.014  -1.811  0.00  0.00     0.062 H 
BRANCH  15  21
ATOM     21  S   LIG d   1       8.430   1.094  -5.413  0.00  0.00     0.025 S 
ATOM     22  O   LIG d   1       7.730   1.673  -6.506  0.00  0.00    -0.164 OA
ATOM     23  O   LIG d   1       9.475   0.148  -5.592  0.00  0.00    -0.164 OA
BRANCH  21  24
ATOM     24  C   LIG d   1       7.220   0.321  -4.392  0.00  0.00     0.094 A 
ATOM     25  C   LIG d   1       7.003  -1.041  -4.487  0.00  0.00    -0.036 A 
ATOM     26  C   LIG d   1       6.053  -1.647  -3.685  0.00  0.00    -0.057 A 
ATOM     27  H   LIG d   1       7.574  -1.631  -5.187  0.00  0.00     0.064 H 
ATOM     28  C   LIG d   1       5.322  -0.891  -2.788  0.00  0.00    -0.050 A 
ATOM     29  H   LIG d   1       5.884  -2.711  -3.760  0.00  0.00     0.062 H 
ATOM     30  C   LIG d   1       5.540   0.471  -2.693  0.00  0.00    -0.057 A 
ATOM     31  C   LIG d   1       6.492   1.076  -3.492  0.00  0.00    -0.036 A 
ATOM     32  H   LIG d   1       4.968   1.061  -1.992  0.00  0.00     0.062 H 
ATOM     33  H   LIG d   1       6.665   2.140  -3.414  0.00  0.00     0.064 H 
BRANCH  28  34
ATOM     34  C   LIG d   1       4.287  -1.552  -1.914  0.00  0.00    -0.040 C 
ATOM     35  H   LIG d   1       4.252  -2.619  -2.135  0.00  0.00     0.028 H 
ATOM     36  H   LIG d   1       4.551  -1.406  -0.866  0.00  0.00     0.028 H 
ATOM     37  H   LIG d   1       3.311  -1.108  -2.108  0.00  0.00     0.028 H 
ENDBRANCH  28  34
ENDBRANCH  21  24
ENDBRANCH  15  21
ENDBRANCH   4  11
BRANCH   1  38
ATOM     38  S   LIG d   1      12.514   9.097   0.107  0.00  0.00     0.061 S 
ATOM     39  O   LIG d   1      13.731   9.453  -0.534  0.00  0.00    -0.153 OA
ATOM     40  O   LIG d   1      12.456   8.719   1.476  0.00  0.00    -0.153 OA
BRANCH  38  41
ATOM     41  N   LIG d   1      11.491  10.386  -0.072  0.00  0.00    -0.177 N 
BRANCH  41  42
ATOM     42  C   LIG d   1      10.056  10.224   0.178  0.00  0.00     0.018 C 
ATOM     43  H   LIG d   1       9.885   9.295   0.723  0.00  0.00     0.044 H 
ATOM     44  H   LIG d   1       9.693  11.065   0.770  0.00  0.00     0.044 H 
BRANCH  42  45
ATOM     45  C   LIG d   1       9.308  10.178  -1.156  0.00  0.00    -0.051 C 
ATOM     46  H   LIG d   1       8.403   9.582  -1.044  0.00  0.00     0.024 H 
ATOM     47  H   LIG d   1       9.043  11.190  -1.458  0.00  0.00     0.024 H 
ATOM     48  H   LIG d   1       9.948   9.728  -1.915  0.00  0.00     0.024 H 
ENDBRANCH  42  45
ENDBRANCH  41  42
BRANCH  41  49
ATOM     49  C   LIG d   1      12.019  11.690  -0.483  0.00  0.00     0.018 C 
ATOM     50  H   LIG d   1      13.077  11.593  -0.725  0.00  0.00     0.044 H 
ATOM     51  H   LIG d   1      11.477  12.040  -1.361  0.00  0.00     0.044 H 
BRANCH  49  52
ATOM     52  C   LIG d   1      11.846  12.694   0.658  0.00  0.00    -0.051 C 
ATOM     53  H   LIG d   1      12.327  13.635   0.389  0.00  0.00     0.024 H 
ATOM     54  H   LIG d   1      10.784  12.865   0.834  0.00  0.00     0.024 H 
ATOM     55  H   LIG d   1      12.304  12.298   1.564  0.00  0.00     0.024 H 
ENDBRANCH  49  52
ENDBRANCH  41  49
ENDBRANCH  38  41
ENDBRANCH   1  38
TORSDOF 10
ENDMDL
MODEL 4
REMARK VINA RESULT:      -6.0      9.471     13.272
REMARK  10 active torsions:
REMARK  status: ('A' for Active; 'I' for Inactive)
REMARK    1  A    between atoms: C_1  and  C_2 
REMARK    2  A    between atoms: C_2  and  N_3 
REMARK    3  A    between atoms: N_3  and  C_4 
REMARK    4  A    between atoms: N_3  and  S_6 
REMARK    5  A    between atoms: C_4  and  C_5 
REMARK    6  A    between atoms: S_6  and  C_9 
REMARK    7  A    between atoms: C_12  and  C_15 
REMARK    8  A    between atoms: C_18  and  S_21 
REMARK    9  A    between atoms: S_21  and  C_24 
REMARK   10  A    between atoms: C_27  and  C_30 
ROOT
ATOM      1  C   LIG d   1       4.596  -1.017  -6.534  0.00  0.00     0.105 A 
ATOM      2  C   LIG d   1       4.703  -2.233  -7.186  0.00  0.00    -0.035 A 
ATOM      3  C   LIG d   1       3.888  -2.515  -8.264  0.00  0.00    -0.052 A 
ATOM      4  C   LIG d   1       2.963  -1.568  -8.701  0.00  0.00    -0.018 A 
ATOM      5  C   LIG d   1       2.863  -0.344  -8.043  0.00  0.00    -0.052 A 
ATOM      6  C   LIG d   1       3.679  -0.074  -6.964  0.00  0.00    -0.035 A 
ATOM      7  H   LIG d   1       5.424  -2.964  -6.849  0.00  0.00     0.064 H 
ATOM      8  H   LIG d   1       3.970  -3.465  -8.770  0.00  0.00     0.062 H 
ATOM      9  H   LIG d   1       2.148   0.393  -8.378  0.00  0.00     0.062 H 
ATOM     10  H   LIG d   1       3.603   0.874  -6.453  0.00  0.00     0.064 H 
ENDROOT
BRANCH   4  11
ATOM     11  C   LIG d   1       2.089  -1.863  -9.863  0.00  0.00    -0.018 A 
ATOM     12  C   LIG d   1       1.664  -0.832 -10.698  0.00  0.00    -0.052 A 
ATOM     13  C   LIG d   1       0.850  -1.114 -11.778  0.00  0.00    -0.036 A 
ATOM     14  H   LIG d   1       1.969   0.185 -10.501  0.00  0.00     0.062 H 
ATOM     15  C   LIG d   1       0.459  -2.416 -12.032  0.00  0.00     0.094 A 
ATOM     16  H   LIG d   1       0.520  -0.315 -12.426  0.00  0.00     0.064 H 
ATOM     17  C   LIG d   1       0.879  -3.443 -11.207  0.00  0.00    -0.036 A 
ATOM     18  C   LIG d   1       1.696  -3.174 -10.127  0.00  0.00    -0.052 A 
ATOM     19  H   LIG d   1       0.570  -4.457 -11.410  0.00  0.00     0.064 H 
ATOM     20  H   LIG d   1       2.026  -3.977  -9.485  0.00  0.00     0.062 H 
BRANCH  15  21
ATOM     21  S   LIG d   1      -0.579  -2.766 -13.413  0.00  0.00     0.025 S 
ATOM     22  O   LIG d   1       0.162  -2.420 -14.575  0.00  0.00    -0.164 OA
ATOM     23  O   LIG d   1      -1.105  -4.070 -13.205  0.00  0.00    -0.164 OA
BRANCH  21  24
ATOM     24  C   LIG d   1      -1.942  -1.653 -13.334  0.00  0.00     0.094 A 
ATOM     25  C   LIG d   1      -1.729  -0.291 -13.442  0.00  0.00    -0.036 A 
ATOM     26  C   LIG d   1      -2.799   0.582 -13.381  0.00  0.00    -0.057 A 
ATOM     27  H   LIG d   1      -0.728   0.090 -13.573  0.00  0.00     0.064 H 
ATOM     28  C   LIG d   1      -4.082   0.094 -13.214  0.00  0.00    -0.050 A 
ATOM     29  H   LIG d   1      -2.633   1.646 -13.465  0.00  0.00     0.062 H 
ATOM     30  C   LIG d   1      -4.294  -1.268 -13.107  0.00  0.00    -0.057 A 
ATOM     31  C   LIG d   1      -3.224  -2.142 -13.172  0.00  0.00    -0.036 A 
ATOM     32  H   LIG d   1      -5.296  -1.650 -12.976  0.00  0.00     0.062 H 
ATOM     33  H   LIG d   1      -3.391  -3.206 -13.093  0.00  0.00     0.064 H 
BRANCH  28  34
ATOM     34  C   LIG d   1      -5.248   1.046 -13.148  0.00  0.00    -0.040 C 
ATOM     35  H   LIG d   1      -5.418   1.481 -14.133  0.00  0.00     0.028 H 
ATOM     36  H   LIG d   1      -6.139   0.506 -12.829  0.00  0.00     0.028 H 
ATOM     37  H   LIG d   1      -5.029   1.840 -12.433  0.00  0.00     0.028 H 
ENDBRANCH  28  34
ENDBRANCH  21  24
ENDBRANCH  15  21
ENDBRANCH   4  11
BRANCH   1  38
ATOM     38  S   LIG d   1       5.636  -0.667  -5.156  0.00  0.00     0.061 S 
ATOM     39  O   LIG d   1       6.288   0.563  -5.442  0.00  0.00    -0.153 OA
ATOM     40  O   LIG d   1       6.352  -1.861  -4.873  0.00  0.00    -0.153 OA
BRANCH  38  41
ATOM     41  N   LIG d   1       4.649  -0.387  -3.856  0.00  0.00    -0.177 N 
BRANCH  41  42
ATOM     42  C   LIG d   1       4.912   0.747  -2.966  0.00  0.00     0.018 C 
ATOM     43  H   LIG d   1       5.291   0.380  -2.012  0.00  0.00     0.044 H 
ATOM     44  H   LIG d   1       5.653   1.403  -3.424  0.00  0.00     0.044 H 
BRANCH  42  45
ATOM     45  C   LIG d   1       3.616   1.526  -2.735  0.00  0.00    -0.051 C 
ATOM     46  H   LIG d   1       3.226   1.295  -1.744  0.00  0.00     0.024 H 
ATOM     47  H   LIG d   1       3.815   2.594  -2.808  0.00  0.00     0.024 H 
ATOM     48  H   LIG d   1       2.882   1.240  -3.489  0.00  0.00     0.024 H 
ENDBRANCH  42  45
ENDBRANCH  41  42
BRANCH  41  49
ATOM     49  C   LIG d   1       3.513  -1.274  -3.594  0.00  0.00     0.018 C 
ATOM     50  H   LIG d   1       2.621  -0.676  -3.404  0.00  0.00     0.044 H 
ATOM     51  H   LIG d   1       3.342  -1.912  -4.462  0.00  0.00     0.044 H 
BRANCH  49  52
ATOM     52  C   LIG d   1       3.814  -2.144  -2.373  0.00  0.00    -0.051 C 
ATOM     53  H   LIG d   1       4.626  -2.833  -2.610  0.00  0.00     0.024 H 
ATOM     54  H   LIG d   1       4.108  -1.509  -1.538  0.00  0.00     0.024 H 
ATOM     55  H   LIG d   1       2.924  -2.711  -2.102  0.00  0.00     0.024 H 
ENDBRANCH  49  52
ENDBRANCH  41  49
ENDBRANCH  38  41
ENDBRANCH   1  38
TORSDOF 10
ENDMDL
MODEL 5
REMARK VINA RESULT:      -5.9      3.762      5.143
REMARK  10 active torsions:
REMARK  status: ('A' for Active; 'I' for Inactive)
REMARK    1  A    between atoms: C_1  and  C_2 
REMARK    2  A    between atoms: C_2  and  N_3 
REMARK    3  A    between atoms: N_3  and  C_4 
REMARK    4  A    between atoms: N_3  and  S_6 
REMARK    5  A    between atoms: C_4  and  C_5 
REMARK    6  A    between atoms: S_6  and  C_9 
REMARK    7  A    between atoms: C_12  and  C_15 
REMARK    8  A    between atoms: C_18  and  S_21 
REMARK    9  A    between atoms: S_21  and  C_24 
REMARK   10  A    between atoms: C_27  and  C_30 
ROOT
ATOM      1  C   LIG d   1      10.408   4.993  -3.549  0.00  0.00     0.105 A 
ATOM      2  C   LIG d   1      10.490   3.855  -2.766  0.00  0.00    -0.035 A 
ATOM      3  C   LIG d   1       9.719   2.751  -3.066  0.00  0.00    -0.052 A 
ATOM      4  C   LIG d   1       8.865   2.779  -4.167  0.00  0.00    -0.018 A 
ATOM      5  C   LIG d   1       8.789   3.925  -4.955  0.00  0.00    -0.052 A 
ATOM      6  C   LIG d   1       9.561   5.026  -4.643  0.00  0.00    -0.035 A 
ATOM      7  H   LIG d   1      11.156   3.833  -1.915  0.00  0.00     0.064 H 
ATOM      8  H   LIG d   1       9.780   1.865  -2.451  0.00  0.00     0.062 H 
ATOM      9  H   LIG d   1       8.129   3.953  -5.809  0.00  0.00     0.062 H 
ATOM     10  H   LIG d   1       9.505   5.915  -5.254  0.00  0.00     0.064 H 
ENDROOT
BRANCH   4  11
ATOM     11  C   LIG d   1       8.038   1.592  -4.498  0.00  0.00    -0.018 A 
ATOM     12  C   LIG d   1       8.161   0.979  -5.743  0.00  0.00    -0.052 A 
ATOM     13  C   LIG d   1       7.389  -0.126  -6.045  0.00  0.00    -0.036 A 
ATOM     14  H   LIG d   1       8.858   1.367  -6.471  0.00  0.00     0.062 H 
ATOM     15  C   LIG d   1       6.497  -0.624  -5.114  0.00  0.00     0.094 A 
ATOM     16  H   LIG d   1       7.484  -0.601  -7.010  0.00  0.00     0.064 H 
ATOM     17  C   LIG d   1       6.371  -0.020  -3.876  0.00  0.00    -0.036 A 
ATOM     18  C   LIG d   1       7.141   1.082  -3.562  0.00  0.00    -0.052 A 
ATOM     19  H   LIG d   1       5.672  -0.414  -3.153  0.00  0.00     0.064 H 
ATOM     20  H   LIG d   1       7.044   1.551  -2.593  0.00  0.00     0.062 H 
BRANCH  15  21
ATOM     21  S   LIG d   1       5.515  -2.035  -5.507  0.00  0.00     0.025 S 
ATOM     22  O   LIG d   1       6.392  -2.986  -6.096  0.00  0.00    -0.164 OA
ATOM     23  O   LIG d   1       4.740  -2.325  -4.352  0.00  0.00    -0.164 OA
BRANCH  21  24
ATOM     24  C   LIG d   1       4.383  -1.546  -6.765  0.00  0.00     0.094 A 
ATOM     25  C   LIG d   1       4.169  -2.365  -7.858  0.00  0.00    -0.036 A 
ATOM     26  C   LIG d   1       3.280  -1.982  -8.845  0.00  0.00    -0.057 A 
ATOM     27  H   LIG d   1       4.696  -3.303  -7.942  0.00  0.00     0.064 H 
ATOM     28  C   LIG d   1       2.604  -0.781  -8.738  0.00  0.00    -0.050 A 
ATOM     29  H   LIG d   1       3.114  -2.621  -9.699  0.00  0.00     0.062 H 
ATOM     30  C   LIG d   1       2.818   0.038  -7.644  0.00  0.00    -0.057 A 
ATOM     31  C   LIG d   1       3.704  -0.347  -6.656  0.00  0.00    -0.036 A 
ATOM     32  H   LIG d   1       2.290   0.976  -7.561  0.00  0.00     0.062 H 
ATOM     33  H   LIG d   1       3.867   0.290  -5.799  0.00  0.00     0.064 H 
BRANCH  28  34
ATOM     34  C   LIG d   1       1.635  -0.363  -9.814  0.00  0.00    -0.040 C 
ATOM     35  H   LIG d   1       2.110  -0.463 -10.790  0.00  0.00     0.028 H 
ATOM     36  H   LIG d   1       0.750  -0.998  -9.772  0.00  0.00     0.028 H 
ATOM     37  H   LIG d   1       1.344   0.676  -9.657  0.00  0.00     0.028 H 
ENDBRANCH  28  34
ENDBRANCH  21  24
ENDBRANCH  15  21
ENDBRANCH   4  11
BRANCH   1  38
ATOM     38  S   LIG d   1      11.391   6.401  -3.157  0.00  0.00     0.061 S 
ATOM     39  O   LIG d   1      11.031   7.418  -4.082  0.00  0.00    -0.153 OA
ATOM     40  O   LIG d   1      12.727   5.937  -3.016  0.00  0.00    -0.153 OA
BRANCH  38  41
ATOM     41  N   LIG d   1      10.914   6.930  -1.663  0.00  0.00    -0.177 N 
BRANCH  41  42
ATOM     42  C   LIG d   1      11.866   6.936  -0.548  0.00  0.00     0.018 C 
ATOM     43  H   LIG d   1      12.879   6.825  -0.935  0.00  0.00     0.044 H 
ATOM     44  H   LIG d   1      11.785   7.878  -0.006  0.00  0.00     0.044 H 
BRANCH  42  45
ATOM     45  C   LIG d   1      11.551   5.775   0.397  0.00  0.00    -0.051 C 
ATOM     46  H   LIG d   1      10.660   6.010   0.978  0.00  0.00     0.024 H 
ATOM     47  H   LIG d   1      11.379   4.870  -0.184  0.00  0.00     0.024 H 
ATOM     48  H   LIG d   1      12.394   5.618   1.072  0.00  0.00     0.024 H 
ENDBRANCH  42  45
ENDBRANCH  41  42
BRANCH  41  49
ATOM     49  C   LIG d   1       9.539   7.392  -1.453  0.00  0.00     0.018 C 
ATOM     50  H   LIG d   1       9.027   7.456  -2.413  0.00  0.00     0.044 H 
ATOM     51  H   LIG d   1       9.014   6.686  -0.808  0.00  0.00     0.044 H 
BRANCH  49  52
ATOM     52  C   LIG d   1       9.559   8.770  -0.791  0.00  0.00    -0.051 C 
ATOM     53  H   LIG d   1       9.901   9.514  -1.511  0.00  0.00     0.024 H 
ATOM     54  H   LIG d   1       8.555   9.026  -0.453  0.00  0.00     0.024 H 
ATOM     55  H   LIG d   1      10.235   8.754   0.064  0.00  0.00     0.024 H 
ENDBRANCH  49  52
ENDBRANCH  41  49
ENDBRANCH  38  41
ENDBRANCH   1  38
TORSDOF 10
ENDMDL
MODEL 6
REMARK VINA RESULT:      -5.9      3.783      5.236
REMARK  10 active torsions:
REMARK  status: ('A' for Active; 'I' for Inactive)
REMARK    1  A    between atoms: C_1  and  C_2 
REMARK    2  A    between atoms: C_2  and  N_3 
REMARK    3  A    between atoms: N_3  and  C_4 
REMARK    4  A    between atoms: N_3  and  S_6 
REMARK    5  A    between atoms: C_4  and  C_5 
REMARK    6  A    between atoms: S_6  and  C_9 
REMARK    7  A    between atoms: C_12  and  C_15 
REMARK    8  A    between atoms: C_18  and  S_21 
REMARK    9  A    between atoms: S_21  and  C_24 
REMARK   10  A    between atoms: C_27  and  C_30 
ROOT
ATOM      1  C   LIG d   1      10.381   4.942  -3.559  0.00  0.00     0.105 A 
ATOM      2  C   LIG d   1       9.550   4.973  -4.664  0.00  0.00    -0.035 A 
ATOM      3  C   LIG d   1       8.792   3.867  -4.992  0.00  0.00    -0.052 A 
ATOM      4  C   LIG d   1       8.858   2.722  -4.201  0.00  0.00    -0.018 A 
ATOM      5  C   LIG d   1       9.693   2.698  -3.086  0.00  0.00    -0.052 A 
ATOM      6  C   LIG d   1      10.450   3.807  -2.770  0.00  0.00    -0.035 A 
ATOM      7  H   LIG d   1       9.497   5.863  -5.274  0.00  0.00     0.064 H 
ATOM      8  H   LIG d   1       8.147   3.891  -5.858  0.00  0.00     0.062 H 
ATOM      9  H   LIG d   1       9.747   1.813  -2.470  0.00  0.00     0.062 H 
ATOM     10  H   LIG d   1      11.097   3.791  -1.905  0.00  0.00     0.064 H 
ENDROOT
BRANCH   4  11
ATOM     11  C   LIG d   1       8.040   1.532  -4.545  0.00  0.00    -0.018 A 
ATOM     12  C   LIG d   1       7.150   1.001  -3.613  0.00  0.00    -0.052 A 
ATOM     13  C   LIG d   1       6.392  -0.106  -3.939  0.00  0.00    -0.036 A 
ATOM     14  H   LIG d   1       7.055   1.454  -2.638  0.00  0.00     0.062 H 
ATOM     15  C   LIG d   1       6.514  -0.686  -5.189  0.00  0.00     0.094 A 
ATOM     16  H   LIG d   1       5.703  -0.518  -3.217  0.00  0.00     0.064 H 
ATOM     17  C   LIG d   1       7.395  -0.164  -6.118  0.00  0.00    -0.036 A 
ATOM     18  C   LIG d   1       8.154   0.946  -5.804  0.00  0.00    -0.052 A 
ATOM     19  H   LIG d   1       7.485  -0.621  -7.092  0.00  0.00     0.064 H 
ATOM     20  H   LIG d   1       8.839   1.356  -6.532  0.00  0.00     0.062 H 
BRANCH  15  21
ATOM     21  S   LIG d   1       5.542  -2.099  -5.598  0.00  0.00     0.025 S 
ATOM     22  O   LIG d   1       6.421  -3.029  -6.218  0.00  0.00    -0.164 OA
ATOM     23  O   LIG d   1       4.787  -2.422  -4.438  0.00  0.00    -0.164 OA
BRANCH  21  24
ATOM     24  C   LIG d   1       4.387  -1.598  -6.830  0.00  0.00     0.094 A 
ATOM     25  C   LIG d   1       3.730  -0.387  -6.709  0.00  0.00    -0.036 A 
ATOM     26  C   LIG d   1       2.824   0.007  -7.676  0.00  0.00    -0.057 A 
ATOM     27  H   LIG d   1       3.924   0.251  -5.859  0.00  0.00     0.064 H 
ATOM     28  C   LIG d   1       2.576  -0.809  -8.764  0.00  0.00    -0.050 A 
ATOM     29  H   LIG d   1       2.311   0.952  -7.581  0.00  0.00     0.062 H 
ATOM     30  C   LIG d   1       3.234  -2.019  -8.885  0.00  0.00    -0.057 A 
ATOM     31  C   LIG d   1       4.143  -2.411  -7.919  0.00  0.00    -0.036 A 
ATOM     32  H   LIG d   1       3.040  -2.657  -9.734  0.00  0.00     0.062 H 
ATOM     33  H   LIG d   1       4.660  -3.355  -8.016  0.00  0.00     0.064 H 
BRANCH  28  34
ATOM     34  C   LIG d   1       1.589  -0.379  -9.818  0.00  0.00    -0.040 C 
ATOM     35  H   LIG d   1       2.081  -0.361 -10.790  0.00  0.00     0.028 H 
ATOM     36  H   LIG d   1       0.757  -1.083  -9.844  0.00  0.00     0.028 H 
ATOM     37  H   LIG d   1       1.214   0.617  -9.581  0.00  0.00     0.028 H 
ENDBRANCH  28  34
ENDBRANCH  21  24
ENDBRANCH  15  21
ENDBRANCH   4  11
BRANCH   1  38
ATOM     38  S   LIG d   1      11.350   6.356  -3.149  0.00  0.00     0.061 S 
ATOM     39  O   LIG d   1      10.999   7.371  -4.080  0.00  0.00    -0.153 OA
ATOM     40  O   LIG d   1      12.686   5.900  -2.986  0.00  0.00    -0.153 OA
BRANCH  38  41
ATOM     41  N   LIG d   1      10.844   6.882  -1.664  0.00  0.00    -0.177 N 
BRANCH  41  42
ATOM     42  C   LIG d   1      11.775   6.885  -0.531  0.00  0.00     0.018 C 
ATOM     43  H   LIG d   1      12.781   6.660  -0.886  0.00  0.00     0.044 H 
ATOM     44  H   LIG d   1      11.767   7.867  -0.057  0.00  0.00     0.044 H 
BRANCH  42  45
ATOM     45  C   LIG d   1      11.344   5.825   0.485  0.00  0.00    -0.051 C 
ATOM     46  H   LIG d   1      10.290   5.592   0.342  0.00  0.00     0.024 H 
ATOM     47  H   LIG d   1      11.939   4.924   0.344  0.00  0.00     0.024 H 
ATOM     48  H   LIG d   1      11.498   6.208   1.495  0.00  0.00     0.024 H 
ENDBRANCH  42  45
ENDBRANCH  41  42
BRANCH  41  49
ATOM     49  C   LIG d   1       9.466   7.344  -1.479  0.00  0.00     0.018 C 
ATOM     50  H   LIG d   1       8.935   7.292  -2.429  0.00  0.00     0.044 H 
ATOM     51  H   LIG d   1       8.965   6.708  -0.749  0.00  0.00     0.044 H 
BRANCH  49  52
ATOM     52  C   LIG d   1       9.474   8.789  -0.977  0.00  0.00    -0.051 C 
ATOM     53  H   LIG d   1       8.458   9.087  -0.714  0.00  0.00     0.024 H 
ATOM     54  H   LIG d   1      10.114   8.865  -0.099  0.00  0.00     0.024 H 
ATOM     55  H   LIG d   1       9.854   9.444  -1.761  0.00  0.00     0.024 H 
ENDBRANCH  49  52
ENDBRANCH  41  49
ENDBRANCH  38  41
ENDBRANCH   1  38
TORSDOF 10
ENDMDL
MODEL 7
REMARK VINA RESULT:      -5.8      9.462     13.411
REMARK  10 active torsions:
REMARK  status: ('A' for Active; 'I' for Inactive)
REMARK    1  A    between atoms: C_1  and  C_2 
REMARK    2  A    between atoms: C_2  and  N_3 
REMARK    3  A    between atoms: N_3  and  C_4 
REMARK    4  A    between atoms: N_3  and  S_6 
REMARK    5  A    between atoms: C_4  and  C_5 
REMARK    6  A    between atoms: S_6  and  C_9 
REMARK    7  A    between atoms: C_12  and  C_15 
REMARK    8  A    between atoms: C_18  and  S_21 
REMARK    9  A    between atoms: S_21  and  C_24 
REMARK   10  A    between atoms: C_27  and  C_30 
ROOT
ATOM      1  C   LIG d   1       4.260  -0.638  -6.448  0.00  0.00     0.105 A 
ATOM      2  C   LIG d   1       4.614  -1.788  -7.132  0.00  0.00    -0.035 A 
ATOM      3  C   LIG d   1       3.897  -2.181  -8.244  0.00  0.00    -0.052 A 
ATOM      4  C   LIG d   1       2.822  -1.410  -8.683  0.00  0.00    -0.018 A 
ATOM      5  C   LIG d   1       2.473  -0.252  -7.994  0.00  0.00    -0.052 A 
ATOM      6  C   LIG d   1       3.193   0.129  -6.880  0.00  0.00    -0.035 A 
ATOM      7  H   LIG d   1       5.451  -2.381  -6.793  0.00  0.00     0.064 H 
ATOM      8  H   LIG d   1       4.171  -3.080  -8.775  0.00  0.00     0.062 H 
ATOM      9  H   LIG d   1       1.640   0.348  -8.329  0.00  0.00     0.062 H 
ATOM     10  H   LIG d   1       2.925   1.028  -6.344  0.00  0.00     0.064 H 
ENDROOT
BRANCH   4  11
ATOM     11  C   LIG d   1       2.051  -1.824  -9.882  0.00  0.00    -0.018 A 
ATOM     12  C   LIG d   1       1.554  -0.863 -10.760  0.00  0.00    -0.052 A 
ATOM     13  C   LIG d   1       0.838  -1.254 -11.874  0.00  0.00    -0.036 A 
ATOM     14  H   LIG d   1       1.726   0.185 -10.569  0.00  0.00     0.062 H 
ATOM     15  C   LIG d   1       0.616  -2.597 -12.120  0.00  0.00     0.094 A 
ATOM     16  H   LIG d   1       0.451  -0.510 -12.554  0.00  0.00     0.064 H 
ATOM     17  C   LIG d   1       1.108  -3.555 -11.253  0.00  0.00    -0.036 A 
ATOM     18  C   LIG d   1       1.829  -3.176 -10.138  0.00  0.00    -0.052 A 
ATOM     19  H   LIG d   1       0.932  -4.602 -11.450  0.00  0.00     0.064 H 
ATOM     20  H   LIG d   1       2.216  -3.925  -9.464  0.00  0.00     0.062 H 
BRANCH  15  21
ATOM     21  S   LIG d   1      -0.299  -3.089 -13.544  0.00  0.00     0.025 S 
ATOM     22  O   LIG d   1      -0.126  -2.061 -14.511  0.00  0.00    -0.164 OA
ATOM     23  O   LIG d   1       0.046  -4.443 -13.802  0.00  0.00    -0.164 OA
BRANCH  21  24
ATOM     24  C   LIG d   1      -2.003  -3.078 -13.097  0.00  0.00     0.094 A 
ATOM     25  C   LIG d   1      -2.578  -4.204 -12.537  0.00  0.00    -0.036 A 
ATOM     26  C   LIG d   1      -3.915  -4.196 -12.186  0.00  0.00    -0.057 A 
ATOM     27  H   LIG d   1      -1.983  -5.090 -12.374  0.00  0.00     0.064 H 
ATOM     28  C   LIG d   1      -4.677  -3.061 -12.394  0.00  0.00    -0.050 A 
ATOM     29  H   LIG d   1      -4.364  -5.075 -11.749  0.00  0.00     0.062 H 
ATOM     30  C   LIG d   1      -4.102  -1.935 -12.953  0.00  0.00    -0.057 A 
ATOM     31  C   LIG d   1      -2.763  -1.942 -13.301  0.00  0.00    -0.036 A 
ATOM     32  H   LIG d   1      -4.697  -1.048 -13.116  0.00  0.00     0.062 H 
ATOM     33  H   LIG d   1      -2.313  -1.061 -13.734  0.00  0.00     0.064 H 
BRANCH  28  34
ATOM     34  C   LIG d   1      -6.134  -3.051 -12.010  0.00  0.00    -0.040 C 
ATOM     35  H   LIG d   1      -6.268  -3.600 -11.079  0.00  0.00     0.028 H 
ATOM     36  H   LIG d   1      -6.468  -2.022 -11.878  0.00  0.00     0.028 H 
ATOM     37  H   LIG d   1      -6.720  -3.524 -12.799  0.00  0.00     0.028 H 
ENDBRANCH  28  34
ENDBRANCH  21  24
ENDBRANCH  15  21
ENDBRANCH   4  11
BRANCH   1  38
ATOM     38  S   LIG d   1       5.177  -0.147  -5.026  0.00  0.00     0.061 S 
ATOM     39  O   LIG d   1       4.331   0.714  -4.275  0.00  0.00    -0.153 OA
ATOM     40  O   LIG d   1       6.458   0.257  -5.488  0.00  0.00    -0.153 OA
BRANCH  38  41
ATOM     41  N   LIG d   1       5.411  -1.501  -4.102  0.00  0.00    -0.177 N 
BRANCH  41  42
ATOM     42  C   LIG d   1       6.768  -1.899  -3.716  0.00  0.00     0.018 C 
ATOM     43  H   LIG d   1       7.470  -1.110  -3.988  0.00  0.00     0.044 H 
ATOM     44  H   LIG d   1       6.805  -2.064  -2.639  0.00  0.00     0.044 H 
BRANCH  42  45
ATOM     45  C   LIG d   1       7.147  -3.191  -4.443  0.00  0.00    -0.051 C 
ATOM     46  H   LIG d   1       6.247  -3.771  -4.645  0.00  0.00     0.024 H 
ATOM     47  H   LIG d   1       7.641  -2.947  -5.382  0.00  0.00     0.024 H 
ATOM     48  H   LIG d   1       7.823  -3.774  -3.817  0.00  0.00     0.024 H 
ENDBRANCH  42  45
ENDBRANCH  41  42
BRANCH  41  49
ATOM     49  C   LIG d   1       4.263  -2.303  -3.672  0.00  0.00     0.018 C 
ATOM     50  H   LIG d   1       3.397  -2.056  -4.286  0.00  0.00     0.044 H 
ATOM     51  H   LIG d   1       4.498  -3.362  -3.785  0.00  0.00     0.044 H 
BRANCH  49  52
ATOM     52  C   LIG d   1       3.951  -2.003  -2.205  0.00  0.00    -0.051 C 
ATOM     53  H   LIG d   1       2.874  -1.885  -2.080  0.00  0.00     0.024 H 
ATOM     54  H   LIG d   1       4.301  -2.826  -1.583  0.00  0.00     0.024 H 
ATOM     55  H   LIG d   1       4.454  -1.083  -1.907  0.00  0.00     0.024 H 
ENDBRANCH  49  52
ENDBRANCH  41  49
ENDBRANCH  38  41
ENDBRANCH   1  38
TORSDOF 10
ENDMDL
MODEL 8
REMARK VINA RESULT:      -5.7      9.337     13.235
REMARK  10 active torsions:
REMARK  status: ('A' for Active; 'I' for Inactive)
REMARK    1  A    between atoms: C_1  and  C_2 
REMARK    2  A    between atoms: C_2  and  N_3 
REMARK    3  A    between atoms: N_3  and  C_4 
REMARK    4  A    between atoms: N_3  and  S_6 
REMARK    5  A    between atoms: C_4  and  C_5 
REMARK    6  A    between atoms: S_6  and  C_9 
REMARK    7  A    between atoms: C_12  and  C_15 
REMARK    8  A    between atoms: C_18  and  S_21 
REMARK    9  A    between atoms: S_21  and  C_24 
REMARK   10  A    between atoms: C_27  and  C_30 
ROOT
ATOM      1  C   LIG d   1       4.688  -0.981  -6.352  0.00  0.00     0.105 A 
ATOM      2  C   LIG d   1       4.811  -2.200  -6.995  0.00  0.00    -0.035 A 
ATOM      3  C   LIG d   1       4.016  -2.491  -8.086  0.00  0.00    -0.052 A 
ATOM      4  C   LIG d   1       3.097  -1.549  -8.545  0.00  0.00    -0.018 A 
ATOM      5  C   LIG d   1       2.982  -0.321  -7.897  0.00  0.00    -0.052 A 
ATOM      6  C   LIG d   1       3.778  -0.043  -6.804  0.00  0.00    -0.035 A 
ATOM      7  H   LIG d   1       5.526  -2.928  -6.641  0.00  0.00     0.064 H 
ATOM      8  H   LIG d   1       4.109  -3.444  -8.585  0.00  0.00     0.062 H 
ATOM      9  H   LIG d   1       2.271   0.412  -8.249  0.00  0.00     0.062 H 
ATOM     10  H   LIG d   1       3.690   0.908  -6.301  0.00  0.00     0.064 H 
ENDROOT
BRANCH   4  11
ATOM     11  C   LIG d   1       2.245  -1.853  -9.722  0.00  0.00    -0.018 A 
ATOM     12  C   LIG d   1       1.672  -0.817 -10.457  0.00  0.00    -0.052 A 
ATOM     13  C   LIG d   1       0.880  -1.107 -11.550  0.00  0.00    -0.036 A 
ATOM     14  H   LIG d   1       1.846   0.209 -10.171  0.00  0.00     0.062 H 
ATOM     15  C   LIG d   1       0.657  -2.422 -11.917  0.00  0.00     0.094 A 
ATOM     16  H   LIG d   1       0.435  -0.305 -12.120  0.00  0.00     0.064 H 
ATOM     17  C   LIG d   1       1.224  -3.453 -11.192  0.00  0.00    -0.036 A 
ATOM     18  C   LIG d   1       2.022  -3.175 -10.099  0.00  0.00    -0.052 A 
ATOM     19  H   LIG d   1       1.047  -4.478 -11.483  0.00  0.00     0.064 H 
ATOM     20  H   LIG d   1       2.467  -3.982  -9.536  0.00  0.00     0.062 H 
BRANCH  15  21
ATOM     21  S   LIG d   1      -0.355  -2.783 -13.315  0.00  0.00     0.025 S 
ATOM     22  O   LIG d   1      -0.533  -4.193 -13.332  0.00  0.00    -0.164 OA
ATOM     23  O   LIG d   1      -1.448  -1.876 -13.269  0.00  0.00    -0.164 OA
BRANCH  21  24
ATOM     24  C   LIG d   1       0.579  -2.375 -14.752  0.00  0.00     0.094 A 
ATOM     25  C   LIG d   1       1.961  -2.379 -14.702  0.00  0.00    -0.036 A 
ATOM     26  C   LIG d   1       2.693  -2.060 -15.830  0.00  0.00    -0.057 A 
ATOM     27  H   LIG d   1       2.468  -2.630 -13.783  0.00  0.00     0.064 H 
ATOM     28  C   LIG d   1       2.044  -1.739 -17.008  0.00  0.00    -0.050 A 
ATOM     29  H   LIG d   1       3.772  -2.062 -15.792  0.00  0.00     0.062 H 
ATOM     30  C   LIG d   1       0.663  -1.737 -17.058  0.00  0.00    -0.057 A 
ATOM     31  C   LIG d   1      -0.070  -2.059 -15.930  0.00  0.00    -0.036 A 
ATOM     32  H   LIG d   1       0.156  -1.485 -17.977  0.00  0.00     0.062 H 
ATOM     33  H   LIG d   1      -1.149  -2.061 -15.970  0.00  0.00     0.064 H 
BRANCH  28  34
ATOM     34  C   LIG d   1       2.843  -1.391 -18.238  0.00  0.00    -0.040 C 
ATOM     35  H   LIG d   1       3.403  -0.473 -18.060  0.00  0.00     0.028 H 
ATOM     36  H   LIG d   1       3.535  -2.203 -18.462  0.00  0.00     0.028 H 
ATOM     37  H   LIG d   1       2.167  -1.247 -19.081  0.00  0.00     0.028 H 
ENDBRANCH  28  34
ENDBRANCH  21  24
ENDBRANCH  15  21
ENDBRANCH   4  11
BRANCH   1  38
ATOM     38  S   LIG d   1       5.702  -0.620  -4.957  0.00  0.00     0.061 S 
ATOM     39  O   LIG d   1       6.324   0.630  -5.220  0.00  0.00    -0.153 OA
ATOM     40  O   LIG d   1       6.446  -1.798  -4.679  0.00  0.00    -0.153 OA
BRANCH  38  41
ATOM     41  N   LIG d   1       4.692  -0.383  -3.667  0.00  0.00    -0.177 N 
BRANCH  41  42
ATOM     42  C   LIG d   1       4.975   0.684  -2.702  0.00  0.00     0.018 C 
ATOM     43  H   LIG d   1       5.391   0.251  -1.792  0.00  0.00     0.044 H 
ATOM     44  H   LIG d   1       5.692   1.383  -3.133  0.00  0.00     0.044 H 
BRANCH  42  45
ATOM     45  C   LIG d   1       3.679   1.425  -2.367  0.00  0.00    -0.051 C 
ATOM     46  H   LIG d   1       3.020   1.415  -3.235  0.00  0.00     0.024 H 
ATOM     47  H   LIG d   1       3.185   0.933  -1.530  0.00  0.00     0.024 H 
ATOM     48  H   LIG d   1       3.910   2.456  -2.097  0.00  0.00     0.024 H 
ENDBRANCH  42  45
ENDBRANCH  41  42
BRANCH  41  49
ATOM     49  C   LIG d   1       3.517  -1.239  -3.487  0.00  0.00     0.018 C 
ATOM     50  H   LIG d   1       2.664  -0.628  -3.195  0.00  0.00     0.044 H 
ATOM     51  H   LIG d   1       3.294  -1.749  -4.425  0.00  0.00     0.044 H 
BRANCH  49  52
ATOM     52  C   LIG d   1       3.801  -2.274  -2.398  0.00  0.00    -0.051 C 
ATOM     53  H   LIG d   1       4.049  -3.230  -2.862  0.00  0.00     0.024 H 
ATOM     54  H   LIG d   1       4.638  -1.939  -1.787  0.00  0.00     0.024 H 
ATOM     55  H   LIG d   1       2.918  -2.394  -1.771  0.00  0.00     0.024 H 
ENDBRANCH  49  52
ENDBRANCH  41  49
ENDBRANCH  38  41
ENDBRANCH   1  38
TORSDOF 10
ENDMDL
MODEL 9
REMARK VINA RESULT:      -5.7      9.279     13.185
REMARK  10 active torsions:
REMARK  status: ('A' for Active; 'I' for Inactive)
REMARK    1  A    between atoms: C_1  and  C_2 
REMARK    2  A    between atoms: C_2  and  N_3 
REMARK    3  A    between atoms: N_3  and  C_4 
REMARK    4  A    between atoms: N_3  and  S_6 
REMARK    5  A    between atoms: C_4  and  C_5 
REMARK    6  A    between atoms: S_6  and  C_9 
REMARK    7  A    between atoms: C_12  and  C_15 
REMARK    8  A    between atoms: C_18  and  S_21 
REMARK    9  A    between atoms: S_21  and  C_24 
REMARK   10  A    between atoms: C_27  and  C_30 
ROOT
ATOM      1  C   LIG d   1       4.638  -0.999  -6.516  0.00  0.00     0.105 A 
ATOM      2  C   LIG d   1       4.720  -2.245  -7.112  0.00  0.00    -0.035 A 
ATOM      3  C   LIG d   1       3.914  -2.552  -8.190  0.00  0.00    -0.052 A 
ATOM      4  C   LIG d   1       3.024  -1.599  -8.684  0.00  0.00    -0.018 A 
ATOM      5  C   LIG d   1       2.950  -0.345  -8.083  0.00  0.00    -0.052 A 
ATOM      6  C   LIG d   1       3.757  -0.050  -7.003  0.00  0.00    -0.035 A 
ATOM      7  H   LIG d   1       5.412  -2.982  -6.731  0.00  0.00     0.064 H 
ATOM      8  H   LIG d   1       3.975  -3.526  -8.652  0.00  0.00     0.062 H 
ATOM      9  H   LIG d   1       2.262   0.397  -8.462  0.00  0.00     0.062 H 
ATOM     10  H   LIG d   1       3.701   0.922  -6.537  0.00  0.00     0.064 H 
ENDROOT
BRANCH   4  11
ATOM     11  C   LIG d   1       2.160  -1.921  -9.847  0.00  0.00    -0.018 A 
ATOM     12  C   LIG d   1       1.864  -3.248 -10.152  0.00  0.00    -0.052 A 
ATOM     13  C   LIG d   1       1.058  -3.541 -11.235  0.00  0.00    -0.036 A 
ATOM     14  H   LIG d   1       2.263  -4.045  -9.544  0.00  0.00     0.062 H 
ATOM     15  C   LIG d   1       0.545  -2.520 -12.014  0.00  0.00     0.094 A 
ATOM     16  H   LIG d   1       0.829  -4.569 -11.473  0.00  0.00     0.064 H 
ATOM     17  C   LIG d   1       0.835  -1.202 -11.716  0.00  0.00    -0.036 A 
ATOM     18  C   LIG d   1       1.636  -0.897 -10.632  0.00  0.00    -0.052 A 
ATOM     19  H   LIG d   1       0.432  -0.409 -12.328  0.00  0.00     0.064 H 
ATOM     20  H   LIG d   1       1.859   0.134 -10.398  0.00  0.00     0.062 H 
BRANCH  15  21
ATOM     21  S   LIG d   1      -0.482  -2.902 -13.395  0.00  0.00     0.025 S 
ATOM     22  O   LIG d   1      -1.267  -1.745 -13.648  0.00  0.00    -0.164 OA
ATOM     23  O   LIG d   1       0.362  -3.482 -14.381  0.00  0.00    -0.164 OA
BRANCH  21  24
ATOM     24  C   LIG d   1      -1.597  -4.165 -12.880  0.00  0.00     0.094 A 
ATOM     25  C   LIG d   1      -2.748  -3.831 -12.189  0.00  0.00    -0.036 A 
ATOM     26  C   LIG d   1      -3.623  -4.822 -11.785  0.00  0.00    -0.057 A 
ATOM     27  H   LIG d   1      -2.962  -2.797 -11.965  0.00  0.00     0.064 H 
ATOM     28  C   LIG d   1      -3.349  -6.146 -12.073  0.00  0.00    -0.050 A 
ATOM     29  H   LIG d   1      -4.521  -4.561 -11.246  0.00  0.00     0.062 H 
ATOM     30  C   LIG d   1      -2.199  -6.479 -12.764  0.00  0.00    -0.057 A 
ATOM     31  C   LIG d   1      -1.325  -5.488 -13.171  0.00  0.00    -0.036 A 
ATOM     32  H   LIG d   1      -1.984  -7.513 -12.988  0.00  0.00     0.062 H 
ATOM     33  H   LIG d   1      -0.429  -5.748 -13.715  0.00  0.00     0.064 H 
BRANCH  28  34
ATOM     34  C   LIG d   1      -4.303  -7.226 -11.633  0.00  0.00    -0.040 C 
ATOM     35  H   LIG d   1      -5.217  -7.167 -12.225  0.00  0.00     0.028 H 
ATOM     36  H   LIG d   1      -3.838  -8.202 -11.776  0.00  0.00     0.028 H 
ATOM     37  H   LIG d   1      -4.544  -7.091 -10.578  0.00  0.00     0.028 H 
ENDBRANCH  28  34
ENDBRANCH  21  24
ENDBRANCH  15  21
ENDBRANCH   4  11
BRANCH   1  38
ATOM     38  S   LIG d   1       5.666  -0.618  -5.137  0.00  0.00     0.061 S 
ATOM     39  O   LIG d   1       6.271   0.637  -5.418  0.00  0.00    -0.153 OA
ATOM     40  O   LIG d   1       6.427  -1.786  -4.862  0.00  0.00    -0.153 OA
BRANCH  38  41
ATOM     41  N   LIG d   1       4.671  -0.382  -3.835  0.00  0.00    -0.177 N 
BRANCH  41  42
ATOM     42  C   LIG d   1       4.920   0.731  -2.915  0.00  0.00     0.018 C 
ATOM     43  H   LIG d   1       5.276   0.341  -1.961  0.00  0.00     0.044 H 
ATOM     44  H   LIG d   1       5.674   1.393  -3.341  0.00  0.00     0.044 H 
BRANCH  42  45
ATOM     45  C   LIG d   1       3.622   1.510  -2.694  0.00  0.00    -0.051 C 
ATOM     46  H   LIG d   1       2.937   0.912  -2.094  0.00  0.00     0.024 H 
ATOM     47  H   LIG d   1       3.842   2.442  -2.175  0.00  0.00     0.024 H 
ATOM     48  H   LIG d   1       3.163   1.731  -3.659  0.00  0.00     0.024 H 
ENDBRANCH  42  45
ENDBRANCH  41  42
BRANCH  41  49
ATOM     49  C   LIG d   1       3.542  -1.286  -3.602  0.00  0.00     0.018 C 
ATOM     50  H   LIG d   1       2.635  -0.703  -3.449  0.00  0.00     0.044 H 
ATOM     51  H   LIG d   1       3.413  -1.937  -4.467  0.00  0.00     0.044 H 
BRANCH  49  52
ATOM     52  C   LIG d   1       3.817  -2.137  -2.361  0.00  0.00    -0.051 C 
ATOM     53  H   LIG d   1       3.235  -3.058  -2.416  0.00  0.00     0.024 H 
ATOM     54  H   LIG d   1       4.878  -2.380  -2.314  0.00  0.00     0.024 H 
ATOM     55  H   LIG d   1       3.533  -1.581  -1.468  0.00  0.00     0.024 H 
ENDBRANCH  49  52
ENDBRANCH  41  49
ENDBRANCH  38  41
ENDBRANCH   1  38
TORSDOF 10
ENDMDL
