MODEL 1
REMARK VINA RESULT:      -6.7      0.000      0.000
REMARK  8 active torsions:
REMARK  status: ('A' for Active; 'I' for Inactive)
REMARK    1  A    between atoms: C_1  and  C_2 
REMARK    2  A    between atoms: C_2  and  O_3 
REMARK    3  A    between atoms: O_3  and  C_4 
REMARK    4  A    between atoms: C_4  and  C_6 
REMARK    5  A    between atoms: C_7  and  C_25 
REMARK    6  A    between atoms: C_11  and  N_15 
REMARK       I    between atoms: N_15  and  C_16 
REMARK    7  A    between atoms: C_16  and  C_18 
REMARK    8  A    between atoms: C_23  and  C_24 
ROOT
ATOM      1  C   LIG d   1       4.695  -8.616  -6.384  0.00  0.00     0.215 A 
ATOM      2  C   LIG d   1       4.548  -7.907  -7.534  0.00  0.00     0.010 A 
ATOM      3  C   LIG d   1       4.475  -6.539  -7.168  0.00  0.00     0.024 A 
ATOM      4  C   LIG d   1       4.321  -5.351  -7.892  0.00  0.00    -0.049 A 
ATOM      5  C   LIG d   1       4.285  -4.155  -7.237  0.00  0.00    -0.040 A 
ATOM      6  C   LIG d   1       4.401  -4.108  -5.847  0.00  0.00     0.037 A 
ATOM      7  C   LIG d   1       4.554  -5.273  -5.114  0.00  0.00     0.003 A 
ATOM      8  C   LIG d   1       4.592  -6.498  -5.765  0.00  0.00     0.138 A 
ATOM      9  O   LIG d   1       4.727  -7.768  -5.332  0.00  0.00    -0.448 OA
ATOM     10  H   LIG d   1       4.231  -5.381  -8.968  0.00  0.00     0.062 H 
ATOM     11  H   LIG d   1       4.166  -3.240  -7.797  0.00  0.00     0.064 H 
ATOM     12  H   LIG d   1       4.643  -5.228  -4.038  0.00  0.00     0.067 H 
ENDROOT
BRANCH   6  13
ATOM     13  N   LIG d   1       4.362  -2.877  -5.191  0.00  0.00    -0.281 N 
ATOM     14  C   LIG d   1       5.418  -2.468  -4.460  0.00  0.00     0.248 C 
ATOM     15  O   LIG d   1       6.438  -3.130  -4.443  0.00  0.00    -0.270 OA
ATOM     16  H   LIG d   1       3.575  -2.314  -5.262  0.00  0.00     0.155 HD
BRANCH  14  17
ATOM     17  C   LIG d   1       5.336  -1.216  -3.678  0.00  0.00     0.040 A 
ATOM     18  C   LIG d   1       4.494  -1.138  -2.568  0.00  0.00    -0.038 A 
ATOM     19  C   LIG d   1       4.423   0.034  -1.842  0.00  0.00    -0.058 A 
ATOM     20  C   LIG d   1       5.182   1.128  -2.213  0.00  0.00    -0.061 A 
ATOM     21  H   LIG d   1       3.772   0.096  -0.982  0.00  0.00     0.062 H 
ATOM     22  C   LIG d   1       6.019   1.057  -3.313  0.00  0.00    -0.061 A 
ATOM     23  H   LIG d   1       5.122   2.043  -1.642  0.00  0.00     0.062 H 
ATOM     24  C   LIG d   1       6.104  -0.110  -4.044  0.00  0.00    -0.049 A 
ATOM     25  H   LIG d   1       6.609   1.915  -3.597  0.00  0.00     0.062 H 
ATOM     26  H   LIG d   1       6.760  -0.166  -4.900  0.00  0.00     0.062 H 
BRANCH  18  27
ATOM     27  C   LIG d   1       3.667  -2.331  -2.161  0.00  0.00    -0.039 C 
ATOM     28  H   LIG d   1       2.766  -2.373  -2.773  0.00  0.00     0.028 H 
ATOM     29  H   LIG d   1       4.248  -3.242  -2.307  0.00  0.00     0.028 H 
ATOM     30  H   LIG d   1       3.390  -2.240  -1.112  0.00  0.00     0.028 H 
ENDBRANCH  18  27
ENDBRANCH  14  17
ENDBRANCH   6  13
BRANCH   2  31
ATOM     31  C   LIG d   1       4.471  -8.467  -8.931  0.00  0.00    -0.035 C 
ATOM     32  H   LIG d   1       3.458  -8.818  -9.126  0.00  0.00     0.028 H 
ATOM     33  H   LIG d   1       5.169  -9.298  -9.027  0.00  0.00     0.028 H 
ATOM     34  H   LIG d   1       4.731  -7.688  -9.648  0.00  0.00     0.028 H 
ENDBRANCH   2  31
BRANCH   1  35
ATOM     35  C   LIG d   1       4.807 -10.076  -6.299  0.00  0.00     0.375 C 
ATOM     36  O   LIG d   1       5.772 -10.640  -6.778  0.00  0.00    -0.241 OA
BRANCH  35  37
ATOM     37  O   LIG d   1       3.839 -10.793  -5.691  0.00  0.00    -0.459 OA
BRANCH  37  38
ATOM     38  C   LIG d   1       4.124 -11.286  -4.357  0.00  0.00     0.090 C 
ATOM     39  H   LIG d   1       3.920 -12.356  -4.314  0.00  0.00     0.070 H 
ATOM     40  H   LIG d   1       5.172 -11.107  -4.118  0.00  0.00     0.070 H 
BRANCH  38  41
ATOM     41  C   LIG d   1       3.240 -10.558  -3.343  0.00  0.00    -0.031 C 
ATOM     42  H   LIG d   1       2.634 -11.284  -2.801  0.00  0.00     0.026 H 
ATOM     43  H   LIG d   1       3.867 -10.011  -2.640  0.00  0.00     0.026 H 
ATOM     44  H   LIG d   1       2.586  -9.860  -3.866  0.00  0.00     0.026 H 
ENDBRANCH  38  41
ENDBRANCH  37  38
ENDBRANCH  35  37
ENDBRANCH   1  35
TORSDOF 8
ENDMDL
MODEL 2
REMARK VINA RESULT:      -6.4      1.766      2.220
REMARK  8 active torsions:
REMARK  status: ('A' for Active; 'I' for Inactive)
REMARK    1  A    between atoms: C_1  and  C_2 
REMARK    2  A    between atoms: C_2  and  O_3 
REMARK    3  A    between atoms: O_3  and  C_4 
REMARK    4  A    between atoms: C_4  and  C_6 
REMARK    5  A    between atoms: C_7  and  C_25 
REMARK    6  A    between atoms: C_11  and  N_15 
REMARK       I    between atoms: N_15  and  C_16 
REMARK    7  A    between atoms: C_16  and  C_18 
REMARK    8  A    between atoms: C_23  and  C_24 
ROOT
ATOM      1  C   LIG d   1       5.089  -8.009  -6.256  0.00  0.00     0.215 A 
ATOM      2  C   LIG d   1       6.404  -7.691  -6.143  0.00  0.00     0.010 A 
ATOM      3  C   LIG d   1       6.467  -6.345  -5.701  0.00  0.00     0.024 A 
ATOM      4  C   LIG d   1       7.521  -5.469  -5.413  0.00  0.00    -0.049 A 
ATOM      5  C   LIG d   1       7.254  -4.198  -4.998  0.00  0.00    -0.040 A 
ATOM      6  C   LIG d   1       5.936  -3.763  -4.858  0.00  0.00     0.037 A 
ATOM      7  C   LIG d   1       4.880  -4.616  -5.138  0.00  0.00     0.003 A 
ATOM      8  C   LIG d   1       5.135  -5.912  -5.562  0.00  0.00     0.138 A 
ATOM      9  O   LIG d   1       4.335  -6.944  -5.901  0.00  0.00    -0.448 OA
ATOM     10  H   LIG d   1       8.543  -5.801  -5.520  0.00  0.00     0.062 H 
ATOM     11  H   LIG d   1       8.068  -3.524  -4.776  0.00  0.00     0.064 H 
ATOM     12  H   LIG d   1       3.862  -4.271  -5.027  0.00  0.00     0.067 H 
ENDROOT
BRANCH   6  13
ATOM     13  N   LIG d   1       5.679  -2.459  -4.432  0.00  0.00    -0.281 N 
ATOM     14  C   LIG d   1       4.663  -2.215  -3.580  0.00  0.00     0.248 C 
ATOM     15  O   LIG d   1       4.027  -3.140  -3.113  0.00  0.00    -0.270 OA
ATOM     16  H   LIG d   1       6.232  -1.728  -4.749  0.00  0.00     0.155 HD
BRANCH  14  17
ATOM     17  C   LIG d   1       4.323  -0.824  -3.214  0.00  0.00     0.040 A 
ATOM     18  C   LIG d   1       3.584  -0.030  -4.092  0.00  0.00    -0.038 A 
ATOM     19  C   LIG d   1       3.270   1.268  -3.744  0.00  0.00    -0.058 A 
ATOM     20  C   LIG d   1       3.686   1.782  -2.530  0.00  0.00    -0.061 A 
ATOM     21  H   LIG d   1       2.698   1.884  -4.422  0.00  0.00     0.062 H 
ATOM     22  C   LIG d   1       4.419   1.000  -1.655  0.00  0.00    -0.061 A 
ATOM     23  H   LIG d   1       3.438   2.799  -2.263  0.00  0.00     0.062 H 
ATOM     24  C   LIG d   1       4.735  -0.301  -1.988  0.00  0.00    -0.049 A 
ATOM     25  H   LIG d   1       4.740   1.407  -0.708  0.00  0.00     0.062 H 
ATOM     26  H   LIG d   1       5.304  -0.912  -1.302  0.00  0.00     0.062 H 
BRANCH  18  27
ATOM     27  C   LIG d   1       3.129  -0.589  -5.416  0.00  0.00    -0.039 C 
ATOM     28  H   LIG d   1       2.065  -0.816  -5.368  0.00  0.00     0.028 H 
ATOM     29  H   LIG d   1       3.308   0.147  -6.201  0.00  0.00     0.028 H 
ATOM     30  H   LIG d   1       3.687  -1.498  -5.637  0.00  0.00     0.028 H 
ENDBRANCH  18  27
ENDBRANCH  14  17
ENDBRANCH   6  13
BRANCH   2  31
ATOM     31  C   LIG d   1       7.575  -8.594  -6.436  0.00  0.00    -0.035 C 
ATOM     32  H   LIG d   1       7.326  -9.251  -7.269  0.00  0.00     0.028 H 
ATOM     33  H   LIG d   1       7.800  -9.194  -5.555  0.00  0.00     0.028 H 
ATOM     34  H   LIG d   1       8.443  -7.989  -6.697  0.00  0.00     0.028 H 
ENDBRANCH   2  31
BRANCH   1  35
ATOM     35  C   LIG d   1       4.566  -9.309  -6.689  0.00  0.00     0.375 C 
ATOM     36  O   LIG d   1       4.520  -9.581  -7.873  0.00  0.00    -0.241 OA
BRANCH  35  37
ATOM     37  O   LIG d   1       4.134 -10.202  -5.774  0.00  0.00    -0.459 OA
BRANCH  37  38
ATOM     38  C   LIG d   1       4.343  -9.867  -4.378  0.00  0.00     0.090 C 
ATOM     39  H   LIG d   1       5.368 -10.110  -4.095  0.00  0.00     0.070 H 
ATOM     40  H   LIG d   1       4.170  -8.801  -4.228  0.00  0.00     0.070 H 
BRANCH  38  41
ATOM     41  C   LIG d   1       3.371 -10.668  -3.510  0.00  0.00    -0.031 C 
ATOM     42  H   LIG d   1       3.296 -10.205  -2.526  0.00  0.00     0.026 H 
ATOM     43  H   LIG d   1       2.389 -10.680  -3.980  0.00  0.00     0.026 H 
ATOM     44  H   LIG d   1       3.736 -11.689  -3.403  0.00  0.00     0.026 H 
ENDBRANCH  38  41
ENDBRANCH  37  38
ENDBRANCH  35  37
ENDBRANCH   1  35
TORSDOF 8
ENDMDL
MODEL 3
REMARK VINA RESULT:      -6.3      5.889      6.962
REMARK  8 active torsions:
REMARK  status: ('A' for Active; 'I' for Inactive)
REMARK    1  A    between atoms: C_1  and  C_2 
REMARK    2  A    between atoms: C_2  and  O_3 
REMARK    3  A    between atoms: O_3  and  C_4 
REMARK    4  A    between atoms: C_4  and  C_6 
REMARK    5  A    between atoms: C_7  and  C_25 
REMARK    6  A    between atoms: C_11  and  N_15 
REMARK       I    between atoms: N_15  and  C_16 
REMARK    7  A    between atoms: C_16  and  C_18 
REMARK    8  A    between atoms: C_23  and  C_24 
ROOT
ATOM      1  C   LIG d   1       1.313  -1.667 -11.697  0.00  0.00     0.215 A 
ATOM      2  C   LIG d   1       2.569  -1.238 -11.984  0.00  0.00     0.010 A 
ATOM      3  C   LIG d   1       3.122  -0.740 -10.777  0.00  0.00     0.024 A 
ATOM      4  C   LIG d   1       4.355  -0.169 -10.441  0.00  0.00    -0.049 A 
ATOM      5  C   LIG d   1       4.595   0.222  -9.157  0.00  0.00    -0.040 A 
ATOM      6  C   LIG d   1       3.618   0.058  -8.174  0.00  0.00     0.037 A 
ATOM      7  C   LIG d   1       2.392  -0.505  -8.488  0.00  0.00     0.003 A 
ATOM      8  C   LIG d   1       2.132  -0.909  -9.790  0.00  0.00     0.138 A 
ATOM      9  O   LIG d   1       1.060  -1.473 -10.383  0.00  0.00    -0.448 OA
ATOM     10  H   LIG d   1       5.115  -0.040 -11.197  0.00  0.00     0.062 H 
ATOM     11  H   LIG d   1       5.547   0.662  -8.899  0.00  0.00     0.064 H 
ATOM     12  H   LIG d   1       1.641  -0.628  -7.722  0.00  0.00     0.067 H 
ENDROOT
BRANCH   6  13
ATOM     13  N   LIG d   1       3.879   0.464  -6.864  0.00  0.00    -0.281 N 
ATOM     14  C   LIG d   1       4.211  -0.447  -5.929  0.00  0.00     0.248 C 
ATOM     15  O   LIG d   1       4.370  -1.611  -6.244  0.00  0.00    -0.270 OA
ATOM     16  H   LIG d   1       3.822   1.403  -6.628  0.00  0.00     0.155 HD
BRANCH  14  17
ATOM     17  C   LIG d   1       4.381  -0.033  -4.520  0.00  0.00     0.040 A 
ATOM     18  C   LIG d   1       3.269   0.086  -3.686  0.00  0.00    -0.038 A 
ATOM     19  C   LIG d   1       3.435   0.473  -2.372  0.00  0.00    -0.058 A 
ATOM     20  C   LIG d   1       4.699   0.744  -1.881  0.00  0.00    -0.061 A 
ATOM     21  H   LIG d   1       2.575   0.564  -1.725  0.00  0.00     0.062 H 
ATOM     22  C   LIG d   1       5.806   0.628  -2.704  0.00  0.00    -0.061 A 
ATOM     23  H   LIG d   1       4.823   1.047  -0.853  0.00  0.00     0.062 H 
ATOM     24  C   LIG d   1       5.655   0.237  -4.018  0.00  0.00    -0.049 A 
ATOM     25  H   LIG d   1       6.790   0.841  -2.315  0.00  0.00     0.062 H 
ATOM     26  H   LIG d   1       6.520   0.144  -4.658  0.00  0.00     0.062 H 
BRANCH  18  27
ATOM     27  C   LIG d   1       1.890  -0.211  -4.218  0.00  0.00    -0.039 C 
ATOM     28  H   LIG d   1       1.922  -1.112  -4.830  0.00  0.00     0.028 H 
ATOM     29  H   LIG d   1       1.204  -0.363  -3.384  0.00  0.00     0.028 H 
ATOM     30  H   LIG d   1       1.546   0.628  -4.823  0.00  0.00     0.028 H 
ENDBRANCH  18  27
ENDBRANCH  14  17
ENDBRANCH   6  13
BRANCH   2  31
ATOM     31  C   LIG d   1       3.245  -1.278 -13.331  0.00  0.00    -0.035 C 
ATOM     32  H   LIG d   1       3.479  -0.262 -13.650  0.00  0.00     0.028 H 
ATOM     33  H   LIG d   1       2.579  -1.742 -14.057  0.00  0.00     0.028 H 
ATOM     34  H   LIG d   1       4.166  -1.857 -13.257  0.00  0.00     0.028 H 
ENDBRANCH   2  31
BRANCH   1  35
ATOM     35  C   LIG d   1       0.377  -2.255 -12.661  0.00  0.00     0.375 C 
ATOM     36  O   LIG d   1      -0.524  -1.582 -13.121  0.00  0.00    -0.241 OA
BRANCH  35  37
ATOM     37  O   LIG d   1       0.517  -3.544 -13.036  0.00  0.00    -0.459 OA
BRANCH  37  38
ATOM     38  C   LIG d   1       0.616  -4.530 -11.976  0.00  0.00     0.090 C 
ATOM     39  H   LIG d   1       0.927  -5.486 -12.398  0.00  0.00     0.070 H 
ATOM     40  H   LIG d   1       1.351  -4.203 -11.241  0.00  0.00     0.070 H 
BRANCH  38  41
ATOM     41  C   LIG d   1      -0.746  -4.691 -11.299  0.00  0.00    -0.031 C 
ATOM     42  H   LIG d   1      -0.603  -4.869 -10.233  0.00  0.00     0.026 H 
ATOM     43  H   LIG d   1      -1.331  -3.782 -11.438  0.00  0.00     0.026 H 
ATOM     44  H   LIG d   1      -1.274  -5.535 -11.740  0.00  0.00     0.026 H 
ENDBRANCH  38  41
ENDBRANCH  37  38
ENDBRANCH  35  37
ENDBRANCH   1  35
TORSDOF 8
ENDMDL
MODEL 4
REMARK VINA RESULT:      -6.3     16.375     19.501
REMARK  8 active torsions:
REMARK  status: ('A' for Active; 'I' for Inactive)
REMARK    1  A    between atoms: C_1  and  C_2 
REMARK    2  A    between atoms: C_2  and  O_3 
REMARK    3  A    between atoms: O_3  and  C_4 
REMARK    4  A    between atoms: C_4  and  C_6 
REMARK    5  A    between atoms: C_7  and  C_25 
REMARK    6  A    between atoms: C_11  and  N_15 
REMARK       I    between atoms: N_15  and  C_16 
REMARK    7  A    between atoms: C_16  and  C_18 
REMARK    8  A    between atoms: C_23  and  C_24 
ROOT
ATOM      1  C   LIG d   1       0.870  10.369 -16.430  0.00  0.00     0.215 A 
ATOM      2  C   LIG d   1      -0.365  10.934 -16.477  0.00  0.00     0.010 A 
ATOM      3  C   LIG d   1      -1.257  10.028 -15.851  0.00  0.00     0.024 A 
ATOM      4  C   LIG d   1      -2.634  10.043 -15.601  0.00  0.00    -0.049 A 
ATOM      5  C   LIG d   1      -3.221   8.992 -14.961  0.00  0.00    -0.040 A 
ATOM      6  C   LIG d   1      -2.456   7.899 -14.551  0.00  0.00     0.037 A 
ATOM      7  C   LIG d   1      -1.092   7.866 -14.790  0.00  0.00     0.003 A 
ATOM      8  C   LIG d   1      -0.480   8.928 -15.441  0.00  0.00     0.138 A 
ATOM      9  O   LIG d   1       0.795   9.174 -15.804  0.00  0.00    -0.448 OA
ATOM     10  H   LIG d   1      -3.231  10.887 -15.915  0.00  0.00     0.062 H 
ATOM     11  H   LIG d   1      -4.283   9.006 -14.769  0.00  0.00     0.064 H 
ATOM     12  H   LIG d   1      -0.508   7.016 -14.470  0.00  0.00     0.067 H 
ENDROOT
BRANCH   6  13
ATOM     13  N   LIG d   1      -3.072   6.830 -13.897  0.00  0.00    -0.281 N 
ATOM     14  C   LIG d   1      -3.633   5.835 -14.612  0.00  0.00     0.248 C 
ATOM     15  O   LIG d   1      -3.527   5.822 -15.823  0.00  0.00    -0.270 OA
ATOM     16  H   LIG d   1      -3.094   6.804 -12.928  0.00  0.00     0.155 HD
BRANCH  14  17
ATOM     17  C   LIG d   1      -4.378   4.760 -13.923  0.00  0.00     0.040 A 
ATOM     18  C   LIG d   1      -5.739   4.913 -13.654  0.00  0.00    -0.038 A 
ATOM     19  C   LIG d   1      -6.429   3.905 -13.011  0.00  0.00    -0.058 A 
ATOM     20  C   LIG d   1      -5.775   2.747 -12.634  0.00  0.00    -0.061 A 
ATOM     21  H   LIG d   1      -7.482   4.022 -12.802  0.00  0.00     0.062 H 
ATOM     22  C   LIG d   1      -4.426   2.589 -12.898  0.00  0.00    -0.061 A 
ATOM     23  H   LIG d   1      -6.319   1.962 -12.130  0.00  0.00     0.062 H 
ATOM     24  C   LIG d   1      -3.725   3.586 -13.545  0.00  0.00    -0.049 A 
ATOM     25  H   LIG d   1      -3.921   1.681 -12.601  0.00  0.00     0.062 H 
ATOM     26  H   LIG d   1      -2.673   3.460 -13.754  0.00  0.00     0.062 H 
BRANCH  18  27
ATOM     27  C   LIG d   1      -6.454   6.175 -14.065  0.00  0.00    -0.039 C 
ATOM     28  H   LIG d   1      -6.707   6.755 -13.178  0.00  0.00     0.028 H 
ATOM     29  H   LIG d   1      -5.803   6.767 -14.711  0.00  0.00     0.028 H 
ATOM     30  H   LIG d   1      -7.364   5.917 -14.604  0.00  0.00     0.028 H 
ENDBRANCH  18  27
ENDBRANCH  14  17
ENDBRANCH   6  13
BRANCH   2  31
ATOM     31  C   LIG d   1      -0.719  12.267 -17.084  0.00  0.00    -0.035 C 
ATOM     32  H   LIG d   1       0.060  12.566 -17.784  0.00  0.00     0.028 H 
ATOM     33  H   LIG d   1      -0.804  13.014 -16.295  0.00  0.00     0.028 H 
ATOM     34  H   LIG d   1      -1.670  12.184 -17.611  0.00  0.00     0.028 H 
ENDBRANCH   2  31
BRANCH   1  35
ATOM     35  C   LIG d   1       2.096  10.967 -16.970  0.00  0.00     0.375 C 
ATOM     36  O   LIG d   1       2.354  10.861 -18.153  0.00  0.00    -0.241 OA
BRANCH  35  37
ATOM     37  O   LIG d   1       2.938  11.633 -16.153  0.00  0.00    -0.459 OA
BRANCH  37  38
ATOM     38  C   LIG d   1       3.961  12.447 -16.783  0.00  0.00     0.090 C 
ATOM     39  H   LIG d   1       4.424  11.884 -17.593  0.00  0.00     0.070 H 
ATOM     40  H   LIG d   1       3.510  13.354 -17.183  0.00  0.00     0.070 H 
BRANCH  38  41
ATOM     41  C   LIG d   1       5.025  12.820 -15.749  0.00  0.00    -0.031 C 
ATOM     42  H   LIG d   1       4.551  12.974 -14.779  0.00  0.00     0.026 H 
ATOM     43  H   LIG d   1       5.755  12.015 -15.672  0.00  0.00     0.026 H 
ATOM     44  H   LIG d   1       5.525  13.737 -16.056  0.00  0.00     0.026 H 
ENDBRANCH  38  41
ENDBRANCH  37  38
ENDBRANCH  35  37
ENDBRANCH   1  35
TORSDOF 8
ENDMDL
MODEL 5
REMARK VINA RESULT:      -6.3      6.109      8.229
REMARK  8 active torsions:
REMARK  status: ('A' for Active; 'I' for Inactive)
REMARK    1  A    between atoms: C_1  and  C_2 
REMARK    2  A    between atoms: C_2  and  O_3 
REMARK    3  A    between atoms: O_3  and  C_4 
REMARK    4  A    between atoms: C_4  and  C_6 
REMARK    5  A    between atoms: C_7  and  C_25 
REMARK    6  A    between atoms: C_11  and  N_15 
REMARK       I    between atoms: N_15  and  C_16 
REMARK    7  A    between atoms: C_16  and  C_18 
REMARK    8  A    between atoms: C_23  and  C_24 
ROOT
ATOM      1  C   LIG d   1       4.236  -0.716 -12.573  0.00  0.00     0.215 A 
ATOM      2  C   LIG d   1       2.994  -1.044 -12.130  0.00  0.00     0.010 A 
ATOM      3  C   LIG d   1       2.951  -0.727 -10.749  0.00  0.00     0.024 A 
ATOM      4  C   LIG d   1       1.965  -0.839  -9.761  0.00  0.00    -0.049 A 
ATOM      5  C   LIG d   1       2.233  -0.439  -8.486  0.00  0.00    -0.040 A 
ATOM      6  C   LIG d   1       3.485   0.084  -8.157  0.00  0.00     0.037 A 
ATOM      7  C   LIG d   1       4.472   0.203  -9.122  0.00  0.00     0.003 A 
ATOM      8  C   LIG d   1       4.216  -0.201 -10.425  0.00  0.00     0.138 A 
ATOM      9  O   LIG d   1       4.959  -0.208 -11.550  0.00  0.00    -0.448 OA
ATOM     10  H   LIG d   1       0.994  -1.242 -10.009  0.00  0.00     0.062 H 
ATOM     11  H   LIG d   1       1.472  -0.526  -7.725  0.00  0.00     0.064 H 
ATOM     12  H   LIG d   1       5.438   0.608  -8.860  0.00  0.00     0.067 H 
ENDROOT
BRANCH   6  13
ATOM     13  N   LIG d   1       3.744   0.489  -6.847  0.00  0.00    -0.281 N 
ATOM     14  C   LIG d   1       4.096  -0.421  -5.917  0.00  0.00     0.248 C 
ATOM     15  O   LIG d   1       4.276  -1.579  -6.238  0.00  0.00    -0.270 OA
ATOM     16  H   LIG d   1       3.670   1.426  -6.606  0.00  0.00     0.155 HD
BRANCH  14  17
ATOM     17  C   LIG d   1       4.265  -0.009  -4.507  0.00  0.00     0.040 A 
ATOM     18  C   LIG d   1       5.541   0.226  -3.995  0.00  0.00    -0.038 A 
ATOM     19  C   LIG d   1       5.692   0.611  -2.678  0.00  0.00    -0.058 A 
ATOM     20  C   LIG d   1       4.582   0.762  -1.867  0.00  0.00    -0.061 A 
ATOM     21  H   LIG d   1       6.679   0.794  -2.280  0.00  0.00     0.062 H 
ATOM     22  C   LIG d   1       3.313   0.529  -2.370  0.00  0.00    -0.061 A 
ATOM     23  H   LIG d   1       4.705   1.061  -0.837  0.00  0.00     0.062 H 
ATOM     24  C   LIG d   1       3.148   0.150  -3.686  0.00  0.00    -0.049 A 
ATOM     25  H   LIG d   1       2.451   0.649  -1.731  0.00  0.00     0.062 H 
ATOM     26  H   LIG d   1       2.158  -0.028  -4.077  0.00  0.00     0.062 H 
BRANCH  18  27
ATOM     27  C   LIG d   1       6.752   0.064  -4.878  0.00  0.00    -0.039 C 
ATOM     28  H   LIG d   1       6.948   0.999  -5.402  0.00  0.00     0.028 H 
ATOM     29  H   LIG d   1       7.616  -0.196  -4.264  0.00  0.00     0.028 H 
ATOM     30  H   LIG d   1       6.569  -0.729  -5.602  0.00  0.00     0.028 H 
ENDBRANCH  18  27
ENDBRANCH  14  17
ENDBRANCH   6  13
BRANCH   2  31
ATOM     31  C   LIG d   1       1.876  -1.636 -12.950  0.00  0.00    -0.035 C 
ATOM     32  H   LIG d   1       1.255  -0.835 -13.349  0.00  0.00     0.028 H 
ATOM     33  H   LIG d   1       1.270  -2.287 -12.321  0.00  0.00     0.028 H 
ATOM     34  H   LIG d   1       2.297  -2.214 -13.773  0.00  0.00     0.028 H 
ENDBRANCH   2  31
BRANCH   1  35
ATOM     35  C   LIG d   1       4.716  -0.884 -13.948  0.00  0.00     0.375 C 
ATOM     36  O   LIG d   1       5.469  -1.798 -14.222  0.00  0.00    -0.241 OA
BRANCH  35  37
ATOM     37  O   LIG d   1       4.325  -0.021 -14.909  0.00  0.00    -0.459 OA
BRANCH  37  38
ATOM     38  C   LIG d   1       3.678  -0.588 -16.078  0.00  0.00     0.090 C 
ATOM     39  H   LIG d   1       4.322  -1.351 -16.516  0.00  0.00     0.070 H 
ATOM     40  H   LIG d   1       2.729  -1.037 -15.788  0.00  0.00     0.070 H 
BRANCH  38  41
ATOM     41  C   LIG d   1       3.425   0.516 -17.107  0.00  0.00    -0.031 C 
ATOM     42  H   LIG d   1       2.828   1.307 -16.652  0.00  0.00     0.026 H 
ATOM     43  H   LIG d   1       4.378   0.928 -17.440  0.00  0.00     0.026 H 
ATOM     44  H   LIG d   1       2.889   0.103 -17.960  0.00  0.00     0.026 H 
ENDBRANCH  38  41
ENDBRANCH  37  38
ENDBRANCH  35  37
ENDBRANCH   1  35
TORSDOF 8
ENDMDL
MODEL 6
REMARK VINA RESULT:      -6.3      5.941     11.730
REMARK  8 active torsions:
REMARK  status: ('A' for Active; 'I' for Inactive)
REMARK    1  A    between atoms: C_1  and  C_2 
REMARK    2  A    between atoms: C_2  and  O_3 
REMARK    3  A    between atoms: O_3  and  C_4 
REMARK    4  A    between atoms: C_4  and  C_6 
REMARK    5  A    between atoms: C_7  and  C_25 
REMARK    6  A    between atoms: C_11  and  N_15 
REMARK       I    between atoms: N_15  and  C_16 
REMARK    7  A    between atoms: C_16  and  C_18 
REMARK    8  A    between atoms: C_23  and  C_24 
ROOT
ATOM      1  C   LIG d   1      10.470   5.530  -5.215  0.00  0.00     0.215 A 
ATOM      2  C   LIG d   1      11.157   4.469  -5.713  0.00  0.00     0.010 A 
ATOM      3  C   LIG d   1      10.463   3.301  -5.307  0.00  0.00     0.024 A 
ATOM      4  C   LIG d   1      10.678   1.931  -5.501  0.00  0.00    -0.049 A 
ATOM      5  C   LIG d   1       9.809   1.025  -4.969  0.00  0.00    -0.040 A 
ATOM      6  C   LIG d   1       8.705   1.453  -4.232  0.00  0.00     0.037 A 
ATOM      7  C   LIG d   1       8.476   2.805  -4.030  0.00  0.00     0.003 A 
ATOM      8  C   LIG d   1       9.351   3.740  -4.564  0.00  0.00     0.138 A 
ATOM      9  O   LIG d   1       9.389   5.088  -4.535  0.00  0.00    -0.448 OA
ATOM     10  H   LIG d   1      11.531   1.594  -6.071  0.00  0.00     0.062 H 
ATOM     11  H   LIG d   1       9.977  -0.031  -5.120  0.00  0.00     0.064 H 
ATOM     12  H   LIG d   1       7.619   3.128  -3.457  0.00  0.00     0.067 H 
ENDROOT
BRANCH   6  13
ATOM     13  N   LIG d   1       7.825   0.513  -3.694  0.00  0.00    -0.281 N 
ATOM     14  C   LIG d   1       6.671   0.228  -4.329  0.00  0.00     0.248 C 
ATOM     15  O   LIG d   1       6.438   0.723  -5.415  0.00  0.00    -0.270 OA
ATOM     16  H   LIG d   1       8.044   0.064  -2.863  0.00  0.00     0.155 HD
BRANCH  14  17
ATOM     17  C   LIG d   1       5.690  -0.686  -3.707  0.00  0.00     0.040 A 
ATOM     18  C   LIG d   1       4.875  -0.235  -2.668  0.00  0.00    -0.038 A 
ATOM     19  C   LIG d   1       3.961  -1.093  -2.091  0.00  0.00    -0.058 A 
ATOM     20  C   LIG d   1       3.852  -2.397  -2.540  0.00  0.00    -0.061 A 
ATOM     21  H   LIG d   1       3.329  -0.745  -1.287  0.00  0.00     0.062 H 
ATOM     22  C   LIG d   1       4.658  -2.850  -3.570  0.00  0.00    -0.061 A 
ATOM     23  H   LIG d   1       3.136  -3.064  -2.084  0.00  0.00     0.062 H 
ATOM     24  C   LIG d   1       5.572  -2.001  -4.159  0.00  0.00    -0.049 A 
ATOM     25  H   LIG d   1       4.568  -3.869  -3.915  0.00  0.00     0.062 H 
ATOM     26  H   LIG d   1       6.198  -2.355  -4.965  0.00  0.00     0.062 H 
BRANCH  18  27
ATOM     27  C   LIG d   1       4.991   1.186  -2.178  0.00  0.00    -0.039 C 
ATOM     28  H   LIG d   1       4.825   1.872  -3.009  0.00  0.00     0.028 H 
ATOM     29  H   LIG d   1       4.244   1.365  -1.404  0.00  0.00     0.028 H 
ATOM     30  H   LIG d   1       5.986   1.348  -1.766  0.00  0.00     0.028 H 
ENDBRANCH  18  27
ENDBRANCH  14  17
ENDBRANCH   6  13
BRANCH   2  31
ATOM     31  C   LIG d   1      12.419   4.522  -6.535  0.00  0.00    -0.035 C 
ATOM     32  H   LIG d   1      13.076   5.298  -6.142  0.00  0.00     0.028 H 
ATOM     33  H   LIG d   1      12.168   4.750  -7.570  0.00  0.00     0.028 H 
ATOM     34  H   LIG d   1      12.925   3.558  -6.486  0.00  0.00     0.028 H 
ENDBRANCH   2  31
BRANCH   1  35
ATOM     35  C   LIG d   1      10.841   6.938  -5.393  0.00  0.00     0.375 C 
ATOM     36  O   LIG d   1      11.335   7.558  -4.471  0.00  0.00    -0.241 OA
BRANCH  35  37
ATOM     37  O   LIG d   1      10.631   7.546  -6.579  0.00  0.00    -0.459 OA
BRANCH  37  38
ATOM     38  C   LIG d   1       9.496   8.445  -6.666  0.00  0.00     0.090 C 
ATOM     39  H   LIG d   1       8.724   8.125  -5.966  0.00  0.00     0.070 H 
ATOM     40  H   LIG d   1       9.813   9.458  -6.418  0.00  0.00     0.070 H 
BRANCH  38  41
ATOM     41  C   LIG d   1       8.934   8.422  -8.089  0.00  0.00    -0.031 C 
ATOM     42  H   LIG d   1       9.565   9.029  -8.739  0.00  0.00     0.026 H 
ATOM     43  H   LIG d   1       8.916   7.396  -8.456  0.00  0.00     0.026 H 
ATOM     44  H   LIG d   1       7.922   8.825  -8.088  0.00  0.00     0.026 H 
ENDBRANCH  38  41
ENDBRANCH  37  38
ENDBRANCH  35  37
ENDBRANCH   1  35
TORSDOF 8
ENDMDL
MODEL 7
REMARK VINA RESULT:      -6.1      6.122     11.958
REMARK  8 active torsions:
REMARK  status: ('A' for Active; 'I' for Inactive)
REMARK    1  A    between atoms: C_1  and  C_2 
REMARK    2  A    between atoms: C_2  and  O_3 
REMARK    3  A    between atoms: O_3  and  C_4 
REMARK    4  A    between atoms: C_4  and  C_6 
REMARK    5  A    between atoms: C_7  and  C_25 
REMARK    6  A    between atoms: C_11  and  N_15 
REMARK       I    between atoms: N_15  and  C_16 
REMARK    7  A    between atoms: C_16  and  C_18 
REMARK    8  A    between atoms: C_23  and  C_24 
ROOT
ATOM      1  C   LIG d   1      11.390   5.289  -2.886  0.00  0.00     0.215 A 
ATOM      2  C   LIG d   1      11.050   5.290  -4.201  0.00  0.00     0.010 A 
ATOM      3  C   LIG d   1      10.203   4.173  -4.410  0.00  0.00     0.024 A 
ATOM      4  C   LIG d   1       9.548   3.652  -5.532  0.00  0.00    -0.049 A 
ATOM      5  C   LIG d   1       8.782   2.530  -5.412  0.00  0.00    -0.040 A 
ATOM      6  C   LIG d   1       8.645   1.898  -4.175  0.00  0.00     0.037 A 
ATOM      7  C   LIG d   1       9.285   2.400  -3.054  0.00  0.00     0.003 A 
ATOM      8  C   LIG d   1      10.069   3.540  -3.160  0.00  0.00     0.138 A 
ATOM      9  O   LIG d   1      10.796   4.244  -2.268  0.00  0.00    -0.448 OA
ATOM     10  H   LIG d   1       9.650   4.137  -6.491  0.00  0.00     0.062 H 
ATOM     11  H   LIG d   1       8.277   2.129  -6.278  0.00  0.00     0.064 H 
ATOM     12  H   LIG d   1       9.174   1.904  -2.101  0.00  0.00     0.067 H 
ENDROOT
BRANCH   6  13
ATOM     13  N   LIG d   1       7.857   0.751  -4.068  0.00  0.00    -0.281 N 
ATOM     14  C   LIG d   1       6.585   0.844  -3.633  0.00  0.00     0.248 C 
ATOM     15  O   LIG d   1       6.095   1.936  -3.419  0.00  0.00    -0.270 OA
ATOM     16  H   LIG d   1       8.225  -0.114  -4.308  0.00  0.00     0.155 HD
BRANCH  14  17
ATOM     17  C   LIG d   1       5.786  -0.381  -3.417  0.00  0.00     0.040 A 
ATOM     18  C   LIG d   1       4.813  -0.414  -2.417  0.00  0.00    -0.038 A 
ATOM     19  C   LIG d   1       4.070  -1.561  -2.221  0.00  0.00    -0.058 A 
ATOM     20  C   LIG d   1       4.288  -2.674  -3.012  0.00  0.00    -0.061 A 
ATOM     21  H   LIG d   1       3.316  -1.588  -1.448  0.00  0.00     0.062 H 
ATOM     22  C   LIG d   1       5.251  -2.647  -4.005  0.00  0.00    -0.061 A 
ATOM     23  H   LIG d   1       3.704  -3.568  -2.853  0.00  0.00     0.062 H 
ATOM     24  C   LIG d   1       5.997  -1.505  -4.216  0.00  0.00    -0.049 A 
ATOM     25  H   LIG d   1       5.416  -3.520  -4.619  0.00  0.00     0.062 H 
ATOM     26  H   LIG d   1       6.746  -1.484  -4.993  0.00  0.00     0.062 H 
BRANCH  18  27
ATOM     27  C   LIG d   1       4.573   0.799  -1.555  0.00  0.00    -0.039 C 
ATOM     28  H   LIG d   1       4.355   0.483  -0.535  0.00  0.00     0.028 H 
ATOM     29  H   LIG d   1       5.464   1.428  -1.557  0.00  0.00     0.028 H 
ATOM     30  H   LIG d   1       3.729   1.363  -1.950  0.00  0.00     0.028 H 
ENDBRANCH  18  27
ENDBRANCH  14  17
ENDBRANCH   6  13
BRANCH   2  31
ATOM     31  C   LIG d   1      11.494   6.286  -5.242  0.00  0.00    -0.035 C 
ATOM     32  H   LIG d   1      12.574   6.418  -5.181  0.00  0.00     0.028 H 
ATOM     33  H   LIG d   1      11.001   7.241  -5.064  0.00  0.00     0.028 H 
ATOM     34  H   LIG d   1      11.228   5.918  -6.233  0.00  0.00     0.028 H 
ENDBRANCH   2  31
BRANCH   1  35
ATOM     35  C   LIG d   1      12.263   6.272  -2.236  0.00  0.00     0.375 C 
ATOM     36  O   LIG d   1      13.450   6.043  -2.111  0.00  0.00    -0.241 OA
BRANCH  35  37
ATOM     37  O   LIG d   1      11.747   7.430  -1.774  0.00  0.00    -0.459 OA
BRANCH  37  38
ATOM     38  C   LIG d   1      10.733   7.334  -0.741  0.00  0.00     0.090 C 
ATOM     39  H   LIG d   1      10.610   6.291  -0.448  0.00  0.00     0.070 H 
ATOM     40  H   LIG d   1      11.037   7.920   0.126  0.00  0.00     0.070 H 
BRANCH  38  41
ATOM     41  C   LIG d   1       9.405   7.871  -1.278  0.00  0.00    -0.031 C 
ATOM     42  H   LIG d   1       9.595   8.725  -1.928  0.00  0.00     0.026 H 
ATOM     43  H   LIG d   1       8.899   7.090  -1.845  0.00  0.00     0.026 H 
ATOM     44  H   LIG d   1       8.775   8.182  -0.446  0.00  0.00     0.026 H 
ENDBRANCH  38  41
ENDBRANCH  37  38
ENDBRANCH  35  37
ENDBRANCH   1  35
TORSDOF 8
ENDMDL
MODEL 8
REMARK VINA RESULT:      -6.1      6.604     12.183
REMARK  8 active torsions:
REMARK  status: ('A' for Active; 'I' for Inactive)
REMARK    1  A    between atoms: C_1  and  C_2 
REMARK    2  A    between atoms: C_2  and  O_3 
REMARK    3  A    between atoms: O_3  and  C_4 
REMARK    4  A    between atoms: C_4  and  C_6 
REMARK    5  A    between atoms: C_7  and  C_25 
REMARK    6  A    between atoms: C_11  and  N_15 
REMARK       I    between atoms: N_15  and  C_16 
REMARK    7  A    between atoms: C_16  and  C_18 
REMARK    8  A    between atoms: C_23  and  C_24 
ROOT
ATOM      1  C   LIG d   1      11.098   5.907  -6.359  0.00  0.00     0.215 A 
ATOM      2  C   LIG d   1      11.895   4.808  -6.315  0.00  0.00     0.010 A 
ATOM      3  C   LIG d   1      11.181   3.808  -5.608  0.00  0.00     0.024 A 
ATOM      4  C   LIG d   1      11.471   2.489  -5.241  0.00  0.00    -0.049 A 
ATOM      5  C   LIG d   1      10.553   1.760  -4.543  0.00  0.00    -0.040 A 
ATOM      6  C   LIG d   1       9.324   2.321  -4.193  0.00  0.00     0.037 A 
ATOM      7  C   LIG d   1       9.020   3.625  -4.548  0.00  0.00     0.003 A 
ATOM      8  C   LIG d   1       9.943   4.380  -5.258  0.00  0.00     0.138 A 
ATOM      9  O   LIG d   1       9.931   5.643  -5.732  0.00  0.00    -0.448 OA
ATOM     10  H   LIG d   1      12.420   2.049  -5.509  0.00  0.00     0.062 H 
ATOM     11  H   LIG d   1      10.779   0.743  -4.260  0.00  0.00     0.064 H 
ATOM     12  H   LIG d   1       8.066   4.052  -4.273  0.00  0.00     0.067 H 
ENDROOT
BRANCH   6  13
ATOM     13  N   LIG d   1       8.396   1.562  -3.478  0.00  0.00    -0.281 N 
ATOM     14  C   LIG d   1       7.292   1.093  -4.094  0.00  0.00     0.248 C 
ATOM     15  O   LIG d   1       7.149   1.254  -5.290  0.00  0.00    -0.270 OA
ATOM     16  H   LIG d   1       8.545   1.372  -2.539  0.00  0.00     0.155 HD
BRANCH  14  17
ATOM     17  C   LIG d   1       6.257   0.383  -3.314  0.00  0.00     0.040 A 
ATOM     18  C   LIG d   1       6.231  -1.012  -3.292  0.00  0.00    -0.038 A 
ATOM     19  C   LIG d   1       5.262  -1.670  -2.561  0.00  0.00    -0.058 A 
ATOM     20  C   LIG d   1       4.318  -0.949  -1.853  0.00  0.00    -0.061 A 
ATOM     21  H   LIG d   1       5.241  -2.749  -2.543  0.00  0.00     0.062 H 
ATOM     22  C   LIG d   1       4.338   0.435  -1.870  0.00  0.00    -0.061 A 
ATOM     23  H   LIG d   1       3.561  -1.468  -1.283  0.00  0.00     0.062 H 
ATOM     24  C   LIG d   1       5.305   1.104  -2.592  0.00  0.00    -0.049 A 
ATOM     25  H   LIG d   1       3.598   0.991  -1.315  0.00  0.00     0.062 H 
ATOM     26  H   LIG d   1       5.322   2.184  -2.602  0.00  0.00     0.062 H 
BRANCH  18  27
ATOM     27  C   LIG d   1       7.260  -1.800  -4.063  0.00  0.00    -0.039 C 
ATOM     28  H   LIG d   1       8.255  -1.563  -3.687  0.00  0.00     0.028 H 
ATOM     29  H   LIG d   1       7.069  -2.866  -3.938  0.00  0.00     0.028 H 
ATOM     30  H   LIG d   1       7.199  -1.541  -5.119  0.00  0.00     0.028 H 
ENDBRANCH  18  27
ENDBRANCH  14  17
ENDBRANCH   6  13
BRANCH   2  31
ATOM     31  C   LIG d   1      13.278   4.678  -6.900  0.00  0.00    -0.035 C 
ATOM     32  H   LIG d   1      13.875   4.012  -6.277  0.00  0.00     0.028 H 
ATOM     33  H   LIG d   1      13.750   5.659  -6.937  0.00  0.00     0.028 H 
ATOM     34  H   LIG d   1      13.209   4.268  -7.908  0.00  0.00     0.028 H 
ENDBRANCH   2  31
BRANCH   1  35
ATOM     35  C   LIG d   1      11.448   7.182  -6.995  0.00  0.00     0.375 C 
ATOM     36  O   LIG d   1      12.044   8.033  -6.364  0.00  0.00    -0.241 OA
BRANCH  35  37
ATOM     37  O   LIG d   1      11.106   7.410  -8.280  0.00  0.00    -0.459 OA
BRANCH  37  38
ATOM     38  C   LIG d   1      10.363   8.625  -8.558  0.00  0.00     0.090 C 
ATOM     39  H   LIG d   1      10.833   9.464  -8.044  0.00  0.00     0.070 H 
ATOM     40  H   LIG d   1      10.359   8.813  -9.631  0.00  0.00     0.070 H 
BRANCH  38  41
ATOM     41  C   LIG d   1       8.924   8.467  -8.063  0.00  0.00    -0.031 C 
ATOM     42  H   LIG d   1       8.562   7.469  -8.311  0.00  0.00     0.026 H 
ATOM     43  H   LIG d   1       8.894   8.605  -6.982  0.00  0.00     0.026 H 
ATOM     44  H   LIG d   1       8.290   9.212  -8.542  0.00  0.00     0.026 H 
ENDBRANCH  38  41
ENDBRANCH  37  38
ENDBRANCH  35  37
ENDBRANCH   1  35
TORSDOF 8
ENDMDL
MODEL 9
REMARK VINA RESULT:      -5.8      7.736     12.045
REMARK  8 active torsions:
REMARK  status: ('A' for Active; 'I' for Inactive)
REMARK    1  A    between atoms: C_1  and  C_2 
REMARK    2  A    between atoms: C_2  and  O_3 
REMARK    3  A    between atoms: O_3  and  C_4 
REMARK    4  A    between atoms: C_4  and  C_6 
REMARK    5  A    between atoms: C_7  and  C_25 
REMARK    6  A    between atoms: C_11  and  N_15 
REMARK       I    between atoms: N_15  and  C_16 
REMARK    7  A    between atoms: C_16  and  C_18 
REMARK    8  A    between atoms: C_23  and  C_24 
ROOT
ATOM      1  C   LIG d   1       8.731   2.175  -4.400  0.00  0.00     0.215 A 
ATOM      2  C   LIG d   1       9.092   3.093  -5.334  0.00  0.00     0.010 A 
ATOM      3  C   LIG d   1       9.648   4.195  -4.637  0.00  0.00     0.024 A 
ATOM      4  C   LIG d   1      10.183   5.425  -5.039  0.00  0.00    -0.049 A 
ATOM      5  C   LIG d   1      10.651   6.301  -4.104  0.00  0.00    -0.040 A 
ATOM      6  C   LIG d   1      10.601   5.979  -2.747  0.00  0.00     0.037 A 
ATOM      7  C   LIG d   1      10.076   4.767  -2.331  0.00  0.00     0.003 A 
ATOM      8  C   LIG d   1       9.595   3.865  -3.269  0.00  0.00     0.138 A 
ATOM      9  O   LIG d   1       9.040   2.639  -3.169  0.00  0.00    -0.448 OA
ATOM     10  H   LIG d   1      10.224   5.679  -6.088  0.00  0.00     0.062 H 
ATOM     11  H   LIG d   1      11.063   7.249  -4.416  0.00  0.00     0.064 H 
ATOM     12  H   LIG d   1      10.041   4.526  -1.278  0.00  0.00     0.067 H 
ENDROOT
BRANCH   6  13
ATOM     13  N   LIG d   1      11.084   6.886  -1.803  0.00  0.00    -0.281 N 
ATOM     14  C   LIG d   1      10.224   7.563  -1.016  0.00  0.00     0.248 C 
ATOM     15  O   LIG d   1       9.034   7.319  -1.067  0.00  0.00    -0.270 OA
ATOM     16  H   LIG d   1      12.039   7.029  -1.712  0.00  0.00     0.155 HD
BRANCH  14  17
ATOM     17  C   LIG d   1      10.727   8.602  -0.093  0.00  0.00     0.040 A 
ATOM     18  C   LIG d   1      10.523   9.952  -0.380  0.00  0.00    -0.038 A 
ATOM     19  C   LIG d   1      10.995  10.917   0.487  0.00  0.00    -0.058 A 
ATOM     20  C   LIG d   1      11.669  10.548   1.637  0.00  0.00    -0.061 A 
ATOM     21  H   LIG d   1      10.838  11.962   0.266  0.00  0.00     0.062 H 
ATOM     22  C   LIG d   1      11.875   9.210   1.927  0.00  0.00    -0.061 A 
ATOM     23  H   LIG d   1      12.038  11.307   2.311  0.00  0.00     0.062 H 
ATOM     24  C   LIG d   1      11.403   8.236   1.072  0.00  0.00    -0.049 A 
ATOM     25  H   LIG d   1      12.402   8.929   2.826  0.00  0.00     0.062 H 
ATOM     26  H   LIG d   1      11.561   7.192   1.301  0.00  0.00     0.062 H 
BRANCH  18  27
ATOM     27  C   LIG d   1       9.788  10.356  -1.632  0.00  0.00    -0.039 C 
ATOM     28  H   LIG d   1       9.755   9.513  -2.323  0.00  0.00     0.028 H 
ATOM     29  H   LIG d   1       8.771  10.654  -1.376  0.00  0.00     0.028 H 
ATOM     30  H   LIG d   1      10.304  11.192  -2.103  0.00  0.00     0.028 H 
ENDBRANCH  18  27
ENDBRANCH  14  17
ENDBRANCH   6  13
BRANCH   2  31
ATOM     31  C   LIG d   1       8.927   2.967  -6.827  0.00  0.00    -0.035 C 
ATOM     32  H   LIG d   1       9.488   2.104  -7.182  0.00  0.00     0.028 H 
ATOM     33  H   LIG d   1       9.303   3.868  -7.310  0.00  0.00     0.028 H 
ATOM     34  H   LIG d   1       7.872   2.839  -7.066  0.00  0.00     0.028 H 
ENDBRANCH   2  31
BRANCH   1  35
ATOM     35  C   LIG d   1       8.108   0.878  -4.684  0.00  0.00     0.375 C 
ATOM     36  O   LIG d   1       8.797  -0.068  -5.015  0.00  0.00    -0.241 OA
BRANCH  35  37
ATOM     37  O   LIG d   1       6.771   0.735  -4.581  0.00  0.00    -0.459 OA
BRANCH  37  38
ATOM     38  C   LIG d   1       6.258   0.230  -3.320  0.00  0.00     0.090 C 
ATOM     39  H   LIG d   1       5.752  -0.720  -3.489  0.00  0.00     0.070 H 
ATOM     40  H   LIG d   1       7.083   0.084  -2.624  0.00  0.00     0.070 H 
BRANCH  38  41
ATOM     41  C   LIG d   1       5.268   1.238  -2.732  0.00  0.00    -0.031 C 
ATOM     42  H   LIG d   1       4.250   0.881  -2.890  0.00  0.00     0.026 H 
ATOM     43  H   LIG d   1       5.453   1.348  -1.664  0.00  0.00     0.026 H 
ATOM     44  H   LIG d   1       5.394   2.202  -3.225  0.00  0.00     0.026 H 
ENDBRANCH  38  41
ENDBRANCH  37  38
ENDBRANCH  35  37
ENDBRANCH   1  35
TORSDOF 8
ENDMDL
