MODEL 1
REMARK VINA RESULT:      -6.2      0.000      0.000
REMARK  8 active torsions:
REMARK  status: ('A' for Active; 'I' for Inactive)
REMARK    1  A    between atoms: C_1  and  N_2 
REMARK       I    between atoms: N_2  and  C_3 
REMARK    2  A    between atoms: N_2  and  O_18 
REMARK    3  A    between atoms: C_3  and  O_5 
REMARK    4  A    between atoms: O_5  and  C_6 
REMARK    5  A    between atoms: C_6  and  C_7 
REMARK    6  A    between atoms: C_7  and  N_8 
REMARK       I    between atoms: N_8  and  C_9 
REMARK    7  A    between atoms: C_9  and  O_11 
REMARK    8  A    between atoms: O_11  and  C_12 
ROOT
ATOM      1  C   LIG d   1       3.225  -0.736  -8.564  0.00  0.00     0.049 C 
ATOM      2  H   LIG d   1       2.804  -0.158  -9.387  0.00  0.00     0.050 H 
ATOM      3  H   LIG d   1       4.281  -0.490  -8.450  0.00  0.00     0.050 H 
ENDROOT
BRANCH   1   4
ATOM      4  C   LIG d   1       3.079  -2.229  -8.864  0.00  0.00     0.110 C 
ATOM      5  H   LIG d   1       2.027  -2.509  -8.810  0.00  0.00     0.071 H 
ATOM      6  H   LIG d   1       3.460  -2.438  -9.864  0.00  0.00     0.071 H 
BRANCH   4   7
ATOM      7  O   LIG d   1       3.835  -2.995  -7.888  0.00  0.00    -0.447 OA
BRANCH   7   8
ATOM      8  C   LIG d   1       4.199  -4.242  -8.240  0.00  0.00     0.426 C 
ATOM      9  N   LIG d   1       3.861  -5.288  -7.461  0.00  0.00    -0.152 N 
ATOM     10  O   LIG d   1       4.833  -4.425  -9.261  0.00  0.00    -0.224 OA
BRANCH   9  11
ATOM     11  C   LIG d   1       4.257  -6.646  -7.844  0.00  0.00     0.034 C 
ATOM     12  H   LIG d   1       3.494  -7.079  -8.489  0.00  0.00     0.045 H 
ATOM     13  H   LIG d   1       5.207  -6.610  -8.377  0.00  0.00     0.045 H 
ATOM     14  H   LIG d   1       4.366  -7.258  -6.948  0.00  0.00     0.045 H 
ENDBRANCH   9  11
BRANCH   9  15
ATOM     15  O   LIG d   1       3.122  -5.075  -6.272  0.00  0.00    -0.290 OA
ATOM     16  H   LIG d   1       3.401  -5.631  -5.531  0.00  0.00     0.242 HD
ENDBRANCH   9  15
ENDBRANCH   7   8
ENDBRANCH   4   7
ENDBRANCH   1   4
BRANCH   1  17
ATOM     17  N   LIG d   1       2.510  -0.415  -7.326  0.00  0.00    -0.278 N 
ATOM     18  C   LIG d   1       3.173   0.133  -6.288  0.00  0.00     0.406 C 
ATOM     19  O   LIG d   1       4.363   0.360  -6.379  0.00  0.00    -0.226 OA
ATOM     20  H   LIG d   1       1.560  -0.597  -7.254  0.00  0.00     0.152 HD
BRANCH  18  21
ATOM     21  O   LIG d   1       2.516   0.428  -5.151  0.00  0.00    -0.411 OA
BRANCH  21  22
ATOM     22  C   LIG d   1       3.141   0.127  -3.981  0.00  0.00     0.133 A 
ATOM     23  C   LIG d   1       3.288  -1.196  -3.593  0.00  0.00    -0.019 A 
ATOM     24  C   LIG d   1       3.928  -1.498  -2.406  0.00  0.00    -0.058 A 
ATOM     25  H   LIG d   1       2.907  -1.988  -4.218  0.00  0.00     0.065 H 
ATOM     26  C   LIG d   1       4.413  -0.484  -1.602  0.00  0.00    -0.061 A 
ATOM     27  H   LIG d   1       4.047  -2.529  -2.105  0.00  0.00     0.062 H 
ATOM     28  C   LIG d   1       4.268   0.836  -1.988  0.00  0.00    -0.058 A 
ATOM     29  H   LIG d   1       4.910  -0.723  -0.674  0.00  0.00     0.062 H 
ATOM     30  C   LIG d   1       3.633   1.143  -3.176  0.00  0.00    -0.019 A 
ATOM     31  H   LIG d   1       4.652   1.627  -1.360  0.00  0.00     0.062 H 
ATOM     32  H   LIG d   1       3.520   2.175  -3.476  0.00  0.00     0.065 H 
ENDBRANCH  21  22
ENDBRANCH  18  21
ENDBRANCH   1  17
TORSDOF 8
ENDMDL
MODEL 2
REMARK VINA RESULT:      -5.9      1.860      3.612
REMARK  8 active torsions:
REMARK  status: ('A' for Active; 'I' for Inactive)
REMARK    1  A    between atoms: C_1  and  N_2 
REMARK       I    between atoms: N_2  and  C_3 
REMARK    2  A    between atoms: N_2  and  O_18 
REMARK    3  A    between atoms: C_3  and  O_5 
REMARK    4  A    between atoms: O_5  and  C_6 
REMARK    5  A    between atoms: C_6  and  C_7 
REMARK    6  A    between atoms: C_7  and  N_8 
REMARK       I    between atoms: N_8  and  C_9 
REMARK    7  A    between atoms: C_9  and  O_11 
REMARK    8  A    between atoms: O_11  and  C_12 
ROOT
ATOM      1  C   LIG d   1       4.897  -4.045  -6.545  0.00  0.00     0.049 C 
ATOM      2  H   LIG d   1       5.773  -3.403  -6.637  0.00  0.00     0.050 H 
ATOM      3  H   LIG d   1       5.216  -5.079  -6.412  0.00  0.00     0.050 H 
ENDROOT
BRANCH   1   4
ATOM      4  C   LIG d   1       4.047  -3.933  -7.812  0.00  0.00     0.110 C 
ATOM      5  H   LIG d   1       4.238  -4.793  -8.455  0.00  0.00     0.071 H 
ATOM      6  H   LIG d   1       2.991  -3.911  -7.541  0.00  0.00     0.071 H 
BRANCH   4   7
ATOM      7  O   LIG d   1       4.392  -2.712  -8.520  0.00  0.00    -0.447 OA
BRANCH   7   8
ATOM      8  C   LIG d   1       3.538  -1.678  -8.405  0.00  0.00     0.426 C 
ATOM      9  N   LIG d   1       3.813  -0.668  -7.556  0.00  0.00    -0.152 N 
ATOM     10  O   LIG d   1       2.519  -1.654  -9.068  0.00  0.00    -0.224 OA
BRANCH   9  11
ATOM     11  C   LIG d   1       2.885   0.458  -7.432  0.00  0.00     0.034 C 
ATOM     12  H   LIG d   1       1.924   0.099  -7.062  0.00  0.00     0.045 H 
ATOM     13  H   LIG d   1       3.292   1.189  -6.734  0.00  0.00     0.045 H 
ATOM     14  H   LIG d   1       2.746   0.924  -8.408  0.00  0.00     0.045 H 
ENDBRANCH   9  11
BRANCH   9  15
ATOM     15  O   LIG d   1       5.000  -0.696  -6.785  0.00  0.00    -0.290 OA
ATOM     16  H   LIG d   1       5.785  -0.391  -7.260  0.00  0.00     0.242 HD
ENDBRANCH   9  15
ENDBRANCH   7   8
ENDBRANCH   4   7
ENDBRANCH   1   4
BRANCH   1  17
ATOM     17  N   LIG d   1       4.104  -3.626  -5.387  0.00  0.00    -0.278 N 
ATOM     18  C   LIG d   1       4.718  -3.160  -4.282  0.00  0.00     0.406 C 
ATOM     19  O   LIG d   1       5.931  -3.087  -4.246  0.00  0.00    -0.226 OA
ATOM     20  H   LIG d   1       3.136  -3.685  -5.415  0.00  0.00     0.152 HD
BRANCH  18  21
ATOM     21  O   LIG d   1       3.990  -2.775  -3.217  0.00  0.00    -0.411 OA
BRANCH  21  22
ATOM     22  C   LIG d   1       3.910  -1.440  -2.974  0.00  0.00     0.133 A 
ATOM     23  C   LIG d   1       4.564  -0.892  -1.881  0.00  0.00    -0.019 A 
ATOM     24  C   LIG d   1       4.484   0.466  -1.640  0.00  0.00    -0.058 A 
ATOM     25  H   LIG d   1       5.137  -1.525  -1.222  0.00  0.00     0.065 H 
ATOM     26  C   LIG d   1       3.746   1.277  -2.482  0.00  0.00    -0.061 A 
ATOM     27  H   LIG d   1       4.997   0.894  -0.792  0.00  0.00     0.062 H 
ATOM     28  C   LIG d   1       3.093   0.733  -3.573  0.00  0.00    -0.058 A 
ATOM     29  H   LIG d   1       3.683   2.338  -2.290  0.00  0.00     0.062 H 
ATOM     30  C   LIG d   1       3.174  -0.624  -3.821  0.00  0.00    -0.019 A 
ATOM     31  H   LIG d   1       2.522   1.370  -4.232  0.00  0.00     0.062 H 
ATOM     32  H   LIG d   1       2.664  -1.048  -4.674  0.00  0.00     0.065 H 
ENDBRANCH  21  22
ENDBRANCH  18  21
ENDBRANCH   1  17
TORSDOF 8
ENDMDL
MODEL 3
REMARK VINA RESULT:      -5.9      2.826      3.045
REMARK  8 active torsions:
REMARK  status: ('A' for Active; 'I' for Inactive)
REMARK    1  A    between atoms: C_1  and  N_2 
REMARK       I    between atoms: N_2  and  C_3 
REMARK    2  A    between atoms: N_2  and  O_18 
REMARK    3  A    between atoms: C_3  and  O_5 
REMARK    4  A    between atoms: O_5  and  C_6 
REMARK    5  A    between atoms: C_6  and  C_7 
REMARK    6  A    between atoms: C_7  and  N_8 
REMARK       I    between atoms: N_8  and  C_9 
REMARK    7  A    between atoms: C_9  and  O_11 
REMARK    8  A    between atoms: O_11  and  C_12 
ROOT
ATOM      1  C   LIG d   1       2.869  -0.687  -8.402  0.00  0.00     0.049 C 
ATOM      2  H   LIG d   1       3.955  -0.592  -8.405  0.00  0.00     0.050 H 
ATOM      3  H   LIG d   1       2.595  -1.734  -8.537  0.00  0.00     0.050 H 
ENDROOT
BRANCH   1   4
ATOM      4  C   LIG d   1       2.281   0.145  -9.543  0.00  0.00     0.110 C 
ATOM      5  H   LIG d   1       1.890   1.082  -9.145  0.00  0.00     0.071 H 
ATOM      6  H   LIG d   1       3.060   0.360 -10.276  0.00  0.00     0.071 H 
BRANCH   4   7
ATOM      7  O   LIG d   1       1.208  -0.597 -10.181  0.00  0.00    -0.447 OA
BRANCH   7   8
ATOM      8  C   LIG d   1       1.546  -1.402 -11.205  0.00  0.00     0.426 C 
ATOM      9  N   LIG d   1       1.170  -2.695 -11.198  0.00  0.00    -0.152 N 
ATOM     10  O   LIG d   1       2.191  -0.961 -12.137  0.00  0.00    -0.224 OA
BRANCH   9  11
ATOM     11  C   LIG d   1       1.537  -3.572 -12.313  0.00  0.00     0.034 C 
ATOM     12  H   LIG d   1       0.660  -3.762 -12.931  0.00  0.00     0.045 H 
ATOM     13  H   LIG d   1       2.308  -3.090 -12.915  0.00  0.00     0.045 H 
ATOM     14  H   LIG d   1       1.918  -4.516 -11.923  0.00  0.00     0.045 H 
ENDBRANCH   9  11
BRANCH   9  15
ATOM     15  O   LIG d   1       0.418  -3.208 -10.113  0.00  0.00    -0.290 OA
ATOM     16  H   LIG d   1       0.911  -3.260  -9.283  0.00  0.00     0.242 HD
ENDBRANCH   9  15
ENDBRANCH   7   8
ENDBRANCH   4   7
ENDBRANCH   1   4
BRANCH   1  17
ATOM     17  N   LIG d   1       2.341  -0.204  -7.124  0.00  0.00    -0.278 N 
ATOM     18  C   LIG d   1       3.176   0.316  -6.203  0.00  0.00     0.406 C 
ATOM     19  O   LIG d   1       4.367   0.385  -6.433  0.00  0.00    -0.226 OA
ATOM     20  H   LIG d   1       1.390  -0.260  -6.940  0.00  0.00     0.152 HD
BRANCH  18  21
ATOM     21  O   LIG d   1       2.692   0.760  -5.028  0.00  0.00    -0.411 OA
BRANCH  21  22
ATOM     22  C   LIG d   1       3.263   0.266  -3.898  0.00  0.00     0.133 A 
ATOM     23  C   LIG d   1       3.212  -1.094  -3.631  0.00  0.00    -0.019 A 
ATOM     24  C   LIG d   1       3.798  -1.594  -2.484  0.00  0.00    -0.058 A 
ATOM     25  H   LIG d   1       2.718  -1.762  -4.320  0.00  0.00     0.065 H 
ATOM     26  C   LIG d   1       4.427  -0.738  -1.599  0.00  0.00    -0.061 A 
ATOM     27  H   LIG d   1       3.762  -2.653  -2.278  0.00  0.00     0.062 H 
ATOM     28  C   LIG d   1       4.480   0.618  -1.863  0.00  0.00    -0.058 A 
ATOM     29  H   LIG d   1       4.882  -1.131  -0.701  0.00  0.00     0.062 H 
ATOM     30  C   LIG d   1       3.899   1.121  -3.011  0.00  0.00    -0.019 A 
ATOM     31  H   LIG d   1       4.976   1.283  -1.172  0.00  0.00     0.062 H 
ATOM     32  H   LIG d   1       3.941   2.181  -3.216  0.00  0.00     0.065 H 
ENDBRANCH  21  22
ENDBRANCH  18  21
ENDBRANCH   1  17
TORSDOF 8
ENDMDL
MODEL 4
REMARK VINA RESULT:      -5.8      2.868      4.012
REMARK  8 active torsions:
REMARK  status: ('A' for Active; 'I' for Inactive)
REMARK    1  A    between atoms: C_1  and  N_2 
REMARK       I    between atoms: N_2  and  C_3 
REMARK    2  A    between atoms: N_2  and  O_18 
REMARK    3  A    between atoms: C_3  and  O_5 
REMARK    4  A    between atoms: O_5  and  C_6 
REMARK    5  A    between atoms: C_6  and  C_7 
REMARK    6  A    between atoms: C_7  and  N_8 
REMARK       I    between atoms: N_8  and  C_9 
REMARK    7  A    between atoms: C_9  and  O_11 
REMARK    8  A    between atoms: O_11  and  C_12 
ROOT
ATOM      1  C   LIG d   1       2.998  -0.524  -8.472  0.00  0.00     0.049 C 
ATOM      2  H   LIG d   1       4.083  -0.516  -8.371  0.00  0.00     0.050 H 
ATOM      3  H   LIG d   1       2.668  -1.520  -8.766  0.00  0.00     0.050 H 
ENDROOT
BRANCH   1   4
ATOM      4  C   LIG d   1       2.577   0.489  -9.539  0.00  0.00     0.110 C 
ATOM      5  H   LIG d   1       1.695   0.119 -10.062  0.00  0.00     0.071 H 
ATOM      6  H   LIG d   1       2.345   1.442  -9.064  0.00  0.00     0.071 H 
BRANCH   4   7
ATOM      7  O   LIG d   1       3.662   0.671 -10.488  0.00  0.00    -0.447 OA
BRANCH   7   8
ATOM      8  C   LIG d   1       4.806   1.200 -10.014  0.00  0.00     0.426 C 
ATOM      9  N   LIG d   1       5.942   0.477 -10.039  0.00  0.00    -0.152 N 
ATOM     10  O   LIG d   1       4.813   2.329  -9.564  0.00  0.00    -0.224 OA
BRANCH   9  11
ATOM     11  C   LIG d   1       7.187   1.051  -9.524  0.00  0.00     0.034 C 
ATOM     12  H   LIG d   1       7.881   1.214 -10.348  0.00  0.00     0.045 H 
ATOM     13  H   LIG d   1       6.974   2.002  -9.035  0.00  0.00     0.045 H 
ATOM     14  H   LIG d   1       7.634   0.365  -8.804  0.00  0.00     0.045 H 
ENDBRANCH   9  11
BRANCH   9  15
ATOM     15  O   LIG d   1       5.933  -0.839 -10.563  0.00  0.00    -0.290 OA
ATOM     16  H   LIG d   1       5.842  -1.529  -9.892  0.00  0.00     0.242 HD
ENDBRANCH   9  15
ENDBRANCH   7   8
ENDBRANCH   4   7
ENDBRANCH   1   4
BRANCH   1  17
ATOM     17  N   LIG d   1       2.386  -0.165  -7.190  0.00  0.00    -0.278 N 
ATOM     18  C   LIG d   1       3.156   0.277  -6.177  0.00  0.00     0.406 C 
ATOM     19  O   LIG d   1       4.357   0.379  -6.326  0.00  0.00    -0.226 OA
ATOM     20  H   LIG d   1       1.427  -0.247  -7.072  0.00  0.00     0.152 HD
BRANCH  18  21
ATOM     21  O   LIG d   1       2.594   0.607  -4.998  0.00  0.00    -0.411 OA
BRANCH  21  22
ATOM     22  C   LIG d   1       3.219   0.171  -3.872  0.00  0.00     0.133 A 
ATOM     23  C   LIG d   1       3.782   1.084  -2.993  0.00  0.00    -0.019 A 
ATOM     24  C   LIG d   1       4.411   0.637  -1.847  0.00  0.00    -0.058 A 
ATOM     25  H   LIG d   1       3.725   2.141  -3.201  0.00  0.00     0.065 H 
ATOM     26  C   LIG d   1       4.488  -0.717  -1.582  0.00  0.00    -0.061 A 
ATOM     27  H   LIG d   1       4.847   1.347  -1.159  0.00  0.00     0.062 H 
ATOM     28  C   LIG d   1       3.927  -1.628  -2.457  0.00  0.00    -0.058 A 
ATOM     29  H   LIG d   1       4.984  -1.064  -0.686  0.00  0.00     0.062 H 
ATOM     30  C   LIG d   1       3.292  -1.187  -3.602  0.00  0.00    -0.019 A 
ATOM     31  H   LIG d   1       3.984  -2.686  -2.244  0.00  0.00     0.062 H 
ATOM     32  H   LIG d   1       2.854  -1.900  -4.285  0.00  0.00     0.065 H 
ENDBRANCH  21  22
ENDBRANCH  18  21
ENDBRANCH   1  17
TORSDOF 8
ENDMDL
MODEL 5
REMARK VINA RESULT:      -5.8      5.812      8.322
REMARK  8 active torsions:
REMARK  status: ('A' for Active; 'I' for Inactive)
REMARK    1  A    between atoms: C_1  and  N_2 
REMARK       I    between atoms: N_2  and  C_3 
REMARK    2  A    between atoms: N_2  and  O_18 
REMARK    3  A    between atoms: C_3  and  O_5 
REMARK    4  A    between atoms: O_5  and  C_6 
REMARK    5  A    between atoms: C_6  and  C_7 
REMARK    6  A    between atoms: C_7  and  N_8 
REMARK       I    between atoms: N_8  and  C_9 
REMARK    7  A    between atoms: C_9  and  O_11 
REMARK    8  A    between atoms: O_11  and  C_12 
ROOT
ATOM      1  C   LIG d   1       9.481   1.204  -4.524  0.00  0.00     0.049 C 
ATOM      2  H   LIG d   1       9.850   0.178  -4.541  0.00  0.00     0.050 H 
ATOM      3  H   LIG d   1       9.045   1.449  -5.493  0.00  0.00     0.050 H 
ENDROOT
BRANCH   1   4
ATOM      4  C   LIG d   1      10.641   2.158  -4.231  0.00  0.00     0.110 C 
ATOM      5  H   LIG d   1      11.580   1.605  -4.251  0.00  0.00     0.071 H 
ATOM      6  H   LIG d   1      10.666   2.943  -4.988  0.00  0.00     0.071 H 
BRANCH   4   7
ATOM      7  O   LIG d   1      10.458   2.755  -2.920  0.00  0.00    -0.447 OA
BRANCH   7   8
ATOM      8  C   LIG d   1      10.094   4.051  -2.884  0.00  0.00     0.426 C 
ATOM      9  N   LIG d   1      10.503   4.837  -1.869  0.00  0.00    -0.152 N 
ATOM     10  O   LIG d   1       9.398   4.512  -3.768  0.00  0.00    -0.224 OA
BRANCH   9  11
ATOM     11  C   LIG d   1      10.108   6.247  -1.830  0.00  0.00     0.034 C 
ATOM     12  H   LIG d   1      10.202   6.679  -2.827  0.00  0.00     0.045 H 
ATOM     13  H   LIG d   1       9.074   6.326  -1.497  0.00  0.00     0.045 H 
ATOM     14  H   LIG d   1      10.755   6.787  -1.138  0.00  0.00     0.045 H 
ENDBRANCH   9  11
BRANCH   9  15
ATOM     15  O   LIG d   1      11.314   4.301  -0.841  0.00  0.00    -0.290 OA
ATOM     16  H   LIG d   1      11.818   4.965  -0.350  0.00  0.00     0.242 HD
ENDBRANCH   9  15
ENDBRANCH   7   8
ENDBRANCH   4   7
ENDBRANCH   1   4
BRANCH   1  17
ATOM     17  N   LIG d   1       8.463   1.338  -3.480  0.00  0.00    -0.278 N 
ATOM     18  C   LIG d   1       7.156   1.340  -3.809  0.00  0.00     0.406 C 
ATOM     19  O   LIG d   1       6.823   1.229  -4.972  0.00  0.00    -0.226 OA
ATOM     20  H   LIG d   1       8.729   1.427  -2.552  0.00  0.00     0.152 HD
BRANCH  18  21
ATOM     21  O   LIG d   1       6.219   1.464  -2.850  0.00  0.00    -0.411 OA
BRANCH  21  22
ATOM     22  C   LIG d   1       5.256   0.506  -2.800  0.00  0.00     0.133 A 
ATOM     23  C   LIG d   1       5.610  -0.829  -2.669  0.00  0.00    -0.019 A 
ATOM     24  C   LIG d   1       4.629  -1.799  -2.613  0.00  0.00    -0.058 A 
ATOM     25  H   LIG d   1       6.650  -1.108  -2.607  0.00  0.00     0.065 H 
ATOM     26  C   LIG d   1       3.296  -1.442  -2.697  0.00  0.00    -0.061 A 
ATOM     27  H   LIG d   1       4.903  -2.839  -2.507  0.00  0.00     0.062 H 
ATOM     28  C   LIG d   1       2.941  -0.112  -2.828  0.00  0.00    -0.058 A 
ATOM     29  H   LIG d   1       2.530  -2.204  -2.656  0.00  0.00     0.062 H 
ATOM     30  C   LIG d   1       3.918   0.862  -2.879  0.00  0.00    -0.019 A 
ATOM     31  H   LIG d   1       1.898   0.164  -2.888  0.00  0.00     0.062 H 
ATOM     32  H   LIG d   1       3.640   1.901  -2.981  0.00  0.00     0.065 H 
ENDBRANCH  21  22
ENDBRANCH  18  21
ENDBRANCH   1  17
TORSDOF 8
ENDMDL
MODEL 6
REMARK VINA RESULT:      -5.8      3.299      6.493
REMARK  8 active torsions:
REMARK  status: ('A' for Active; 'I' for Inactive)
REMARK    1  A    between atoms: C_1  and  N_2 
REMARK       I    between atoms: N_2  and  C_3 
REMARK    2  A    between atoms: N_2  and  O_18 
REMARK    3  A    between atoms: C_3  and  O_5 
REMARK    4  A    between atoms: O_5  and  C_6 
REMARK    5  A    between atoms: C_6  and  C_7 
REMARK    6  A    between atoms: C_7  and  N_8 
REMARK       I    between atoms: N_8  and  C_9 
REMARK    7  A    between atoms: C_9  and  O_11 
REMARK    8  A    between atoms: O_11  and  C_12 
ROOT
ATOM      1  C   LIG d   1       3.379  -1.130  -4.003  0.00  0.00     0.049 C 
ATOM      2  H   LIG d   1       2.809  -2.057  -3.956  0.00  0.00     0.050 H 
ATOM      3  H   LIG d   1       4.390  -1.341  -4.353  0.00  0.00     0.050 H 
ENDROOT
BRANCH   1   4
ATOM      4  C   LIG d   1       3.444  -0.500  -2.610  0.00  0.00     0.110 C 
ATOM      5  H   LIG d   1       2.958   0.476  -2.630  0.00  0.00     0.071 H 
ATOM      6  H   LIG d   1       2.933  -1.146  -1.895  0.00  0.00     0.071 H 
BRANCH   4   7
ATOM      7  O   LIG d   1       4.832  -0.342  -2.213  0.00  0.00    -0.447 OA
BRANCH   7   8
ATOM      8  C   LIG d   1       5.531   0.640  -2.813  0.00  0.00     0.426 C 
ATOM      9  N   LIG d   1       6.770   0.395  -3.282  0.00  0.00    -0.152 N 
ATOM     10  O   LIG d   1       5.044   1.747  -2.932  0.00  0.00    -0.224 OA
BRANCH   9  11
ATOM     11  C   LIG d   1       7.530   1.463  -3.936  0.00  0.00     0.034 C 
ATOM     12  H   LIG d   1       6.994   2.406  -3.834  0.00  0.00     0.045 H 
ATOM     13  H   LIG d   1       8.510   1.551  -3.467  0.00  0.00     0.045 H 
ATOM     14  H   LIG d   1       7.653   1.227  -4.993  0.00  0.00     0.045 H 
ENDBRANCH   9  11
BRANCH   9  15
ATOM     15  O   LIG d   1       7.337  -0.895  -3.144  0.00  0.00    -0.290 OA
ATOM     16  H   LIG d   1       6.969  -1.411  -2.414  0.00  0.00     0.242 HD
ENDBRANCH   9  15
ENDBRANCH   7   8
ENDBRANCH   4   7
ENDBRANCH   1   4
BRANCH   1  17
ATOM     17  N   LIG d   1       2.725  -0.201  -4.928  0.00  0.00    -0.278 N 
ATOM     18  C   LIG d   1       3.420   0.331  -5.952  0.00  0.00     0.406 C 
ATOM     19  O   LIG d   1       4.589   0.041  -6.109  0.00  0.00    -0.226 OA
ATOM     20  H   LIG d   1       1.792   0.030  -4.803  0.00  0.00     0.152 HD
BRANCH  18  21
ATOM     21  O   LIG d   1       2.819   1.184  -6.803  0.00  0.00    -0.411 OA
BRANCH  21  22
ATOM     22  C   LIG d   1       2.962   0.935  -8.132  0.00  0.00     0.133 A 
ATOM     23  C   LIG d   1       3.672   1.818  -8.932  0.00  0.00    -0.019 A 
ATOM     24  C   LIG d   1       3.819   1.558 -10.281  0.00  0.00    -0.058 A 
ATOM     25  H   LIG d   1       4.112   2.704  -8.501  0.00  0.00     0.065 H 
ATOM     26  C   LIG d   1       3.252   0.426 -10.835  0.00  0.00    -0.061 A 
ATOM     27  H   LIG d   1       4.376   2.243 -10.904  0.00  0.00     0.062 H 
ATOM     28  C   LIG d   1       2.544  -0.456 -10.039  0.00  0.00    -0.058 A 
ATOM     29  H   LIG d   1       3.367   0.227 -11.890  0.00  0.00     0.062 H 
ATOM     30  C   LIG d   1       2.398  -0.203  -8.688  0.00  0.00    -0.019 A 
ATOM     31  H   LIG d   1       2.107  -1.343 -10.473  0.00  0.00     0.062 H 
ATOM     32  H   LIG d   1       1.845  -0.893  -8.067  0.00  0.00     0.065 H 
ENDBRANCH  21  22
ENDBRANCH  18  21
ENDBRANCH   1  17
TORSDOF 8
ENDMDL
MODEL 7
REMARK VINA RESULT:      -5.7      1.996      3.659
REMARK  8 active torsions:
REMARK  status: ('A' for Active; 'I' for Inactive)
REMARK    1  A    between atoms: C_1  and  N_2 
REMARK       I    between atoms: N_2  and  C_3 
REMARK    2  A    between atoms: N_2  and  O_18 
REMARK    3  A    between atoms: C_3  and  O_5 
REMARK    4  A    between atoms: O_5  and  C_6 
REMARK    5  A    between atoms: C_6  and  C_7 
REMARK    6  A    between atoms: C_7  and  N_8 
REMARK       I    between atoms: N_8  and  C_9 
REMARK    7  A    between atoms: C_9  and  O_11 
REMARK    8  A    between atoms: O_11  and  C_12 
ROOT
ATOM      1  C   LIG d   1       4.845  -4.007  -6.558  0.00  0.00     0.049 C 
ATOM      2  H   LIG d   1       5.881  -3.686  -6.456  0.00  0.00     0.050 H 
ATOM      3  H   LIG d   1       4.810  -5.091  -6.675  0.00  0.00     0.050 H 
ENDROOT
BRANCH   1   4
ATOM      4  C   LIG d   1       4.223  -3.342  -7.787  0.00  0.00     0.110 C 
ATOM      5  H   LIG d   1       4.561  -3.855  -8.688  0.00  0.00     0.071 H 
ATOM      6  H   LIG d   1       3.136  -3.401  -7.722  0.00  0.00     0.071 H 
BRANCH   4   7
ATOM      7  O   LIG d   1       4.629  -1.948  -7.841  0.00  0.00    -0.447 OA
BRANCH   7   8
ATOM      8  C   LIG d   1       4.063  -1.183  -8.793  0.00  0.00     0.426 C 
ATOM      9  N   LIG d   1       3.015  -0.394  -8.487  0.00  0.00    -0.152 N 
ATOM     10  O   LIG d   1       4.497  -1.204  -9.928  0.00  0.00    -0.224 OA
BRANCH   9  11
ATOM     11  C   LIG d   1       2.398   0.439  -9.522  0.00  0.00     0.034 C 
ATOM     12  H   LIG d   1       3.129   1.158  -9.894  0.00  0.00     0.045 H 
ATOM     13  H   LIG d   1       2.060  -0.192 -10.344  0.00  0.00     0.045 H 
ATOM     14  H   LIG d   1       1.546   0.973  -9.100  0.00  0.00     0.045 H 
ENDBRANCH   9  11
BRANCH   9  15
ATOM     15  O   LIG d   1       2.509  -0.369  -7.165  0.00  0.00    -0.290 OA
ATOM     16  H   LIG d   1       1.648  -0.797  -7.064  0.00  0.00     0.242 HD
ENDBRANCH   9  15
ENDBRANCH   7   8
ENDBRANCH   4   7
ENDBRANCH   1   4
BRANCH   1  17
ATOM     17  N   LIG d   1       4.094  -3.621  -5.361  0.00  0.00    -0.278 N 
ATOM     18  C   LIG d   1       4.747  -3.160  -4.276  0.00  0.00     0.406 C 
ATOM     19  O   LIG d   1       5.958  -3.064  -4.291  0.00  0.00    -0.226 OA
ATOM     20  H   LIG d   1       3.127  -3.698  -5.349  0.00  0.00     0.152 HD
BRANCH  18  21
ATOM     21  O   LIG d   1       4.057  -2.804  -3.175  0.00  0.00    -0.411 OA
BRANCH  21  22
ATOM     22  C   LIG d   1       3.941  -1.473  -2.923  0.00  0.00     0.133 A 
ATOM     23  C   LIG d   1       3.133  -0.682  -3.726  0.00  0.00    -0.019 A 
ATOM     24  C   LIG d   1       3.014   0.669  -3.464  0.00  0.00    -0.058 A 
ATOM     25  H   LIG d   1       2.598  -1.121  -4.553  0.00  0.00     0.065 H 
ATOM     26  C   LIG d   1       3.704   1.234  -2.407  0.00  0.00    -0.061 A 
ATOM     27  H   LIG d   1       2.382   1.285  -4.086  0.00  0.00     0.062 H 
ATOM     28  C   LIG d   1       4.508   0.446  -1.604  0.00  0.00    -0.058 A 
ATOM     29  H   LIG d   1       3.610   2.291  -2.206  0.00  0.00     0.062 H 
ATOM     30  C   LIG d   1       4.628  -0.906  -1.860  0.00  0.00    -0.019 A 
ATOM     31  H   LIG d   1       5.042   0.889  -0.776  0.00  0.00     0.062 H 
ATOM     32  H   LIG d   1       5.257  -1.521  -1.232  0.00  0.00     0.065 H 
ENDBRANCH  21  22
ENDBRANCH  18  21
ENDBRANCH   1  17
TORSDOF 8
ENDMDL
MODEL 8
REMARK VINA RESULT:      -5.7      2.578      4.001
REMARK  8 active torsions:
REMARK  status: ('A' for Active; 'I' for Inactive)
REMARK    1  A    between atoms: C_1  and  N_2 
REMARK       I    between atoms: N_2  and  C_3 
REMARK    2  A    between atoms: N_2  and  O_18 
REMARK    3  A    between atoms: C_3  and  O_5 
REMARK    4  A    between atoms: O_5  and  C_6 
REMARK    5  A    between atoms: C_6  and  C_7 
REMARK    6  A    between atoms: C_7  and  N_8 
REMARK       I    between atoms: N_8  and  C_9 
REMARK    7  A    between atoms: C_9  and  O_11 
REMARK    8  A    between atoms: O_11  and  C_12 
ROOT
ATOM      1  C   LIG d   1       4.831  -3.756  -6.649  0.00  0.00     0.049 C 
ATOM      2  H   LIG d   1       5.881  -3.877  -6.382  0.00  0.00     0.050 H 
ATOM      3  H   LIG d   1       4.441  -4.702  -7.026  0.00  0.00     0.050 H 
ENDROOT
BRANCH   1   4
ATOM      4  C   LIG d   1       4.701  -2.682  -7.730  0.00  0.00     0.110 C 
ATOM      5  H   LIG d   1       4.625  -3.159  -8.708  0.00  0.00     0.071 H 
ATOM      6  H   LIG d   1       3.805  -2.088  -7.546  0.00  0.00     0.071 H 
BRANCH   4   7
ATOM      7  O   LIG d   1       5.869  -1.820  -7.701  0.00  0.00    -0.447 OA
BRANCH   7   8
ATOM      8  C   LIG d   1       5.866  -0.817  -6.803  0.00  0.00     0.426 C 
ATOM      9  N   LIG d   1       6.835  -0.746  -5.870  0.00  0.00    -0.152 N 
ATOM     10  O   LIG d   1       4.989   0.024  -6.834  0.00  0.00    -0.224 OA
BRANCH   9  11
ATOM     11  C   LIG d   1       6.832   0.346  -4.893  0.00  0.00     0.034 C 
ATOM     12  H   LIG d   1       7.445   1.168  -5.263  0.00  0.00     0.045 H 
ATOM     13  H   LIG d   1       5.811   0.695  -4.741  0.00  0.00     0.045 H 
ATOM     14  H   LIG d   1       7.239  -0.012  -3.947  0.00  0.00     0.045 H 
ENDBRANCH   9  11
BRANCH   9  15
ATOM     15  O   LIG d   1       7.857  -1.725  -5.833  0.00  0.00    -0.290 OA
ATOM     16  H   LIG d   1       7.765  -2.363  -5.112  0.00  0.00     0.242 HD
ENDBRANCH   9  15
ENDBRANCH   7   8
ENDBRANCH   4   7
ENDBRANCH   1   4
BRANCH   1  17
ATOM     17  N   LIG d   1       4.070  -3.352  -5.464  0.00  0.00    -0.278 N 
ATOM     18  C   LIG d   1       4.706  -3.134  -4.297  0.00  0.00     0.406 C 
ATOM     19  O   LIG d   1       5.910  -3.272  -4.226  0.00  0.00    -0.226 OA
ATOM     20  H   LIG d   1       3.108  -3.241  -5.521  0.00  0.00     0.152 HD
BRANCH  18  21
ATOM     21  O   LIG d   1       4.006  -2.761  -3.208  0.00  0.00    -0.411 OA
BRANCH  21  22
ATOM     22  C   LIG d   1       3.927  -1.429  -2.950  0.00  0.00     0.133 A 
ATOM     23  C   LIG d   1       3.210  -0.599  -3.799  0.00  0.00    -0.019 A 
ATOM     24  C   LIG d   1       3.128   0.754  -3.532  0.00  0.00    -0.058 A 
ATOM     25  H   LIG d   1       2.715  -1.010  -4.665  0.00  0.00     0.065 H 
ATOM     26  C   LIG d   1       3.766   1.282  -2.425  0.00  0.00    -0.061 A 
ATOM     27  H   LIG d   1       2.566   1.400  -4.190  0.00  0.00     0.062 H 
ATOM     28  C   LIG d   1       4.481   0.456  -1.577  0.00  0.00    -0.058 A 
ATOM     29  H   LIG d   1       3.702   2.340  -2.220  0.00  0.00     0.062 H 
ATOM     30  C   LIG d   1       4.562  -0.899  -1.837  0.00  0.00    -0.019 A 
ATOM     31  H   LIG d   1       4.974   0.870  -0.710  0.00  0.00     0.062 H 
ATOM     32  H   LIG d   1       5.121  -1.543  -1.174  0.00  0.00     0.065 H 
ENDBRANCH  21  22
ENDBRANCH  18  21
ENDBRANCH   1  17
TORSDOF 8
ENDMDL
MODEL 9
REMARK VINA RESULT:      -5.7      2.999      5.827
REMARK  8 active torsions:
REMARK  status: ('A' for Active; 'I' for Inactive)
REMARK    1  A    between atoms: C_1  and  N_2 
REMARK       I    between atoms: N_2  and  C_3 
REMARK    2  A    between atoms: N_2  and  O_18 
REMARK    3  A    between atoms: C_3  and  O_5 
REMARK    4  A    between atoms: O_5  and  C_6 
REMARK    5  A    between atoms: C_6  and  C_7 
REMARK    6  A    between atoms: C_7  and  N_8 
REMARK       I    between atoms: N_8  and  C_9 
REMARK    7  A    between atoms: C_9  and  O_11 
REMARK    8  A    between atoms: O_11  and  C_12 
ROOT
ATOM      1  C   LIG d   1       3.228   0.660  -3.746  0.00  0.00     0.049 C 
ATOM      2  H   LIG d   1       4.295   0.659  -3.967  0.00  0.00     0.050 H 
ATOM      3  H   LIG d   1       2.946   1.622  -3.318  0.00  0.00     0.050 H 
ENDROOT
BRANCH   1   4
ATOM      4  C   LIG d   1       2.914  -0.455  -2.746  0.00  0.00     0.110 C 
ATOM      5  H   LIG d   1       2.371  -0.038  -1.897  0.00  0.00     0.071 H 
ATOM      6  H   LIG d   1       2.301  -1.216  -3.230  0.00  0.00     0.071 H 
BRANCH   4   7
ATOM      7  O   LIG d   1       4.154  -1.053  -2.282  0.00  0.00    -0.447 OA
BRANCH   7   8
ATOM      8  C   LIG d   1       4.717  -1.983  -3.076  0.00  0.00     0.426 C 
ATOM      9  N   LIG d   1       5.984  -1.822  -3.508  0.00  0.00    -0.152 N 
ATOM     10  O   LIG d   1       4.084  -2.968  -3.403  0.00  0.00    -0.224 OA
BRANCH   9  11
ATOM     11  C   LIG d   1       6.597  -2.834  -4.371  0.00  0.00     0.034 C 
ATOM     12  H   LIG d   1       6.452  -3.822  -3.934  0.00  0.00     0.045 H 
ATOM     13  H   LIG d   1       6.133  -2.801  -5.357  0.00  0.00     0.045 H 
ATOM     14  H   LIG d   1       7.665  -2.632  -4.465  0.00  0.00     0.045 H 
ENDBRANCH   9  11
BRANCH   9  15
ATOM     15  O   LIG d   1       6.721  -0.675  -3.126  0.00  0.00    -0.290 OA
ATOM     16  H   LIG d   1       7.278  -0.807  -2.347  0.00  0.00     0.242 HD
ENDBRANCH   9  15
ENDBRANCH   7   8
ENDBRANCH   4   7
ENDBRANCH   1   4
BRANCH   1  17
ATOM     17  N   LIG d   1       2.473   0.434  -4.981  0.00  0.00    -0.278 N 
ATOM     18  C   LIG d   1       3.119   0.079  -6.110  0.00  0.00     0.406 C 
ATOM     19  O   LIG d   1       4.326  -0.053  -6.103  0.00  0.00    -0.226 OA
ATOM     20  H   LIG d   1       1.509   0.540  -4.986  0.00  0.00     0.152 HD
BRANCH  18  21
ATOM     21  O   LIG d   1       2.426  -0.129  -7.245  0.00  0.00    -0.411 OA
BRANCH  21  22
ATOM     22  C   LIG d   1       2.898   0.463  -8.374  0.00  0.00     0.133 A 
ATOM     23  C   LIG d   1       3.014   1.844  -8.439  0.00  0.00    -0.019 A 
ATOM     24  C   LIG d   1       3.500   2.441  -9.586  0.00  0.00    -0.058 A 
ATOM     25  H   LIG d   1       2.729   2.450  -7.593  0.00  0.00     0.065 H 
ATOM     26  C   LIG d   1       3.861   1.665 -10.672  0.00  0.00    -0.061 A 
ATOM     27  H   LIG d   1       3.594   3.515  -9.636  0.00  0.00     0.062 H 
ATOM     28  C   LIG d   1       3.746   0.288 -10.609  0.00  0.00    -0.058 A 
ATOM     29  H   LIG d   1       4.238   2.135 -11.569  0.00  0.00     0.062 H 
ATOM     30  C   LIG d   1       3.266  -0.314  -9.463  0.00  0.00    -0.019 A 
ATOM     31  H   LIG d   1       4.034  -0.316 -11.458  0.00  0.00     0.062 H 
ATOM     32  H   LIG d   1       3.177  -1.390  -9.415  0.00  0.00     0.065 H 
ENDBRANCH  21  22
ENDBRANCH  18  21
ENDBRANCH   1  17
TORSDOF 8
ENDMDL
MODEL 10
REMARK VINA RESULT:      -5.5      2.332      4.314
REMARK  8 active torsions:
REMARK  status: ('A' for Active; 'I' for Inactive)
REMARK    1  A    between atoms: C_1  and  N_2 
REMARK       I    between atoms: N_2  and  C_3 
REMARK    2  A    between atoms: N_2  and  O_18 
REMARK    3  A    between atoms: C_3  and  O_5 
REMARK    4  A    between atoms: O_5  and  C_6 
REMARK    5  A    between atoms: C_6  and  C_7 
REMARK    6  A    between atoms: C_7  and  N_8 
REMARK       I    between atoms: N_8  and  C_9 
REMARK    7  A    between atoms: C_9  and  O_11 
REMARK    8  A    between atoms: O_11  and  C_12 
ROOT
ATOM      1  C   LIG d   1       5.058  -3.109  -7.101  0.00  0.00     0.049 C 
ATOM      2  H   LIG d   1       6.084  -3.189  -6.742  0.00  0.00     0.050 H 
ATOM      3  H   LIG d   1       4.759  -4.053  -7.558  0.00  0.00     0.050 H 
ENDROOT
BRANCH   1   4
ATOM      4  C   LIG d   1       4.966  -1.989  -8.140  0.00  0.00     0.110 C 
ATOM      5  H   LIG d   1       5.600  -2.232  -8.993  0.00  0.00     0.071 H 
ATOM      6  H   LIG d   1       3.933  -1.886  -8.473  0.00  0.00     0.071 H 
BRANCH   4   7
ATOM      7  O   LIG d   1       5.411  -0.741  -7.546  0.00  0.00    -0.447 OA
BRANCH   7   8
ATOM      8  C   LIG d   1       4.732   0.372  -7.883  0.00  0.00     0.426 C 
ATOM      9  N   LIG d   1       5.166   1.144  -8.899  0.00  0.00    -0.152 N 
ATOM     10  O   LIG d   1       3.728   0.680  -7.271  0.00  0.00    -0.224 OA
BRANCH   9  11
ATOM     11  C   LIG d   1       4.427   2.354  -9.266  0.00  0.00     0.034 C 
ATOM     12  H   LIG d   1       4.744   2.688 -10.254  0.00  0.00     0.045 H 
ATOM     13  H   LIG d   1       3.359   2.138  -9.281  0.00  0.00     0.045 H 
ATOM     14  H   LIG d   1       4.629   3.139  -8.536  0.00  0.00     0.045 H 
ENDBRANCH   9  11
BRANCH   9  15
ATOM     15  O   LIG d   1       6.336   0.785  -9.611  0.00  0.00    -0.290 OA
ATOM     16  H   LIG d   1       6.418  -0.164  -9.779  0.00  0.00     0.242 HD
ENDBRANCH   9  15
ENDBRANCH   7   8
ENDBRANCH   4   7
ENDBRANCH   1   4
BRANCH   1  17
ATOM     17  N   LIG d   1       4.169  -2.807  -5.977  0.00  0.00    -0.278 N 
ATOM     18  C   LIG d   1       4.650  -2.811  -4.718  0.00  0.00     0.406 C 
ATOM     19  O   LIG d   1       5.820  -3.064  -4.516  0.00  0.00    -0.226 OA
ATOM     20  H   LIG d   1       3.234  -2.604  -6.139  0.00  0.00     0.152 HD
BRANCH  18  21
ATOM     21  O   LIG d   1       3.833  -2.532  -3.684  0.00  0.00    -0.411 OA
BRANCH  21  22
ATOM     22  C   LIG d   1       3.842  -1.256  -3.217  0.00  0.00     0.133 A 
ATOM     23  C   LIG d   1       4.523  -0.949  -2.048  0.00  0.00    -0.019 A 
ATOM     24  C   LIG d   1       4.533   0.351  -1.578  0.00  0.00    -0.058 A 
ATOM     25  H   LIG d   1       5.045  -1.723  -1.508  0.00  0.00     0.065 H 
ATOM     26  C   LIG d   1       3.859   1.342  -2.267  0.00  0.00    -0.061 A 
ATOM     27  H   LIG d   1       5.066   0.591  -0.670  0.00  0.00     0.062 H 
ATOM     28  C   LIG d   1       3.181   1.038  -3.433  0.00  0.00    -0.058 A 
ATOM     29  H   LIG d   1       3.867   2.357  -1.896  0.00  0.00     0.062 H 
ATOM     30  C   LIG d   1       3.171  -0.259  -3.909  0.00  0.00    -0.019 A 
ATOM     31  H   LIG d   1       2.660   1.816  -3.971  0.00  0.00     0.062 H 
ATOM     32  H   LIG d   1       2.641  -0.495  -4.820  0.00  0.00     0.065 H 
ENDBRANCH  21  22
ENDBRANCH  18  21
ENDBRANCH   1  17
TORSDOF 8
ENDMDL
