MODEL 1
REMARK VINA RESULT:      -7.0      0.000      0.000
REMARK  3 active torsions:
REMARK  status: ('A' for Active; 'I' for Inactive)
REMARK    1  A    between atoms: C_1  and  C_2 
REMARK    2  A    between atoms: C_4  and  C_13 
REMARK    3  A    between atoms: C_20  and  O_24 
ROOT
ATOM      1  C   LIG d   1       6.610  -2.407  -4.907  0.00  0.00     0.122 C 
ATOM      2  H   LIG d   1       6.964  -2.722  -5.888  0.00  0.00     0.078 H 
ATOM      3  C   LIG d   1       5.318  -3.119  -4.597  0.00  0.00    -0.003 C 
ATOM      4  C   LIG d   1       4.403  -2.528  -3.779  0.00  0.00    -0.044 C 
ATOM      5  C   LIG d   1       4.719  -1.196  -3.245  0.00  0.00     0.017 A 
ATOM      6  C   LIG d   1       4.025  -0.663  -2.159  0.00  0.00    -0.051 A 
ATOM      7  C   LIG d   1       4.356   0.593  -1.691  0.00  0.00    -0.061 A 
ATOM      8  C   LIG d   1       5.375   1.316  -2.290  0.00  0.00    -0.058 A 
ATOM      9  C   LIG d   1       6.067   0.800  -3.369  0.00  0.00    -0.019 A 
ATOM     10  C   LIG d   1       5.750  -0.457  -3.853  0.00  0.00     0.129 A 
ATOM     11  O   LIG d   1       6.413  -0.993  -4.907  0.00  0.00    -0.484 OA
ATOM     12  H   LIG d   1       3.476  -3.023  -3.529  0.00  0.00     0.063 H 
ATOM     13  H   LIG d   1       3.233  -1.227  -1.688  0.00  0.00     0.062 H 
ATOM     14  H   LIG d   1       3.821   1.011  -0.851  0.00  0.00     0.062 H 
ATOM     15  H   LIG d   1       5.628   2.296  -1.911  0.00  0.00     0.062 H 
ATOM     16  H   LIG d   1       6.856   1.374  -3.831  0.00  0.00     0.065 H 
ENDROOT
BRANCH   3  17
ATOM     17  C   LIG d   1       5.057  -4.385  -5.152  0.00  0.00    -0.009 C 
ATOM     18  C   LIG d   1       4.480  -4.485  -6.385  0.00  0.00     0.176 A 
ATOM     19  O   LIG d   1       4.224  -3.454  -7.224  0.00  0.00    -0.451 OA
ATOM     20  C   LIG d   1       4.053  -5.690  -7.008  0.00  0.00     0.231 A 
ATOM     21  C   LIG d   1       3.646  -3.880  -8.368  0.00  0.00     0.143 A 
ATOM     22  C   LIG d   1       3.501  -5.276  -8.309  0.00  0.00     0.068 A 
ATOM     23  C   LIG d   1       3.212  -3.204  -9.500  0.00  0.00     0.023 A 
ATOM     24  C   LIG d   1       2.927  -5.971  -9.375  0.00  0.00    -0.044 A 
ATOM     25  C   LIG d   1       2.504  -5.291 -10.482  0.00  0.00    -0.019 A 
ATOM     26  H   LIG d   1       2.817  -7.044  -9.324  0.00  0.00     0.063 H 
ATOM     27  C   LIG d   1       2.644  -3.907 -10.550  0.00  0.00     0.120 A 
ATOM     28  H   LIG d   1       2.059  -5.828 -11.306  0.00  0.00     0.065 H 
ATOM     29  H   LIG d   1       3.316  -2.131  -9.562  0.00  0.00     0.069 H 
ATOM     30  O   LIG d   1       4.125  -6.822  -6.559  0.00  0.00    -0.283 OA
ATOM     31  H   LIG d   1       5.314  -5.278  -4.602  0.00  0.00     0.066 H 
BRANCH  27  32
ATOM     32  O   LIG d   1       2.220  -3.242 -11.655  0.00  0.00    -0.507 OA
ATOM     33  H   LIG d   1       2.495  -3.648 -12.489  0.00  0.00     0.292 HD
ENDBRANCH  27  32
ENDBRANCH   3  17
BRANCH   1  34
ATOM     34  C   LIG d   1       7.654  -2.774  -3.850  0.00  0.00    -0.024 C 
ATOM     35  H   LIG d   1       8.211  -3.650  -4.178  0.00  0.00     0.027 H 
ATOM     36  H   LIG d   1       8.339  -1.937  -3.710  0.00  0.00     0.027 H 
ATOM     37  H   LIG d   1       7.152  -2.994  -2.907  0.00  0.00     0.027 H 
ENDBRANCH   1  34
TORSDOF 3
ENDMDL
MODEL 2
REMARK VINA RESULT:      -6.9      3.275      7.709
REMARK  3 active torsions:
REMARK  status: ('A' for Active; 'I' for Inactive)
REMARK    1  A    between atoms: C_1  and  C_2 
REMARK    2  A    between atoms: C_4  and  C_13 
REMARK    3  A    between atoms: C_20  and  O_24 
ROOT
ATOM      1  C   LIG d   1       4.133   1.039  -9.219  0.00  0.00     0.122 C 
ATOM      2  H   LIG d   1       4.864   1.300  -8.453  0.00  0.00     0.078 H 
ATOM      3  C   LIG d   1       3.029   0.227  -8.593  0.00  0.00    -0.003 C 
ATOM      4  C   LIG d   1       2.346  -0.677  -9.349  0.00  0.00    -0.044 C 
ATOM      5  C   LIG d   1       2.739  -0.831 -10.757  0.00  0.00     0.017 A 
ATOM      6  C   LIG d   1       1.907  -1.464 -11.680  0.00  0.00    -0.051 A 
ATOM      7  C   LIG d   1       2.317  -1.585 -12.992  0.00  0.00    -0.061 A 
ATOM      8  C   LIG d   1       3.543  -1.076 -13.392  0.00  0.00    -0.058 A 
ATOM      9  C   LIG d   1       4.377  -0.451 -12.485  0.00  0.00    -0.019 A 
ATOM     10  C   LIG d   1       3.984  -0.319 -11.165  0.00  0.00     0.129 A 
ATOM     11  O   LIG d   1       4.777   0.293 -10.252  0.00  0.00    -0.484 OA
ATOM     12  H   LIG d   1       1.541  -1.261  -8.928  0.00  0.00     0.063 H 
ATOM     13  H   LIG d   1       0.950  -1.857 -11.371  0.00  0.00     0.062 H 
ATOM     14  H   LIG d   1       1.678  -2.075 -13.712  0.00  0.00     0.062 H 
ATOM     15  H   LIG d   1       3.851  -1.173 -14.423  0.00  0.00     0.062 H 
ATOM     16  H   LIG d   1       5.332  -0.062 -12.806  0.00  0.00     0.065 H 
ENDROOT
BRANCH   3  17
ATOM     17  C   LIG d   1       2.707   0.399  -7.234  0.00  0.00    -0.009 C 
ATOM     18  C   LIG d   1       3.543  -0.082  -6.268  0.00  0.00     0.176 A 
ATOM     19  O   LIG d   1       4.762  -0.631  -6.478  0.00  0.00    -0.451 OA
ATOM     20  C   LIG d   1       3.283  -0.085  -4.870  0.00  0.00     0.231 A 
ATOM     21  C   LIG d   1       5.339  -1.011  -5.318  0.00  0.00     0.143 A 
ATOM     22  C   LIG d   1       4.470  -0.705  -4.258  0.00  0.00     0.068 A 
ATOM     23  C   LIG d   1       6.561  -1.608  -5.038  0.00  0.00     0.023 A 
ATOM     24  C   LIG d   1       4.832  -0.998  -2.942  0.00  0.00    -0.044 A 
ATOM     25  C   LIG d   1       6.037  -1.585  -2.683  0.00  0.00    -0.019 A 
ATOM     26  H   LIG d   1       4.160  -0.760  -2.131  0.00  0.00     0.063 H 
ATOM     27  C   LIG d   1       6.907  -1.893  -3.727  0.00  0.00     0.120 A 
ATOM     28  H   LIG d   1       6.317  -1.813  -1.665  0.00  0.00     0.065 H 
ATOM     29  H   LIG d   1       7.241  -1.850  -5.840  0.00  0.00     0.069 H 
ATOM     30  O   LIG d   1       2.288   0.333  -4.300  0.00  0.00    -0.283 OA
ATOM     31  H   LIG d   1       1.799   0.913  -6.956  0.00  0.00     0.066 H 
BRANCH  27  32
ATOM     32  O   LIG d   1       8.102  -2.477  -3.457  0.00  0.00    -0.507 OA
ATOM     33  H   LIG d   1       8.866  -1.912  -3.637  0.00  0.00     0.292 HD
ENDBRANCH  27  32
ENDBRANCH   3  17
BRANCH   1  34
ATOM     34  C   LIG d   1       3.543   2.320  -9.812  0.00  0.00    -0.024 C 
ATOM     35  H   LIG d   1       4.342   2.924 -10.239  0.00  0.00     0.027 H 
ATOM     36  H   LIG d   1       2.825   2.063 -10.590  0.00  0.00     0.027 H 
ATOM     37  H   LIG d   1       3.041   2.885  -9.026  0.00  0.00     0.027 H 
ENDBRANCH   1  34
TORSDOF 3
ENDMDL
MODEL 3
REMARK VINA RESULT:      -6.8      2.696      4.027
REMARK  3 active torsions:
REMARK  status: ('A' for Active; 'I' for Inactive)
REMARK    1  A    between atoms: C_1  and  C_2 
REMARK    2  A    between atoms: C_4  and  C_13 
REMARK    3  A    between atoms: C_20  and  O_24 
ROOT
ATOM      1  C   LIG d   1       5.692  -0.760  -6.621  0.00  0.00     0.122 C 
ATOM      2  H   LIG d   1       6.471  -0.337  -7.255  0.00  0.00     0.078 H 
ATOM      3  C   LIG d   1       4.381  -0.083  -6.931  0.00  0.00    -0.003 C 
ATOM      4  C   LIG d   1       3.431   0.018  -5.961  0.00  0.00    -0.044 C 
ATOM      5  C   LIG d   1       3.742  -0.530  -4.634  0.00  0.00     0.017 A 
ATOM      6  C   LIG d   1       2.741  -0.776  -3.694  0.00  0.00    -0.051 A 
ATOM      7  C   LIG d   1       3.080  -1.292  -2.460  0.00  0.00    -0.061 A 
ATOM      8  C   LIG d   1       4.404  -1.571  -2.158  0.00  0.00    -0.058 A 
ATOM      9  C   LIG d   1       5.404  -1.328  -3.080  0.00  0.00    -0.019 A 
ATOM     10  C   LIG d   1       5.085  -0.811  -4.323  0.00  0.00     0.129 A 
ATOM     11  O   LIG d   1       6.042  -0.566  -5.250  0.00  0.00    -0.484 OA
ATOM     12  H   LIG d   1       2.478   0.486  -6.161  0.00  0.00     0.063 H 
ATOM     13  H   LIG d   1       1.709  -0.562  -3.929  0.00  0.00     0.062 H 
ATOM     14  H   LIG d   1       2.310  -1.483  -1.727  0.00  0.00     0.062 H 
ATOM     15  H   LIG d   1       4.656  -1.980  -1.190  0.00  0.00     0.062 H 
ATOM     16  H   LIG d   1       6.433  -1.546  -2.833  0.00  0.00     0.065 H 
ENDROOT
BRANCH   3  17
ATOM     17  C   LIG d   1       4.143   0.444  -8.214  0.00  0.00    -0.009 C 
ATOM     18  C   LIG d   1       3.406  -0.267  -9.117  0.00  0.00     0.176 A 
ATOM     19  O   LIG d   1       2.749  -1.423  -8.867  0.00  0.00    -0.451 OA
ATOM     20  C   LIG d   1       3.193   0.088 -10.478  0.00  0.00     0.231 A 
ATOM     21  C   LIG d   1       2.113  -1.877  -9.969  0.00  0.00     0.143 A 
ATOM     22  C   LIG d   1       2.346  -0.984 -11.027  0.00  0.00     0.068 A 
ATOM     23  C   LIG d   1       1.328  -3.000 -10.194  0.00  0.00     0.023 A 
ATOM     24  C   LIG d   1       1.795  -1.224 -12.287  0.00  0.00    -0.044 A 
ATOM     25  C   LIG d   1       1.025  -2.333 -12.492  0.00  0.00    -0.019 A 
ATOM     26  H   LIG d   1       1.978  -0.534 -13.097  0.00  0.00     0.063 H 
ATOM     27  C   LIG d   1       0.787  -3.225 -11.449  0.00  0.00     0.120 A 
ATOM     28  H   LIG d   1       0.599  -2.520 -13.468  0.00  0.00     0.065 H 
ATOM     29  H   LIG d   1       1.138  -3.697  -9.391  0.00  0.00     0.069 H 
ATOM     30  O   LIG d   1       3.623   1.068 -11.065  0.00  0.00    -0.283 OA
ATOM     31  H   LIG d   1       4.544   1.409  -8.483  0.00  0.00     0.066 H 
BRANCH  27  32
ATOM     32  O   LIG d   1       0.021  -4.324 -11.665  0.00  0.00    -0.507 OA
ATOM     33  H   LIG d   1      -0.569  -4.249 -12.428  0.00  0.00     0.292 HD
ENDBRANCH  27  32
ENDBRANCH   3  17
BRANCH   1  34
ATOM     34  C   LIG d   1       5.566  -2.258  -6.904  0.00  0.00    -0.024 C 
ATOM     35  H   LIG d   1       5.830  -2.820  -6.010  0.00  0.00     0.027 H 
ATOM     36  H   LIG d   1       4.539  -2.489  -7.190  0.00  0.00     0.027 H 
ATOM     37  H   LIG d   1       6.239  -2.531  -7.718  0.00  0.00     0.027 H 
ENDBRANCH   1  34
TORSDOF 3
ENDMDL
MODEL 4
REMARK VINA RESULT:      -6.6      3.566      7.021
REMARK  3 active torsions:
REMARK  status: ('A' for Active; 'I' for Inactive)
REMARK    1  A    between atoms: C_1  and  C_2 
REMARK    2  A    between atoms: C_4  and  C_13 
REMARK    3  A    between atoms: C_20  and  O_24 
ROOT
ATOM      1  C   LIG d   1       5.945  -2.807  -4.850  0.00  0.00     0.122 C 
ATOM      2  H   LIG d   1       6.193  -3.853  -5.026  0.00  0.00     0.078 H 
ATOM      3  C   LIG d   1       7.199  -2.056  -4.483  0.00  0.00    -0.003 C 
ATOM      4  C   LIG d   1       7.115  -0.955  -3.686  0.00  0.00    -0.044 C 
ATOM      5  C   LIG d   1       5.786  -0.558  -3.200  0.00  0.00     0.017 A 
ATOM      6  C   LIG d   1       5.553   0.712  -2.672  0.00  0.00    -0.051 A 
ATOM      7  C   LIG d   1       4.288   1.041  -2.228  0.00  0.00    -0.061 A 
ATOM      8  C   LIG d   1       3.256   0.120  -2.312  0.00  0.00    -0.058 A 
ATOM      9  C   LIG d   1       3.476  -1.143  -2.830  0.00  0.00    -0.019 A 
ATOM     10  C   LIG d   1       4.737  -1.492  -3.280  0.00  0.00     0.129 A 
ATOM     11  O   LIG d   1       4.985  -2.720  -3.797  0.00  0.00    -0.484 OA
ATOM     12  H   LIG d   1       7.997  -0.391  -3.420  0.00  0.00     0.063 H 
ATOM     13  H   LIG d   1       6.355   1.432  -2.610  0.00  0.00     0.062 H 
ATOM     14  H   LIG d   1       4.102   2.022  -1.818  0.00  0.00     0.062 H 
ATOM     15  H   LIG d   1       2.269   0.391  -1.966  0.00  0.00     0.062 H 
ATOM     16  H   LIG d   1       2.666  -1.854  -2.887  0.00  0.00     0.065 H 
ENDROOT
BRANCH   3  17
ATOM     17  C   LIG d   1       8.449  -2.492  -4.959  0.00  0.00    -0.009 C 
ATOM     18  C   LIG d   1       9.128  -3.474  -4.297  0.00  0.00     0.176 A 
ATOM     19  O   LIG d   1       8.658  -4.191  -3.249  0.00  0.00    -0.451 OA
ATOM     20  C   LIG d   1      10.444  -3.921  -4.595  0.00  0.00     0.231 A 
ATOM     21  C   LIG d   1       9.571  -5.088  -2.816  0.00  0.00     0.143 A 
ATOM     22  C   LIG d   1      10.725  -4.978  -3.609  0.00  0.00     0.068 A 
ATOM     23  C   LIG d   1       9.543  -6.023  -1.791  0.00  0.00     0.023 A 
ATOM     24  C   LIG d   1      11.827  -5.800  -3.368  0.00  0.00    -0.044 A 
ATOM     25  C   LIG d   1      11.784  -6.716  -2.356  0.00  0.00    -0.019 A 
ATOM     26  H   LIG d   1      12.712  -5.711  -3.981  0.00  0.00     0.063 H 
ATOM     27  C   LIG d   1      10.645  -6.832  -1.563  0.00  0.00     0.120 A 
ATOM     28  H   LIG d   1      12.638  -7.351  -2.168  0.00  0.00     0.065 H 
ATOM     29  H   LIG d   1       8.664  -6.121  -1.171  0.00  0.00     0.069 H 
ATOM     30  O   LIG d   1      11.184  -3.514  -5.476  0.00  0.00    -0.283 OA
ATOM     31  H   LIG d   1       8.871  -2.049  -5.849  0.00  0.00     0.066 H 
BRANCH  27  32
ATOM     32  O   LIG d   1      10.614  -7.746  -0.559  0.00  0.00    -0.507 OA
ATOM     33  H   LIG d   1      11.075  -8.571  -0.764  0.00  0.00     0.292 HD
ENDBRANCH  27  32
ENDBRANCH   3  17
BRANCH   1  34
ATOM     34  C   LIG d   1       5.352  -2.206  -6.126  0.00  0.00    -0.024 C 
ATOM     35  H   LIG d   1       5.754  -2.728  -6.994  0.00  0.00     0.027 H 
ATOM     36  H   LIG d   1       4.268  -2.310  -6.108  0.00  0.00     0.027 H 
ATOM     37  H   LIG d   1       5.615  -1.149  -6.185  0.00  0.00     0.027 H 
ENDBRANCH   1  34
TORSDOF 3
ENDMDL
MODEL 5
REMARK VINA RESULT:      -6.4      3.192      4.227
REMARK  3 active torsions:
REMARK  status: ('A' for Active; 'I' for Inactive)
REMARK    1  A    between atoms: C_1  and  C_2 
REMARK    2  A    between atoms: C_4  and  C_13 
REMARK    3  A    between atoms: C_20  and  O_24 
ROOT
ATOM      1  C   LIG d   1       5.647  -1.634  -5.844  0.00  0.00     0.122 C 
ATOM      2  H   LIG d   1       5.578  -2.419  -6.598  0.00  0.00     0.078 H 
ATOM      3  C   LIG d   1       6.507  -2.119  -4.704  0.00  0.00    -0.003 C 
ATOM      4  C   LIG d   1       6.298  -1.632  -3.449  0.00  0.00    -0.044 C 
ATOM      5  C   LIG d   1       5.215  -0.656  -3.263  0.00  0.00     0.017 A 
ATOM      6  C   LIG d   1       5.139   0.138  -2.119  0.00  0.00    -0.051 A 
ATOM      7  C   LIG d   1       4.105   1.042  -1.986  0.00  0.00    -0.061 A 
ATOM      8  C   LIG d   1       3.152   1.166  -2.986  0.00  0.00    -0.058 A 
ATOM      9  C   LIG d   1       3.215   0.382  -4.122  0.00  0.00    -0.019 A 
ATOM     10  C   LIG d   1       4.244  -0.530  -4.274  0.00  0.00     0.129 A 
ATOM     11  O   LIG d   1       4.337  -1.310  -5.378  0.00  0.00    -0.484 OA
ATOM     12  H   LIG d   1       6.909  -1.952  -2.618  0.00  0.00     0.063 H 
ATOM     13  H   LIG d   1       5.883   0.045  -1.341  0.00  0.00     0.062 H 
ATOM     14  H   LIG d   1       4.040   1.658  -1.102  0.00  0.00     0.062 H 
ATOM     15  H   LIG d   1       2.350   1.881  -2.873  0.00  0.00     0.062 H 
ATOM     16  H   LIG d   1       2.466   0.484  -4.893  0.00  0.00     0.065 H 
ENDROOT
BRANCH   3  17
ATOM     17  C   LIG d   1       7.516  -3.071  -4.935  0.00  0.00    -0.009 C 
ATOM     18  C   LIG d   1       7.186  -4.379  -5.150  0.00  0.00     0.176 A 
ATOM     19  O   LIG d   1       5.931  -4.865  -5.288  0.00  0.00    -0.451 OA
ATOM     20  C   LIG d   1       8.104  -5.458  -5.274  0.00  0.00     0.231 A 
ATOM     21  C   LIG d   1       5.938  -6.200  -5.490  0.00  0.00     0.143 A 
ATOM     22  C   LIG d   1       7.268  -6.651  -5.490  0.00  0.00     0.068 A 
ATOM     23  C   LIG d   1       4.914  -7.119  -5.681  0.00  0.00     0.023 A 
ATOM     24  C   LIG d   1       7.555  -8.004  -5.682  0.00  0.00    -0.044 A 
ATOM     25  C   LIG d   1       6.537  -8.895  -5.868  0.00  0.00    -0.019 A 
ATOM     26  H   LIG d   1       8.579  -8.344  -5.681  0.00  0.00     0.063 H 
ATOM     27  C   LIG d   1       5.214  -8.458  -5.869  0.00  0.00     0.120 A 
ATOM     28  H   LIG d   1       6.758  -9.942  -6.015  0.00  0.00     0.065 H 
ATOM     29  H   LIG d   1       3.886  -6.790  -5.683  0.00  0.00     0.069 H 
ATOM     30  O   LIG d   1       9.321  -5.407  -5.210  0.00  0.00    -0.283 OA
ATOM     31  H   LIG d   1       8.552  -2.767  -4.942  0.00  0.00     0.066 H 
BRANCH  27  32
ATOM     32  O   LIG d   1       4.210  -9.353  -6.055  0.00  0.00    -0.507 OA
ATOM     33  H   LIG d   1       3.550  -9.357  -5.348  0.00  0.00     0.292 HD
ENDBRANCH  27  32
ENDBRANCH   3  17
BRANCH   1  34
ATOM     34  C   LIG d   1       6.287  -0.391  -6.464  0.00  0.00    -0.024 C 
ATOM     35  H   LIG d   1       5.508   0.320  -6.739  0.00  0.00     0.027 H 
ATOM     36  H   LIG d   1       6.962   0.069  -5.743  0.00  0.00     0.027 H 
ATOM     37  H   LIG d   1       6.847  -0.678  -7.355  0.00  0.00     0.027 H 
ENDBRANCH   1  34
TORSDOF 3
ENDMDL
MODEL 6
REMARK VINA RESULT:      -6.4      4.801      9.669
REMARK  3 active torsions:
REMARK  status: ('A' for Active; 'I' for Inactive)
REMARK    1  A    between atoms: C_1  and  C_2 
REMARK    2  A    between atoms: C_4  and  C_13 
REMARK    3  A    between atoms: C_20  and  O_24 
ROOT
ATOM      1  C   LIG d   1       7.605  -0.187  -5.364  0.00  0.00     0.122 C 
ATOM      2  H   LIG d   1       8.553  -0.461  -5.825  0.00  0.00     0.078 H 
ATOM      3  C   LIG d   1       7.667   1.253  -4.922  0.00  0.00    -0.003 C 
ATOM      4  C   LIG d   1       6.917   1.664  -3.862  0.00  0.00    -0.044 C 
ATOM      5  C   LIG d   1       6.084   0.664  -3.180  0.00  0.00     0.017 A 
ATOM      6  C   LIG d   1       5.050   1.040  -2.324  0.00  0.00    -0.051 A 
ATOM      7  C   LIG d   1       4.293   0.066  -1.705  0.00  0.00    -0.061 A 
ATOM      8  C   LIG d   1       4.554  -1.276  -1.937  0.00  0.00    -0.058 A 
ATOM      9  C   LIG d   1       5.579  -1.660  -2.781  0.00  0.00    -0.019 A 
ATOM     10  C   LIG d   1       6.349  -0.698  -3.411  0.00  0.00     0.129 A 
ATOM     11  O   LIG d   1       7.359  -1.041  -4.247  0.00  0.00    -0.484 OA
ATOM     12  H   LIG d   1       6.933   2.694  -3.535  0.00  0.00     0.063 H 
ATOM     13  H   LIG d   1       4.842   2.084  -2.145  0.00  0.00     0.062 H 
ATOM     14  H   LIG d   1       3.491   0.350  -1.040  0.00  0.00     0.062 H 
ATOM     15  H   LIG d   1       3.951  -2.029  -1.451  0.00  0.00     0.062 H 
ATOM     16  H   LIG d   1       5.776  -2.707  -2.952  0.00  0.00     0.065 H 
ENDROOT
BRANCH   3  17
ATOM     17  C   LIG d   1       8.498   2.165  -5.599  0.00  0.00    -0.009 C 
ATOM     18  C   LIG d   1       9.168   3.127  -4.899  0.00  0.00     0.176 A 
ATOM     19  O   LIG d   1       9.217   3.235  -3.551  0.00  0.00    -0.451 OA
ATOM     20  C   LIG d   1       9.938   4.180  -5.464  0.00  0.00     0.231 A 
ATOM     21  C   LIG d   1       9.963   4.294  -3.167  0.00  0.00     0.143 A 
ATOM     22  C   LIG d   1      10.450   4.944  -4.313  0.00  0.00     0.068 A 
ATOM     23  C   LIG d   1      10.293   4.795  -1.915  0.00  0.00     0.023 A 
ATOM     24  C   LIG d   1      11.255   6.078  -4.193  0.00  0.00    -0.044 A 
ATOM     25  C   LIG d   1      11.571   6.559  -2.954  0.00  0.00    -0.019 A 
ATOM     26  H   LIG d   1      11.626   6.573  -5.077  0.00  0.00     0.063 H 
ATOM     27  C   LIG d   1      11.093   5.922  -1.811  0.00  0.00     0.120 A 
ATOM     28  H   LIG d   1      12.193   7.437  -2.860  0.00  0.00     0.065 H 
ATOM     29  H   LIG d   1       9.928   4.308  -1.024  0.00  0.00     0.069 H 
ATOM     30  O   LIG d   1      10.131   4.405  -6.648  0.00  0.00    -0.283 OA
ATOM     31  H   LIG d   1       8.605   2.103  -6.671  0.00  0.00     0.066 H 
BRANCH  27  32
ATOM     32  O   LIG d   1      11.414   6.409  -0.586  0.00  0.00    -0.507 OA
ATOM     33  H   LIG d   1      10.664   6.466   0.024  0.00  0.00     0.292 HD
ENDBRANCH  27  32
ENDBRANCH   3  17
BRANCH   1  34
ATOM     34  C   LIG d   1       6.478  -0.352  -6.386  0.00  0.00    -0.024 C 
ATOM     35  H   LIG d   1       6.408  -1.398  -6.684  0.00  0.00     0.027 H 
ATOM     36  H   LIG d   1       5.535  -0.036  -5.942  0.00  0.00     0.027 H 
ATOM     37  H   LIG d   1       6.692   0.261  -7.262  0.00  0.00     0.027 H 
ENDBRANCH   1  34
TORSDOF 3
ENDMDL
MODEL 7
REMARK VINA RESULT:      -6.4      3.656      6.749
REMARK  3 active torsions:
REMARK  status: ('A' for Active; 'I' for Inactive)
REMARK    1  A    between atoms: C_1  and  C_2 
REMARK    2  A    between atoms: C_4  and  C_13 
REMARK    3  A    between atoms: C_20  and  O_24 
ROOT
ATOM      1  C   LIG d   1       9.625  -4.729  -3.541  0.00  0.00     0.122 C 
ATOM      2  H   LIG d   1       9.161  -5.708  -3.663  0.00  0.00     0.078 H 
ATOM      3  C   LIG d   1       8.904  -3.729  -4.409  0.00  0.00    -0.003 C 
ATOM      4  C   LIG d   1       9.576  -2.647  -4.890  0.00  0.00    -0.044 C 
ATOM      5  C   LIG d   1      10.999  -2.515  -4.548  0.00  0.00     0.017 A 
ATOM      6  C   LIG d   1      11.676  -1.305  -4.701  0.00  0.00    -0.051 A 
ATOM      7  C   LIG d   1      13.013  -1.227  -4.367  0.00  0.00    -0.061 A 
ATOM      8  C   LIG d   1      13.677  -2.340  -3.877  0.00  0.00    -0.058 A 
ATOM      9  C   LIG d   1      13.018  -3.545  -3.725  0.00  0.00    -0.019 A 
ATOM     10  C   LIG d   1      11.678  -3.644  -4.054  0.00  0.00     0.129 A 
ATOM     11  O   LIG d   1      11.002  -4.810  -3.912  0.00  0.00    -0.484 OA
ATOM     12  H   LIG d   1       9.079  -1.908  -5.501  0.00  0.00     0.063 H 
ATOM     13  H   LIG d   1      11.159  -0.435  -5.079  0.00  0.00     0.062 H 
ATOM     14  H   LIG d   1      13.542  -0.293  -4.484  0.00  0.00     0.062 H 
ATOM     15  H   LIG d   1      14.723  -2.265  -3.614  0.00  0.00     0.062 H 
ATOM     16  H   LIG d   1      13.546  -4.407  -3.346  0.00  0.00     0.065 H 
ENDROOT
BRANCH   3  17
ATOM     17  C   LIG d   1       7.545  -3.916  -4.722  0.00  0.00    -0.009 C 
ATOM     18  C   LIG d   1       6.607  -3.052  -4.234  0.00  0.00     0.176 A 
ATOM     19  O   LIG d   1       6.861  -1.915  -3.545  0.00  0.00    -0.451 OA
ATOM     20  C   LIG d   1       5.199  -3.191  -4.370  0.00  0.00     0.231 A 
ATOM     21  C   LIG d   1       5.720  -1.281  -3.200  0.00  0.00     0.143 A 
ATOM     22  C   LIG d   1       4.627  -2.023  -3.679  0.00  0.00     0.068 A 
ATOM     23  C   LIG d   1       5.483  -0.105  -2.502  0.00  0.00     0.023 A 
ATOM     24  C   LIG d   1       3.323  -1.581  -3.456  0.00  0.00    -0.044 A 
ATOM     25  C   LIG d   1       3.106  -0.421  -2.767  0.00  0.00    -0.019 A 
ATOM     26  H   LIG d   1       2.487  -2.155  -3.826  0.00  0.00     0.063 H 
ATOM     27  C   LIG d   1       4.182   0.322  -2.288  0.00  0.00     0.120 A 
ATOM     28  H   LIG d   1       2.096  -0.079  -2.593  0.00  0.00     0.065 H 
ATOM     29  H   LIG d   1       6.311   0.478  -2.127  0.00  0.00     0.069 H 
ATOM     30  O   LIG d   1       4.593  -4.088  -4.934  0.00  0.00    -0.283 OA
ATOM     31  H   LIG d   1       7.245  -4.742  -5.349  0.00  0.00     0.066 H 
BRANCH  27  32
ATOM     32  O   LIG d   1       3.954   1.472  -1.605  0.00  0.00    -0.507 OA
ATOM     33  H   LIG d   1       3.047   1.800  -1.676  0.00  0.00     0.292 HD
ENDBRANCH  27  32
ENDBRANCH   3  17
BRANCH   1  34
ATOM     34  C   LIG d   1       9.519  -4.296  -2.078  0.00  0.00    -0.024 C 
ATOM     35  H   LIG d   1       8.971  -5.050  -1.515  0.00  0.00     0.027 H 
ATOM     36  H   LIG d   1      10.519  -4.184  -1.658  0.00  0.00     0.027 H 
ATOM     37  H   LIG d   1       8.991  -3.344  -2.019  0.00  0.00     0.027 H 
ENDBRANCH   1  34
TORSDOF 3
ENDMDL
MODEL 8
REMARK VINA RESULT:      -6.4      5.138      8.422
REMARK  3 active torsions:
REMARK  status: ('A' for Active; 'I' for Inactive)
REMARK    1  A    between atoms: C_1  and  C_2 
REMARK    2  A    between atoms: C_4  and  C_13 
REMARK    3  A    between atoms: C_20  and  O_24 
ROOT
ATOM      1  C   LIG d   1       9.532   5.177  -4.575  0.00  0.00     0.122 C 
ATOM      2  H   LIG d   1       8.796   4.952  -5.346  0.00  0.00     0.078 H 
ATOM      3  C   LIG d   1       9.889   3.906  -3.846  0.00  0.00    -0.003 C 
ATOM      4  C   LIG d   1      10.292   3.966  -2.547  0.00  0.00    -0.044 C 
ATOM      5  C   LIG d   1      10.343   5.286  -1.903  0.00  0.00     0.017 A 
ATOM      6  C   LIG d   1      11.046   5.492  -0.716  0.00  0.00    -0.051 A 
ATOM      7  C   LIG d   1      11.066   6.749  -0.148  0.00  0.00    -0.061 A 
ATOM      8  C   LIG d   1      10.399   7.802  -0.754  0.00  0.00    -0.058 A 
ATOM      9  C   LIG d   1       9.696   7.609  -1.928  0.00  0.00    -0.019 A 
ATOM     10  C   LIG d   1       9.663   6.357  -2.514  0.00  0.00     0.129 A 
ATOM     11  O   LIG d   1       8.987   6.135  -3.667  0.00  0.00    -0.484 OA
ATOM     12  H   LIG d   1      10.568   3.072  -2.007  0.00  0.00     0.063 H 
ATOM     13  H   LIG d   1      11.569   4.673  -0.245  0.00  0.00     0.062 H 
ATOM     14  H   LIG d   1      11.608   6.914   0.772  0.00  0.00     0.062 H 
ATOM     15  H   LIG d   1      10.427   8.783  -0.302  0.00  0.00     0.062 H 
ATOM     16  H   LIG d   1       9.177   8.435  -2.390  0.00  0.00     0.065 H 
ENDROOT
BRANCH   3  17
ATOM     17  C   LIG d   1       9.803   2.666  -4.505  0.00  0.00    -0.009 C 
ATOM     18  C   LIG d   1       8.759   1.825  -4.243  0.00  0.00     0.176 A 
ATOM     19  O   LIG d   1       7.685   2.113  -3.472  0.00  0.00    -0.451 OA
ATOM     20  C   LIG d   1       8.614   0.501  -4.742  0.00  0.00     0.231 A 
ATOM     21  C   LIG d   1       6.828   1.071  -3.410  0.00  0.00     0.143 A 
ATOM     22  C   LIG d   1       7.343   0.015  -4.180  0.00  0.00     0.068 A 
ATOM     23  C   LIG d   1       5.616   0.900  -2.755  0.00  0.00     0.023 A 
ATOM     24  C   LIG d   1       6.643  -1.188  -4.284  0.00  0.00    -0.044 A 
ATOM     25  C   LIG d   1       5.452  -1.341  -3.634  0.00  0.00    -0.019 A 
ATOM     26  H   LIG d   1       7.044  -1.997  -4.877  0.00  0.00     0.063 H 
ATOM     27  C   LIG d   1       4.933  -0.300  -2.867  0.00  0.00     0.120 A 
ATOM     28  H   LIG d   1       4.910  -2.272  -3.713  0.00  0.00     0.065 H 
ATOM     29  H   LIG d   1       5.206   1.701  -2.159  0.00  0.00     0.069 H 
ATOM     30  O   LIG d   1       9.381  -0.104  -5.474  0.00  0.00    -0.283 OA
ATOM     31  H   LIG d   1      10.562   2.380  -5.216  0.00  0.00     0.066 H 
BRANCH  27  32
ATOM     32  O   LIG d   1       3.748  -0.463  -2.225  0.00  0.00    -0.507 OA
ATOM     33  H   LIG d   1       3.294   0.367  -2.020  0.00  0.00     0.292 HD
ENDBRANCH  27  32
ENDBRANCH   3  17
BRANCH   1  34
ATOM     34  C   LIG d   1      10.789   5.755  -5.227  0.00  0.00    -0.024 C 
ATOM     35  H   LIG d   1      11.511   4.956  -5.393  0.00  0.00     0.027 H 
ATOM     36  H   LIG d   1      10.526   6.212  -6.181  0.00  0.00     0.027 H 
ATOM     37  H   LIG d   1      11.225   6.508  -4.570  0.00  0.00     0.027 H 
ENDBRANCH   1  34
TORSDOF 3
ENDMDL
MODEL 9
REMARK VINA RESULT:      -6.3      4.949      7.554
REMARK  3 active torsions:
REMARK  status: ('A' for Active; 'I' for Inactive)
REMARK    1  A    between atoms: C_1  and  C_2 
REMARK    2  A    between atoms: C_4  and  C_13 
REMARK    3  A    between atoms: C_20  and  O_24 
ROOT
ATOM      1  C   LIG d   1       7.609  -0.420  -3.892  0.00  0.00     0.122 C 
ATOM      2  H   LIG d   1       8.657  -0.652  -3.701  0.00  0.00     0.078 H 
ATOM      3  C   LIG d   1       7.357   1.030  -3.567  0.00  0.00    -0.003 C 
ATOM      4  C   LIG d   1       6.118   1.423  -3.163  0.00  0.00    -0.044 C 
ATOM      5  C   LIG d   1       5.075   0.395  -3.045  0.00  0.00     0.017 A 
ATOM      6  C   LIG d   1       3.724   0.733  -2.970  0.00  0.00    -0.051 A 
ATOM      7  C   LIG d   1       2.779  -0.267  -2.860  0.00  0.00    -0.061 A 
ATOM      8  C   LIG d   1       3.168  -1.598  -2.831  0.00  0.00    -0.058 A 
ATOM      9  C   LIG d   1       4.504  -1.944  -2.901  0.00  0.00    -0.019 A 
ATOM     10  C   LIG d   1       5.467  -0.956  -3.012  0.00  0.00     0.129 A 
ATOM     11  O   LIG d   1       6.785  -1.262  -3.086  0.00  0.00    -0.484 OA
ATOM     12  H   LIG d   1       5.907   2.459  -2.938  0.00  0.00     0.063 H 
ATOM     13  H   LIG d   1       3.419   1.768  -2.996  0.00  0.00     0.062 H 
ATOM     14  H   LIG d   1       1.731  -0.012  -2.800  0.00  0.00     0.062 H 
ATOM     15  H   LIG d   1       2.418  -2.371  -2.750  0.00  0.00     0.062 H 
ATOM     16  H   LIG d   1       4.797  -2.982  -2.874  0.00  0.00     0.065 H 
ENDROOT
BRANCH   3  17
ATOM     17  C   LIG d   1       8.398   1.971  -3.678  0.00  0.00    -0.009 C 
ATOM     18  C   LIG d   1       8.784   2.420  -4.908  0.00  0.00     0.176 A 
ATOM     19  O   LIG d   1       8.172   2.137  -6.081  0.00  0.00    -0.451 OA
ATOM     20  C   LIG d   1       9.893   3.270  -5.171  0.00  0.00     0.231 A 
ATOM     21  C   LIG d   1       8.797   2.733  -7.120  0.00  0.00     0.143 A 
ATOM     22  C   LIG d   1       9.893   3.462  -6.631  0.00  0.00     0.068 A 
ATOM     23  C   LIG d   1       8.540   2.734  -8.484  0.00  0.00     0.023 A 
ATOM     24  C   LIG d   1      10.711   4.178  -7.507  0.00  0.00    -0.044 A 
ATOM     25  C   LIG d   1      10.446   4.169  -8.846  0.00  0.00    -0.019 A 
ATOM     26  H   LIG d   1      11.553   4.736  -7.125  0.00  0.00     0.063 H 
ATOM     27  C   LIG d   1       9.361   3.448  -9.342  0.00  0.00     0.120 A 
ATOM     28  H   LIG d   1      11.079   4.721  -9.525  0.00  0.00     0.065 H 
ATOM     29  H   LIG d   1       7.701   2.179  -8.877  0.00  0.00     0.069 H 
ATOM     30  O   LIG d   1      10.678   3.737  -4.362  0.00  0.00    -0.283 OA
ATOM     31  H   LIG d   1       8.891   2.336  -2.789  0.00  0.00     0.066 H 
BRANCH  27  32
ATOM     32  O   LIG d   1       9.107   3.446 -10.675  0.00  0.00    -0.507 OA
ATOM     33  H   LIG d   1       9.888   3.294 -11.224  0.00  0.00     0.292 HD
ENDBRANCH  27  32
ENDBRANCH   3  17
BRANCH   1  34
ATOM     34  C   LIG d   1       7.297  -0.668  -5.369  0.00  0.00    -0.024 C 
ATOM     35  H   LIG d   1       6.311  -0.268  -5.604  0.00  0.00     0.027 H 
ATOM     36  H   LIG d   1       8.047  -0.174  -5.987  0.00  0.00     0.027 H 
ATOM     37  H   LIG d   1       7.310  -1.740  -5.567  0.00  0.00     0.027 H 
ENDBRANCH   1  34
TORSDOF 3
ENDMDL
