MODEL 1
REMARK VINA RESULT:      -7.3      0.000      0.000
REMARK  7 active torsions:
REMARK  status: ('A' for Active; 'I' for Inactive)
REMARK    1  A    between atoms: C_1  and  O_2 
REMARK    2  A    between atoms: O_2  and  C_3 
REMARK    3  A    between atoms: C_3  and  C_4 
REMARK    4  A    between atoms: C_4  and  C_5 
REMARK       I    between atoms: C_5  and  N_7 
REMARK    5  A    between atoms: N_7  and  C_8 
REMARK    6  A    between atoms: C_23  and  C_24 
REMARK    7  A    between atoms: C_23  and  N_61 
ROOT
ATOM      1  C   LIG d   1       3.637  -0.429  -7.285  0.00  0.00     0.099 A 
ATOM      2  C   LIG d   1       4.340  -1.603  -7.299  0.00  0.00    -0.034 A 
ATOM      3  C   LIG d   1       4.681  -2.200  -6.079  0.00  0.00    -0.040 A 
ATOM      4  C   LIG d   1       4.304  -1.638  -4.902  0.00  0.00     0.030 A 
ATOM      5  N   LIG d   1       3.540  -0.516  -4.885  0.00  0.00    -0.310 N 
ATOM      6  C   LIG d   1       3.259   0.126  -6.047  0.00  0.00     0.273 A 
ATOM      7  O   LIG d   1       2.672   1.196  -6.020  0.00  0.00    -0.266 OA
ATOM      8  C   LIG d   1       2.970   0.052  -3.663  0.00  0.00     0.034 C 
ATOM      9  C   LIG d   1       3.648  -0.474  -2.409  0.00  0.00     0.018 C 
ATOM     10  H   LIG d   1       3.008  -0.236  -1.560  0.00  0.00     0.037 H 
ATOM     11  C   LIG d   1       3.780  -1.997  -2.502  0.00  0.00    -0.031 C 
ATOM     12  C   LIG d   1       4.772  -2.307  -3.629  0.00  0.00     0.040 C 
ATOM     13  H   LIG d   1       4.869  -3.384  -3.766  0.00  0.00     0.042 H 
ATOM     14  C   LIG d   1       6.127  -1.687  -3.253  0.00  0.00    -0.024 C 
ATOM     15  C   LIG d   1       5.005   0.175  -2.183  0.00  0.00    -0.027 C 
ATOM     16  H   LIG d   1       4.628  -2.061  -8.234  0.00  0.00     0.064 H 
ATOM     17  H   LIG d   1       5.250  -3.118  -6.073  0.00  0.00     0.064 H 
ATOM     18  H   LIG d   1       1.910  -0.195  -3.620  0.00  0.00     0.050 H 
ATOM     19  H   LIG d   1       3.078   1.136  -3.694  0.00  0.00     0.050 H 
ATOM     20  H   LIG d   1       2.810  -2.438  -2.730  0.00  0.00     0.028 H 
ATOM     21  H   LIG d   1       4.154  -2.394  -1.559  0.00  0.00     0.028 H 
ATOM     22  H   LIG d   1       6.438  -2.046  -2.272  0.00  0.00     0.082 H 
ATOM     23  H   LIG d   1       6.876  -1.957  -3.998  0.00  0.00     0.082 H 
ATOM     24  H   LIG d   1       5.386  -0.126  -1.208  0.00  0.00     0.082 H 
ATOM     25  H   LIG d   1       4.890   1.259  -2.202  0.00  0.00     0.082 H 
ATOM     26  N   LIG d   1       5.955  -0.216  -3.246  0.00  0.00     0.236 N 
ATOM     27  H   LIG d   1       5.578   0.079  -4.154  0.00  0.00     0.203 HD
ENDROOT
BRANCH  26  28
ATOM     28  C   LIG d   1       7.256   0.446  -3.027  0.00  0.00    -0.029 C 
ATOM     29  H   LIG d   1       7.237   0.954  -2.064  0.00  0.00     0.082 H 
ATOM     30  H   LIG d   1       8.041  -0.311  -3.023  0.00  0.00     0.082 H 
BRANCH  28  31
ATOM     31  C   LIG d   1       7.535   1.464  -4.135  0.00  0.00    -0.001 C 
ATOM     32  C   LIG d   1       8.726   2.338  -3.737  0.00  0.00    -0.045 C 
ATOM     33  C   LIG d   1       9.003   3.356  -4.844  0.00  0.00    -0.053 C 
ATOM     34  H   LIG d   1       8.497   2.863  -2.810  0.00  0.00     0.027 H 
ATOM     35  H   LIG d   1       9.604   1.711  -3.592  0.00  0.00     0.027 H 
ATOM     36  C   LIG d   1       9.325   2.619  -6.146  0.00  0.00    -0.053 C 
ATOM     37  H   LIG d   1       8.125   3.984  -4.990  0.00  0.00     0.026 H 
ATOM     38  H   LIG d   1       9.852   3.979  -4.561  0.00  0.00     0.026 H 
ATOM     39  C   LIG d   1       8.134   1.745  -6.544  0.00  0.00    -0.053 C 
ATOM     40  H   LIG d   1       9.522   3.344  -6.936  0.00  0.00     0.026 H 
ATOM     41  H   LIG d   1      10.203   1.991  -6.001  0.00  0.00     0.026 H 
ATOM     42  C   LIG d   1       7.855   0.727  -5.437  0.00  0.00    -0.045 C 
ATOM     43  H   LIG d   1       7.254   2.373  -6.690  0.00  0.00     0.026 H 
ATOM     44  H   LIG d   1       8.363   1.219  -7.471  0.00  0.00     0.026 H 
ATOM     45  H   LIG d   1       8.734   0.099  -5.292  0.00  0.00     0.027 H 
ATOM     46  H   LIG d   1       7.007   0.104  -5.721  0.00  0.00     0.027 H 
ATOM     47  H   LIG d   1       6.655   2.092  -4.281  0.00  0.00     0.035 H 
ENDBRANCH  28  31
ENDBRANCH  26  28
BRANCH   1  48
ATOM     48  N   LIG d   1       3.298   0.210  -8.485  0.00  0.00    -0.281 N 
ATOM     49  C   LIG d   1       4.120   1.140  -9.009  0.00  0.00     0.220 C 
ATOM     50  O   LIG d   1       5.107   1.491  -8.397  0.00  0.00    -0.275 OA
ATOM     51  H   LIG d   1       2.471  -0.018  -8.938  0.00  0.00     0.155 HD
BRANCH  49  52
ATOM     52  C   LIG d   1       3.813   1.745 -10.354  0.00  0.00     0.048 C 
ATOM     53  H   LIG d   1       2.789   2.120 -10.360  0.00  0.00     0.038 H 
ATOM     54  H   LIG d   1       4.501   2.567 -10.550  0.00  0.00     0.038 H 
BRANCH  52  55
ATOM     55  C   LIG d   1       3.971   0.679 -11.441  0.00  0.00     0.056 C 
ATOM     56  H   LIG d   1       4.009   1.159 -12.418  0.00  0.00     0.056 H 
ATOM     57  H   LIG d   1       4.892   0.123 -11.272  0.00  0.00     0.056 H 
BRANCH  55  58
ATOM     58  O   LIG d   1       2.858  -0.217 -11.394  0.00  0.00    -0.383 OA
BRANCH  58  59
ATOM     59  C   LIG d   1       2.849  -1.187 -12.443  0.00  0.00     0.036 C 
ATOM     60  H   LIG d   1       2.966  -0.686 -13.403  0.00  0.00     0.052 H 
ATOM     61  H   LIG d   1       3.670  -1.889 -12.297  0.00  0.00     0.052 H 
ATOM     62  H   LIG d   1       1.903  -1.729 -12.429  0.00  0.00     0.052 H 
ENDBRANCH  58  59
ENDBRANCH  55  58
ENDBRANCH  52  55
ENDBRANCH  49  52
ENDBRANCH   1  48
TORSDOF 7
ENDMDL
MODEL 2
REMARK VINA RESULT:      -6.4      2.418      5.514
REMARK  7 active torsions:
REMARK  status: ('A' for Active; 'I' for Inactive)
REMARK    1  A    between atoms: C_1  and  O_2 
REMARK    2  A    between atoms: O_2  and  C_3 
REMARK    3  A    between atoms: C_3  and  C_4 
REMARK    4  A    between atoms: C_4  and  C_5 
REMARK       I    between atoms: C_5  and  N_7 
REMARK    5  A    between atoms: N_7  and  C_8 
REMARK    6  A    between atoms: C_23  and  C_24 
REMARK    7  A    between atoms: C_23  and  N_61 
ROOT
ATOM      1  C   LIG d   1       8.091  -0.039  -4.897  0.00  0.00     0.099 A 
ATOM      2  C   LIG d   1       7.930   1.198  -4.335  0.00  0.00    -0.034 A 
ATOM      3  C   LIG d   1       6.855   1.409  -3.464  0.00  0.00    -0.040 A 
ATOM      4  C   LIG d   1       5.997   0.401  -3.164  0.00  0.00     0.030 A 
ATOM      5  N   LIG d   1       6.197  -0.848  -3.658  0.00  0.00    -0.310 N 
ATOM      6  C   LIG d   1       7.185  -1.064  -4.562  0.00  0.00     0.273 A 
ATOM      7  O   LIG d   1       7.290  -2.159  -5.092  0.00  0.00    -0.266 OA
ATOM      8  C   LIG d   1       5.407  -2.010  -3.253  0.00  0.00     0.034 C 
ATOM      9  C   LIG d   1       4.107  -1.618  -2.572  0.00  0.00     0.018 C 
ATOM     10  H   LIG d   1       3.719  -2.499  -2.061  0.00  0.00     0.037 H 
ATOM     11  C   LIG d   1       4.386  -0.537  -1.524  0.00  0.00    -0.031 C 
ATOM     12  C   LIG d   1       4.822   0.730  -2.271  0.00  0.00     0.040 C 
ATOM     13  H   LIG d   1       5.076   1.520  -1.565  0.00  0.00     0.042 H 
ATOM     14  C   LIG d   1       3.661   1.169  -3.179  0.00  0.00    -0.024 C 
ATOM     15  C   LIG d   1       3.063  -1.146  -3.573  0.00  0.00    -0.027 C 
ATOM     16  H   LIG d   1       8.621   1.998  -4.560  0.00  0.00     0.064 H 
ATOM     17  H   LIG d   1       6.706   2.385  -3.026  0.00  0.00     0.064 H 
ATOM     18  H   LIG d   1       5.996  -2.616  -2.564  0.00  0.00     0.050 H 
ATOM     19  H   LIG d   1       5.177  -2.606  -4.136  0.00  0.00     0.050 H 
ATOM     20  H   LIG d   1       5.183  -0.866  -0.857  0.00  0.00     0.028 H 
ATOM     21  H   LIG d   1       3.482  -0.336  -0.949  0.00  0.00     0.028 H 
ATOM     22  H   LIG d   1       2.754   1.289  -2.586  0.00  0.00     0.082 H 
ATOM     23  H   LIG d   1       3.910   2.112  -3.665  0.00  0.00     0.082 H 
ATOM     24  H   LIG d   1       2.112  -1.010  -3.059  0.00  0.00     0.082 H 
ATOM     25  H   LIG d   1       2.944  -1.901  -4.349  0.00  0.00     0.082 H 
ATOM     26  N   LIG d   1       3.483   0.120  -4.209  0.00  0.00     0.236 N 
ATOM     27  H   LIG d   1       4.378  -0.029  -4.689  0.00  0.00     0.203 HD
ENDROOT
BRANCH  26  28
ATOM     28  C   LIG d   1       2.474   0.548  -5.198  0.00  0.00    -0.029 C 
ATOM     29  H   LIG d   1       1.524   0.067  -4.963  0.00  0.00     0.082 H 
ATOM     30  H   LIG d   1       2.357   1.630  -5.138  0.00  0.00     0.082 H 
BRANCH  28  31
ATOM     31  C   LIG d   1       2.907   0.158  -6.612  0.00  0.00    -0.001 C 
ATOM     32  C   LIG d   1       2.768   1.367  -7.540  0.00  0.00    -0.045 C 
ATOM     33  C   LIG d   1       3.201   0.976  -8.954  0.00  0.00    -0.053 C 
ATOM     34  H   LIG d   1       1.729   1.694  -7.556  0.00  0.00     0.027 H 
ATOM     35  H   LIG d   1       3.399   2.177  -7.178  0.00  0.00     0.027 H 
ATOM     36  C   LIG d   1       4.660   0.516  -8.932  0.00  0.00    -0.053 C 
ATOM     37  H   LIG d   1       2.570   0.165  -9.317  0.00  0.00     0.026 H 
ATOM     38  H   LIG d   1       3.102   1.837  -9.615  0.00  0.00     0.026 H 
ATOM     39  C   LIG d   1       4.800  -0.692  -8.005  0.00  0.00    -0.053 C 
ATOM     40  H   LIG d   1       4.969   0.238  -9.940  0.00  0.00     0.026 H 
ATOM     41  H   LIG d   1       5.291   1.327  -8.569  0.00  0.00     0.026 H 
ATOM     42  C   LIG d   1       4.366  -0.302  -6.590  0.00  0.00    -0.045 C 
ATOM     43  H   LIG d   1       4.169  -1.504  -8.367  0.00  0.00     0.026 H 
ATOM     44  H   LIG d   1       5.840  -1.020  -7.988  0.00  0.00     0.026 H 
ATOM     45  H   LIG d   1       4.997   0.508  -6.227  0.00  0.00     0.027 H 
ATOM     46  H   LIG d   1       4.466  -1.164  -5.929  0.00  0.00     0.027 H 
ATOM     47  H   LIG d   1       2.276  -0.654  -6.975  0.00  0.00     0.035 H 
ENDBRANCH  28  31
ENDBRANCH  26  28
BRANCH   1  48
ATOM     48  N   LIG d   1       9.142  -0.283  -5.792  0.00  0.00    -0.281 N 
ATOM     49  C   LIG d   1       9.038   0.108  -7.077  0.00  0.00     0.220 C 
ATOM     50  O   LIG d   1       8.000   0.588  -7.482  0.00  0.00    -0.275 OA
ATOM     51  H   LIG d   1       9.944  -0.733  -5.485  0.00  0.00     0.155 HD
BRANCH  49  52
ATOM     52  C   LIG d   1      10.210  -0.050  -8.010  0.00  0.00     0.048 C 
ATOM     53  H   LIG d   1      10.818  -0.897  -7.690  0.00  0.00     0.038 H 
ATOM     54  H   LIG d   1       9.847  -0.226  -9.023  0.00  0.00     0.038 H 
BRANCH  52  55
ATOM     55  C   LIG d   1      11.057   1.224  -7.986  0.00  0.00     0.056 C 
ATOM     56  H   LIG d   1      11.998   1.044  -8.505  0.00  0.00     0.056 H 
ATOM     57  H   LIG d   1      10.516   2.029  -8.481  0.00  0.00     0.056 H 
BRANCH  55  58
ATOM     58  O   LIG d   1      11.325   1.592  -6.631  0.00  0.00    -0.383 OA
BRANCH  58  59
ATOM     59  C   LIG d   1      11.138   2.982  -6.358  0.00  0.00     0.036 C 
ATOM     60  H   LIG d   1      11.909   3.325  -5.670  0.00  0.00     0.052 H 
ATOM     61  H   LIG d   1      11.204   3.547  -7.289  0.00  0.00     0.052 H 
ATOM     62  H   LIG d   1      10.156   3.135  -5.910  0.00  0.00     0.052 H 
ENDBRANCH  58  59
ENDBRANCH  55  58
ENDBRANCH  52  55
ENDBRANCH  49  52
ENDBRANCH   1  48
TORSDOF 7
ENDMDL
MODEL 3
REMARK VINA RESULT:      -6.3      2.672      6.301
REMARK  7 active torsions:
REMARK  status: ('A' for Active; 'I' for Inactive)
REMARK    1  A    between atoms: C_1  and  O_2 
REMARK    2  A    between atoms: O_2  and  C_3 
REMARK    3  A    between atoms: C_3  and  C_4 
REMARK    4  A    between atoms: C_4  and  C_5 
REMARK       I    between atoms: C_5  and  N_7 
REMARK    5  A    between atoms: N_7  and  C_8 
REMARK    6  A    between atoms: C_23  and  C_24 
REMARK    7  A    between atoms: C_23  and  N_61 
ROOT
ATOM      1  C   LIG d   1       8.114   0.665  -4.055  0.00  0.00     0.099 A 
ATOM      2  C   LIG d   1       7.082   1.430  -3.582  0.00  0.00    -0.034 A 
ATOM      3  C   LIG d   1       5.826   0.837  -3.413  0.00  0.00    -0.040 A 
ATOM      4  C   LIG d   1       5.634  -0.478  -3.692  0.00  0.00     0.030 A 
ATOM      5  N   LIG d   1       6.673  -1.258  -4.088  0.00  0.00    -0.310 N 
ATOM      6  C   LIG d   1       7.884  -0.696  -4.332  0.00  0.00     0.273 A 
ATOM      7  O   LIG d   1       8.783  -1.378  -4.798  0.00  0.00    -0.266 OA
ATOM      8  C   LIG d   1       6.573  -2.708  -4.253  0.00  0.00     0.034 C 
ATOM      9  C   LIG d   1       5.133  -3.182  -4.352  0.00  0.00     0.018 C 
ATOM     10  H   LIG d   1       5.125  -4.260  -4.193  0.00  0.00     0.037 H 
ATOM     11  C   LIG d   1       4.304  -2.525  -3.245  0.00  0.00    -0.031 C 
ATOM     12  C   LIG d   1       4.232  -1.024  -3.549  0.00  0.00     0.040 C 
ATOM     13  H   LIG d   1       3.687  -0.501  -2.764  0.00  0.00     0.042 H 
ATOM     14  C   LIG d   1       3.529  -0.848  -4.905  0.00  0.00    -0.024 C 
ATOM     15  C   LIG d   1       4.535  -2.895  -5.721  0.00  0.00    -0.027 C 
ATOM     16  H   LIG d   1       7.234   2.472  -3.344  0.00  0.00     0.064 H 
ATOM     17  H   LIG d   1       4.998   1.431  -3.056  0.00  0.00     0.064 H 
ATOM     18  H   LIG d   1       7.046  -3.195  -3.400  0.00  0.00     0.050 H 
ATOM     19  H   LIG d   1       7.103  -2.997  -5.161  0.00  0.00     0.050 H 
ATOM     20  H   LIG d   1       4.784  -2.685  -2.280  0.00  0.00     0.028 H 
ATOM     21  H   LIG d   1       3.299  -2.950  -3.234  0.00  0.00     0.028 H 
ATOM     22  H   LIG d   1       2.560  -1.347  -4.886  0.00  0.00     0.082 H 
ATOM     23  H   LIG d   1       3.391   0.213  -5.114  0.00  0.00     0.082 H 
ATOM     24  H   LIG d   1       3.558  -3.374  -5.790  0.00  0.00     0.082 H 
ATOM     25  H   LIG d   1       5.189  -3.306  -6.490  0.00  0.00     0.082 H 
ATOM     26  N   LIG d   1       4.406  -1.440  -5.940  0.00  0.00     0.236 N 
ATOM     27  H   LIG d   1       5.336  -1.009  -5.874  0.00  0.00     0.203 HD
ENDROOT
BRANCH  26  28
ATOM     28  C   LIG d   1       3.852  -1.179  -7.284  0.00  0.00    -0.029 C 
ATOM     29  H   LIG d   1       4.376  -1.802  -8.009  0.00  0.00     0.082 H 
ATOM     30  H   LIG d   1       2.793  -1.435  -7.285  0.00  0.00     0.082 H 
BRANCH  28  31
ATOM     31  C   LIG d   1       4.022   0.294  -7.659  0.00  0.00    -0.001 C 
ATOM     32  C   LIG d   1       5.118   0.428  -8.719  0.00  0.00    -0.045 C 
ATOM     33  C   LIG d   1       5.287   1.901  -9.094  0.00  0.00    -0.053 C 
ATOM     34  H   LIG d   1       6.056   0.044  -8.321  0.00  0.00     0.027 H 
ATOM     35  H   LIG d   1       4.839  -0.143  -9.604  0.00  0.00     0.027 H 
ATOM     36  C   LIG d   1       3.969   2.440  -9.653  0.00  0.00    -0.053 C 
ATOM     37  H   LIG d   1       5.567   2.472  -8.208  0.00  0.00     0.026 H 
ATOM     38  H   LIG d   1       6.068   1.996  -9.849  0.00  0.00     0.026 H 
ATOM     39  C   LIG d   1       2.874   2.307  -8.594  0.00  0.00    -0.053 C 
ATOM     40  H   LIG d   1       4.090   3.490  -9.920  0.00  0.00     0.026 H 
ATOM     41  H   LIG d   1       3.690   1.869 -10.539  0.00  0.00     0.026 H 
ATOM     42  C   LIG d   1       2.704   0.833  -8.219  0.00  0.00    -0.045 C 
ATOM     43  H   LIG d   1       3.153   2.878  -7.708  0.00  0.00     0.026 H 
ATOM     44  H   LIG d   1       1.934   2.690  -8.992  0.00  0.00     0.026 H 
ATOM     45  H   LIG d   1       2.424   0.263  -9.104  0.00  0.00     0.027 H 
ATOM     46  H   LIG d   1       1.923   0.738  -7.463  0.00  0.00     0.027 H 
ATOM     47  H   LIG d   1       4.301   0.865  -6.773  0.00  0.00     0.035 H 
ENDBRANCH  28  31
ENDBRANCH  26  28
BRANCH   1  48
ATOM     48  N   LIG d   1       9.381   1.228  -4.260  0.00  0.00    -0.281 N 
ATOM     49  C   LIG d   1       9.606   2.008  -5.336  0.00  0.00     0.220 C 
ATOM     50  O   LIG d   1       8.742   2.147  -6.175  0.00  0.00    -0.275 OA
ATOM     51  H   LIG d   1      10.095   1.058  -3.626  0.00  0.00     0.155 HD
BRANCH  49  52
ATOM     52  C   LIG d   1      10.932   2.705  -5.496  0.00  0.00     0.048 C 
ATOM     53  H   LIG d   1      11.733   2.043  -5.169  0.00  0.00     0.038 H 
ATOM     54  H   LIG d   1      11.082   2.966  -6.544  0.00  0.00     0.038 H 
BRANCH  52  55
ATOM     55  C   LIG d   1      10.945   3.978  -4.647  0.00  0.00     0.056 C 
ATOM     56  H   LIG d   1      11.960   4.369  -4.594  0.00  0.00     0.056 H 
ATOM     57  H   LIG d   1      10.291   4.723  -5.099  0.00  0.00     0.056 H 
BRANCH  55  58
ATOM     58  O   LIG d   1      10.482   3.676  -3.328  0.00  0.00    -0.383 OA
BRANCH  58  59
ATOM     59  C   LIG d   1      10.071   4.821  -2.580  0.00  0.00     0.036 C 
ATOM     60  H   LIG d   1      10.948   5.390  -2.275  0.00  0.00     0.052 H 
ATOM     61  H   LIG d   1       9.428   5.448  -3.198  0.00  0.00     0.052 H 
ATOM     62  H   LIG d   1       9.521   4.499  -1.695  0.00  0.00     0.052 H 
ENDBRANCH  58  59
ENDBRANCH  55  58
ENDBRANCH  52  55
ENDBRANCH  49  52
ENDBRANCH   1  48
TORSDOF 7
ENDMDL
MODEL 4
REMARK VINA RESULT:      -6.0      3.181      5.873
REMARK  7 active torsions:
REMARK  status: ('A' for Active; 'I' for Inactive)
REMARK    1  A    between atoms: C_1  and  O_2 
REMARK    2  A    between atoms: O_2  and  C_3 
REMARK    3  A    between atoms: C_3  and  C_4 
REMARK    4  A    between atoms: C_4  and  C_5 
REMARK       I    between atoms: C_5  and  N_7 
REMARK    5  A    between atoms: N_7  and  C_8 
REMARK    6  A    between atoms: C_23  and  C_24 
REMARK    7  A    between atoms: C_23  and  N_61 
ROOT
ATOM      1  C   LIG d   1       7.830  -1.529  -5.160  0.00  0.00     0.099 A 
ATOM      2  C   LIG d   1       8.078  -0.255  -4.727  0.00  0.00    -0.034 A 
ATOM      3  C   LIG d   1       7.180   0.341  -3.834  0.00  0.00    -0.040 A 
ATOM      4  C   LIG d   1       6.092  -0.337  -3.387  0.00  0.00     0.030 A 
ATOM      5  N   LIG d   1       5.884  -1.628  -3.753  0.00  0.00    -0.310 N 
ATOM      6  C   LIG d   1       6.695  -2.206  -4.675  0.00  0.00     0.273 A 
ATOM      7  O   LIG d   1       6.437  -3.325  -5.089  0.00  0.00    -0.266 OA
ATOM      8  C   LIG d   1       4.825  -2.464  -3.189  0.00  0.00     0.034 C 
ATOM      9  C   LIG d   1       3.750  -1.646  -2.494  0.00  0.00     0.018 C 
ATOM     10  H   LIG d   1       3.164  -2.325  -1.873  0.00  0.00     0.037 H 
ATOM     11  C   LIG d   1       4.410  -0.608  -1.582  0.00  0.00    -0.031 C 
ATOM     12  C   LIG d   1       5.135   0.402  -2.479  0.00  0.00     0.040 C 
ATOM     13  H   LIG d   1       5.660   1.141  -1.875  0.00  0.00     0.042 H 
ATOM     14  C   LIG d   1       4.085   1.082  -3.373  0.00  0.00    -0.024 C 
ATOM     15  C   LIG d   1       2.814  -0.977  -3.489  0.00  0.00    -0.027 C 
ATOM     16  H   LIG d   1       8.951   0.282  -5.068  0.00  0.00     0.064 H 
ATOM     17  H   LIG d   1       7.354   1.352  -3.496  0.00  0.00     0.064 H 
ATOM     18  H   LIG d   1       5.264  -3.154  -2.468  0.00  0.00     0.050 H 
ATOM     19  H   LIG d   1       4.365  -3.041  -3.991  0.00  0.00     0.050 H 
ATOM     20  H   LIG d   1       5.126  -1.098  -0.922  0.00  0.00     0.028 H 
ATOM     21  H   LIG d   1       3.649  -0.099  -0.990  0.00  0.00     0.028 H 
ATOM     22  H   LIG d   1       3.300   1.517  -2.755  0.00  0.00     0.082 H 
ATOM     23  H   LIG d   1       4.558   1.863  -3.968  0.00  0.00     0.082 H 
ATOM     24  H   LIG d   1       1.985  -0.522  -2.948  0.00  0.00     0.082 H 
ATOM     25  H   LIG d   1       2.422  -1.730  -4.173  0.00  0.00     0.082 H 
ATOM     26  N   LIG d   1       3.533   0.046  -4.275  0.00  0.00     0.236 N 
ATOM     27  H   LIG d   1       4.306  -0.403  -4.778  0.00  0.00     0.203 HD
ENDROOT
BRANCH  26  28
ATOM     28  C   LIG d   1       2.617   0.664  -5.255  0.00  0.00    -0.029 C 
ATOM     29  H   LIG d   1       1.593   0.394  -5.000  0.00  0.00     0.082 H 
ATOM     30  H   LIG d   1       2.730   1.747  -5.210  0.00  0.00     0.082 H 
BRANCH  28  31
ATOM     31  C   LIG d   1       2.936   0.177  -6.670  0.00  0.00    -0.001 C 
ATOM     32  C   LIG d   1       2.774   1.335  -7.658  0.00  0.00    -0.045 C 
ATOM     33  C   LIG d   1       3.092   0.847  -9.072  0.00  0.00    -0.053 C 
ATOM     34  H   LIG d   1       1.749   1.702  -7.622  0.00  0.00     0.027 H 
ATOM     35  H   LIG d   1       3.458   2.140  -7.388  0.00  0.00     0.027 H 
ATOM     36  C   LIG d   1       4.532   0.332  -9.122  0.00  0.00    -0.053 C 
ATOM     37  H   LIG d   1       2.409   0.043  -9.341  0.00  0.00     0.026 H 
ATOM     38  H   LIG d   1       2.977   1.672  -9.775  0.00  0.00     0.026 H 
ATOM     39  C   LIG d   1       4.694  -0.826  -8.136  0.00  0.00    -0.053 C 
ATOM     40  H   LIG d   1       4.759  -0.016 -10.130  0.00  0.00     0.026 H 
ATOM     41  H   LIG d   1       5.216   1.137  -8.852  0.00  0.00     0.026 H 
ATOM     42  C   LIG d   1       4.375  -0.339  -6.721  0.00  0.00    -0.045 C 
ATOM     43  H   LIG d   1       4.010  -1.631  -8.405  0.00  0.00     0.026 H 
ATOM     44  H   LIG d   1       5.720  -1.193  -8.171  0.00  0.00     0.026 H 
ATOM     45  H   LIG d   1       5.059   0.465  -6.451  0.00  0.00     0.027 H 
ATOM     46  H   LIG d   1       4.490  -1.164  -6.018  0.00  0.00     0.027 H 
ATOM     47  H   LIG d   1       2.252  -0.628  -6.940  0.00  0.00     0.035 H 
ENDBRANCH  28  31
ENDBRANCH  26  28
BRANCH   1  48
ATOM     48  N   LIG d   1       8.693  -2.150  -6.072  0.00  0.00    -0.281 N 
ATOM     49  C   LIG d   1       9.748  -2.861  -5.626  0.00  0.00     0.220 C 
ATOM     50  O   LIG d   1      10.003  -2.886  -4.440  0.00  0.00    -0.275 OA
ATOM     51  H   LIG d   1       8.531  -2.070  -7.025  0.00  0.00     0.155 HD
BRANCH  49  52
ATOM     52  C   LIG d   1      10.609  -3.623  -6.599  0.00  0.00     0.048 C 
ATOM     53  H   LIG d   1      11.310  -4.252  -6.049  0.00  0.00     0.038 H 
ATOM     54  H   LIG d   1       9.978  -4.249  -7.231  0.00  0.00     0.038 H 
BRANCH  52  55
ATOM     55  C   LIG d   1      11.387  -2.637  -7.473  0.00  0.00     0.056 C 
ATOM     56  H   LIG d   1      12.443  -2.903  -7.470  0.00  0.00     0.056 H 
ATOM     57  H   LIG d   1      11.004  -2.675  -8.492  0.00  0.00     0.056 H 
BRANCH  55  58
ATOM     58  O   LIG d   1      11.228  -1.314  -6.954  0.00  0.00    -0.383 OA
BRANCH  58  59
ATOM     59  C   LIG d   1      12.435  -0.549  -6.937  0.00  0.00     0.036 C 
ATOM     60  H   LIG d   1      13.170  -1.042  -6.302  0.00  0.00     0.052 H 
ATOM     61  H   LIG d   1      12.827  -0.466  -7.951  0.00  0.00     0.052 H 
ATOM     62  H   LIG d   1      12.227   0.448  -6.546  0.00  0.00     0.052 H 
ENDBRANCH  58  59
ENDBRANCH  55  58
ENDBRANCH  52  55
ENDBRANCH  49  52
ENDBRANCH   1  48
TORSDOF 7
ENDMDL
MODEL 5
REMARK VINA RESULT:      -6.0      3.892      6.196
REMARK  7 active torsions:
REMARK  status: ('A' for Active; 'I' for Inactive)
REMARK    1  A    between atoms: C_1  and  O_2 
REMARK    2  A    between atoms: O_2  and  C_3 
REMARK    3  A    between atoms: C_3  and  C_4 
REMARK    4  A    between atoms: C_4  and  C_5 
REMARK       I    between atoms: C_5  and  N_7 
REMARK    5  A    between atoms: N_7  and  C_8 
REMARK    6  A    between atoms: C_23  and  C_24 
REMARK    7  A    between atoms: C_23  and  N_61 
ROOT
ATOM      1  C   LIG d   1       6.124  -4.048  -5.730  0.00  0.00     0.099 A 
ATOM      2  C   LIG d   1       6.994  -3.009  -5.921  0.00  0.00    -0.034 A 
ATOM      3  C   LIG d   1       6.790  -1.819  -5.213  0.00  0.00    -0.040 A 
ATOM      4  C   LIG d   1       5.759  -1.699  -4.338  0.00  0.00     0.030 A 
ATOM      5  N   LIG d   1       4.940  -2.753  -4.088  0.00  0.00    -0.310 N 
ATOM      6  C   LIG d   1       5.067  -3.893  -4.811  0.00  0.00     0.273 A 
ATOM      7  O   LIG d   1       4.257  -4.794  -4.666  0.00  0.00    -0.266 OA
ATOM      8  C   LIG d   1       3.912  -2.744  -3.046  0.00  0.00     0.034 C 
ATOM      9  C   LIG d   1       3.576  -1.338  -2.577  0.00  0.00     0.018 C 
ATOM     10  H   LIG d   1       3.031  -1.423  -1.636  0.00  0.00     0.037 H 
ATOM     11  C   LIG d   1       4.871  -0.565  -2.316  0.00  0.00    -0.031 C 
ATOM     12  C   LIG d   1       5.566  -0.358  -3.667  0.00  0.00     0.040 C 
ATOM     13  H   LIG d   1       6.520   0.152  -3.532  0.00  0.00     0.042 H 
ATOM     14  C   LIG d   1       4.631   0.473  -4.561  0.00  0.00    -0.024 C 
ATOM     15  C   LIG d   1       2.696  -0.602  -3.576  0.00  0.00    -0.027 C 
ATOM     16  H   LIG d   1       7.824  -3.106  -6.605  0.00  0.00     0.064 H 
ATOM     17  H   LIG d   1       7.459  -0.985  -5.366  0.00  0.00     0.064 H 
ATOM     18  H   LIG d   1       4.266  -3.324  -2.194  0.00  0.00     0.050 H 
ATOM     19  H   LIG d   1       3.009  -3.210  -3.438  0.00  0.00     0.050 H 
ATOM     20  H   LIG d   1       5.517  -1.139  -1.652  0.00  0.00     0.028 H 
ATOM     21  H   LIG d   1       4.641   0.402  -1.866  0.00  0.00     0.028 H 
ATOM     22  H   LIG d   1       4.359   1.398  -4.051  0.00  0.00     0.082 H 
ATOM     23  H   LIG d   1       5.129   0.705  -5.502  0.00  0.00     0.082 H 
ATOM     24  H   LIG d   1       2.369   0.340  -3.136  0.00  0.00     0.082 H 
ATOM     25  H   LIG d   1       1.822  -1.213  -3.801  0.00  0.00     0.082 H 
ATOM     26  N   LIG d   1       3.431  -0.350  -4.833  0.00  0.00     0.236 N 
ATOM     27  H   LIG d   1       3.727  -1.248  -5.231  0.00  0.00     0.203 HD
ENDROOT
BRANCH  26  28
ATOM     28  C   LIG d   1       2.553   0.338  -5.800  0.00  0.00    -0.029 C 
ATOM     29  H   LIG d   1       1.643  -0.247  -5.930  0.00  0.00     0.082 H 
ATOM     30  H   LIG d   1       2.299   1.323  -5.408  0.00  0.00     0.082 H 
BRANCH  28  31
ATOM     31  C   LIG d   1       3.257   0.492  -7.150  0.00  0.00    -0.001 C 
ATOM     32  C   LIG d   1       2.920  -0.705  -8.042  0.00  0.00    -0.045 C 
ATOM     33  C   LIG d   1       3.624  -0.550  -9.390  0.00  0.00    -0.053 C 
ATOM     34  H   LIG d   1       3.255  -1.623  -7.560  0.00  0.00     0.027 H 
ATOM     35  H   LIG d   1       1.842  -0.749  -8.197  0.00  0.00     0.027 H 
ATOM     36  C   LIG d   1       3.153   0.738 -10.067  0.00  0.00    -0.053 C 
ATOM     37  H   LIG d   1       4.702  -0.506  -9.235  0.00  0.00     0.026 H 
ATOM     38  H   LIG d   1       3.383  -1.403 -10.025  0.00  0.00     0.026 H 
ATOM     39  C   LIG d   1       3.491   1.935  -9.177  0.00  0.00    -0.053 C 
ATOM     40  H   LIG d   1       3.655   0.848 -11.029  0.00  0.00     0.026 H 
ATOM     41  H   LIG d   1       2.075   0.694 -10.223  0.00  0.00     0.026 H 
ATOM     42  C   LIG d   1       2.787   1.781  -7.827  0.00  0.00    -0.045 C 
ATOM     43  H   LIG d   1       4.569   1.979  -9.021  0.00  0.00     0.026 H 
ATOM     44  H   LIG d   1       3.155   2.853  -9.658  0.00  0.00     0.026 H 
ATOM     45  H   LIG d   1       1.709   1.737  -7.982  0.00  0.00     0.027 H 
ATOM     46  H   LIG d   1       3.028   2.634  -7.192  0.00  0.00     0.027 H 
ATOM     47  H   LIG d   1       4.336   0.536  -6.994  0.00  0.00     0.035 H 
ENDBRANCH  28  31
ENDBRANCH  26  28
BRANCH   1  48
ATOM     48  N   LIG d   1       6.282  -5.247  -6.436  0.00  0.00    -0.281 N 
ATOM     49  C   LIG d   1       7.110  -6.202  -5.968  0.00  0.00     0.220 C 
ATOM     50  O   LIG d   1       7.788  -5.986  -4.985  0.00  0.00    -0.275 OA
ATOM     51  H   LIG d   1       5.794  -5.392  -7.262  0.00  0.00     0.155 HD
BRANCH  49  52
ATOM     52  C   LIG d   1       7.194  -7.535  -6.664  0.00  0.00     0.048 C 
ATOM     53  H   LIG d   1       7.659  -7.406  -7.641  0.00  0.00     0.038 H 
ATOM     54  H   LIG d   1       7.793  -8.222  -6.065  0.00  0.00     0.038 H 
BRANCH  52  55
ATOM     55  C   LIG d   1       5.786  -8.108  -6.840  0.00  0.00     0.056 C 
ATOM     56  H   LIG d   1       5.309  -7.641  -7.701  0.00  0.00     0.056 H 
ATOM     57  H   LIG d   1       5.849  -9.184  -6.997  0.00  0.00     0.056 H 
BRANCH  55  58
ATOM     58  O   LIG d   1       5.014  -7.842  -5.667  0.00  0.00    -0.383 OA
BRANCH  58  59
ATOM     59  C   LIG d   1       4.768  -8.994  -4.859  0.00  0.00     0.036 C 
ATOM     60  H   LIG d   1       4.786  -9.887  -5.484  0.00  0.00     0.052 H 
ATOM     61  H   LIG d   1       5.541  -9.072  -4.093  0.00  0.00     0.052 H 
ATOM     62  H   LIG d   1       3.793  -8.903  -4.382  0.00  0.00     0.052 H 
ENDBRANCH  58  59
ENDBRANCH  55  58
ENDBRANCH  52  55
ENDBRANCH  49  52
ENDBRANCH   1  48
TORSDOF 7
ENDMDL
MODEL 6
REMARK VINA RESULT:      -5.9      4.251      6.949
REMARK  7 active torsions:
REMARK  status: ('A' for Active; 'I' for Inactive)
REMARK    1  A    between atoms: C_1  and  O_2 
REMARK    2  A    between atoms: O_2  and  C_3 
REMARK    3  A    between atoms: C_3  and  C_4 
REMARK    4  A    between atoms: C_4  and  C_5 
REMARK       I    between atoms: C_5  and  N_7 
REMARK    5  A    between atoms: N_7  and  C_8 
REMARK    6  A    between atoms: C_23  and  C_24 
REMARK    7  A    between atoms: C_23  and  N_61 
ROOT
ATOM      1  C   LIG d   1       4.784  -5.207  -7.727  0.00  0.00     0.099 A 
ATOM      2  C   LIG d   1       3.571  -5.102  -8.351  0.00  0.00    -0.034 A 
ATOM      3  C   LIG d   1       3.228  -3.888  -8.958  0.00  0.00    -0.040 A 
ATOM      4  C   LIG d   1       4.089  -2.838  -8.948  0.00  0.00     0.030 A 
ATOM      5  N   LIG d   1       5.324  -2.964  -8.397  0.00  0.00    -0.310 N 
ATOM      6  C   LIG d   1       5.656  -4.102  -7.736  0.00  0.00     0.273 A 
ATOM      7  O   LIG d   1       6.721  -4.168  -7.144  0.00  0.00    -0.266 OA
ATOM      8  C   LIG d   1       6.355  -1.930  -8.488  0.00  0.00     0.034 C 
ATOM      9  C   LIG d   1       5.785  -0.576  -8.875  0.00  0.00     0.018 C 
ATOM     10  H   LIG d   1       6.614   0.057  -9.192  0.00  0.00     0.037 H 
ATOM     11  C   LIG d   1       4.829  -0.745 -10.059  0.00  0.00    -0.031 C 
ATOM     12  C   LIG d   1       3.616  -1.542  -9.563  0.00  0.00     0.040 C 
ATOM     13  H   LIG d   1       2.921  -1.728 -10.382  0.00  0.00     0.042 H 
ATOM     14  C   LIG d   1       2.934  -0.726  -8.452  0.00  0.00    -0.024 C 
ATOM     15  C   LIG d   1       5.086   0.100  -7.705  0.00  0.00    -0.027 C 
ATOM     16  H   LIG d   1       2.889  -5.939  -8.375  0.00  0.00     0.064 H 
ATOM     17  H   LIG d   1       2.268  -3.784  -9.441  0.00  0.00     0.064 H 
ATOM     18  H   LIG d   1       7.091  -2.229  -9.235  0.00  0.00     0.050 H 
ATOM     19  H   LIG d   1       6.852  -1.840  -7.523  0.00  0.00     0.050 H 
ATOM     20  H   LIG d   1       5.327  -1.290 -10.861  0.00  0.00     0.028 H 
ATOM     21  H   LIG d   1       4.508   0.233 -10.419  0.00  0.00     0.028 H 
ATOM     22  H   LIG d   1       2.694   0.272  -8.821  0.00  0.00     0.082 H 
ATOM     23  H   LIG d   1       2.021  -1.229  -8.133  0.00  0.00     0.082 H 
ATOM     24  H   LIG d   1       4.819   1.118  -7.990  0.00  0.00     0.082 H 
ATOM     25  H   LIG d   1       5.765   0.134  -6.854  0.00  0.00     0.082 H 
ATOM     26  N   LIG d   1       3.877  -0.654  -7.313  0.00  0.00     0.236 N 
ATOM     27  H   LIG d   1       4.150  -1.607  -7.047  0.00  0.00     0.203 HD
ENDROOT
BRANCH  26  28
ATOM     28  C   LIG d   1       3.228  -0.001  -6.159  0.00  0.00    -0.029 C 
ATOM     29  H   LIG d   1       3.335   1.079  -6.258  0.00  0.00     0.082 H 
ATOM     30  H   LIG d   1       2.170  -0.262  -6.154  0.00  0.00     0.082 H 
BRANCH  28  31
ATOM     31  C   LIG d   1       3.873  -0.459  -4.849  0.00  0.00    -0.001 C 
ATOM     32  C   LIG d   1       2.884  -0.263  -3.698  0.00  0.00    -0.045 C 
ATOM     33  C   LIG d   1       3.529  -0.721  -2.389  0.00  0.00    -0.053 C 
ATOM     34  H   LIG d   1       2.618   0.790  -3.622  0.00  0.00     0.027 H 
ATOM     35  H   LIG d   1       1.987  -0.852  -3.886  0.00  0.00     0.027 H 
ATOM     36  C   LIG d   1       3.902  -2.201  -2.494  0.00  0.00    -0.053 C 
ATOM     37  H   LIG d   1       4.427  -0.132  -2.200  0.00  0.00     0.026 H 
ATOM     38  H   LIG d   1       2.824  -0.582  -1.569  0.00  0.00     0.026 H 
ATOM     39  C   LIG d   1       4.891  -2.397  -3.645  0.00  0.00    -0.053 C 
ATOM     40  H   LIG d   1       4.362  -2.528  -1.561  0.00  0.00     0.026 H 
ATOM     41  H   LIG d   1       3.005  -2.790  -2.683  0.00  0.00     0.026 H 
ATOM     42  C   LIG d   1       4.246  -1.939  -4.955  0.00  0.00    -0.045 C 
ATOM     43  H   LIG d   1       5.789  -1.808  -3.456  0.00  0.00     0.026 H 
ATOM     44  H   LIG d   1       5.157  -3.451  -3.721  0.00  0.00     0.026 H 
ATOM     45  H   LIG d   1       3.349  -2.527  -5.143  0.00  0.00     0.027 H 
ATOM     46  H   LIG d   1       4.951  -2.078  -5.775  0.00  0.00     0.027 H 
ATOM     47  H   LIG d   1       4.771   0.130  -4.661  0.00  0.00     0.035 H 
ENDBRANCH  28  31
ENDBRANCH  26  28
BRANCH   1  48
ATOM     48  N   LIG d   1       5.153  -6.399  -7.088  0.00  0.00    -0.281 N 
ATOM     49  C   LIG d   1       4.725  -6.654  -5.836  0.00  0.00     0.220 C 
ATOM     50  O   LIG d   1       4.097  -5.813  -5.228  0.00  0.00    -0.275 OA
ATOM     51  H   LIG d   1       5.717  -7.041  -7.548  0.00  0.00     0.155 HD
BRANCH  49  52
ATOM     52  C   LIG d   1       5.026  -7.982  -5.193  0.00  0.00     0.048 C 
ATOM     53  H   LIG d   1       6.054  -7.986  -4.831  0.00  0.00     0.038 H 
ATOM     54  H   LIG d   1       4.346  -8.144  -4.356  0.00  0.00     0.038 H 
BRANCH  52  55
ATOM     55  C   LIG d   1       4.843  -9.100  -6.221  0.00  0.00     0.056 C 
ATOM     56  H   LIG d   1       4.611 -10.032  -5.707  0.00  0.00     0.056 H 
ATOM     57  H   LIG d   1       4.027  -8.843  -6.896  0.00  0.00     0.056 H 
BRANCH  55  58
ATOM     58  O   LIG d   1       6.050  -9.259  -6.971  0.00  0.00    -0.383 OA
BRANCH  58  59
ATOM     59  C   LIG d   1       6.016 -10.340  -7.905  0.00  0.00     0.036 C 
ATOM     60  H   LIG d   1       6.798 -11.057  -7.659  0.00  0.00     0.052 H 
ATOM     61  H   LIG d   1       5.044 -10.832  -7.856  0.00  0.00     0.052 H 
ATOM     62  H   LIG d   1       6.178  -9.956  -8.912  0.00  0.00     0.052 H 
ENDBRANCH  58  59
ENDBRANCH  55  58
ENDBRANCH  52  55
ENDBRANCH  49  52
ENDBRANCH   1  48
TORSDOF 7
ENDMDL
MODEL 7
REMARK VINA RESULT:      -5.9      3.848      7.628
REMARK  7 active torsions:
REMARK  status: ('A' for Active; 'I' for Inactive)
REMARK    1  A    between atoms: C_1  and  O_2 
REMARK    2  A    between atoms: O_2  and  C_3 
REMARK    3  A    between atoms: C_3  and  C_4 
REMARK    4  A    between atoms: C_4  and  C_5 
REMARK       I    between atoms: C_5  and  N_7 
REMARK    5  A    between atoms: N_7  and  C_8 
REMARK    6  A    between atoms: C_23  and  C_24 
REMARK    7  A    between atoms: C_23  and  N_61 
ROOT
ATOM      1  C   LIG d   1      10.466   2.135  -4.951  0.00  0.00     0.099 A 
ATOM      2  C   LIG d   1      11.346   1.215  -4.450  0.00  0.00    -0.034 A 
ATOM      3  C   LIG d   1      11.197  -0.129  -4.813  0.00  0.00    -0.040 A 
ATOM      4  C   LIG d   1      10.211  -0.514  -5.661  0.00  0.00     0.030 A 
ATOM      5  N   LIG d   1       9.383   0.406  -6.221  0.00  0.00    -0.310 N 
ATOM      6  C   LIG d   1       9.455   1.704  -5.832  0.00  0.00     0.273 A 
ATOM      7  O   LIG d   1       8.635   2.506  -6.250  0.00  0.00    -0.266 OA
ATOM      8  C   LIG d   1       8.404   0.082  -7.259  0.00  0.00     0.034 C 
ATOM      9  C   LIG d   1       8.117  -1.408  -7.340  0.00  0.00     0.018 C 
ATOM     10  H   LIG d   1       7.615  -1.600  -8.288  0.00  0.00     0.037 H 
ATOM     11  C   LIG d   1       9.438  -2.183  -7.328  0.00  0.00    -0.031 C 
ATOM     12  C   LIG d   1      10.075  -1.992  -5.947  0.00  0.00     0.040 C 
ATOM     13  H   LIG d   1      11.042  -2.491  -5.900  0.00  0.00     0.042 H 
ATOM     14  C   LIG d   1       9.115  -2.578  -4.897  0.00  0.00    -0.024 C 
ATOM     15  C   LIG d   1       7.207  -1.871  -6.212  0.00  0.00    -0.027 C 
ATOM     16  H   LIG d   1      12.143   1.520  -3.787  0.00  0.00     0.064 H 
ATOM     17  H   LIG d   1      11.875  -0.868  -4.412  0.00  0.00     0.064 H 
ATOM     18  H   LIG d   1       8.786   0.419  -8.223  0.00  0.00     0.050 H 
ATOM     19  H   LIG d   1       7.475   0.609  -7.046  0.00  0.00     0.050 H 
ATOM     20  H   LIG d   1      10.102  -1.792  -8.099  0.00  0.00     0.028 H 
ATOM     21  H   LIG d   1       9.247  -3.242  -7.506  0.00  0.00     0.028 H 
ATOM     22  H   LIG d   1       8.885  -3.614  -5.144  0.00  0.00     0.082 H 
ATOM     23  H   LIG d   1       9.575  -2.529  -3.910  0.00  0.00     0.082 H 
ATOM     24  H   LIG d   1       6.918  -2.907  -6.390  0.00  0.00     0.082 H 
ATOM     25  H   LIG d   1       6.312  -1.249  -6.197  0.00  0.00     0.082 H 
ATOM     26  N   LIG d   1       7.888  -1.749  -4.907  0.00  0.00     0.236 N 
ATOM     27  H   LIG d   1       8.149  -0.768  -4.758  0.00  0.00     0.203 HD
ENDROOT
BRANCH  26  28
ATOM     28  C   LIG d   1       6.981  -2.174  -3.823  0.00  0.00    -0.029 C 
ATOM     29  H   LIG d   1       6.506  -3.113  -4.108  0.00  0.00     0.082 H 
ATOM     30  H   LIG d   1       7.563  -2.324  -2.913  0.00  0.00     0.082 H 
BRANCH  28  31
ATOM     31  C   LIG d   1       5.907  -1.114  -3.573  0.00  0.00    -0.001 C 
ATOM     32  C   LIG d   1       4.969  -1.589  -2.460  0.00  0.00    -0.045 C 
ATOM     33  C   LIG d   1       3.896  -0.528  -2.211  0.00  0.00    -0.053 C 
ATOM     34  H   LIG d   1       4.495  -2.523  -2.759  0.00  0.00     0.027 H 
ATOM     35  H   LIG d   1       5.542  -1.748  -1.547  0.00  0.00     0.027 H 
ATOM     36  C   LIG d   1       4.562   0.783  -1.791  0.00  0.00    -0.053 C 
ATOM     37  H   LIG d   1       3.323  -0.369  -3.124  0.00  0.00     0.026 H 
ATOM     38  H   LIG d   1       3.229  -0.867  -1.418  0.00  0.00     0.026 H 
ATOM     39  C   LIG d   1       5.498   1.259  -2.904  0.00  0.00    -0.053 C 
ATOM     40  H   LIG d   1       3.796   1.539  -1.614  0.00  0.00     0.026 H 
ATOM     41  H   LIG d   1       5.134   0.624  -0.878  0.00  0.00     0.026 H 
ATOM     42  C   LIG d   1       6.573   0.198  -3.153  0.00  0.00    -0.045 C 
ATOM     43  H   LIG d   1       4.925   1.418  -3.818  0.00  0.00     0.026 H 
ATOM     44  H   LIG d   1       5.974   2.193  -2.605  0.00  0.00     0.026 H 
ATOM     45  H   LIG d   1       7.145   0.039  -2.240  0.00  0.00     0.027 H 
ATOM     46  H   LIG d   1       7.240   0.536  -3.946  0.00  0.00     0.027 H 
ATOM     47  H   LIG d   1       5.334  -0.955  -4.487  0.00  0.00     0.035 H 
ENDBRANCH  28  31
ENDBRANCH  26  28
BRANCH   1  48
ATOM     48  N   LIG d   1      10.568   3.486  -4.594  0.00  0.00    -0.281 N 
ATOM     49  C   LIG d   1       9.962   3.936  -3.478  0.00  0.00     0.220 C 
ATOM     50  O   LIG d   1       9.252   3.194  -2.833  0.00  0.00    -0.275 OA
ATOM     51  H   LIG d   1      11.077   4.097  -5.150  0.00  0.00     0.155 HD
BRANCH  49  52
ATOM     52  C   LIG d   1      10.166   5.361  -3.032  0.00  0.00     0.048 C 
ATOM     53  H   LIG d   1      10.871   5.854  -3.701  0.00  0.00     0.038 H 
ATOM     54  H   LIG d   1       9.213   5.890  -3.056  0.00  0.00     0.038 H 
BRANCH  52  55
ATOM     55  C   LIG d   1      10.721   5.375  -1.606  0.00  0.00     0.056 C 
ATOM     56  H   LIG d   1      10.677   4.369  -1.190  0.00  0.00     0.056 H 
ATOM     57  H   LIG d   1      11.755   5.718  -1.622  0.00  0.00     0.056 H 
BRANCH  55  58
ATOM     58  O   LIG d   1       9.938   6.258  -0.799  0.00  0.00    -0.383 OA
BRANCH  58  59
ATOM     59  C   LIG d   1       9.381   7.360  -1.517  0.00  0.00     0.036 C 
ATOM     60  H   LIG d   1       9.489   8.270  -0.928  0.00  0.00     0.052 H 
ATOM     61  H   LIG d   1       9.904   7.478  -2.466  0.00  0.00     0.052 H 
ATOM     62  H   LIG d   1       8.324   7.174  -1.706  0.00  0.00     0.052 H 
ENDBRANCH  58  59
ENDBRANCH  55  58
ENDBRANCH  52  55
ENDBRANCH  49  52
ENDBRANCH   1  48
TORSDOF 7
ENDMDL
MODEL 8
REMARK VINA RESULT:      -5.9      2.869      5.830
REMARK  7 active torsions:
REMARK  status: ('A' for Active; 'I' for Inactive)
REMARK    1  A    between atoms: C_1  and  O_2 
REMARK    2  A    between atoms: O_2  and  C_3 
REMARK    3  A    between atoms: C_3  and  C_4 
REMARK    4  A    between atoms: C_4  and  C_5 
REMARK       I    between atoms: C_5  and  N_7 
REMARK    5  A    between atoms: N_7  and  C_8 
REMARK    6  A    between atoms: C_23  and  C_24 
REMARK    7  A    between atoms: C_23  and  N_61 
ROOT
ATOM      1  C   LIG d   1       2.422  -2.190 -11.168  0.00  0.00     0.099 A 
ATOM      2  C   LIG d   1       1.325  -1.633 -10.570  0.00  0.00    -0.034 A 
ATOM      3  C   LIG d   1       1.505  -0.535  -9.721  0.00  0.00    -0.040 A 
ATOM      4  C   LIG d   1       2.741  -0.016  -9.508  0.00  0.00     0.030 A 
ATOM      5  N   LIG d   1       3.822  -0.517 -10.160  0.00  0.00    -0.310 N 
ATOM      6  C   LIG d   1       3.691  -1.627 -10.930  0.00  0.00     0.273 A 
ATOM      7  O   LIG d   1       4.682  -2.142 -11.420  0.00  0.00    -0.266 OA
ATOM      8  C   LIG d   1       5.151   0.090 -10.098  0.00  0.00     0.034 C 
ATOM      9  C   LIG d   1       5.295   1.053  -8.932  0.00  0.00     0.018 C 
ATOM     10  H   LIG d   1       6.183   1.661  -9.109  0.00  0.00     0.037 H 
ATOM     11  C   LIG d   1       4.078   1.980  -8.884  0.00  0.00    -0.031 C 
ATOM     12  C   LIG d   1       2.858   1.124  -8.522  0.00  0.00     0.040 C 
ATOM     13  H   LIG d   1       1.954   1.732  -8.518  0.00  0.00     0.042 H 
ATOM     14  C   LIG d   1       3.104   0.511  -7.134  0.00  0.00    -0.024 C 
ATOM     15  C   LIG d   1       5.472   0.320  -7.610  0.00  0.00    -0.027 C 
ATOM     16  H   LIG d   1       0.338  -2.033 -10.749  0.00  0.00     0.064 H 
ATOM     17  H   LIG d   1       0.650  -0.095  -9.228  0.00  0.00     0.064 H 
ATOM     18  H   LIG d   1       5.336   0.631 -11.027  0.00  0.00     0.050 H 
ATOM     19  H   LIG d   1       5.896  -0.699  -9.998  0.00  0.00     0.050 H 
ATOM     20  H   LIG d   1       3.929   2.444  -9.859  0.00  0.00     0.028 H 
ATOM     21  H   LIG d   1       4.228   2.750  -8.127  0.00  0.00     0.028 H 
ATOM     22  H   LIG d   1       3.325   1.300  -6.415  0.00  0.00     0.082 H 
ATOM     23  H   LIG d   1       2.220  -0.041  -6.813  0.00  0.00     0.082 H 
ATOM     24  H   LIG d   1       5.709   1.044  -6.831  0.00  0.00     0.082 H 
ATOM     25  H   LIG d   1       6.294  -0.388  -7.702  0.00  0.00     0.082 H 
ATOM     26  N   LIG d   1       4.245  -0.424  -7.258  0.00  0.00     0.236 N 
ATOM     27  H   LIG d   1       4.041  -1.101  -8.003  0.00  0.00     0.203 HD
ENDROOT
BRANCH  26  28
ATOM     28  C   LIG d   1       4.444  -1.152  -5.989  0.00  0.00    -0.029 C 
ATOM     29  H   LIG d   1       3.693  -1.937  -5.911  0.00  0.00     0.082 H 
ATOM     30  H   LIG d   1       5.438  -1.599  -5.991  0.00  0.00     0.082 H 
BRANCH  28  31
ATOM     31  C   LIG d   1       4.314  -0.201  -4.798  0.00  0.00    -0.001 C 
ATOM     32  C   LIG d   1       3.288  -0.760  -3.808  0.00  0.00    -0.045 C 
ATOM     33  C   LIG d   1       3.158   0.191  -2.618  0.00  0.00    -0.053 C 
ATOM     34  H   LIG d   1       2.323  -0.858  -4.303  0.00  0.00     0.027 H 
ATOM     35  H   LIG d   1       3.618  -1.738  -3.458  0.00  0.00     0.027 H 
ATOM     36  C   LIG d   1       4.515   0.327  -1.923  0.00  0.00    -0.053 C 
ATOM     37  H   LIG d   1       2.829   1.169  -2.968  0.00  0.00     0.026 H 
ATOM     38  H   LIG d   1       2.428  -0.208  -1.913  0.00  0.00     0.026 H 
ATOM     39  C   LIG d   1       5.539   0.887  -2.912  0.00  0.00    -0.053 C 
ATOM     40  H   LIG d   1       4.422   1.006  -1.074  0.00  0.00     0.026 H 
ATOM     41  H   LIG d   1       4.844  -0.650  -1.573  0.00  0.00     0.026 H 
ATOM     42  C   LIG d   1       5.670  -0.064  -4.103  0.00  0.00    -0.045 C 
ATOM     43  H   LIG d   1       5.210   1.866  -3.262  0.00  0.00     0.026 H 
ATOM     44  H   LIG d   1       6.506   0.984  -2.418  0.00  0.00     0.026 H 
ATOM     45  H   LIG d   1       6.000  -1.042  -3.753  0.00  0.00     0.027 H 
ATOM     46  H   LIG d   1       6.400   0.335  -4.808  0.00  0.00     0.027 H 
ATOM     47  H   LIG d   1       3.984   0.777  -5.148  0.00  0.00     0.035 H 
ENDBRANCH  28  31
ENDBRANCH  26  28
BRANCH   1  48
ATOM     48  N   LIG d   1       2.286  -3.304 -12.007  0.00  0.00    -0.281 N 
ATOM     49  C   LIG d   1       2.201  -4.541 -11.478  0.00  0.00     0.220 C 
ATOM     50  O   LIG d   1       2.335  -4.698 -10.283  0.00  0.00    -0.275 OA
ATOM     51  H   LIG d   1       2.251  -3.185 -12.969  0.00  0.00     0.155 HD
BRANCH  49  52
ATOM     52  C   LIG d   1       1.940  -5.726 -12.370  0.00  0.00     0.048 C 
ATOM     53  H   LIG d   1       2.535  -5.635 -13.279  0.00  0.00     0.038 H 
ATOM     54  H   LIG d   1       2.214  -6.643 -11.847  0.00  0.00     0.038 H 
BRANCH  52  55
ATOM     55  C   LIG d   1       0.454  -5.772 -12.735  0.00  0.00     0.056 C 
ATOM     56  H   LIG d   1       0.348  -5.807 -13.819  0.00  0.00     0.056 H 
ATOM     57  H   LIG d   1      -0.000  -6.659 -12.295  0.00  0.00     0.056 H 
BRANCH  55  58
ATOM     58  O   LIG d   1      -0.196  -4.603 -12.231  0.00  0.00    -0.383 OA
BRANCH  58  59
ATOM     59  C   LIG d   1      -1.621  -4.640 -12.336  0.00  0.00     0.036 C 
ATOM     60  H   LIG d   1      -1.968  -5.665 -12.211  0.00  0.00     0.052 H 
ATOM     61  H   LIG d   1      -2.058  -4.011 -11.560  0.00  0.00     0.052 H 
ATOM     62  H   LIG d   1      -1.922  -4.271 -13.316  0.00  0.00     0.052 H 
ENDBRANCH  58  59
ENDBRANCH  55  58
ENDBRANCH  52  55
ENDBRANCH  49  52
ENDBRANCH   1  48
TORSDOF 7
ENDMDL
MODEL 9
REMARK VINA RESULT:      -5.8      2.192      4.707
REMARK  7 active torsions:
REMARK  status: ('A' for Active; 'I' for Inactive)
REMARK    1  A    between atoms: C_1  and  O_2 
REMARK    2  A    between atoms: O_2  and  C_3 
REMARK    3  A    between atoms: C_3  and  C_4 
REMARK    4  A    between atoms: C_4  and  C_5 
REMARK       I    between atoms: C_5  and  N_7 
REMARK    5  A    between atoms: N_7  and  C_8 
REMARK    6  A    between atoms: C_23  and  C_24 
REMARK    7  A    between atoms: C_23  and  N_61 
ROOT
ATOM      1  C   LIG d   1       5.150   0.110  -9.119  0.00  0.00     0.099 A 
ATOM      2  C   LIG d   1       5.477   1.436  -9.192  0.00  0.00    -0.034 A 
ATOM      3  C   LIG d   1       6.651   1.877  -8.570  0.00  0.00    -0.040 A 
ATOM      4  C   LIG d   1       7.464   1.004  -7.922  0.00  0.00     0.030 A 
ATOM      5  N   LIG d   1       7.183  -0.325  -7.914  0.00  0.00    -0.310 N 
ATOM      6  C   LIG d   1       6.016  -0.771  -8.443  0.00  0.00     0.273 A 
ATOM      7  O   LIG d   1       5.713  -1.948  -8.331  0.00  0.00    -0.266 OA
ATOM      8  C   LIG d   1       8.091  -1.336  -7.373  0.00  0.00     0.034 C 
ATOM      9  C   LIG d   1       9.151  -0.736  -6.465  0.00  0.00     0.018 C 
ATOM     10  H   LIG d   1       9.936  -1.481  -6.332  0.00  0.00     0.037 H 
ATOM     11  C   LIG d   1       9.764   0.494  -7.141  0.00  0.00    -0.031 C 
ATOM     12  C   LIG d   1       8.675   1.570  -7.217  0.00  0.00     0.040 C 
ATOM     13  H   LIG d   1       9.049   2.455  -7.732  0.00  0.00     0.042 H 
ATOM     14  C   LIG d   1       8.251   1.919  -5.781  0.00  0.00    -0.024 C 
ATOM     15  C   LIG d   1       8.591  -0.380  -5.096  0.00  0.00    -0.027 C 
ATOM     16  H   LIG d   1       4.841   2.132  -9.720  0.00  0.00     0.064 H 
ATOM     17  H   LIG d   1       6.914   2.924  -8.605  0.00  0.00     0.064 H 
ATOM     18  H   LIG d   1       8.584  -1.848  -8.200  0.00  0.00     0.050 H 
ATOM     19  H   LIG d   1       7.512  -2.064  -6.805  0.00  0.00     0.050 H 
ATOM     20  H   LIG d   1      10.100   0.234  -8.145  0.00  0.00     0.028 H 
ATOM     21  H   LIG d   1      10.606   0.859  -6.552  0.00  0.00     0.028 H 
ATOM     22  H   LIG d   1       9.126   2.208  -5.198  0.00  0.00     0.082 H 
ATOM     23  H   LIG d   1       7.533   2.739  -5.798  0.00  0.00     0.082 H 
ATOM     24  H   LIG d   1       9.410  -0.087  -4.441  0.00  0.00     0.082 H 
ATOM     25  H   LIG d   1       8.092  -1.253  -4.676  0.00  0.00     0.082 H 
ATOM     26  N   LIG d   1       7.607   0.717  -5.205  0.00  0.00     0.236 N 
ATOM     27  H   LIG d   1       6.844   0.421  -5.823  0.00  0.00     0.203 HD
ENDROOT
BRANCH  26  28
ATOM     28  C   LIG d   1       7.052   1.030  -3.873  0.00  0.00    -0.029 C 
ATOM     29  H   LIG d   1       7.867   1.070  -3.151  0.00  0.00     0.082 H 
ATOM     30  H   LIG d   1       6.555   1.999  -3.916  0.00  0.00     0.082 H 
BRANCH  28  31
ATOM     31  C   LIG d   1       6.045  -0.041  -3.445  0.00  0.00    -0.001 C 
ATOM     32  C   LIG d   1       5.199   0.489  -2.285  0.00  0.00    -0.045 C 
ATOM     33  C   LIG d   1       4.194  -0.582  -1.858  0.00  0.00    -0.053 C 
ATOM     34  H   LIG d   1       5.848   0.734  -1.445  0.00  0.00     0.027 H 
ATOM     35  H   LIG d   1       4.665   1.383  -2.605  0.00  0.00     0.027 H 
ATOM     36  C   LIG d   1       3.282  -0.926  -3.038  0.00  0.00    -0.053 C 
ATOM     37  H   LIG d   1       4.728  -1.476  -1.538  0.00  0.00     0.026 H 
ATOM     38  H   LIG d   1       3.591  -0.204  -1.032  0.00  0.00     0.026 H 
ATOM     39  C   LIG d   1       4.128  -1.456  -4.197  0.00  0.00    -0.053 C 
ATOM     40  H   LIG d   1       2.566  -1.689  -2.733  0.00  0.00     0.026 H 
ATOM     41  H   LIG d   1       2.748  -0.032  -3.357  0.00  0.00     0.026 H 
ATOM     42  C   LIG d   1       5.134  -0.386  -4.625  0.00  0.00    -0.045 C 
ATOM     43  H   LIG d   1       4.663  -2.351  -3.878  0.00  0.00     0.026 H 
ATOM     44  H   LIG d   1       3.480  -1.701  -5.038  0.00  0.00     0.026 H 
ATOM     45  H   LIG d   1       4.600   0.508  -4.944  0.00  0.00     0.027 H 
ATOM     46  H   LIG d   1       5.738  -0.763  -5.451  0.00  0.00     0.027 H 
ATOM     47  H   LIG d   1       6.580  -0.936  -3.126  0.00  0.00     0.035 H 
ENDBRANCH  28  31
ENDBRANCH  26  28
BRANCH   1  48
ATOM     48  N   LIG d   1       3.972  -0.365  -9.710  0.00  0.00    -0.281 N 
ATOM     49  C   LIG d   1       2.802  -0.281  -9.045  0.00  0.00     0.220 C 
ATOM     50  O   LIG d   1       2.784   0.120  -7.901  0.00  0.00    -0.275 OA
ATOM     51  H   LIG d   1       3.997  -0.754 -10.598  0.00  0.00     0.155 HD
BRANCH  49  52
ATOM     52  C   LIG d   1       1.519  -0.686  -9.723  0.00  0.00     0.048 C 
ATOM     53  H   LIG d   1       0.686  -0.550  -9.034  0.00  0.00     0.038 H 
ATOM     54  H   LIG d   1       1.364  -0.068 -10.607  0.00  0.00     0.038 H 
BRANCH  52  55
ATOM     55  C   LIG d   1       1.604  -2.157 -10.137  0.00  0.00     0.056 C 
ATOM     56  H   LIG d   1       0.628  -2.626 -10.013  0.00  0.00     0.056 H 
ATOM     57  H   LIG d   1       1.909  -2.223 -11.181  0.00  0.00     0.056 H 
BRANCH  55  58
ATOM     58  O   LIG d   1       2.562  -2.829  -9.316  0.00  0.00    -0.383 OA
BRANCH  58  59
ATOM     59  C   LIG d   1       3.028  -4.065  -9.860  0.00  0.00     0.036 C 
ATOM     60  H   LIG d   1       3.030  -4.006 -10.948  0.00  0.00     0.052 H 
ATOM     61  H   LIG d   1       4.040  -4.260  -9.505  0.00  0.00     0.052 H 
ATOM     62  H   LIG d   1       2.369  -4.873  -9.541  0.00  0.00     0.052 H 
ENDBRANCH  58  59
ENDBRANCH  55  58
ENDBRANCH  52  55
ENDBRANCH  49  52
ENDBRANCH   1  48
TORSDOF 7
ENDMDL
MODEL 10
REMARK VINA RESULT:      -5.8      2.720      6.758
REMARK  7 active torsions:
REMARK  status: ('A' for Active; 'I' for Inactive)
REMARK    1  A    between atoms: C_1  and  O_2 
REMARK    2  A    between atoms: O_2  and  C_3 
REMARK    3  A    between atoms: C_3  and  C_4 
REMARK    4  A    between atoms: C_4  and  C_5 
REMARK       I    between atoms: C_5  and  N_7 
REMARK    5  A    between atoms: N_7  and  C_8 
REMARK    6  A    between atoms: C_23  and  C_24 
REMARK    7  A    between atoms: C_23  and  N_61 
ROOT
ATOM      1  C   LIG d   1       5.377  -1.674  -5.556  0.00  0.00     0.099 A 
ATOM      2  C   LIG d   1       5.301  -2.910  -6.137  0.00  0.00    -0.034 A 
ATOM      3  C   LIG d   1       6.072  -3.167  -7.277  0.00  0.00    -0.040 A 
ATOM      4  C   LIG d   1       6.896  -2.217  -7.788  0.00  0.00     0.030 A 
ATOM      5  N   LIG d   1       7.033  -1.016  -7.168  0.00  0.00    -0.310 N 
ATOM      6  C   LIG d   1       6.244  -0.711  -6.107  0.00  0.00     0.273 A 
ATOM      7  O   LIG d   1       6.287   0.410  -5.626  0.00  0.00    -0.266 OA
ATOM      8  C   LIG d   1       8.015  -0.010  -7.572  0.00  0.00     0.034 C 
ATOM      9  C   LIG d   1       8.556  -0.256  -8.970  0.00  0.00     0.018 C 
ATOM     10  H   LIG d   1       9.458   0.344  -9.089  0.00  0.00     0.037 H 
ATOM     11  C   LIG d   1       8.936  -1.732  -9.117  0.00  0.00    -0.031 C 
ATOM     12  C   LIG d   1       7.641  -2.551  -9.060  0.00  0.00     0.040 C 
ATOM     13  H   LIG d   1       7.860  -3.617  -9.117  0.00  0.00     0.042 H 
ATOM     14  C   LIG d   1       6.754  -2.119 -10.240  0.00  0.00    -0.024 C 
ATOM     15  C   LIG d   1       7.560   0.157 -10.044  0.00  0.00    -0.027 C 
ATOM     16  H   LIG d   1       4.658  -3.674  -5.725  0.00  0.00     0.064 H 
ATOM     17  H   LIG d   1       6.010  -4.133  -7.757  0.00  0.00     0.064 H 
ATOM     18  H   LIG d   1       8.845  -0.024  -6.866  0.00  0.00     0.050 H 
ATOM     19  H   LIG d   1       7.546   0.973  -7.543  0.00  0.00     0.050 H 
ATOM     20  H   LIG d   1       9.596  -2.026  -8.301  0.00  0.00     0.028 H 
ATOM     21  H   LIG d   1       9.434  -1.893 -10.073  0.00  0.00     0.028 H 
ATOM     22  H   LIG d   1       7.306  -2.220 -11.174  0.00  0.00     0.082 H 
ATOM     23  H   LIG d   1       5.858  -2.739 -10.274  0.00  0.00     0.082 H 
ATOM     24  H   LIG d   1       8.041   0.094 -11.019  0.00  0.00     0.082 H 
ATOM     25  H   LIG d   1       7.249   1.186  -9.865  0.00  0.00     0.082 H 
ATOM     26  N   LIG d   1       6.364  -0.709 -10.008  0.00  0.00     0.236 N 
ATOM     27  H   LIG d   1       5.925  -0.634  -9.084  0.00  0.00     0.203 HD
ENDROOT
BRANCH  26  28
ATOM     28  C   LIG d   1       5.397  -0.276 -11.036  0.00  0.00    -0.029 C 
ATOM     29  H   LIG d   1       5.862   0.488 -11.658  0.00  0.00     0.082 H 
ATOM     30  H   LIG d   1       5.129  -1.134 -11.653  0.00  0.00     0.082 H 
BRANCH  28  31
ATOM     31  C   LIG d   1       4.137   0.296 -10.382  0.00  0.00    -0.001 C 
ATOM     32  C   LIG d   1       3.810  -0.502  -9.118  0.00  0.00    -0.045 C 
ATOM     33  C   LIG d   1       2.551   0.070  -8.466  0.00  0.00    -0.053 C 
ATOM     34  H   LIG d   1       3.640  -1.545  -9.382  0.00  0.00     0.027 H 
ATOM     35  H   LIG d   1       4.644  -0.435  -8.421  0.00  0.00     0.027 H 
ATOM     36  C   LIG d   1       2.790   1.535  -8.095  0.00  0.00    -0.053 C 
ATOM     37  H   LIG d   1       1.717   0.003  -9.164  0.00  0.00     0.026 H 
ATOM     38  H   LIG d   1       2.318  -0.499  -7.565  0.00  0.00     0.026 H 
ATOM     39  C   LIG d   1       3.116   2.334  -9.358  0.00  0.00    -0.053 C 
ATOM     40  H   LIG d   1       1.892   1.944  -7.629  0.00  0.00     0.026 H 
ATOM     41  H   LIG d   1       3.624   1.602  -7.397  0.00  0.00     0.026 H 
ATOM     42  C   LIG d   1       4.375   1.762 -10.012  0.00  0.00    -0.045 C 
ATOM     43  H   LIG d   1       2.282   2.267 -10.056  0.00  0.00     0.026 H 
ATOM     44  H   LIG d   1       3.287   3.378  -9.094  0.00  0.00     0.026 H 
ATOM     45  H   LIG d   1       5.210   1.829  -9.314  0.00  0.00     0.027 H 
ATOM     46  H   LIG d   1       4.608   2.331 -10.912  0.00  0.00     0.027 H 
ATOM     47  H   LIG d   1       3.303   0.229 -11.081  0.00  0.00     0.035 H 
ENDBRANCH  28  31
ENDBRANCH  26  28
BRANCH   1  48
ATOM     48  N   LIG d   1       4.604  -1.370  -4.427  0.00  0.00    -0.281 N 
ATOM     49  C   LIG d   1       5.119  -1.536  -3.193  0.00  0.00     0.220 C 
ATOM     50  O   LIG d   1       6.216  -2.033  -3.056  0.00  0.00    -0.275 OA
ATOM     51  H   LIG d   1       3.698  -1.041  -4.534  0.00  0.00     0.155 HD
BRANCH  49  52
ATOM     52  C   LIG d   1       4.331  -1.103  -1.983  0.00  0.00     0.048 C 
ATOM     53  H   LIG d   1       3.267  -1.242  -2.174  0.00  0.00     0.038 H 
ATOM     54  H   LIG d   1       4.627  -1.702  -1.122  0.00  0.00     0.038 H 
BRANCH  52  55
ATOM     55  C   LIG d   1       4.609   0.374  -1.696  0.00  0.00     0.056 C 
ATOM     56  H   LIG d   1       4.874   0.496  -0.646  0.00  0.00     0.056 H 
ATOM     57  H   LIG d   1       5.432   0.717  -2.322  0.00  0.00     0.056 H 
BRANCH  55  58
ATOM     58  O   LIG d   1       3.439   1.144  -1.983  0.00  0.00    -0.383 OA
BRANCH  58  59
ATOM     59  C   LIG d   1       3.509   1.872  -3.210  0.00  0.00     0.036 C 
ATOM     60  H   LIG d   1       3.664   2.929  -2.997  0.00  0.00     0.052 H 
ATOM     61  H   LIG d   1       4.340   1.497  -3.808  0.00  0.00     0.052 H 
ATOM     62  H   LIG d   1       2.578   1.746  -3.762  0.00  0.00     0.052 H 
ENDBRANCH  58  59
ENDBRANCH  55  58
ENDBRANCH  52  55
ENDBRANCH  49  52
ENDBRANCH   1  48
TORSDOF 7
ENDMDL
