MODEL 1
REMARK VINA RESULT:      -8.1      0.000      0.000
REMARK  5 active torsions:
REMARK  status: ('A' for Active; 'I' for Inactive)
REMARK    1  A    between atoms: C_5  and  C_7 
REMARK    2  A    between atoms: C_7  and  N_8 
REMARK    3  A    between atoms: C_13  and  C_30 
REMARK    4  A    between atoms: C_30  and  C_31 
REMARK    5  A    between atoms: C_31  and  C_32 
ROOT
ATOM      1  N   LIG d   1       6.716  -0.853  -8.289  0.00  0.00    -0.237 N 
ATOM      2  C   LIG d   1       6.596  -2.161  -8.543  0.00  0.00     0.228 A 
ATOM      3  O   LIG d   1       6.741  -2.680  -9.628  0.00  0.00    -0.275 OA
ATOM      4  C   LIG d   1       6.252  -2.891  -7.263  0.00  0.00     0.065 A 
ATOM      5  H   LIG d   1       6.975  -3.669  -7.014  0.00  0.00     0.042 H 
ATOM      6  C   LIG d   1       4.809  -3.430  -7.361  0.00  0.00     0.021 C 
ATOM      7  H   LIG d   1       4.281  -2.951  -8.185  0.00  0.00     0.047 H 
ATOM      8  N   LIG d   1       4.179  -3.070  -6.063  0.00  0.00    -0.295 N 
ATOM      9  C   LIG d   1       4.716  -1.730  -5.761  0.00  0.00     0.136 A 
ATOM     10  C   LIG d   1       6.199  -1.754  -6.205  0.00  0.00     0.080 A 
ATOM     11  H   LIG d   1       6.892  -1.913  -5.379  0.00  0.00     0.043 H 
ATOM     12  C   LIG d   1       6.518  -0.514  -7.009  0.00  0.00     0.229 A 
ATOM     13  O   LIG d   1       6.582   0.612  -6.565  0.00  0.00    -0.275 OA
ATOM     14  C   LIG d   1       4.588  -1.405  -4.299  0.00  0.00     0.003 A 
ATOM     15  C   LIG d   1       5.067  -1.997  -3.151  0.00  0.00    -0.055 A 
ATOM     16  C   LIG d   1       4.772  -1.448  -1.915  0.00  0.00    -0.061 A 
ATOM     17  C   LIG d   1       3.997  -0.306  -1.836  0.00  0.00    -0.060 A 
ATOM     18  C   LIG d   1       3.517   0.291  -2.983  0.00  0.00    -0.040 A 
ATOM     19  C   LIG d   1       3.809  -0.254  -4.232  0.00  0.00     0.039 A 
ATOM     20  N   LIG d   1       3.447   0.159  -5.516  0.00  0.00    -0.283 N 
ATOM     21  C   LIG d   1       3.939  -0.655  -6.470  0.00  0.00     0.243 A 
ATOM     22  O   LIG d   1       3.785  -0.543  -7.667  0.00  0.00    -0.273 OA
ATOM     23  H   LIG d   1       3.174  -3.048  -6.144  0.00  0.00     0.123 HD
ATOM     24  H   LIG d   1       5.671  -2.889  -3.215  0.00  0.00     0.062 H 
ATOM     25  H   LIG d   1       5.145  -1.912  -1.014  0.00  0.00     0.062 H 
ATOM     26  H   LIG d   1       3.765   0.121  -0.872  0.00  0.00     0.062 H 
ATOM     27  H   LIG d   1       2.913   1.183  -2.915  0.00  0.00     0.064 H 
ATOM     28  H   LIG d   1       2.903   0.942  -5.700  0.00  0.00     0.155 HD
ENDROOT
BRANCH   1  29
ATOM     29  C   LIG d   1       7.043   0.128  -9.327  0.00  0.00     0.049 C 
ATOM     30  H   LIG d   1       7.421  -0.390 -10.209  0.00  0.00     0.052 H 
ATOM     31  H   LIG d   1       7.804   0.812  -8.954  0.00  0.00     0.052 H 
BRANCH  29  32
ATOM     32  C   LIG d   1       5.805   0.904  -9.692  0.00  0.00    -0.011 A 
ATOM     33  C   LIG d   1       5.014   0.489 -10.748  0.00  0.00     0.046 A 
ATOM     34  C   LIG d   1       3.876   1.203 -11.083  0.00  0.00    -0.043 A 
ATOM     35 CL   LIG d   1       5.449  -0.927 -11.654  0.00  0.00    -0.083 Cl
ATOM     36  C   LIG d   1       3.531   2.330 -10.363  0.00  0.00    -0.060 A 
ATOM     37  H   LIG d   1       3.259   0.878 -11.908  0.00  0.00     0.063 H 
ATOM     38  C   LIG d   1       4.321   2.744  -9.307  0.00  0.00    -0.061 A 
ATOM     39  H   LIG d   1       2.643   2.887 -10.624  0.00  0.00     0.062 H 
ATOM     40  C   LIG d   1       5.457   2.032  -8.972  0.00  0.00    -0.056 A 
ATOM     41  H   LIG d   1       4.053   3.628  -8.746  0.00  0.00     0.062 H 
ATOM     42  H   LIG d   1       6.075   2.356  -8.146  0.00  0.00     0.062 H 
ENDBRANCH  29  32
ENDBRANCH   1  29
BRANCH   6  43
ATOM     43  C   LIG d   1       4.819  -4.949  -7.547  0.00  0.00    -0.032 C 
ATOM     44  H   LIG d   1       3.796  -5.324  -7.530  0.00  0.00     0.028 H 
ATOM     45  H   LIG d   1       5.279  -5.195  -8.503  0.00  0.00     0.028 H 
BRANCH  43  46
ATOM     46  C   LIG d   1       5.619  -5.596  -6.415  0.00  0.00    -0.012 C 
ATOM     47  H   LIG d   1       6.352  -6.285  -6.835  0.00  0.00     0.033 H 
ATOM     48  H   LIG d   1       6.133  -4.822  -5.844  0.00  0.00     0.033 H 
BRANCH  46  49
ATOM     49  C   LIG d   1       4.683  -6.351  -5.506  0.00  0.00     0.042 C 
ATOM     50  O   LIG d   1       4.708  -7.570  -5.481  0.00  0.00    -0.550 OA
ATOM     51  O   LIG d   1       3.900  -5.743  -4.796  0.00  0.00    -0.550 OA
ENDBRANCH  46  49
ENDBRANCH  43  46
ENDBRANCH   6  43
TORSDOF 5
ENDMDL
MODEL 2
REMARK VINA RESULT:      -8.0      3.168      5.270
REMARK  5 active torsions:
REMARK  status: ('A' for Active; 'I' for Inactive)
REMARK    1  A    between atoms: C_5  and  C_7 
REMARK    2  A    between atoms: C_7  and  N_8 
REMARK    3  A    between atoms: C_13  and  C_30 
REMARK    4  A    between atoms: C_30  and  C_31 
REMARK    5  A    between atoms: C_31  and  C_32 
ROOT
ATOM      1  N   LIG d   1       5.212  -0.922  -6.756  0.00  0.00    -0.237 N 
ATOM      2  C   LIG d   1       4.399  -0.950  -5.694  0.00  0.00     0.228 A 
ATOM      3  O   LIG d   1       3.388  -0.293  -5.568  0.00  0.00    -0.275 OA
ATOM      4  C   LIG d   1       4.939  -1.929  -4.675  0.00  0.00     0.065 A 
ATOM      5  H   LIG d   1       4.224  -2.714  -4.425  0.00  0.00     0.042 H 
ATOM      6  C   LIG d   1       5.424  -1.149  -3.433  0.00  0.00     0.021 C 
ATOM      7  H   LIG d   1       5.521  -0.089  -3.666  0.00  0.00     0.047 H 
ATOM      8  N   LIG d   1       6.754  -1.733  -3.114  0.00  0.00    -0.295 N 
ATOM      9  C   LIG d   1       7.369  -1.975  -4.432  0.00  0.00     0.136 A 
ATOM     10  C   LIG d   1       6.226  -2.476  -5.350  0.00  0.00     0.080 A 
ATOM     11  H   LIG d   1       6.214  -3.559  -5.467  0.00  0.00     0.043 H 
ATOM     12  C   LIG d   1       6.265  -1.743  -6.672  0.00  0.00     0.229 A 
ATOM     13  O   LIG d   1       7.120  -1.875  -7.521  0.00  0.00    -0.275 OA
ATOM     14  C   LIG d   1       8.481  -2.982  -4.343  0.00  0.00     0.003 A 
ATOM     15  C   LIG d   1       8.539  -4.295  -3.932  0.00  0.00    -0.055 A 
ATOM     16  C   LIG d   1       9.742  -4.978  -3.966  0.00  0.00    -0.061 A 
ATOM     17  C   LIG d   1      10.884  -4.339  -4.415  0.00  0.00    -0.060 A 
ATOM     18  C   LIG d   1      10.829  -3.025  -4.830  0.00  0.00    -0.040 A 
ATOM     19  C   LIG d   1       9.622  -2.330  -4.798  0.00  0.00     0.039 A 
ATOM     20  N   LIG d   1       9.315  -1.016  -5.160  0.00  0.00    -0.283 N 
ATOM     21  C   LIG d   1       8.013  -0.728  -4.974  0.00  0.00     0.243 A 
ATOM     22  O   LIG d   1       7.466   0.330  -5.200  0.00  0.00    -0.273 OA
ATOM     23  H   LIG d   1       7.308  -1.090  -2.568  0.00  0.00     0.123 HD
ATOM     24  H   LIG d   1       7.647  -4.791  -3.581  0.00  0.00     0.062 H 
ATOM     25  H   LIG d   1       9.790  -6.007  -3.642  0.00  0.00     0.062 H 
ATOM     26  H   LIG d   1      11.823  -4.872  -4.440  0.00  0.00     0.062 H 
ATOM     27  H   LIG d   1      11.724  -2.533  -5.180  0.00  0.00     0.064 H 
ATOM     28  H   LIG d   1       9.966  -0.383  -5.505  0.00  0.00     0.155 HD
ENDROOT
BRANCH   1  29
ATOM     29  C   LIG d   1       4.964  -0.068  -7.920  0.00  0.00     0.049 C 
ATOM     30  H   LIG d   1       5.845  -0.064  -8.562  0.00  0.00     0.052 H 
ATOM     31  H   LIG d   1       4.752   0.948  -7.587  0.00  0.00     0.052 H 
BRANCH  29  32
ATOM     32  C   LIG d   1       3.783  -0.599  -8.691  0.00  0.00    -0.011 A 
ATOM     33  C   LIG d   1       2.729   0.239  -9.007  0.00  0.00     0.046 A 
ATOM     34  C   LIG d   1       1.644  -0.250  -9.714  0.00  0.00    -0.043 A 
ATOM     35 CL   LIG d   1       2.765   1.903  -8.514  0.00  0.00    -0.083 Cl
ATOM     36  C   LIG d   1       1.615  -1.575 -10.106  0.00  0.00    -0.060 A 
ATOM     37  H   LIG d   1       0.822   0.404  -9.961  0.00  0.00     0.063 H 
ATOM     38  C   LIG d   1       2.670  -2.412  -9.791  0.00  0.00    -0.061 A 
ATOM     39  H   LIG d   1       0.770  -1.956 -10.658  0.00  0.00     0.062 H 
ATOM     40  C   LIG d   1       3.753  -1.925  -9.084  0.00  0.00    -0.056 A 
ATOM     41  H   LIG d   1       2.645  -3.448 -10.094  0.00  0.00     0.062 H 
ATOM     42  H   LIG d   1       4.577  -2.579  -8.838  0.00  0.00     0.062 H 
ENDBRANCH  29  32
ENDBRANCH   1  29
BRANCH   6  43
ATOM     43  C   LIG d   1       4.457  -1.352  -2.266  0.00  0.00    -0.032 C 
ATOM     44  H   LIG d   1       3.963  -2.319  -2.366  0.00  0.00     0.028 H 
ATOM     45  H   LIG d   1       5.009  -1.322  -1.327  0.00  0.00     0.028 H 
BRANCH  43  46
ATOM     46  C   LIG d   1       3.406  -0.240  -2.275  0.00  0.00    -0.012 C 
ATOM     47  H   LIG d   1       2.818  -0.304  -3.191  0.00  0.00     0.033 H 
ATOM     48  H   LIG d   1       2.749  -0.353  -1.413  0.00  0.00     0.033 H 
BRANCH  46  49
ATOM     49  C   LIG d   1       4.092   1.100  -2.211  0.00  0.00     0.042 C 
ATOM     50  O   LIG d   1       4.822   1.367  -1.272  0.00  0.00    -0.550 OA
ATOM     51  O   LIG d   1       3.915   1.919  -3.097  0.00  0.00    -0.550 OA
ENDBRANCH  46  49
ENDBRANCH  43  46
ENDBRANCH   6  43
TORSDOF 5
ENDMDL
MODEL 3
REMARK VINA RESULT:      -8.0      3.671      6.472
REMARK  5 active torsions:
REMARK  status: ('A' for Active; 'I' for Inactive)
REMARK    1  A    between atoms: C_5  and  C_7 
REMARK    2  A    between atoms: C_7  and  N_8 
REMARK    3  A    between atoms: C_13  and  C_30 
REMARK    4  A    between atoms: C_30  and  C_31 
REMARK    5  A    between atoms: C_31  and  C_32 
ROOT
ATOM      1  N   LIG d   1       7.569  -2.501  -5.299  0.00  0.00    -0.237 N 
ATOM      2  C   LIG d   1       7.132  -2.175  -4.077  0.00  0.00     0.228 A 
ATOM      3  O   LIG d   1       7.585  -2.596  -3.035  0.00  0.00    -0.275 OA
ATOM      4  C   LIG d   1       5.983  -1.198  -4.200  0.00  0.00     0.065 A 
ATOM      5  H   LIG d   1       6.169  -0.261  -3.673  0.00  0.00     0.042 H 
ATOM      6  C   LIG d   1       4.681  -1.889  -3.742  0.00  0.00     0.021 C 
ATOM      7  H   LIG d   1       4.822  -2.969  -3.694  0.00  0.00     0.047 H 
ATOM      8  N   LIG d   1       3.680  -1.544  -4.786  0.00  0.00    -0.295 N 
ATOM      9  C   LIG d   1       4.439  -1.603  -6.048  0.00  0.00     0.136 A 
ATOM     10  C   LIG d   1       5.835  -1.010  -5.735  0.00  0.00     0.080 A 
ATOM     11  H   LIG d   1       5.938   0.030  -6.045  0.00  0.00     0.043 H 
ATOM     12  C   LIG d   1       6.916  -1.902  -6.302  0.00  0.00     0.229 A 
ATOM     13  O   LIG d   1       7.152  -2.054  -7.481  0.00  0.00    -0.275 OA
ATOM     14  C   LIG d   1       3.750  -0.833  -7.140  0.00  0.00     0.003 A 
ATOM     15  C   LIG d   1       3.374   0.484  -7.278  0.00  0.00    -0.055 A 
ATOM     16  C   LIG d   1       2.738   0.905  -8.433  0.00  0.00    -0.061 A 
ATOM     17  C   LIG d   1       2.483  -0.000  -9.447  0.00  0.00    -0.060 A 
ATOM     18  C   LIG d   1       2.860  -1.320  -9.314  0.00  0.00    -0.040 A 
ATOM     19  C   LIG d   1       3.500  -1.752  -8.154  0.00  0.00     0.039 A 
ATOM     20  N   LIG d   1       3.972  -3.015  -7.788  0.00  0.00    -0.283 N 
ATOM     21  C   LIG d   1       4.536  -3.012  -6.565  0.00  0.00     0.243 A 
ATOM     22  O   LIG d   1       5.027  -3.961  -5.993  0.00  0.00    -0.273 OA
ATOM     23  H   LIG d   1       2.919  -2.207  -4.790  0.00  0.00     0.123 HD
ATOM     24  H   LIG d   1       3.574   1.189  -6.485  0.00  0.00     0.062 H 
ATOM     25  H   LIG d   1       2.442   1.937  -8.542  0.00  0.00     0.062 H 
ATOM     26  H   LIG d   1       1.985   0.328 -10.347  0.00  0.00     0.062 H 
ATOM     27  H   LIG d   1       2.658  -2.021 -10.109  0.00  0.00     0.064 H 
ATOM     28  H   LIG d   1       3.901  -3.803  -8.350  0.00  0.00     0.155 HD
ENDROOT
BRANCH   1  29
ATOM     29  C   LIG d   1       8.677  -3.434  -5.520  0.00  0.00     0.049 C 
ATOM     30  H   LIG d   1       8.671  -3.765  -6.558  0.00  0.00     0.052 H 
ATOM     31  H   LIG d   1       8.563  -4.296  -4.863  0.00  0.00     0.052 H 
BRANCH  29  32
ATOM     32  C   LIG d   1       9.982  -2.743  -5.220  0.00  0.00    -0.011 A 
ATOM     33  C   LIG d   1      10.825  -3.249  -4.248  0.00  0.00     0.046 A 
ATOM     34  C   LIG d   1      12.024  -2.614  -3.973  0.00  0.00    -0.043 A 
ATOM     35 CL   LIG d   1      10.379  -4.680  -3.371  0.00  0.00    -0.083 Cl
ATOM     36  C   LIG d   1      12.378  -1.476  -4.670  0.00  0.00    -0.060 A 
ATOM     37  H   LIG d   1      12.682  -3.009  -3.214  0.00  0.00     0.063 H 
ATOM     38  C   LIG d   1      11.536  -0.971  -5.643  0.00  0.00    -0.061 A 
ATOM     39  H   LIG d   1      13.314  -0.980  -4.456  0.00  0.00     0.062 H 
ATOM     40  C   LIG d   1      10.338  -1.604  -5.918  0.00  0.00    -0.056 A 
ATOM     41  H   LIG d   1      11.811  -0.078  -6.185  0.00  0.00     0.062 H 
ATOM     42  H   LIG d   1       9.680  -1.209  -6.679  0.00  0.00     0.062 H 
ENDBRANCH  29  32
ENDBRANCH   1  29
BRANCH   6  43
ATOM     43  C   LIG d   1       4.241  -1.349  -2.380  0.00  0.00    -0.032 C 
ATOM     44  H   LIG d   1       3.736  -2.137  -1.821  0.00  0.00     0.028 H 
ATOM     45  H   LIG d   1       5.115  -1.012  -1.823  0.00  0.00     0.028 H 
BRANCH  43  46
ATOM     46  C   LIG d   1       3.282  -0.174  -2.583  0.00  0.00    -0.012 C 
ATOM     47  H   LIG d   1       2.889  -0.198  -3.600  0.00  0.00     0.033 H 
ATOM     48  H   LIG d   1       2.458  -0.251  -1.873  0.00  0.00     0.033 H 
BRANCH  46  49
ATOM     49  C   LIG d   1       4.018   1.121  -2.359  0.00  0.00     0.042 C 
ATOM     50  O   LIG d   1       4.726   1.258  -1.375  0.00  0.00    -0.550 OA
ATOM     51  O   LIG d   1       3.907   2.033  -3.161  0.00  0.00    -0.550 OA
ENDBRANCH  46  49
ENDBRANCH  43  46
ENDBRANCH   6  43
TORSDOF 5
ENDMDL
MODEL 4
REMARK VINA RESULT:      -8.0      3.112      6.657
REMARK  5 active torsions:
REMARK  status: ('A' for Active; 'I' for Inactive)
REMARK    1  A    between atoms: C_5  and  C_7 
REMARK    2  A    between atoms: C_7  and  N_8 
REMARK    3  A    between atoms: C_13  and  C_30 
REMARK    4  A    between atoms: C_30  and  C_31 
REMARK    5  A    between atoms: C_31  and  C_32 
ROOT
ATOM      1  N   LIG d   1       6.370  -3.634  -5.567  0.00  0.00    -0.237 N 
ATOM      2  C   LIG d   1       5.323  -3.499  -4.745  0.00  0.00     0.228 A 
ATOM      3  O   LIG d   1       4.410  -4.289  -4.638  0.00  0.00    -0.275 OA
ATOM      4  C   LIG d   1       5.458  -2.207  -3.970  0.00  0.00     0.065 A 
ATOM      5  H   LIG d   1       5.457  -2.362  -2.890  0.00  0.00     0.042 H 
ATOM      6  C   LIG d   1       4.360  -1.225  -4.431  0.00  0.00     0.021 C 
ATOM      7  H   LIG d   1       3.919  -1.562  -5.368  0.00  0.00     0.047 H 
ATOM      8  N   LIG d   1       5.065   0.070  -4.627  0.00  0.00    -0.295 N 
ATOM      9  C   LIG d   1       6.362  -0.312  -5.216  0.00  0.00     0.136 A 
ATOM     10  C   LIG d   1       6.793  -1.612  -4.494  0.00  0.00     0.080 A 
ATOM     11  H   LIG d   1       7.520  -1.440  -3.700  0.00  0.00     0.043 H 
ATOM     12  C   LIG d   1       7.258  -2.636  -5.505  0.00  0.00     0.229 A 
ATOM     13  O   LIG d   1       8.276  -2.562  -6.159  0.00  0.00    -0.275 OA
ATOM     14  C   LIG d   1       7.385   0.776  -5.043  0.00  0.00     0.003 A 
ATOM     15  C   LIG d   1       7.924   1.403  -3.942  0.00  0.00    -0.055 A 
ATOM     16  C   LIG d   1       8.873   2.395  -4.107  0.00  0.00    -0.061 A 
ATOM     17  C   LIG d   1       9.279   2.755  -5.379  0.00  0.00    -0.060 A 
ATOM     18  C   LIG d   1       8.744   2.129  -6.484  0.00  0.00    -0.040 A 
ATOM     19  C   LIG d   1       7.787   1.128  -6.327  0.00  0.00     0.039 A 
ATOM     20  N   LIG d   1       7.107   0.358  -7.274  0.00  0.00    -0.283 N 
ATOM     21  C   LIG d   1       6.251  -0.511  -6.703  0.00  0.00     0.243 A 
ATOM     22  O   LIG d   1       5.532  -1.300  -7.276  0.00  0.00    -0.273 OA
ATOM     23  H   LIG d   1       4.547   0.672  -5.249  0.00  0.00     0.123 HD
ATOM     24  H   LIG d   1       7.605   1.120  -2.950  0.00  0.00     0.062 H 
ATOM     25  H   LIG d   1       9.296   2.889  -3.244  0.00  0.00     0.062 H 
ATOM     26  H   LIG d   1      10.019   3.531  -5.507  0.00  0.00     0.062 H 
ATOM     27  H   LIG d   1       9.066   2.414  -7.474  0.00  0.00     0.064 H 
ATOM     28  H   LIG d   1       7.237   0.440  -8.233  0.00  0.00     0.155 HD
ENDROOT
BRANCH   1  29
ATOM     29  C   LIG d   1       6.533  -4.786  -6.458  0.00  0.00     0.049 C 
ATOM     30  H   LIG d   1       7.259  -4.544  -7.234  0.00  0.00     0.052 H 
ATOM     31  H   LIG d   1       5.575  -5.028  -6.918  0.00  0.00     0.052 H 
BRANCH  29  32
ATOM     32  C   LIG d   1       7.022  -5.970  -5.664  0.00  0.00    -0.011 A 
ATOM     33  C   LIG d   1       6.259  -7.121  -5.598  0.00  0.00     0.046 A 
ATOM     34  C   LIG d   1       6.709  -8.208  -4.868  0.00  0.00    -0.043 A 
ATOM     35 CL   LIG d   1       4.736  -7.202  -6.428  0.00  0.00    -0.083 Cl
ATOM     36  C   LIG d   1       7.920  -8.143  -4.208  0.00  0.00    -0.060 A 
ATOM     37  H   LIG d   1       6.113  -9.107  -4.817  0.00  0.00     0.063 H 
ATOM     38  C   LIG d   1       8.684  -6.992  -4.276  0.00  0.00    -0.061 A 
ATOM     39  H   LIG d   1       8.272  -8.991  -3.639  0.00  0.00     0.062 H 
ATOM     40  C   LIG d   1       8.235  -5.906  -5.003  0.00  0.00    -0.056 A 
ATOM     41  H   LIG d   1       9.629  -6.940  -3.756  0.00  0.00     0.062 H 
ATOM     42  H   LIG d   1       8.832  -5.007  -5.056  0.00  0.00     0.062 H 
ENDBRANCH  29  32
ENDBRANCH   1  29
BRANCH   6  43
ATOM     43  C   LIG d   1       3.281  -1.088  -3.355  0.00  0.00    -0.032 C 
ATOM     44  H   LIG d   1       2.580  -0.303  -3.640  0.00  0.00     0.028 H 
ATOM     45  H   LIG d   1       2.746  -2.031  -3.253  0.00  0.00     0.028 H 
BRANCH  43  46
ATOM     46  C   LIG d   1       3.936  -0.726  -2.020  0.00  0.00    -0.012 C 
ATOM     47  H   LIG d   1       3.283  -1.029  -1.201  0.00  0.00     0.033 H 
ATOM     48  H   LIG d   1       4.892  -1.242  -1.932  0.00  0.00     0.033 H 
BRANCH  46  49
ATOM     49  C   LIG d   1       4.162   0.762  -1.958  0.00  0.00     0.042 C 
ATOM     50  O   LIG d   1       5.274   1.201  -1.720  0.00  0.00    -0.550 OA
ATOM     51  O   LIG d   1       3.232   1.529  -2.145  0.00  0.00    -0.550 OA
ENDBRANCH  46  49
ENDBRANCH  43  46
ENDBRANCH   6  43
TORSDOF 5
ENDMDL
MODEL 5
REMARK VINA RESULT:      -7.8      2.639      6.395
REMARK  5 active torsions:
REMARK  status: ('A' for Active; 'I' for Inactive)
REMARK    1  A    between atoms: C_5  and  C_7 
REMARK    2  A    between atoms: C_7  and  N_8 
REMARK    3  A    between atoms: C_13  and  C_30 
REMARK    4  A    between atoms: C_30  and  C_31 
REMARK    5  A    between atoms: C_31  and  C_32 
ROOT
ATOM      1  N   LIG d   1       6.752  -1.817  -5.550  0.00  0.00    -0.237 N 
ATOM      2  C   LIG d   1       6.097  -1.047  -6.427  0.00  0.00     0.228 A 
ATOM      3  O   LIG d   1       5.919   0.146  -6.316  0.00  0.00    -0.275 OA
ATOM      4  C   LIG d   1       5.611  -1.901  -7.577  0.00  0.00     0.065 A 
ATOM      5  H   LIG d   1       5.982  -1.556  -8.543  0.00  0.00     0.042 H 
ATOM      6  C   LIG d   1       4.070  -1.985  -7.529  0.00  0.00     0.021 C 
ATOM      7  H   LIG d   1       3.703  -1.653  -6.558  0.00  0.00     0.047 H 
ATOM      8  N   LIG d   1       3.761  -3.425  -7.734  0.00  0.00    -0.295 N 
ATOM      9  C   LIG d   1       4.814  -4.131  -6.981  0.00  0.00     0.136 A 
ATOM     10  C   LIG d   1       6.116  -3.322  -7.207  0.00  0.00     0.080 A 
ATOM     11  H   LIG d   1       6.761  -3.754  -7.973  0.00  0.00     0.043 H 
ATOM     12  C   LIG d   1       6.827  -3.108  -5.891  0.00  0.00     0.229 A 
ATOM     13  O   LIG d   1       7.377  -3.973  -5.243  0.00  0.00    -0.275 OA
ATOM     14  C   LIG d   1       4.964  -5.552  -7.449  0.00  0.00     0.003 A 
ATOM     15  C   LIG d   1       5.271  -6.122  -8.664  0.00  0.00    -0.055 A 
ATOM     16  C   LIG d   1       5.337  -7.498  -8.786  0.00  0.00    -0.061 A 
ATOM     17  C   LIG d   1       5.095  -8.299  -7.684  0.00  0.00    -0.060 A 
ATOM     18  C   LIG d   1       4.789  -7.732  -6.465  0.00  0.00    -0.040 A 
ATOM     19  C   LIG d   1       4.720  -6.347  -6.334  0.00  0.00     0.039 A 
ATOM     20  N   LIG d   1       4.435  -5.548  -5.224  0.00  0.00    -0.283 N 
ATOM     21  C   LIG d   1       4.469  -4.235  -5.521  0.00  0.00     0.243 A 
ATOM     22  O   LIG d   1       4.262  -3.315  -4.759  0.00  0.00    -0.273 OA
ATOM     23  H   LIG d   1       2.846  -3.652  -7.376  0.00  0.00     0.123 HD
ATOM     24  H   LIG d   1       5.459  -5.494  -9.522  0.00  0.00     0.062 H 
ATOM     25  H   LIG d   1       5.576  -7.947  -9.739  0.00  0.00     0.062 H 
ATOM     26  H   LIG d   1       5.144  -9.373  -7.780  0.00  0.00     0.062 H 
ATOM     27  H   LIG d   1       4.602  -8.363  -5.609  0.00  0.00     0.064 H 
ATOM     28  H   LIG d   1       4.236  -5.899  -4.341  0.00  0.00     0.155 HD
ENDROOT
BRANCH   1  29
ATOM     29  C   LIG d   1       7.346  -1.285  -4.320  0.00  0.00     0.049 C 
ATOM     30  H   LIG d   1       8.029  -0.473  -4.569  0.00  0.00     0.052 H 
ATOM     31  H   LIG d   1       7.893  -2.077  -3.809  0.00  0.00     0.052 H 
BRANCH  29  32
ATOM     32  C   LIG d   1       6.255  -0.767  -3.420  0.00  0.00    -0.011 A 
ATOM     33  C   LIG d   1       6.181   0.583  -3.129  0.00  0.00     0.046 A 
ATOM     34  C   LIG d   1       5.179   1.059  -2.301  0.00  0.00    -0.043 A 
ATOM     35 CL   LIG d   1       7.347   1.681  -3.800  0.00  0.00    -0.083 Cl
ATOM     36  C   LIG d   1       4.252   0.185  -1.766  0.00  0.00    -0.060 A 
ATOM     37  H   LIG d   1       5.122   2.113  -2.074  0.00  0.00     0.063 H 
ATOM     38  C   LIG d   1       4.325  -1.164  -2.058  0.00  0.00    -0.061 A 
ATOM     39  H   LIG d   1       3.470   0.556  -1.121  0.00  0.00     0.062 H 
ATOM     40  C   LIG d   1       5.326  -1.640  -2.884  0.00  0.00    -0.056 A 
ATOM     41  H   LIG d   1       3.603  -1.847  -1.637  0.00  0.00     0.062 H 
ATOM     42  H   LIG d   1       5.383  -2.695  -3.112  0.00  0.00     0.062 H 
ENDBRANCH  29  32
ENDBRANCH   1  29
BRANCH   6  43
ATOM     43  C   LIG d   1       3.455  -1.142  -8.647  0.00  0.00    -0.032 C 
ATOM     44  H   LIG d   1       4.249  -0.720  -9.264  0.00  0.00     0.028 H 
ATOM     45  H   LIG d   1       2.811  -1.768  -9.263  0.00  0.00     0.028 H 
BRANCH  43  46
ATOM     46  C   LIG d   1       2.629  -0.008  -8.036  0.00  0.00    -0.012 C 
ATOM     47  H   LIG d   1       1.625  -0.021  -8.458  0.00  0.00     0.033 H 
ATOM     48  H   LIG d   1       2.571  -0.142  -6.955  0.00  0.00     0.033 H 
BRANCH  46  49
ATOM     49  C   LIG d   1       3.286   1.314  -8.342  0.00  0.00     0.042 C 
ATOM     50  O   LIG d   1       2.823   2.345  -7.884  0.00  0.00    -0.550 OA
ATOM     51  O   LIG d   1       4.279   1.352  -9.047  0.00  0.00    -0.550 OA
ENDBRANCH  46  49
ENDBRANCH  43  46
ENDBRANCH   6  43
TORSDOF 5
ENDMDL
MODEL 6
REMARK VINA RESULT:      -7.6      2.562      6.120
REMARK  5 active torsions:
REMARK  status: ('A' for Active; 'I' for Inactive)
REMARK    1  A    between atoms: C_5  and  C_7 
REMARK    2  A    between atoms: C_7  and  N_8 
REMARK    3  A    between atoms: C_13  and  C_30 
REMARK    4  A    between atoms: C_30  and  C_31 
REMARK    5  A    between atoms: C_31  and  C_32 
ROOT
ATOM      1  N   LIG d   1       7.455  -2.317  -5.592  0.00  0.00    -0.237 N 
ATOM      2  C   LIG d   1       7.043  -2.069  -4.343  0.00  0.00     0.228 A 
ATOM      3  O   LIG d   1       7.511  -2.564  -3.341  0.00  0.00    -0.275 OA
ATOM      4  C   LIG d   1       5.902  -1.077  -4.379  0.00  0.00     0.065 A 
ATOM      5  H   LIG d   1       6.107  -0.179  -3.794  0.00  0.00     0.042 H 
ATOM      6  C   LIG d   1       4.602  -1.786  -3.944  0.00  0.00     0.021 C 
ATOM      7  H   LIG d   1       4.733  -2.868  -3.970  0.00  0.00     0.047 H 
ATOM      8  N   LIG d   1       3.585  -1.363  -4.943  0.00  0.00    -0.295 N 
ATOM      9  C   LIG d   1       4.321  -1.344  -6.221  0.00  0.00     0.136 A 
ATOM     10  C   LIG d   1       5.728  -0.785  -5.894  0.00  0.00     0.080 A 
ATOM     11  H   LIG d   1       5.836   0.273  -6.136  0.00  0.00     0.043 H 
ATOM     12  C   LIG d   1       6.790  -1.646  -6.540  0.00  0.00     0.229 A 
ATOM     13  O   LIG d   1       7.003  -1.720  -7.731  0.00  0.00    -0.275 OA
ATOM     14  C   LIG d   1       3.620  -0.496  -7.245  0.00  0.00     0.003 A 
ATOM     15  C   LIG d   1       3.254   0.831  -7.287  0.00  0.00    -0.055 A 
ATOM     16  C   LIG d   1       2.601   1.333  -8.399  0.00  0.00    -0.061 A 
ATOM     17  C   LIG d   1       2.318   0.500  -9.466  0.00  0.00    -0.060 A 
ATOM     18  C   LIG d   1       2.685  -0.829  -9.429  0.00  0.00    -0.040 A 
ATOM     19  C   LIG d   1       3.342  -1.343  -8.313  0.00  0.00     0.039 A 
ATOM     20  N   LIG d   1       3.808  -2.631  -8.042  0.00  0.00    -0.283 N 
ATOM     21  C   LIG d   1       4.395  -2.716  -6.833  0.00  0.00     0.243 A 
ATOM     22  O   LIG d   1       4.887  -3.705  -6.334  0.00  0.00    -0.273 OA
ATOM     23  H   LIG d   1       2.818  -2.018  -4.976  0.00  0.00     0.123 HD
ATOM     24  H   LIG d   1       3.475   1.478  -6.453  0.00  0.00     0.062 H 
ATOM     25  H   LIG d   1       2.313   2.373  -8.433  0.00  0.00     0.062 H 
ATOM     26  H   LIG d   1       1.807   0.893 -10.333  0.00  0.00     0.062 H 
ATOM     27  H   LIG d   1       2.461  -1.473 -10.266  0.00  0.00     0.064 H 
ATOM     28  H   LIG d   1       3.719  -3.380  -8.654  0.00  0.00     0.155 HD
ENDROOT
BRANCH   1  29
ATOM     29  C   LIG d   1       8.549  -3.242  -5.896  0.00  0.00     0.049 C 
ATOM     30  H   LIG d   1       9.214  -3.312  -5.035  0.00  0.00     0.052 H 
ATOM     31  H   LIG d   1       9.107  -2.875  -6.758  0.00  0.00     0.052 H 
BRANCH  29  32
ATOM     32  C   LIG d   1       7.984  -4.604  -6.207  0.00  0.00    -0.011 A 
ATOM     33  C   LIG d   1       8.041  -5.099  -7.497  0.00  0.00     0.046 A 
ATOM     34  C   LIG d   1       7.521  -6.350  -7.781  0.00  0.00    -0.043 A 
ATOM     35 CL   LIG d   1       8.763  -4.150  -8.760  0.00  0.00    -0.083 Cl
ATOM     36  C   LIG d   1       6.947  -7.104  -6.777  0.00  0.00    -0.060 A 
ATOM     37  H   LIG d   1       7.566  -6.736  -8.788  0.00  0.00     0.063 H 
ATOM     38  C   LIG d   1       6.891  -6.609  -5.486  0.00  0.00    -0.061 A 
ATOM     39  H   LIG d   1       6.542  -8.080  -6.998  0.00  0.00     0.062 H 
ATOM     40  C   LIG d   1       7.409  -5.360  -5.202  0.00  0.00    -0.056 A 
ATOM     41  H   LIG d   1       6.438  -7.197  -4.702  0.00  0.00     0.062 H 
ATOM     42  H   LIG d   1       7.366  -4.974  -4.193  0.00  0.00     0.062 H 
ENDBRANCH  29  32
ENDBRANCH   1  29
BRANCH   6  43
ATOM     43  C   LIG d   1       4.192  -1.335  -2.541  0.00  0.00    -0.032 C 
ATOM     44  H   LIG d   1       3.685  -2.153  -2.028  0.00  0.00     0.028 H 
ATOM     45  H   LIG d   1       5.080  -1.049  -1.977  0.00  0.00     0.028 H 
BRANCH  43  46
ATOM     46  C   LIG d   1       3.248  -0.136  -2.646  0.00  0.00    -0.012 C 
ATOM     47  H   LIG d   1       2.800  -0.112  -3.640  0.00  0.00     0.033 H 
ATOM     48  H   LIG d   1       2.462  -0.225  -1.896  0.00  0.00     0.033 H 
BRANCH  46  49
ATOM     49  C   LIG d   1       4.022   1.136  -2.413  0.00  0.00     0.042 C 
ATOM     50  O   LIG d   1       4.758   1.233  -1.446  0.00  0.00    -0.550 OA
ATOM     51  O   LIG d   1       3.911   2.069  -3.191  0.00  0.00    -0.550 OA
ENDBRANCH  46  49
ENDBRANCH  43  46
ENDBRANCH   6  43
TORSDOF 5
ENDMDL
MODEL 7
REMARK VINA RESULT:      -7.5      2.841      3.479
REMARK  5 active torsions:
REMARK  status: ('A' for Active; 'I' for Inactive)
REMARK    1  A    between atoms: C_5  and  C_7 
REMARK    2  A    between atoms: C_7  and  N_8 
REMARK    3  A    between atoms: C_13  and  C_30 
REMARK    4  A    between atoms: C_30  and  C_31 
REMARK    5  A    between atoms: C_31  and  C_32 
ROOT
ATOM      1  N   LIG d   1       5.471  -2.557  -7.915  0.00  0.00    -0.237 N 
ATOM      2  C   LIG d   1       6.713  -2.995  -7.678  0.00  0.00     0.228 A 
ATOM      3  O   LIG d   1       7.294  -3.840  -8.325  0.00  0.00    -0.275 OA
ATOM      4  C   LIG d   1       7.280  -2.271  -6.477  0.00  0.00     0.065 A 
ATOM      5  H   LIG d   1       8.207  -1.743  -6.702  0.00  0.00     0.042 H 
ATOM      6  C   LIG d   1       7.432  -3.271  -5.310  0.00  0.00     0.021 C 
ATOM      7  H   LIG d   1       6.865  -4.179  -5.513  0.00  0.00     0.047 H 
ATOM      8  N   LIG d   1       6.872  -2.564  -4.128  0.00  0.00    -0.295 N 
ATOM      9  C   LIG d   1       5.705  -1.837  -4.661  0.00  0.00     0.136 A 
ATOM     10  C   LIG d   1       6.128  -1.317  -6.057  0.00  0.00     0.080 A 
ATOM     11  H   LIG d   1       6.428  -0.269  -6.051  0.00  0.00     0.043 H 
ATOM     12  C   LIG d   1       5.044  -1.612  -7.069  0.00  0.00     0.229 A 
ATOM     13  O   LIG d   1       3.956  -1.079  -7.106  0.00  0.00    -0.275 OA
ATOM     14  C   LIG d   1       5.302  -0.707  -3.755  0.00  0.00     0.003 A 
ATOM     15  C   LIG d   1       5.952   0.415  -3.293  0.00  0.00    -0.055 A 
ATOM     16  C   LIG d   1       5.299   1.294  -2.447  0.00  0.00    -0.061 A 
ATOM     17  C   LIG d   1       3.993   1.042  -2.068  0.00  0.00    -0.060 A 
ATOM     18  C   LIG d   1       3.337  -0.080  -2.530  0.00  0.00    -0.040 A 
ATOM     19  C   LIG d   1       3.988  -0.970  -3.382  0.00  0.00     0.039 A 
ATOM     20  N   LIG d   1       3.545  -2.155  -3.974  0.00  0.00    -0.283 N 
ATOM     21  C   LIG d   1       4.494  -2.726  -4.740  0.00  0.00     0.243 A 
ATOM     22  O   LIG d   1       4.393  -3.756  -5.371  0.00  0.00    -0.273 OA
ATOM     23  H   LIG d   1       6.595  -3.220  -3.413  0.00  0.00     0.123 HD
ATOM     24  H   LIG d   1       6.972   0.609  -3.590  0.00  0.00     0.062 H 
ATOM     25  H   LIG d   1       5.808   2.174  -2.083  0.00  0.00     0.062 H 
ATOM     26  H   LIG d   1       3.484   1.728  -1.406  0.00  0.00     0.062 H 
ATOM     27  H   LIG d   1       2.318  -0.269  -2.231  0.00  0.00     0.064 H 
ATOM     28  H   LIG d   1       2.656  -2.524  -3.849  0.00  0.00     0.155 HD
ENDROOT
BRANCH   1  29
ATOM     29  C   LIG d   1       4.649  -3.067  -9.015  0.00  0.00     0.049 C 
ATOM     30  H   LIG d   1       3.647  -3.288  -8.647  0.00  0.00     0.052 H 
ATOM     31  H   LIG d   1       5.099  -3.976  -9.414  0.00  0.00     0.052 H 
BRANCH  29  32
ATOM     32  C   LIG d   1       4.566  -2.028 -10.103  0.00  0.00    -0.011 A 
ATOM     33  C   LIG d   1       3.335  -1.531 -10.493  0.00  0.00     0.046 A 
ATOM     34  C   LIG d   1       3.260  -0.577 -11.493  0.00  0.00    -0.043 A 
ATOM     35 CL   LIG d   1       1.886  -2.106  -9.729  0.00  0.00    -0.083 Cl
ATOM     36  C   LIG d   1       4.413  -0.120 -12.100  0.00  0.00    -0.060 A 
ATOM     37  H   LIG d   1       2.299  -0.190 -11.797  0.00  0.00     0.063 H 
ATOM     38  C   LIG d   1       5.644  -0.616 -11.710  0.00  0.00    -0.061 A 
ATOM     39  H   LIG d   1       4.354   0.624 -12.880  0.00  0.00     0.062 H 
ATOM     40  C   LIG d   1       5.720  -1.570 -10.712  0.00  0.00    -0.056 A 
ATOM     41  H   LIG d   1       6.545  -0.262 -12.188  0.00  0.00     0.062 H 
ATOM     42  H   LIG d   1       6.681  -1.957 -10.407  0.00  0.00     0.062 H 
ENDBRANCH  29  32
ENDBRANCH   1  29
BRANCH   6  43
ATOM     43  C   LIG d   1       8.908  -3.604  -5.084  0.00  0.00    -0.032 C 
ATOM     44  H   LIG d   1       9.347  -3.964  -6.015  0.00  0.00     0.028 H 
ATOM     45  H   LIG d   1       9.437  -2.710  -4.756  0.00  0.00     0.028 H 
BRANCH  43  46
ATOM     46  C   LIG d   1       9.027  -4.690  -4.013  0.00  0.00    -0.012 C 
ATOM     47  H   LIG d   1       8.036  -4.931  -3.628  0.00  0.00     0.033 H 
ATOM     48  H   LIG d   1       9.476  -5.583  -4.448  0.00  0.00     0.033 H 
BRANCH  46  49
ATOM     49  C   LIG d   1       9.896  -4.191  -2.886  0.00  0.00     0.042 C 
ATOM     50  O   LIG d   1       9.431  -4.073  -1.765  0.00  0.00    -0.550 OA
ATOM     51  O   LIG d   1      11.062  -3.906  -3.096  0.00  0.00    -0.550 OA
ENDBRANCH  46  49
ENDBRANCH  43  46
ENDBRANCH   6  43
TORSDOF 5
ENDMDL
MODEL 8
REMARK VINA RESULT:      -7.4      2.764      6.818
REMARK  5 active torsions:
REMARK  status: ('A' for Active; 'I' for Inactive)
REMARK    1  A    between atoms: C_5  and  C_7 
REMARK    2  A    between atoms: C_7  and  N_8 
REMARK    3  A    between atoms: C_13  and  C_30 
REMARK    4  A    between atoms: C_30  and  C_31 
REMARK    5  A    between atoms: C_31  and  C_32 
ROOT
ATOM      1  N   LIG d   1       6.776  -1.780  -6.288  0.00  0.00    -0.237 N 
ATOM      2  C   LIG d   1       7.623  -0.794  -6.602  0.00  0.00     0.228 A 
ATOM      3  O   LIG d   1       8.553  -0.423  -5.919  0.00  0.00    -0.275 OA
ATOM      4  C   LIG d   1       7.239  -0.212  -7.945  0.00  0.00     0.065 A 
ATOM      5  H   LIG d   1       8.050  -0.261  -8.673  0.00  0.00     0.042 H 
ATOM      6  C   LIG d   1       6.709   1.223  -7.742  0.00  0.00     0.021 C 
ATOM      7  H   LIG d   1       6.479   1.397  -6.691  0.00  0.00     0.047 H 
ATOM      8  N   LIG d   1       5.470   1.291  -8.561  0.00  0.00    -0.295 N 
ATOM      9  C   LIG d   1       4.842  -0.031  -8.376  0.00  0.00     0.136 A 
ATOM     10  C   LIG d   1       6.003  -1.056  -8.361  0.00  0.00     0.080 A 
ATOM     11  H   LIG d   1       6.139  -1.564  -9.316  0.00  0.00     0.043 H 
ATOM     12  C   LIG d   1       5.831  -2.015  -7.205  0.00  0.00     0.229 A 
ATOM     13  O   LIG d   1       4.968  -2.863  -7.120  0.00  0.00    -0.275 OA
ATOM     14  C   LIG d   1       3.861  -0.331  -9.474  0.00  0.00     0.003 A 
ATOM     15  C   LIG d   1       3.973  -0.433 -10.843  0.00  0.00    -0.055 A 
ATOM     16  C   LIG d   1       2.859  -0.730 -11.608  0.00  0.00    -0.061 A 
ATOM     17  C   LIG d   1       1.635  -0.924 -10.995  0.00  0.00    -0.060 A 
ATOM     18  C   LIG d   1       1.518  -0.825  -9.624  0.00  0.00    -0.040 A 
ATOM     19  C   LIG d   1       2.635  -0.527  -8.846  0.00  0.00     0.039 A 
ATOM     20  N   LIG d   1       2.771  -0.375  -7.464  0.00  0.00    -0.283 N 
ATOM     21  C   LIG d   1       4.036  -0.083  -7.107  0.00  0.00     0.243 A 
ATOM     22  O   LIG d   1       4.446   0.103  -5.981  0.00  0.00    -0.273 OA
ATOM     23  H   LIG d   1       4.863   2.029  -8.237  0.00  0.00     0.123 HD
ATOM     24  H   LIG d   1       4.929  -0.280 -11.319  0.00  0.00     0.062 H 
ATOM     25  H   LIG d   1       2.945  -0.808 -12.682  0.00  0.00     0.062 H 
ATOM     26  H   LIG d   1       0.765  -1.154 -11.592  0.00  0.00     0.062 H 
ATOM     27  H   LIG d   1       0.560  -0.979  -9.152  0.00  0.00     0.064 H 
ATOM     28  H   LIG d   1       2.038  -0.471  -6.835  0.00  0.00     0.155 HD
ENDROOT
BRANCH   1  29
ATOM     29  C   LIG d   1       6.880  -2.545  -5.042  0.00  0.00     0.049 C 
ATOM     30  H   LIG d   1       7.904  -2.498  -4.672  0.00  0.00     0.052 H 
ATOM     31  H   LIG d   1       6.608  -3.583  -5.229  0.00  0.00     0.052 H 
BRANCH  29  32
ATOM     32  C   LIG d   1       5.947  -1.959  -4.014  0.00  0.00    -0.011 A 
ATOM     33  C   LIG d   1       4.799  -2.640  -3.654  0.00  0.00     0.046 A 
ATOM     34  C   LIG d   1       3.942  -2.101  -2.709  0.00  0.00    -0.043 A 
ATOM     35 CL   LIG d   1       4.431  -4.170  -4.388  0.00  0.00    -0.083 Cl
ATOM     36  C   LIG d   1       4.235  -0.884  -2.126  0.00  0.00    -0.060 A 
ATOM     37  H   LIG d   1       3.046  -2.633  -2.429  0.00  0.00     0.063 H 
ATOM     38  C   LIG d   1       5.384  -0.204  -2.485  0.00  0.00    -0.061 A 
ATOM     39  H   LIG d   1       3.567  -0.464  -1.389  0.00  0.00     0.062 H 
ATOM     40  C   LIG d   1       6.239  -0.741  -3.429  0.00  0.00    -0.056 A 
ATOM     41  H   LIG d   1       5.610   0.750  -2.032  0.00  0.00     0.062 H 
ATOM     42  H   LIG d   1       7.137  -0.209  -3.709  0.00  0.00     0.062 H 
ENDBRANCH  29  32
ENDBRANCH   1  29
BRANCH   6  43
ATOM     43  C   LIG d   1       7.734   2.245  -8.238  0.00  0.00    -0.032 C 
ATOM     44  H   LIG d   1       7.229   3.184  -8.468  0.00  0.00     0.028 H 
ATOM     45  H   LIG d   1       8.481   2.416  -7.464  0.00  0.00     0.028 H 
BRANCH  43  46
ATOM     46  C   LIG d   1       8.417   1.711  -9.498  0.00  0.00    -0.012 C 
ATOM     47  H   LIG d   1       8.750   0.688  -9.325  0.00  0.00     0.033 H 
ATOM     48  H   LIG d   1       7.712   1.728 -10.330  0.00  0.00     0.033 H 
BRANCH  46  49
ATOM     49  C   LIG d   1       9.606   2.576  -9.830  0.00  0.00     0.042 C 
ATOM     50  O   LIG d   1      10.613   2.518  -9.145  0.00  0.00    -0.550 OA
ATOM     51  O   LIG d   1       9.560   3.335 -10.784  0.00  0.00    -0.550 OA
ENDBRANCH  46  49
ENDBRANCH  43  46
ENDBRANCH   6  43
TORSDOF 5
ENDMDL
MODEL 9
REMARK VINA RESULT:      -7.3      3.409      6.575
REMARK  5 active torsions:
REMARK  status: ('A' for Active; 'I' for Inactive)
REMARK    1  A    between atoms: C_5  and  C_7 
REMARK    2  A    between atoms: C_7  and  N_8 
REMARK    3  A    between atoms: C_13  and  C_30 
REMARK    4  A    between atoms: C_30  and  C_31 
REMARK    5  A    between atoms: C_31  and  C_32 
ROOT
ATOM      1  N   LIG d   1       8.088  -3.195  -5.640  0.00  0.00    -0.237 N 
ATOM      2  C   LIG d   1       7.643  -3.053  -6.894  0.00  0.00     0.228 A 
ATOM      3  O   LIG d   1       8.232  -3.412  -7.891  0.00  0.00    -0.275 OA
ATOM      4  C   LIG d   1       6.292  -2.374  -6.873  0.00  0.00     0.065 A 
ATOM      5  H   LIG d   1       5.515  -2.967  -7.357  0.00  0.00     0.042 H 
ATOM      6  C   LIG d   1       6.426  -0.962  -7.481  0.00  0.00     0.021 C 
ATOM      7  H   LIG d   1       7.475  -0.672  -7.537  0.00  0.00     0.047 H 
ATOM      8  N   LIG d   1       5.693  -0.072  -6.542  0.00  0.00    -0.295 N 
ATOM      9  C   LIG d   1       6.017  -0.609  -5.207  0.00  0.00     0.136 A 
ATOM     10  C   LIG d   1       6.026  -2.151  -5.359  0.00  0.00     0.080 A 
ATOM     11  H   LIG d   1       5.104  -2.620  -5.017  0.00  0.00     0.043 H 
ATOM     12  C   LIG d   1       7.258  -2.728  -4.700  0.00  0.00     0.229 A 
ATOM     13  O   LIG d   1       7.464  -2.760  -3.505  0.00  0.00    -0.275 OA
ATOM     14  C   LIG d   1       5.015  -0.166  -4.179  0.00  0.00     0.003 A 
ATOM     15  C   LIG d   1       3.652  -0.325  -4.053  0.00  0.00    -0.055 A 
ATOM     16  C   LIG d   1       2.991   0.213  -2.964  0.00  0.00    -0.061 A 
ATOM     17  C   LIG d   1       3.700   0.909  -2.002  0.00  0.00    -0.060 A 
ATOM     18  C   LIG d   1       5.065   1.069  -2.123  0.00  0.00    -0.040 A 
ATOM     19  C   LIG d   1       5.739   0.530  -3.217  0.00  0.00     0.039 A 
ATOM     20  N   LIG d   1       7.093   0.556  -3.558  0.00  0.00    -0.283 N 
ATOM     21  C   LIG d   1       7.340  -0.090  -4.713  0.00  0.00     0.243 A 
ATOM     22  O   LIG d   1       8.417  -0.227  -5.251  0.00  0.00    -0.273 OA
ATOM     23  H   LIG d   1       6.004   0.883  -6.633  0.00  0.00     0.123 HD
ATOM     24  H   LIG d   1       3.101  -0.868  -4.806  0.00  0.00     0.062 H 
ATOM     25  H   LIG d   1       1.922   0.090  -2.865  0.00  0.00     0.062 H 
ATOM     26  H   LIG d   1       3.183   1.330  -1.153  0.00  0.00     0.062 H 
ATOM     27  H   LIG d   1       5.612   1.612  -1.368  0.00  0.00     0.064 H 
ATOM     28  H   LIG d   1       7.778   0.990  -3.023  0.00  0.00     0.155 HD
ENDROOT
BRANCH   1  29
ATOM     29  C   LIG d   1       9.375  -3.818  -5.322  0.00  0.00     0.049 C 
ATOM     30  H   LIG d   1       9.908  -3.201  -4.599  0.00  0.00     0.052 H 
ATOM     31  H   LIG d   1       9.970  -3.908  -6.231  0.00  0.00     0.052 H 
BRANCH  29  32
ATOM     32  C   LIG d   1       9.141  -5.187  -4.739  0.00  0.00    -0.011 A 
ATOM     33  C   LIG d   1       9.602  -5.487  -3.470  0.00  0.00     0.046 A 
ATOM     34  C   LIG d   1       9.387  -6.745  -2.934  0.00  0.00    -0.043 A 
ATOM     35 CL   LIG d   1      10.454  -4.285  -2.550  0.00  0.00    -0.083 Cl
ATOM     36  C   LIG d   1       8.710  -7.701  -3.667  0.00  0.00    -0.060 A 
ATOM     37  H   LIG d   1       9.747  -6.978  -1.944  0.00  0.00     0.063 H 
ATOM     38  C   LIG d   1       8.247  -7.401  -4.935  0.00  0.00    -0.061 A 
ATOM     39  H   LIG d   1       8.541  -8.682  -3.249  0.00  0.00     0.062 H 
ATOM     40  C   LIG d   1       8.463  -6.145  -5.471  0.00  0.00    -0.056 A 
ATOM     41  H   LIG d   1       7.722  -8.149  -5.509  0.00  0.00     0.062 H 
ATOM     42  H   LIG d   1       8.101  -5.911  -6.462  0.00  0.00     0.062 H 
ENDBRANCH  29  32
ENDBRANCH   1  29
BRANCH   6  43
ATOM     43  C   LIG d   1       5.787  -0.916  -8.870  0.00  0.00    -0.032 C 
ATOM     44  H   LIG d   1       6.499  -0.502  -9.585  0.00  0.00     0.028 H 
ATOM     45  H   LIG d   1       5.511  -1.924  -9.176  0.00  0.00     0.028 H 
BRANCH  43  46
ATOM     46  C   LIG d   1       4.537  -0.035  -8.827  0.00  0.00    -0.012 C 
ATOM     47  H   LIG d   1       3.722  -0.535  -9.349  0.00  0.00     0.033 H 
ATOM     48  H   LIG d   1       4.251   0.141  -7.790  0.00  0.00     0.033 H 
BRANCH  46  49
ATOM     49  C   LIG d   1       4.828   1.283  -9.497  0.00  0.00     0.042 C 
ATOM     50  O   LIG d   1       4.705   1.393 -10.705  0.00  0.00    -0.550 OA
ATOM     51  O   LIG d   1       5.187   2.240  -8.831  0.00  0.00    -0.550 OA
ENDBRANCH  46  49
ENDBRANCH  43  46
ENDBRANCH   6  43
TORSDOF 5
ENDMDL
