MODEL 1
REMARK VINA RESULT:      -7.5      0.000      0.000
REMARK  10 active torsions:
REMARK  status: ('A' for Active; 'I' for Inactive)
REMARK    1  A    between atoms: C_1  and  O_2 
REMARK    2  A    between atoms: O_2  and  C_3 
REMARK    3  A    between atoms: C_6  and  O_9 
REMARK    4  A    between atoms: O_9  and  C_10 
REMARK    5  A    between atoms: C_13  and  N_32 
REMARK    6  A    between atoms: C_15  and  C_16 
REMARK    7  A    between atoms: C_19  and  O_23 
REMARK    8  A    between atoms: C_21  and  O_22 
REMARK    9  A    between atoms: O_23  and  C_24 
REMARK   10  A    between atoms: C_24  and  C_25 
ROOT
ATOM      1  C   LIG d   1       2.209  -1.644 -11.650  0.00  0.00     0.172 A 
ATOM      2  C   LIG d   1       2.243  -2.045 -12.978  0.00  0.00     0.076 A 
ATOM      3  N   LIG d   1       3.203  -1.588 -13.767  0.00  0.00    -0.219 NA
ATOM      4  C   LIG d   1       4.123  -0.751 -13.310  0.00  0.00     0.213 A 
ATOM      5  N   LIG d   1       4.127  -0.337 -12.053  0.00  0.00    -0.211 NA
ATOM      6  C   LIG d   1       3.195  -0.754 -11.199  0.00  0.00     0.122 A 
ATOM      7  H   LIG d   1       1.498  -2.726 -13.362  0.00  0.00     0.087 H 
ENDROOT
BRANCH   6   8
ATOM      8  C   LIG d   1       3.202  -0.290  -9.793  0.00  0.00     0.046 A 
ATOM      9  C   LIG d   1       3.926  -0.995  -8.824  0.00  0.00     0.130 A 
ATOM     10  C   LIG d   1       3.927  -0.555  -7.511  0.00  0.00     0.022 A 
ATOM     11  C   LIG d   1       3.213   0.580  -7.159  0.00  0.00     0.124 A 
ATOM     12  H   LIG d   1       4.485  -1.097  -6.762  0.00  0.00     0.069 H 
ATOM     13  C   LIG d   1       2.489   1.277  -8.118  0.00  0.00    -0.019 A 
ATOM     14  C   LIG d   1       2.486   0.851  -9.429  0.00  0.00    -0.045 A 
ATOM     15  H   LIG d   1       1.931   2.157  -7.837  0.00  0.00     0.065 H 
ATOM     16  H   LIG d   1       1.925   1.398 -10.173  0.00  0.00     0.063 H 
BRANCH   9  17
ATOM     17  O   LIG d   1       4.625  -2.105  -9.172  0.00  0.00    -0.506 OA
ATOM     18  H   LIG d   1       5.497  -1.921  -9.546  0.00  0.00     0.292 HD
ENDBRANCH   9  17
BRANCH  11  19
ATOM     19  O   LIG d   1       3.215   1.008  -5.869  0.00  0.00    -0.487 OA
BRANCH  19  20
ATOM     20  C   LIG d   1       2.349   0.330  -4.959  0.00  0.00     0.117 C 
ATOM     21  H   LIG d   1       1.550   1.003  -4.647  0.00  0.00     0.075 H 
ATOM     22  H   LIG d   1       1.917  -0.544  -5.449  0.00  0.00     0.075 H 
BRANCH  20  23
ATOM     23  C   LIG d   1       3.135  -0.110  -3.750  0.00  0.00     0.025 A 
ATOM     24  C   LIG d   1       3.674   0.835  -2.893  0.00  0.00     0.130 A 
ATOM     25  C   LIG d   1       4.395   0.430  -1.783  0.00  0.00    -0.026 A 
ATOM     26  F   LIG d   1       3.494   2.152  -3.140  0.00  0.00    -0.205 F 
ATOM     27  C   LIG d   1       4.577  -0.917  -1.531  0.00  0.00    -0.059 A 
ATOM     28  H   LIG d   1       4.815   1.166  -1.114  0.00  0.00     0.065 H 
ATOM     29  C   LIG d   1       4.038  -1.858  -2.388  0.00  0.00    -0.061 A 
ATOM     30  H   LIG d   1       5.139  -1.232  -0.665  0.00  0.00     0.062 H 
ATOM     31  C   LIG d   1       3.313  -1.456  -3.493  0.00  0.00    -0.053 A 
ATOM     32  H   LIG d   1       4.180  -2.911  -2.190  0.00  0.00     0.062 H 
ATOM     33  H   LIG d   1       2.889  -2.193  -4.159  0.00  0.00     0.062 H 
ENDBRANCH  20  23
ENDBRANCH  19  20
ENDBRANCH  11  19
ENDBRANCH   6   8
BRANCH   1  34
ATOM     34  O   LIG d   1       1.241  -2.097 -10.810  0.00  0.00    -0.452 OA
BRANCH  34  35
ATOM     35  C   LIG d   1       1.171  -3.436 -10.581  0.00  0.00     0.129 A 
ATOM     36  C   LIG d   1       2.281  -4.116 -10.100  0.00  0.00    -0.016 A 
ATOM     37  C   LIG d   1       2.209  -5.476  -9.868  0.00  0.00    -0.017 A 
ATOM     38  H   LIG d   1       3.201  -3.583  -9.910  0.00  0.00     0.066 H 
ATOM     39  C   LIG d   1       1.028  -6.161 -10.113  0.00  0.00     0.120 A 
ATOM     40  H   LIG d   1       3.073  -6.005  -9.495  0.00  0.00     0.066 H 
ATOM     41  C   LIG d   1      -0.081  -5.480 -10.593  0.00  0.00    -0.017 A 
ATOM     42  C   LIG d   1      -0.012  -4.119 -10.821  0.00  0.00    -0.016 A 
ATOM     43  H   LIG d   1      -1.001  -6.013 -10.783  0.00  0.00     0.066 H 
ATOM     44  H   LIG d   1      -0.877  -3.589 -11.189  0.00  0.00     0.066 H 
BRANCH  39  45
ATOM     45  O   LIG d   1       0.958  -7.499  -9.884  0.00  0.00    -0.495 OA
BRANCH  45  46
ATOM     46  C   LIG d   1       0.001  -8.238 -10.647  0.00  0.00     0.079 C 
ATOM     47  H   LIG d   1       0.012  -7.888 -11.680  0.00  0.00     0.066 H 
ATOM     48  H   LIG d   1       0.255  -9.297 -10.618  0.00  0.00     0.066 H 
ATOM     49  H   LIG d   1      -0.992  -8.091 -10.223  0.00  0.00     0.066 H 
ENDBRANCH  45  46
ENDBRANCH  39  45
ENDBRANCH  34  35
ENDBRANCH   1  34
BRANCH   4  50
ATOM     50  N   LIG d   1       5.109  -0.297 -14.173  0.00  0.00    -0.328 N 
ATOM     51  H   LIG d   1       4.877   0.299 -14.903  0.00  0.00     0.145 HD
ATOM     52  H   LIG d   1       6.030  -0.574 -14.047  0.00  0.00     0.145 HD
ENDBRANCH   4  50
TORSDOF 10
ENDMDL
MODEL 2
REMARK VINA RESULT:      -7.3      1.212      1.476
REMARK  10 active torsions:
REMARK  status: ('A' for Active; 'I' for Inactive)
REMARK    1  A    between atoms: C_1  and  O_2 
REMARK    2  A    between atoms: O_2  and  C_3 
REMARK    3  A    between atoms: C_6  and  O_9 
REMARK    4  A    between atoms: O_9  and  C_10 
REMARK    5  A    between atoms: C_13  and  N_32 
REMARK    6  A    between atoms: C_15  and  C_16 
REMARK    7  A    between atoms: C_19  and  O_23 
REMARK    8  A    between atoms: C_21  and  O_22 
REMARK    9  A    between atoms: O_23  and  C_24 
REMARK   10  A    between atoms: C_24  and  C_25 
ROOT
ATOM      1  C   LIG d   1       2.960  -0.836 -11.987  0.00  0.00     0.172 A 
ATOM      2  C   LIG d   1       3.306  -1.243 -13.268  0.00  0.00     0.076 A 
ATOM      3  N   LIG d   1       4.581  -1.249 -13.622  0.00  0.00    -0.219 NA
ATOM      4  C   LIG d   1       5.528  -0.867 -12.777  0.00  0.00     0.213 A 
ATOM      5  N   LIG d   1       5.244  -0.466 -11.548  0.00  0.00    -0.211 NA
ATOM      6  C   LIG d   1       3.985  -0.433 -11.118  0.00  0.00     0.122 A 
ATOM      7  H   LIG d   1       2.543  -1.556 -13.965  0.00  0.00     0.087 H 
ENDROOT
BRANCH   6   8
ATOM      8  C   LIG d   1       3.671   0.016  -9.742  0.00  0.00     0.046 A 
ATOM      9  C   LIG d   1       3.805  -0.871  -8.667  0.00  0.00     0.130 A 
ATOM     10  C   LIG d   1       3.509  -0.444  -7.383  0.00  0.00     0.022 A 
ATOM     11  C   LIG d   1       3.082   0.857  -7.165  0.00  0.00     0.124 A 
ATOM     12  H   LIG d   1       3.612  -1.125  -6.551  0.00  0.00     0.069 H 
ATOM     13  C   LIG d   1       2.943   1.735  -8.233  0.00  0.00    -0.019 A 
ATOM     14  C   LIG d   1       3.240   1.323  -9.514  0.00  0.00    -0.045 A 
ATOM     15  H   LIG d   1       2.605   2.746  -8.058  0.00  0.00     0.065 H 
ATOM     16  H   LIG d   1       3.135   2.010 -10.340  0.00  0.00     0.063 H 
BRANCH   9  17
ATOM     17  O   LIG d   1       4.225  -2.144  -8.883  0.00  0.00    -0.506 OA
ATOM     18  H   LIG d   1       4.486  -2.323  -9.796  0.00  0.00     0.292 HD
ENDBRANCH   9  17
BRANCH  11  19
ATOM     19  O   LIG d   1       2.791   1.272  -5.905  0.00  0.00    -0.487 OA
BRANCH  19  20
ATOM     20  C   LIG d   1       2.117   0.343  -5.055  0.00  0.00     0.117 C 
ATOM     21  H   LIG d   1       1.161   0.765  -4.741  0.00  0.00     0.075 H 
ATOM     22  H   LIG d   1       1.942  -0.586  -5.597  0.00  0.00     0.075 H 
BRANCH  20  23
ATOM     23  C   LIG d   1       2.965   0.065  -3.841  0.00  0.00     0.025 A 
ATOM     24  C   LIG d   1       3.479   1.115  -3.099  0.00  0.00     0.130 A 
ATOM     25  C   LIG d   1       4.258   0.858  -1.984  0.00  0.00    -0.026 A 
ATOM     26  F   LIG d   1       3.218   2.390  -3.462  0.00  0.00    -0.205 F 
ATOM     27  C   LIG d   1       4.523  -0.447  -1.613  0.00  0.00    -0.059 A 
ATOM     28  H   LIG d   1       4.659   1.677  -1.405  0.00  0.00     0.065 H 
ATOM     29  C   LIG d   1       4.009  -1.494  -2.355  0.00  0.00    -0.061 A 
ATOM     30  H   LIG d   1       5.130  -0.647  -0.743  0.00  0.00     0.062 H 
ATOM     31  C   LIG d   1       3.227  -1.239  -3.465  0.00  0.00    -0.053 A 
ATOM     32  H   LIG d   1       4.217  -2.514  -2.063  0.00  0.00     0.062 H 
ATOM     33  H   LIG d   1       2.823  -2.058  -4.040  0.00  0.00     0.062 H 
ENDBRANCH  20  23
ENDBRANCH  19  20
ENDBRANCH  11  19
ENDBRANCH   6   8
BRANCH   1  34
ATOM     34  O   LIG d   1       1.661  -0.822 -11.586  0.00  0.00    -0.452 OA
BRANCH  34  35
ATOM     35  C   LIG d   1       0.980  -1.999 -11.591  0.00  0.00     0.129 A 
ATOM     36  C   LIG d   1       1.207  -2.937 -10.594  0.00  0.00    -0.016 A 
ATOM     37  C   LIG d   1       0.515  -4.132 -10.599  0.00  0.00    -0.017 A 
ATOM     38  H   LIG d   1       1.927  -2.733  -9.815  0.00  0.00     0.066 H 
ATOM     39  C   LIG d   1      -0.409  -4.394 -11.600  0.00  0.00     0.120 A 
ATOM     40  H   LIG d   1       0.693  -4.861  -9.824  0.00  0.00     0.066 H 
ATOM     41  C   LIG d   1      -0.636  -3.456 -12.597  0.00  0.00    -0.017 A 
ATOM     42  C   LIG d   1       0.052  -2.259 -12.589  0.00  0.00    -0.016 A 
ATOM     43  H   LIG d   1      -1.356  -3.661 -13.375  0.00  0.00     0.066 H 
ATOM     44  H   LIG d   1      -0.130  -1.527 -13.362  0.00  0.00     0.066 H 
BRANCH  39  45
ATOM     45  O   LIG d   1      -1.090  -5.571 -11.605  0.00  0.00    -0.495 OA
BRANCH  45  46
ATOM     46  C   LIG d   1      -1.166  -6.281 -10.367  0.00  0.00     0.079 C 
ATOM     47  H   LIG d   1      -1.467  -7.312 -10.556  0.00  0.00     0.066 H 
ATOM     48  H   LIG d   1      -0.191  -6.269  -9.881  0.00  0.00     0.066 H 
ATOM     49  H   LIG d   1      -1.900  -5.802  -9.719  0.00  0.00     0.066 H 
ENDBRANCH  45  46
ENDBRANCH  39  45
ENDBRANCH  34  35
ENDBRANCH   1  34
BRANCH   4  50
ATOM     50  N   LIG d   1       6.850  -0.888 -13.192  0.00  0.00    -0.328 N 
ATOM     51  H   LIG d   1       7.565  -0.822 -12.538  0.00  0.00     0.145 HD
ATOM     52  H   LIG d   1       7.062  -0.970 -14.135  0.00  0.00     0.145 HD
ENDBRANCH   4  50
TORSDOF 10
ENDMDL
MODEL 3
REMARK VINA RESULT:      -7.1      8.627     12.936
REMARK  10 active torsions:
REMARK  status: ('A' for Active; 'I' for Inactive)
REMARK    1  A    between atoms: C_1  and  O_2 
REMARK    2  A    between atoms: O_2  and  C_3 
REMARK    3  A    between atoms: C_6  and  O_9 
REMARK    4  A    between atoms: O_9  and  C_10 
REMARK    5  A    between atoms: C_13  and  N_32 
REMARK    6  A    between atoms: C_15  and  C_16 
REMARK    7  A    between atoms: C_19  and  O_23 
REMARK    8  A    between atoms: C_21  and  O_22 
REMARK    9  A    between atoms: O_23  and  C_24 
REMARK   10  A    between atoms: C_24  and  C_25 
ROOT
ATOM      1  C   LIG d   1      12.068   5.969  -4.167  0.00  0.00     0.172 A 
ATOM      2  C   LIG d   1      13.256   6.659  -3.970  0.00  0.00     0.076 A 
ATOM      3  N   LIG d   1      14.374   5.979  -3.771  0.00  0.00    -0.219 NA
ATOM      4  C   LIG d   1      14.374   4.653  -3.750  0.00  0.00     0.213 A 
ATOM      5  N   LIG d   1      13.265   3.954  -3.928  0.00  0.00    -0.211 NA
ATOM      6  C   LIG d   1      12.101   4.567  -4.135  0.00  0.00     0.122 A 
ATOM      7  H   LIG d   1      13.268   7.738  -3.985  0.00  0.00     0.087 H 
ENDROOT
BRANCH   6   8
ATOM      8  C   LIG d   1      10.862   3.781  -4.334  0.00  0.00     0.046 A 
ATOM      9  C   LIG d   1      10.288   3.091  -3.260  0.00  0.00     0.130 A 
ATOM     10  C   LIG d   1       9.129   2.358  -3.454  0.00  0.00     0.022 A 
ATOM     11  C   LIG d   1       8.541   2.308  -4.708  0.00  0.00     0.124 A 
ATOM     12  H   LIG d   1       8.684   1.824  -2.627  0.00  0.00     0.069 H 
ATOM     13  C   LIG d   1       9.113   2.988  -5.777  0.00  0.00    -0.019 A 
ATOM     14  C   LIG d   1      10.263   3.726  -5.593  0.00  0.00    -0.045 A 
ATOM     15  H   LIG d   1       8.653   2.942  -6.753  0.00  0.00     0.065 H 
ATOM     16  H   LIG d   1      10.703   4.256  -6.425  0.00  0.00     0.063 H 
BRANCH   9  17
ATOM     17  O   LIG d   1      10.866   3.141  -2.033  0.00  0.00    -0.506 OA
ATOM     18  H   LIG d   1      10.247   3.330  -1.313  0.00  0.00     0.292 HD
ENDBRANCH   9  17
BRANCH  11  19
ATOM     19  O   LIG d   1       7.405   1.587  -4.896  0.00  0.00    -0.487 OA
BRANCH  19  20
ATOM     20  C   LIG d   1       7.418   0.229  -4.455  0.00  0.00     0.117 C 
ATOM     21  H   LIG d   1       7.308  -0.434  -5.313  0.00  0.00     0.075 H 
ATOM     22  H   LIG d   1       8.363   0.018  -3.953  0.00  0.00     0.075 H 
BRANCH  20  23
ATOM     23  C   LIG d   1       6.279   0.001  -3.495  0.00  0.00     0.025 A 
ATOM     24  C   LIG d   1       5.845  -1.287  -3.228  0.00  0.00     0.130 A 
ATOM     25  C   LIG d   1       4.798  -1.494  -2.346  0.00  0.00    -0.026 A 
ATOM     26  F   LIG d   1       6.444  -2.340  -3.826  0.00  0.00    -0.205 F 
ATOM     27  C   LIG d   1       4.187  -0.417  -1.733  0.00  0.00    -0.059 A 
ATOM     28  H   LIG d   1       4.460  -2.498  -2.137  0.00  0.00     0.065 H 
ATOM     29  C   LIG d   1       4.622   0.868  -2.001  0.00  0.00    -0.061 A 
ATOM     30  H   LIG d   1       3.371  -0.579  -1.045  0.00  0.00     0.062 H 
ATOM     31  C   LIG d   1       5.670   1.077  -2.877  0.00  0.00    -0.053 A 
ATOM     32  H   LIG d   1       4.143   1.710  -1.521  0.00  0.00     0.062 H 
ATOM     33  H   LIG d   1       6.011   2.081  -3.082  0.00  0.00     0.062 H 
ENDBRANCH  20  23
ENDBRANCH  19  20
ENDBRANCH  11  19
ENDBRANCH   6   8
BRANCH   1  34
ATOM     34  O   LIG d   1      10.902   6.634  -4.380  0.00  0.00    -0.452 OA
BRANCH  34  35
ATOM     35  C   LIG d   1      10.425   7.421  -3.379  0.00  0.00     0.129 A 
ATOM     36  C   LIG d   1      10.470   8.802  -3.500  0.00  0.00    -0.016 A 
ATOM     37  C   LIG d   1       9.985   9.601  -2.482  0.00  0.00    -0.017 A 
ATOM     38  H   LIG d   1      10.886   9.253  -4.389  0.00  0.00     0.066 H 
ATOM     39  C   LIG d   1       9.452   9.022  -1.340  0.00  0.00     0.120 A 
ATOM     40  H   LIG d   1      10.021  10.676  -2.576  0.00  0.00     0.066 H 
ATOM     41  C   LIG d   1       9.407   7.640  -1.219  0.00  0.00    -0.017 A 
ATOM     42  C   LIG d   1       9.887   6.842  -2.238  0.00  0.00    -0.016 A 
ATOM     43  H   LIG d   1       8.991   7.191  -0.330  0.00  0.00     0.066 H 
ATOM     44  H   LIG d   1       9.846   5.767  -2.147  0.00  0.00     0.066 H 
BRANCH  39  45
ATOM     45  O   LIG d   1       8.975   9.808  -0.338  0.00  0.00    -0.495 OA
BRANCH  45  46
ATOM     46  C   LIG d   1       9.908  10.685   0.297  0.00  0.00     0.079 C 
ATOM     47  H   LIG d   1       9.855  10.550   1.378  0.00  0.00     0.066 H 
ATOM     48  H   LIG d   1      10.915  10.457  -0.050  0.00  0.00     0.066 H 
ATOM     49  H   LIG d   1       9.662  11.718   0.048  0.00  0.00     0.066 H 
ENDBRANCH  45  46
ENDBRANCH  39  45
ENDBRANCH  34  35
ENDBRANCH   1  34
BRANCH   4  50
ATOM     50  N   LIG d   1      15.568   3.983  -3.537  0.00  0.00    -0.328 N 
ATOM     51  H   LIG d   1      15.781   3.641  -2.654  0.00  0.00     0.145 HD
ATOM     52  H   LIG d   1      16.190   3.854  -4.270  0.00  0.00     0.145 HD
ENDBRANCH   4  50
TORSDOF 10
ENDMDL
MODEL 4
REMARK VINA RESULT:      -7.1      6.070      7.435
REMARK  10 active torsions:
REMARK  status: ('A' for Active; 'I' for Inactive)
REMARK    1  A    between atoms: C_1  and  O_2 
REMARK    2  A    between atoms: O_2  and  C_3 
REMARK    3  A    between atoms: C_6  and  O_9 
REMARK    4  A    between atoms: O_9  and  C_10 
REMARK    5  A    between atoms: C_13  and  N_32 
REMARK    6  A    between atoms: C_15  and  C_16 
REMARK    7  A    between atoms: C_19  and  O_23 
REMARK    8  A    between atoms: C_21  and  O_22 
REMARK    9  A    between atoms: O_23  and  C_24 
REMARK   10  A    between atoms: C_24  and  C_25 
ROOT
ATOM      1  C   LIG d   1       4.633  -8.067  -6.652  0.00  0.00     0.172 A 
ATOM      2  C   LIG d   1       4.317  -9.211  -7.371  0.00  0.00     0.076 A 
ATOM      3  N   LIG d   1       4.564  -9.246  -8.670  0.00  0.00    -0.219 NA
ATOM      4  C   LIG d   1       5.102  -8.207  -9.294  0.00  0.00     0.213 A 
ATOM      5  N   LIG d   1       5.415  -7.095  -8.649  0.00  0.00    -0.211 NA
ATOM      6  C   LIG d   1       5.197  -6.983  -7.341  0.00  0.00     0.122 A 
ATOM      7  H   LIG d   1       3.878 -10.063  -6.874  0.00  0.00     0.087 H 
ENDROOT
BRANCH   6   8
ATOM      8  C   LIG d   1       5.549  -5.736  -6.623  0.00  0.00     0.046 A 
ATOM      9  C   LIG d   1       4.541  -4.866  -6.191  0.00  0.00     0.130 A 
ATOM     10  C   LIG d   1       4.878  -3.702  -5.522  0.00  0.00     0.022 A 
ATOM     11  C   LIG d   1       6.209  -3.401  -5.280  0.00  0.00     0.124 A 
ATOM     12  H   LIG d   1       4.102  -3.029  -5.187  0.00  0.00     0.069 H 
ATOM     13  C   LIG d   1       7.211  -4.261  -5.713  0.00  0.00    -0.019 A 
ATOM     14  C   LIG d   1       6.886  -5.425  -6.376  0.00  0.00    -0.045 A 
ATOM     15  H   LIG d   1       8.247  -4.019  -5.526  0.00  0.00     0.065 H 
ATOM     16  H   LIG d   1       7.667  -6.093  -6.708  0.00  0.00     0.063 H 
BRANCH   9  17
ATOM     17  O   LIG d   1       3.238  -5.163  -6.429  0.00  0.00    -0.506 OA
ATOM     18  H   LIG d   1       2.613  -4.533  -6.044  0.00  0.00     0.292 HD
ENDBRANCH   9  17
BRANCH  11  19
ATOM     19  O   LIG d   1       6.537  -2.257  -4.623  0.00  0.00    -0.487 OA
BRANCH  19  20
ATOM     20  C   LIG d   1       6.277  -2.219  -3.219  0.00  0.00     0.117 C 
ATOM     21  H   LIG d   1       5.770  -3.135  -2.918  0.00  0.00     0.075 H 
ATOM     22  H   LIG d   1       7.219  -2.131  -2.677  0.00  0.00     0.075 H 
BRANCH  20  23
ATOM     23  C   LIG d   1       5.403  -1.033  -2.903  0.00  0.00     0.025 A 
ATOM     24  C   LIG d   1       4.083  -1.226  -2.529  0.00  0.00     0.130 A 
ATOM     25  C   LIG d   1       3.281  -0.135  -2.238  0.00  0.00    -0.026 A 
ATOM     26  F   LIG d   1       3.580  -2.477  -2.447  0.00  0.00    -0.205 F 
ATOM     27  C   LIG d   1       3.797   1.144  -2.320  0.00  0.00    -0.059 A 
ATOM     28  H   LIG d   1       2.252  -0.285  -1.946  0.00  0.00     0.065 H 
ATOM     29  C   LIG d   1       5.115   1.334  -2.694  0.00  0.00    -0.061 A 
ATOM     30  H   LIG d   1       3.172   1.994  -2.093  0.00  0.00     0.062 H 
ATOM     31  C   LIG d   1       5.919   0.247  -2.979  0.00  0.00    -0.053 A 
ATOM     32  H   LIG d   1       5.518   2.335  -2.758  0.00  0.00     0.062 H 
ATOM     33  H   LIG d   1       6.949   0.397  -3.266  0.00  0.00     0.062 H 
ENDBRANCH  20  23
ENDBRANCH  19  20
ENDBRANCH  11  19
ENDBRANCH   6   8
BRANCH   1  34
ATOM     34  O   LIG d   1       4.398  -7.996  -5.314  0.00  0.00    -0.452 OA
BRANCH  34  35
ATOM     35  C   LIG d   1       4.963  -8.942  -4.517  0.00  0.00     0.129 A 
ATOM     36  C   LIG d   1       4.159  -9.846  -3.836  0.00  0.00    -0.016 A 
ATOM     37  C   LIG d   1       4.734 -10.806  -3.027  0.00  0.00    -0.017 A 
ATOM     38  H   LIG d   1       3.086  -9.797  -3.938  0.00  0.00     0.066 H 
ATOM     39  C   LIG d   1       6.114 -10.868  -2.896  0.00  0.00     0.120 A 
ATOM     40  H   LIG d   1       4.109 -11.509  -2.497  0.00  0.00     0.066 H 
ATOM     41  C   LIG d   1       6.916  -9.965  -3.577  0.00  0.00    -0.017 A 
ATOM     42  C   LIG d   1       6.343  -9.007  -4.390  0.00  0.00    -0.016 A 
ATOM     43  H   LIG d   1       7.990 -10.014  -3.474  0.00  0.00     0.066 H 
ATOM     44  H   LIG d   1       6.968  -8.308  -4.924  0.00  0.00     0.066 H 
BRANCH  39  45
ATOM     45  O   LIG d   1       6.679 -11.814  -2.098  0.00  0.00    -0.495 OA
BRANCH  45  46
ATOM     46  C   LIG d   1       7.688 -12.638  -2.686  0.00  0.00     0.079 C 
ATOM     47  H   LIG d   1       8.576 -12.632  -2.052  0.00  0.00     0.066 H 
ATOM     48  H   LIG d   1       7.315 -13.657  -2.781  0.00  0.00     0.066 H 
ATOM     49  H   LIG d   1       7.944 -12.251  -3.672  0.00  0.00     0.066 H 
ENDBRANCH  45  46
ENDBRANCH  39  45
ENDBRANCH  34  35
ENDBRANCH   1  34
BRANCH   4  50
ATOM     50  N   LIG d   1       5.342  -8.289 -10.656  0.00  0.00    -0.328 N 
ATOM     51  H   LIG d   1       6.182  -8.653 -10.979  0.00  0.00     0.145 HD
ATOM     52  H   LIG d   1       4.672  -7.984 -11.287  0.00  0.00     0.145 HD
ENDBRANCH   4  50
TORSDOF 10
ENDMDL
MODEL 5
REMARK VINA RESULT:      -7.0      4.323      8.001
REMARK  10 active torsions:
REMARK  status: ('A' for Active; 'I' for Inactive)
REMARK    1  A    between atoms: C_1  and  O_2 
REMARK    2  A    between atoms: O_2  and  C_3 
REMARK    3  A    between atoms: C_6  and  O_9 
REMARK    4  A    between atoms: O_9  and  C_10 
REMARK    5  A    between atoms: C_13  and  N_32 
REMARK    6  A    between atoms: C_15  and  C_16 
REMARK    7  A    between atoms: C_19  and  O_23 
REMARK    8  A    between atoms: C_21  and  O_22 
REMARK    9  A    between atoms: O_23  and  C_24 
REMARK   10  A    between atoms: C_24  and  C_25 
ROOT
ATOM      1  C   LIG d   1       6.802  -4.775  -5.968  0.00  0.00     0.172 A 
ATOM      2  C   LIG d   1       7.473  -5.576  -5.055  0.00  0.00     0.076 A 
ATOM      3  N   LIG d   1       7.365  -6.892  -5.148  0.00  0.00    -0.219 NA
ATOM      4  C   LIG d   1       6.624  -7.453  -6.093  0.00  0.00     0.213 A 
ATOM      5  N   LIG d   1       5.964  -6.728  -6.982  0.00  0.00    -0.211 NA
ATOM      6  C   LIG d   1       6.023  -5.399  -6.954  0.00  0.00     0.122 A 
ATOM      7  H   LIG d   1       8.079  -5.131  -4.281  0.00  0.00     0.087 H 
ENDROOT
BRANCH   6   8
ATOM      8  C   LIG d   1       5.283  -4.591  -7.950  0.00  0.00     0.046 A 
ATOM      9  C   LIG d   1       3.898  -4.427  -7.832  0.00  0.00     0.130 A 
ATOM     10  C   LIG d   1       3.212  -3.671  -8.768  0.00  0.00     0.022 A 
ATOM     11  C   LIG d   1       3.897  -3.079  -9.818  0.00  0.00     0.124 A 
ATOM     12  H   LIG d   1       2.144  -3.542  -8.679  0.00  0.00     0.069 H 
ATOM     13  C   LIG d   1       5.271  -3.247  -9.940  0.00  0.00    -0.019 A 
ATOM     14  C   LIG d   1       5.964  -3.992  -9.010  0.00  0.00    -0.045 A 
ATOM     15  H   LIG d   1       5.799  -2.787 -10.763  0.00  0.00     0.065 H 
ATOM     16  H   LIG d   1       7.033  -4.116  -9.106  0.00  0.00     0.063 H 
BRANCH   9  17
ATOM     17  O   LIG d   1       3.229  -5.007  -6.803  0.00  0.00    -0.506 OA
ATOM     18  H   LIG d   1       2.910  -5.900  -6.994  0.00  0.00     0.292 HD
ENDBRANCH   9  17
BRANCH  11  19
ATOM     19  O   LIG d   1       3.222  -2.339 -10.736  0.00  0.00    -0.487 OA
BRANCH  19  20
ATOM     20  C   LIG d   1       2.170  -1.505 -10.249  0.00  0.00     0.117 C 
ATOM     21  H   LIG d   1       1.401  -1.405 -11.015  0.00  0.00     0.075 H 
ATOM     22  H   LIG d   1       1.735  -1.952  -9.355  0.00  0.00     0.075 H 
BRANCH  20  23
ATOM     23  C   LIG d   1       2.722  -0.144  -9.913  0.00  0.00     0.025 A 
ATOM     24  C   LIG d   1       2.556   0.376  -8.640  0.00  0.00     0.130 A 
ATOM     25  C   LIG d   1       3.065   1.626  -8.332  0.00  0.00    -0.026 A 
ATOM     26  F   LIG d   1       1.898  -0.337  -7.699  0.00  0.00    -0.205 F 
ATOM     27  C   LIG d   1       3.738   2.354  -9.294  0.00  0.00    -0.059 A 
ATOM     28  H   LIG d   1       2.935   2.032  -7.340  0.00  0.00     0.065 H 
ATOM     29  C   LIG d   1       3.904   1.833 -10.564  0.00  0.00    -0.061 A 
ATOM     30  H   LIG d   1       4.135   3.329  -9.054  0.00  0.00     0.062 H 
ATOM     31  C   LIG d   1       3.401   0.583 -10.872  0.00  0.00    -0.053 A 
ATOM     32  H   LIG d   1       4.431   2.403 -11.316  0.00  0.00     0.062 H 
ATOM     33  H   LIG d   1       3.535   0.176 -11.863  0.00  0.00     0.062 H 
ENDBRANCH  20  23
ENDBRANCH  19  20
ENDBRANCH  11  19
ENDBRANCH   6   8
BRANCH   1  34
ATOM     34  O   LIG d   1       6.894  -3.419  -5.907  0.00  0.00    -0.452 OA
BRANCH  34  35
ATOM     35  C   LIG d   1       6.302  -2.788  -4.858  0.00  0.00     0.129 A 
ATOM     36  C   LIG d   1       4.977  -3.053  -4.546  0.00  0.00    -0.016 A 
ATOM     37  C   LIG d   1       4.376  -2.411  -3.480  0.00  0.00    -0.017 A 
ATOM     38  H   LIG d   1       4.414  -3.760  -5.137  0.00  0.00     0.066 H 
ATOM     39  C   LIG d   1       5.100  -1.503  -2.721  0.00  0.00     0.120 A 
ATOM     40  H   LIG d   1       3.345  -2.617  -3.238  0.00  0.00     0.066 H 
ATOM     41  C   LIG d   1       6.425  -1.238  -3.033  0.00  0.00    -0.017 A 
ATOM     42  C   LIG d   1       7.027  -1.883  -4.095  0.00  0.00    -0.016 A 
ATOM     43  H   LIG d   1       6.987  -0.531  -2.441  0.00  0.00     0.066 H 
ATOM     44  H   LIG d   1       8.060  -1.681  -4.334  0.00  0.00     0.066 H 
BRANCH  39  45
ATOM     45  O   LIG d   1       4.508  -0.871  -1.672  0.00  0.00    -0.495 OA
BRANCH  45  46
ATOM     46  C   LIG d   1       4.461   0.557  -1.718  0.00  0.00     0.079 C 
ATOM     47  H   LIG d   1       5.004   0.910  -2.595  0.00  0.00     0.066 H 
ATOM     48  H   LIG d   1       3.423   0.883  -1.776  0.00  0.00     0.066 H 
ATOM     49  H   LIG d   1       4.921   0.964  -0.818  0.00  0.00     0.066 H 
ENDBRANCH  45  46
ENDBRANCH  39  45
ENDBRANCH  34  35
ENDBRANCH   1  34
BRANCH   4  50
ATOM     50  N   LIG d   1       6.540  -8.835  -6.152  0.00  0.00    -0.328 N 
ATOM     51  H   LIG d   1       7.345  -9.365  -6.265  0.00  0.00     0.145 HD
ATOM     52  H   LIG d   1       5.677  -9.272  -6.078  0.00  0.00     0.145 HD
ENDBRANCH   4  50
TORSDOF 10
ENDMDL
MODEL 6
REMARK VINA RESULT:      -6.7      7.478     11.581
REMARK  10 active torsions:
REMARK  status: ('A' for Active; 'I' for Inactive)
REMARK    1  A    between atoms: C_1  and  O_2 
REMARK    2  A    between atoms: O_2  and  C_3 
REMARK    3  A    between atoms: C_6  and  O_9 
REMARK    4  A    between atoms: O_9  and  C_10 
REMARK    5  A    between atoms: C_13  and  N_32 
REMARK    6  A    between atoms: C_15  and  C_16 
REMARK    7  A    between atoms: C_19  and  O_23 
REMARK    8  A    between atoms: C_21  and  O_22 
REMARK    9  A    between atoms: O_23  and  C_24 
REMARK   10  A    between atoms: C_24  and  C_25 
ROOT
ATOM      1  C   LIG d   1      11.321   5.049  -5.311  0.00  0.00     0.172 A 
ATOM      2  C   LIG d   1      11.986   6.223  -5.636  0.00  0.00     0.076 A 
ATOM      3  N   LIG d   1      11.491   7.005  -6.582  0.00  0.00    -0.219 NA
ATOM      4  C   LIG d   1      10.379   6.681  -7.226  0.00  0.00     0.213 A 
ATOM      5  N   LIG d   1       9.715   5.569  -6.953  0.00  0.00    -0.211 NA
ATOM      6  C   LIG d   1      10.149   4.732  -6.014  0.00  0.00     0.122 A 
ATOM      7  H   LIG d   1      12.893   6.497  -5.119  0.00  0.00     0.087 H 
ENDROOT
BRANCH   6   8
ATOM      8  C   LIG d   1       9.404   3.489  -5.711  0.00  0.00     0.046 A 
ATOM      9  C   LIG d   1       9.335   2.463  -6.660  0.00  0.00     0.130 A 
ATOM     10  C   LIG d   1       8.636   1.303  -6.371  0.00  0.00     0.022 A 
ATOM     11  C   LIG d   1       8.005   1.161  -5.144  0.00  0.00     0.124 A 
ATOM     12  H   LIG d   1       8.581   0.509  -7.101  0.00  0.00     0.069 H 
ATOM     13  C   LIG d   1       8.068   2.182  -4.203  0.00  0.00    -0.019 A 
ATOM     14  C   LIG d   1       8.767   3.338  -4.479  0.00  0.00    -0.045 A 
ATOM     15  H   LIG d   1       7.571   2.068  -3.251  0.00  0.00     0.065 H 
ATOM     16  H   LIG d   1       8.816   4.127  -3.744  0.00  0.00     0.063 H 
BRANCH   9  17
ATOM     17  O   LIG d   1       9.953   2.604  -7.861  0.00  0.00    -0.506 OA
ATOM     18  H   LIG d   1       9.353   2.807  -8.592  0.00  0.00     0.292 HD
ENDBRANCH   9  17
BRANCH  11  19
ATOM     19  O   LIG d   1       7.319   0.023  -4.862  0.00  0.00    -0.487 OA
BRANCH  19  20
ATOM     20  C   LIG d   1       7.197  -0.338  -3.486  0.00  0.00     0.117 C 
ATOM     21  H   LIG d   1       7.818  -1.211  -3.283  0.00  0.00     0.075 H 
ATOM     22  H   LIG d   1       7.526   0.493  -2.861  0.00  0.00     0.075 H 
BRANCH  20  23
ATOM     23  C   LIG d   1       5.758  -0.661  -3.177  0.00  0.00     0.025 A 
ATOM     24  C   LIG d   1       4.896   0.342  -2.767  0.00  0.00     0.130 A 
ATOM     25  C   LIG d   1       3.574   0.043  -2.484  0.00  0.00    -0.026 A 
ATOM     26  F   LIG d   1       5.343   1.611  -2.646  0.00  0.00    -0.205 F 
ATOM     27  C   LIG d   1       3.116  -1.255  -2.610  0.00  0.00    -0.059 A 
ATOM     28  H   LIG d   1       2.900   0.825  -2.165  0.00  0.00     0.065 H 
ATOM     29  C   LIG d   1       3.979  -2.254  -3.019  0.00  0.00    -0.061 A 
ATOM     30  H   LIG d   1       2.085  -1.487  -2.389  0.00  0.00     0.062 H 
ATOM     31  C   LIG d   1       5.297  -1.957  -3.307  0.00  0.00    -0.053 A 
ATOM     32  H   LIG d   1       3.620  -3.269  -3.117  0.00  0.00     0.062 H 
ATOM     33  H   LIG d   1       5.969  -2.739  -3.631  0.00  0.00     0.062 H 
ENDBRANCH  20  23
ENDBRANCH  19  20
ENDBRANCH  11  19
ENDBRANCH   6   8
BRANCH   1  34
ATOM     34  O   LIG d   1      11.797   4.223  -4.341  0.00  0.00    -0.452 OA
BRANCH  34  35
ATOM     35  C   LIG d   1      11.882   4.711  -3.075  0.00  0.00     0.129 A 
ATOM     36  C   LIG d   1      13.122   4.857  -2.469  0.00  0.00    -0.016 A 
ATOM     37  C   LIG d   1      13.208   5.353  -1.183  0.00  0.00    -0.017 A 
ATOM     38  H   LIG d   1      14.020   4.581  -3.003  0.00  0.00     0.066 H 
ATOM     39  C   LIG d   1      12.055   5.707  -0.497  0.00  0.00     0.120 A 
ATOM     40  H   LIG d   1      14.173   5.466  -0.712  0.00  0.00     0.066 H 
ATOM     41  C   LIG d   1      10.816   5.561  -1.103  0.00  0.00    -0.017 A 
ATOM     42  C   LIG d   1      10.730   5.070  -2.391  0.00  0.00    -0.016 A 
ATOM     43  H   LIG d   1       9.919   5.837  -0.568  0.00  0.00     0.066 H 
ATOM     44  H   LIG d   1       9.765   4.962  -2.864  0.00  0.00     0.066 H 
BRANCH  39  45
ATOM     45  O   LIG d   1      12.141   6.195   0.769  0.00  0.00    -0.495 OA
BRANCH  45  46
ATOM     46  C   LIG d   1      11.036   5.938   1.639  0.00  0.00     0.079 C 
ATOM     47  H   LIG d   1      10.268   5.385   1.097  0.00  0.00     0.066 H 
ATOM     48  H   LIG d   1      11.375   5.352   2.492  0.00  0.00     0.066 H 
ATOM     49  H   LIG d   1      10.623   6.884   1.989  0.00  0.00     0.066 H 
ENDBRANCH  45  46
ENDBRANCH  39  45
ENDBRANCH  34  35
ENDBRANCH   1  34
BRANCH   4  50
ATOM     50  N   LIG d   1       9.899   7.530  -8.211  0.00  0.00    -0.328 N 
ATOM     51  H   LIG d   1       9.422   8.339  -7.963  0.00  0.00     0.145 HD
ATOM     52  H   LIG d   1      10.040   7.318  -9.146  0.00  0.00     0.145 HD
ENDBRANCH   4  50
TORSDOF 10
ENDMDL
MODEL 7
REMARK VINA RESULT:      -6.7      8.343     12.856
REMARK  10 active torsions:
REMARK  status: ('A' for Active; 'I' for Inactive)
REMARK    1  A    between atoms: C_1  and  O_2 
REMARK    2  A    between atoms: O_2  and  C_3 
REMARK    3  A    between atoms: C_6  and  O_9 
REMARK    4  A    between atoms: O_9  and  C_10 
REMARK    5  A    between atoms: C_13  and  N_32 
REMARK    6  A    between atoms: C_15  and  C_16 
REMARK    7  A    between atoms: C_19  and  O_23 
REMARK    8  A    between atoms: C_21  and  O_22 
REMARK    9  A    between atoms: O_23  and  C_24 
REMARK   10  A    between atoms: C_24  and  C_25 
ROOT
ATOM      1  C   LIG d   1      10.875   6.579  -4.006  0.00  0.00     0.172 A 
ATOM      2  C   LIG d   1      11.639   7.699  -4.303  0.00  0.00     0.076 A 
ATOM      3  N   LIG d   1      12.564   7.620  -5.246  0.00  0.00    -0.219 NA
ATOM      4  C   LIG d   1      12.775   6.489  -5.904  0.00  0.00     0.213 A 
ATOM      5  N   LIG d   1      12.075   5.395  -5.652  0.00  0.00    -0.211 NA
ATOM      6  C   LIG d   1      11.126   5.396  -4.718  0.00  0.00     0.122 A 
ATOM      7  H   LIG d   1      11.476   8.626  -3.773  0.00  0.00     0.087 H 
ENDROOT
BRANCH   6   8
ATOM      8  C   LIG d   1      10.345   4.170  -4.438  0.00  0.00     0.046 A 
ATOM      9  C   LIG d   1      10.848   3.201  -3.562  0.00  0.00     0.130 A 
ATOM     10  C   LIG d   1      10.111   2.057  -3.305  0.00  0.00     0.022 A 
ATOM     11  C   LIG d   1       8.880   1.873  -3.915  0.00  0.00     0.124 A 
ATOM     12  H   LIG d   1      10.497   1.308  -2.630  0.00  0.00     0.069 H 
ATOM     13  C   LIG d   1       8.383   2.831  -4.790  0.00  0.00    -0.019 A 
ATOM     14  C   LIG d   1       9.105   3.977  -5.047  0.00  0.00    -0.045 A 
ATOM     15  H   LIG d   1       7.425   2.681  -5.266  0.00  0.00     0.065 H 
ATOM     16  H   LIG d   1       8.713   4.721  -5.725  0.00  0.00     0.063 H 
BRANCH   9  17
ATOM     17  O   LIG d   1      12.054   3.384  -2.965  0.00  0.00    -0.506 OA
ATOM     18  H   LIG d   1      12.792   3.459  -3.585  0.00  0.00     0.292 HD
ENDBRANCH   9  17
BRANCH  11  19
ATOM     19  O   LIG d   1       8.160   0.749  -3.663  0.00  0.00    -0.487 OA
BRANCH  19  20
ATOM     20  C   LIG d   1       6.978   0.547  -4.438  0.00  0.00     0.117 C 
ATOM     21  H   LIG d   1       6.555   1.513  -4.714  0.00  0.00     0.075 H 
ATOM     22  H   LIG d   1       7.226  -0.012  -5.341  0.00  0.00     0.075 H 
BRANCH  20  23
ATOM     23  C   LIG d   1       5.972  -0.228  -3.628  0.00  0.00     0.025 A 
ATOM     24  C   LIG d   1       5.248   0.406  -2.631  0.00  0.00     0.130 A 
ATOM     25  C   LIG d   1       4.324  -0.308  -1.888  0.00  0.00    -0.026 A 
ATOM     26  F   LIG d   1       5.444   1.720  -2.386  0.00  0.00    -0.205 F 
ATOM     27  C   LIG d   1       4.123  -1.651  -2.140  0.00  0.00    -0.059 A 
ATOM     28  H   LIG d   1       3.759   0.186  -1.111  0.00  0.00     0.065 H 
ATOM     29  C   LIG d   1       4.846  -2.283  -3.136  0.00  0.00    -0.061 A 
ATOM     30  H   LIG d   1       3.402  -2.207  -1.561  0.00  0.00     0.062 H 
ATOM     31  C   LIG d   1       5.765  -1.570  -3.882  0.00  0.00    -0.053 A 
ATOM     32  H   LIG d   1       4.689  -3.333  -3.333  0.00  0.00     0.062 H 
ATOM     33  H   LIG d   1       6.326  -2.064  -4.662  0.00  0.00     0.062 H 
ENDBRANCH  20  23
ENDBRANCH  19  20
ENDBRANCH  11  19
ENDBRANCH   6   8
BRANCH   1  34
ATOM     34  O   LIG d   1       9.913   6.625  -3.047  0.00  0.00    -0.452 OA
BRANCH  34  35
ATOM     35  C   LIG d   1      10.295   6.905  -1.773  0.00  0.00     0.129 A 
ATOM     36  C   LIG d   1      10.777   5.894  -0.954  0.00  0.00    -0.016 A 
ATOM     37  C   LIG d   1      11.166   6.180   0.340  0.00  0.00    -0.017 A 
ATOM     38  H   LIG d   1      10.847   4.883  -1.328  0.00  0.00     0.066 H 
ATOM     39  C   LIG d   1      11.076   7.478   0.821  0.00  0.00     0.120 A 
ATOM     40  H   LIG d   1      11.540   5.393   0.977  0.00  0.00     0.066 H 
ATOM     41  C   LIG d   1      10.594   8.489   0.002  0.00  0.00    -0.017 A 
ATOM     42  C   LIG d   1      10.210   8.205  -1.294  0.00  0.00    -0.016 A 
ATOM     43  H   LIG d   1      10.525   9.499   0.377  0.00  0.00     0.066 H 
ATOM     44  H   LIG d   1       9.840   8.992  -1.933  0.00  0.00     0.066 H 
BRANCH  39  45
ATOM     45  O   LIG d   1      11.459   7.759   2.095  0.00  0.00    -0.495 OA
BRANCH  45  46
ATOM     46  C   LIG d   1      11.919   9.087   2.356  0.00  0.00     0.079 C 
ATOM     47  H   LIG d   1      11.376   9.790   1.724  0.00  0.00     0.066 H 
ATOM     48  H   LIG d   1      11.747   9.331   3.404  0.00  0.00     0.066 H 
ATOM     49  H   LIG d   1      12.985   9.150   2.138  0.00  0.00     0.066 H 
ENDBRANCH  45  46
ENDBRANCH  39  45
ENDBRANCH  34  35
ENDBRANCH   1  34
BRANCH   4  50
ATOM     50  N   LIG d   1      13.755   6.453  -6.883  0.00  0.00    -0.328 N 
ATOM     51  H   LIG d   1      13.567   6.044  -7.743  0.00  0.00     0.145 HD
ATOM     52  H   LIG d   1      14.629   6.836  -6.710  0.00  0.00     0.145 HD
ENDBRANCH   4  50
TORSDOF 10
ENDMDL
MODEL 8
REMARK VINA RESULT:      -6.6      7.180     11.178
REMARK  10 active torsions:
REMARK  status: ('A' for Active; 'I' for Inactive)
REMARK    1  A    between atoms: C_1  and  O_2 
REMARK    2  A    between atoms: O_2  and  C_3 
REMARK    3  A    between atoms: C_6  and  O_9 
REMARK    4  A    between atoms: O_9  and  C_10 
REMARK    5  A    between atoms: C_13  and  N_32 
REMARK    6  A    between atoms: C_15  and  C_16 
REMARK    7  A    between atoms: C_19  and  O_23 
REMARK    8  A    between atoms: C_21  and  O_22 
REMARK    9  A    between atoms: O_23  and  C_24 
REMARK   10  A    between atoms: C_24  and  C_25 
ROOT
ATOM      1  C   LIG d   1      10.605   4.764  -5.725  0.00  0.00     0.172 A 
ATOM      2  C   LIG d   1      11.522   5.760  -6.031  0.00  0.00     0.076 A 
ATOM      3  N   LIG d   1      12.551   5.472  -6.812  0.00  0.00    -0.219 NA
ATOM      4  C   LIG d   1      12.722   4.251  -7.298  0.00  0.00     0.213 A 
ATOM      5  N   LIG d   1      11.876   3.270  -7.028  0.00  0.00    -0.211 NA
ATOM      6  C   LIG d   1      10.816   3.481  -6.251  0.00  0.00     0.122 A 
ATOM      7  H   LIG d   1      11.394   6.758  -5.641  0.00  0.00     0.087 H 
ENDROOT
BRANCH   6   8
ATOM      8  C   LIG d   1       9.871   2.381  -5.951  0.00  0.00     0.046 A 
ATOM      9  C   LIG d   1      10.170   1.453  -4.946  0.00  0.00     0.130 A 
ATOM     10  C   LIG d   1       9.282   0.427  -4.672  0.00  0.00     0.022 A 
ATOM     11  C   LIG d   1       8.101   0.320  -5.391  0.00  0.00     0.124 A 
ATOM     12  H   LIG d   1       9.509  -0.290  -3.897  0.00  0.00     0.069 H 
ATOM     13  C   LIG d   1       7.807   1.237  -6.393  0.00  0.00    -0.019 A 
ATOM     14  C   LIG d   1       8.681   2.265  -6.670  0.00  0.00    -0.045 A 
ATOM     15  H   LIG d   1       6.888   1.146  -6.953  0.00  0.00     0.065 H 
ATOM     16  H   LIG d   1       8.447   2.979  -7.447  0.00  0.00     0.063 H 
BRANCH   9  17
ATOM     17  O   LIG d   1      11.326   1.561  -4.243  0.00  0.00    -0.506 OA
ATOM     18  H   LIG d   1      11.428   0.896  -3.548  0.00  0.00     0.292 HD
ENDBRANCH   9  17
BRANCH  11  19
ATOM     19  O   LIG d   1       7.233  -0.689  -5.121  0.00  0.00    -0.487 OA
BRANCH  19  20
ATOM     20  C   LIG d   1       7.107  -1.089  -3.755  0.00  0.00     0.117 C 
ATOM     21  H   LIG d   1       7.307  -2.157  -3.669  0.00  0.00     0.075 H 
ATOM     22  H   LIG d   1       7.823  -0.536  -3.147  0.00  0.00     0.075 H 
BRANCH  20  23
ATOM     23  C   LIG d   1       5.709  -0.799  -3.274  0.00  0.00     0.025 A 
ATOM     24  C   LIG d   1       5.351   0.492  -2.922  0.00  0.00     0.130 A 
ATOM     25  C   LIG d   1       4.065   0.757  -2.481  0.00  0.00    -0.026 A 
ATOM     26  F   LIG d   1       6.255   1.492  -3.011  0.00  0.00    -0.205 F 
ATOM     27  C   LIG d   1       3.141  -0.267  -2.391  0.00  0.00    -0.059 A 
ATOM     28  H   LIG d   1       3.786   1.763  -2.206  0.00  0.00     0.065 H 
ATOM     29  C   LIG d   1       3.500  -1.554  -2.743  0.00  0.00    -0.061 A 
ATOM     30  H   LIG d   1       2.139  -0.059  -2.048  0.00  0.00     0.062 H 
ATOM     31  C   LIG d   1       4.781  -1.819  -3.189  0.00  0.00    -0.053 A 
ATOM     32  H   LIG d   1       2.777  -2.354  -2.673  0.00  0.00     0.062 H 
ATOM     33  H   LIG d   1       5.058  -2.825  -3.468  0.00  0.00     0.062 H 
ENDBRANCH  20  23
ENDBRANCH  19  20
ENDBRANCH  11  19
ENDBRANCH   6   8
BRANCH   1  34
ATOM     34  O   LIG d   1       9.533   5.024  -4.930  0.00  0.00    -0.452 OA
BRANCH  34  35
ATOM     35  C   LIG d   1       9.769   5.454  -3.662  0.00  0.00     0.129 A 
ATOM     36  C   LIG d   1       9.347   6.715  -3.266  0.00  0.00    -0.016 A 
ATOM     37  C   LIG d   1       9.587   7.151  -1.978  0.00  0.00    -0.017 A 
ATOM     38  H   LIG d   1       8.832   7.357  -3.966  0.00  0.00     0.066 H 
ATOM     39  C   LIG d   1      10.249   6.327  -1.078  0.00  0.00     0.120 A 
ATOM     40  H   LIG d   1       9.259   8.133  -1.670  0.00  0.00     0.066 H 
ATOM     41  C   LIG d   1      10.671   5.067  -1.474  0.00  0.00    -0.017 A 
ATOM     42  C   LIG d   1      10.427   4.628  -2.761  0.00  0.00    -0.016 A 
ATOM     43  H   LIG d   1      11.185   4.426  -0.774  0.00  0.00     0.066 H 
ATOM     44  H   LIG d   1      10.750   3.645  -3.067  0.00  0.00     0.066 H 
BRANCH  39  45
ATOM     45  O   LIG d   1      10.485   6.757   0.190  0.00  0.00    -0.495 OA
BRANCH  45  46
ATOM     46  C   LIG d   1      11.088   5.824   1.089  0.00  0.00     0.079 C 
ATOM     47  H   LIG d   1      11.193   6.282   2.073  0.00  0.00     0.066 H 
ATOM     48  H   LIG d   1      10.461   4.937   1.165  0.00  0.00     0.066 H 
ATOM     49  H   LIG d   1      12.072   5.543   0.713  0.00  0.00     0.066 H 
ENDBRANCH  45  46
ENDBRANCH  39  45
ENDBRANCH  34  35
ENDBRANCH   1  34
BRANCH   4  50
ATOM     50  N   LIG d   1      13.815   3.995  -8.111  0.00  0.00    -0.328 N 
ATOM     51  H   LIG d   1      13.930   3.116  -8.506  0.00  0.00     0.145 HD
ATOM     52  H   LIG d   1      14.463   4.695  -8.287  0.00  0.00     0.145 HD
ENDBRANCH   4  50
TORSDOF 10
ENDMDL
MODEL 9
REMARK VINA RESULT:      -6.4      5.808      7.954
REMARK  10 active torsions:
REMARK  status: ('A' for Active; 'I' for Inactive)
REMARK    1  A    between atoms: C_1  and  O_2 
REMARK    2  A    between atoms: O_2  and  C_3 
REMARK    3  A    between atoms: C_6  and  O_9 
REMARK    4  A    between atoms: O_9  and  C_10 
REMARK    5  A    between atoms: C_13  and  N_32 
REMARK    6  A    between atoms: C_15  and  C_16 
REMARK    7  A    between atoms: C_19  and  O_23 
REMARK    8  A    between atoms: C_21  and  O_22 
REMARK    9  A    between atoms: O_23  and  C_24 
REMARK   10  A    between atoms: C_24  and  C_25 
ROOT
ATOM      1  C   LIG d   1       4.756  -1.896  -6.273  0.00  0.00     0.172 A 
ATOM      2  C   LIG d   1       4.198  -0.652  -6.020  0.00  0.00     0.076 A 
ATOM      3  N   LIG d   1       3.643  -0.420  -4.841  0.00  0.00    -0.219 NA
ATOM      4  C   LIG d   1       3.608  -1.357  -3.905  0.00  0.00     0.213 A 
ATOM      5  N   LIG d   1       4.124  -2.560  -4.104  0.00  0.00    -0.211 NA
ATOM      6  C   LIG d   1       4.699  -2.869  -5.264  0.00  0.00     0.122 A 
ATOM      7  H   LIG d   1       4.220   0.120  -6.775  0.00  0.00     0.087 H 
ENDROOT
BRANCH   6   8
ATOM      8  C   LIG d   1       5.275  -4.215  -5.483  0.00  0.00     0.046 A 
ATOM      9  C   LIG d   1       4.463  -5.261  -5.937  0.00  0.00     0.130 A 
ATOM     10  C   LIG d   1       5.008  -6.517  -6.139  0.00  0.00     0.022 A 
ATOM     11  C   LIG d   1       6.355  -6.737  -5.892  0.00  0.00     0.124 A 
ATOM     12  H   LIG d   1       4.384  -7.326  -6.490  0.00  0.00     0.069 H 
ATOM     13  C   LIG d   1       7.160  -5.701  -5.435  0.00  0.00    -0.019 A 
ATOM     14  C   LIG d   1       6.629  -4.446  -5.236  0.00  0.00    -0.045 A 
ATOM     15  H   LIG d   1       8.208  -5.880  -5.240  0.00  0.00     0.065 H 
ATOM     16  H   LIG d   1       7.259  -3.642  -4.885  0.00  0.00     0.063 H 
BRANCH   9  17
ATOM     17  O   LIG d   1       3.145  -5.043  -6.179  0.00  0.00    -0.506 OA
ATOM     18  H   LIG d   1       2.662  -4.673  -5.426  0.00  0.00     0.292 HD
ENDBRANCH   9  17
BRANCH  11  19
ATOM     19  O   LIG d   1       6.887  -7.972  -6.090  0.00  0.00    -0.487 OA
BRANCH  19  20
ATOM     20  C   LIG d   1       6.031  -9.092  -5.859  0.00  0.00     0.117 C 
ATOM     21  H   LIG d   1       5.004  -8.821  -6.101  0.00  0.00     0.075 H 
ATOM     22  H   LIG d   1       6.344  -9.925  -6.489  0.00  0.00     0.075 H 
BRANCH  20  23
ATOM     23  C   LIG d   1       6.116  -9.498  -4.410  0.00  0.00     0.025 A 
ATOM     24  C   LIG d   1       5.032 -10.102  -3.796  0.00  0.00     0.130 A 
ATOM     25  C   LIG d   1       5.111 -10.475  -2.465  0.00  0.00    -0.026 A 
ATOM     26  F   LIG d   1       3.898 -10.329  -4.495  0.00  0.00    -0.205 F 
ATOM     27  C   LIG d   1       6.271 -10.244  -1.750  0.00  0.00    -0.059 A 
ATOM     28  H   LIG d   1       4.266 -10.947  -1.985  0.00  0.00     0.065 H 
ATOM     29  C   LIG d   1       7.352  -9.640  -2.365  0.00  0.00    -0.061 A 
ATOM     30  H   LIG d   1       6.332 -10.535  -0.713  0.00  0.00     0.062 H 
ATOM     31  C   LIG d   1       7.277  -9.273  -3.695  0.00  0.00    -0.053 A 
ATOM     32  H   LIG d   1       8.259  -9.460  -1.806  0.00  0.00     0.062 H 
ATOM     33  H   LIG d   1       8.124  -8.805  -4.175  0.00  0.00     0.062 H 
ENDBRANCH  20  23
ENDBRANCH  19  20
ENDBRANCH  11  19
ENDBRANCH   6   8
BRANCH   1  34
ATOM     34  O   LIG d   1       5.339  -2.169  -7.471  0.00  0.00    -0.452 OA
BRANCH  34  35
ATOM     35  C   LIG d   1       4.600  -1.981  -8.597  0.00  0.00     0.129 A 
ATOM     36  C   LIG d   1       3.451  -2.731  -8.806  0.00  0.00    -0.016 A 
ATOM     37  C   LIG d   1       2.700  -2.539  -9.950  0.00  0.00    -0.017 A 
ATOM     38  H   LIG d   1       3.145  -3.465  -8.076  0.00  0.00     0.066 H 
ATOM     39  C   LIG d   1       3.094  -1.596 -10.888  0.00  0.00     0.120 A 
ATOM     40  H   LIG d   1       1.807  -3.123 -10.113  0.00  0.00     0.066 H 
ATOM     41  C   LIG d   1       4.242  -0.847 -10.679  0.00  0.00    -0.017 A 
ATOM     42  C   LIG d   1       4.990  -1.035  -9.533  0.00  0.00    -0.016 A 
ATOM     43  H   LIG d   1       4.547  -0.113 -11.409  0.00  0.00     0.066 H 
ATOM     44  H   LIG d   1       5.881  -0.447  -9.368  0.00  0.00     0.066 H 
BRANCH  39  45
ATOM     45  O   LIG d   1       2.355  -1.409 -12.014  0.00  0.00    -0.495 OA
BRANCH  45  46
ATOM     46  C   LIG d   1       0.937  -1.329 -11.853  0.00  0.00     0.079 C 
ATOM     47  H   LIG d   1       0.462  -1.276 -12.833  0.00  0.00     0.066 H 
ATOM     48  H   LIG d   1       0.582  -2.212 -11.323  0.00  0.00     0.066 H 
ATOM     49  H   LIG d   1       0.687  -0.436 -11.279  0.00  0.00     0.066 H 
ENDBRANCH  45  46
ENDBRANCH  39  45
ENDBRANCH  34  35
ENDBRANCH   1  34
BRANCH   4  50
ATOM     50  N   LIG d   1       3.016  -1.070  -2.685  0.00  0.00    -0.328 N 
ATOM     51  H   LIG d   1       2.609  -0.201  -2.537  0.00  0.00     0.145 HD
ATOM     52  H   LIG d   1       3.009  -1.736  -1.980  0.00  0.00     0.145 HD
ENDBRANCH   4  50
TORSDOF 10
ENDMDL
