MODEL 1
REMARK VINA RESULT:      -6.4      0.000      0.000
REMARK  13 active torsions:
REMARK  status: ('A' for Active; 'I' for Inactive)
REMARK    1  A    between atoms: C_1  and  C_2 
REMARK    2  A    between atoms: C_2  and  C_3 
REMARK    3  A    between atoms: C_3  and  C_4 
REMARK    4  A    between atoms: C_4  and  C_5 
REMARK    5  A    between atoms: C_5  and  C_6 
REMARK    6  A    between atoms: C_6  and  C_7 
REMARK    7  A    between atoms: C_7  and  C_8 
REMARK    8  A    between atoms: C_8  and  C_9 
REMARK    9  A    between atoms: C_15  and  C_42 
REMARK   10  A    between atoms: C_25  and  C_41 
REMARK   11  A    between atoms: C_28  and  O_31 
REMARK   12  A    between atoms: O_31  and  C_32 
REMARK   13  A    between atoms: C_32  and  C_34 
ROOT
ATOM      1  C   LIG d   1      11.068   7.576  -4.464  0.00  0.00    -0.035 C 
ATOM      2  H   LIG d   1      10.260   8.193  -4.070  0.00  0.00     0.031 H 
ATOM      3  C   LIG d   1      11.241   7.824  -5.984  0.00  0.00    -0.049 C 
ATOM      4  C   LIG d   1      10.893   6.484  -6.688  0.00  0.00    -0.049 C 
ATOM      5  C   LIG d   1       9.989   5.785  -5.668  0.00  0.00    -0.032 C 
ATOM      6  H   LIG d   1       8.995   6.233  -5.673  0.00  0.00     0.031 H 
ATOM      7  C   LIG d   1      10.717   6.097  -4.332  0.00  0.00    -0.026 C 
ATOM      8  C   LIG d   1       9.768   5.727  -3.208  0.00  0.00    -0.047 C 
ATOM      9  C   LIG d   1       9.560   4.206  -3.275  0.00  0.00    -0.049 C 
ATOM     10  C   LIG d   1       9.020   3.767  -4.633  0.00  0.00    -0.029 C 
ATOM     11  H   LIG d   1       8.023   4.190  -4.760  0.00  0.00     0.031 H 
ATOM     12  C   LIG d   1       9.886   4.276  -5.802  0.00  0.00    -0.031 C 
ATOM     13  H   LIG d   1      10.877   3.824  -5.751  0.00  0.00     0.031 H 
ATOM     14  C   LIG d   1       9.189   3.925  -7.122  0.00  0.00    -0.031 C 
ATOM     15  C   LIG d   1       8.939   2.446  -7.169  0.00  0.00    -0.084 C 
ATOM     16  C   LIG d   1       8.800   1.716  -6.101  0.00  0.00    -0.064 C 
ATOM     17  C   LIG d   1       8.907   2.253  -4.675  0.00  0.00    -0.008 C 
ATOM     18  C   LIG d   1       7.677   1.797  -3.884  0.00  0.00    -0.040 C 
ATOM     19  C   LIG d   1       7.568   0.273  -3.949  0.00  0.00    -0.015 C 
ATOM     20  C   LIG d   1       7.358  -0.169  -5.398  0.00  0.00     0.107 C 
ATOM     21  H   LIG d   1       6.478   0.328  -5.806  0.00  0.00     0.074 H 
ATOM     22  C   LIG d   1       8.540   0.229  -6.274  0.00  0.00     0.006 C 
ATOM     23  H   LIG d   1      10.558   8.608  -6.314  0.00  0.00     0.027 H 
ATOM     24  H   LIG d   1      12.270   8.106  -6.202  0.00  0.00     0.027 H 
ATOM     25  H   LIG d   1      10.356   6.666  -7.619  0.00  0.00     0.027 H 
ATOM     26  H   LIG d   1      11.795   5.899  -6.870  0.00  0.00     0.027 H 
ATOM     27  H   LIG d   1      10.206   6.000  -2.248  0.00  0.00     0.027 H 
ATOM     28  H   LIG d   1       8.816   6.238  -3.342  0.00  0.00     0.027 H 
ATOM     29  H   LIG d   1      10.513   3.708  -3.093  0.00  0.00     0.027 H 
ATOM     30  H   LIG d   1       8.853   3.910  -2.499  0.00  0.00     0.027 H 
ATOM     31  H   LIG d   1       8.240   4.457  -7.185  0.00  0.00     0.031 H 
ATOM     32  H   LIG d   1       9.827   4.213  -7.957  0.00  0.00     0.031 H 
ATOM     33  H   LIG d   1       8.870   1.966  -8.134  0.00  0.00     0.057 H 
ATOM     34  H   LIG d   1       7.777   2.110  -2.844  0.00  0.00     0.028 H 
ATOM     35  H   LIG d   1       6.781   2.245  -4.315  0.00  0.00     0.028 H 
ATOM     36  H   LIG d   1       8.484  -0.174  -3.563  0.00  0.00     0.030 H 
ATOM     37  H   LIG d   1       6.722  -0.056  -3.345  0.00  0.00     0.030 H 
ATOM     38  H   LIG d   1       8.351   0.009  -7.325  0.00  0.00     0.035 H 
ATOM     39  H   LIG d   1       9.405  -0.338  -5.931  0.00  0.00     0.035 H 
ENDROOT
BRANCH   1  40
ATOM     40  C   LIG d   1      12.374   7.879  -3.727  0.00  0.00    -0.050 C 
ATOM     41  H   LIG d   1      13.098   8.294  -4.427  0.00  0.00     0.027 H 
ATOM     42  H   LIG d   1      12.770   6.959  -3.297  0.00  0.00     0.027 H 
BRANCH  40  43
ATOM     43  C   LIG d   1      12.106   8.889  -2.609  0.00  0.00    -0.053 C 
ATOM     44  H   LIG d   1      12.566   9.844  -2.864  0.00  0.00     0.026 H 
ATOM     45  H   LIG d   1      12.530   8.519  -1.676  0.00  0.00     0.026 H 
BRANCH  43  46
ATOM     46  C   LIG d   1      10.596   9.078  -2.444  0.00  0.00    -0.053 C 
ATOM     47  H   LIG d   1      10.071   8.459  -3.172  0.00  0.00     0.026 H 
ATOM     48  H   LIG d   1      10.341  10.125  -2.606  0.00  0.00     0.026 H 
BRANCH  46  49
ATOM     49  C   LIG d   1      10.183   8.664  -1.030  0.00  0.00    -0.053 C 
ATOM     50  H   LIG d   1       9.298   8.029  -1.081  0.00  0.00     0.026 H 
ATOM     51  H   LIG d   1       9.959   9.553  -0.442  0.00  0.00     0.026 H 
BRANCH  49  52
ATOM     52  C   LIG d   1      11.326   7.891  -0.370  0.00  0.00    -0.053 C 
ATOM     53  H   LIG d   1      11.798   8.516   0.388  0.00  0.00     0.026 H 
ATOM     54  H   LIG d   1      12.065   7.620  -1.125  0.00  0.00     0.026 H 
BRANCH  52  55
ATOM     55  C   LIG d   1      10.776   6.623   0.284  0.00  0.00    -0.053 C 
ATOM     56  H   LIG d   1       9.770   6.428  -0.092  0.00  0.00     0.026 H 
ATOM     57  H   LIG d   1      10.740   6.759   1.364  0.00  0.00     0.026 H 
BRANCH  55  58
ATOM     58  C   LIG d   1      11.685   5.439  -0.051  0.00  0.00    -0.056 C 
ATOM     59  H   LIG d   1      11.206   4.816  -0.806  0.00  0.00     0.026 H 
ATOM     60  H   LIG d   1      11.859   4.850   0.849  0.00  0.00     0.026 H 
BRANCH  58  61
ATOM     61  C   LIG d   1      13.020   5.958  -0.589  0.00  0.00    -0.065 C 
ATOM     62  H   LIG d   1      13.736   5.137  -0.634  0.00  0.00     0.023 H 
ATOM     63  H   LIG d   1      12.875   6.370  -1.587  0.00  0.00     0.023 H 
ATOM     64  H   LIG d   1      13.401   6.735   0.074  0.00  0.00     0.023 H 
ENDBRANCH  58  61
ENDBRANCH  55  58
ENDBRANCH  52  55
ENDBRANCH  49  52
ENDBRANCH  46  49
ENDBRANCH  43  46
ENDBRANCH  40  43
ENDBRANCH   1  40
BRANCH   7  65
ATOM     65  C   LIG d   1      11.998   5.267  -4.233  0.00  0.00    -0.059 C 
ATOM     66  H   LIG d   1      12.188   4.777  -5.188  0.00  0.00     0.024 H 
ATOM     67  H   LIG d   1      12.836   5.918  -3.986  0.00  0.00     0.024 H 
ATOM     68  H   LIG d   1      11.883   4.512  -3.454  0.00  0.00     0.024 H 
ENDBRANCH   7  65
BRANCH  17  69
ATOM     69  C   LIG d   1      10.141   1.662  -3.991  0.00  0.00    -0.056 C 
ATOM     70  H   LIG d   1      10.982   2.347  -4.103  0.00  0.00     0.024 H 
ATOM     71  H   LIG d   1       9.933   1.511  -2.932  0.00  0.00     0.024 H 
ATOM     72  H   LIG d   1      10.388   0.705  -4.453  0.00  0.00     0.024 H 
ENDBRANCH  17  69
BRANCH  20  73
ATOM     73  O   LIG d   1       7.171  -1.584  -5.443  0.00  0.00    -0.458 OA
BRANCH  73  74
ATOM     74  C   LIG d   1       5.909  -2.029  -5.604  0.00  0.00     0.341 C 
ATOM     75  O   LIG d   1       5.622  -2.707  -6.570  0.00  0.00    -0.245 OA
BRANCH  74  76
ATOM     76  C   LIG d   1       4.875  -1.693  -4.604  0.00  0.00     0.077 A 
ATOM     77  C   LIG d   1       3.879  -0.762  -4.911  0.00  0.00     0.055 A 
ATOM     78  C   LIG d   1       2.912  -0.458  -3.973  0.00  0.00    -0.043 A 
ATOM     79 CL   LIG d   1       3.851   0.003  -6.469  0.00  0.00    -0.083 Cl
ATOM     80  C   LIG d   1       2.936  -1.064  -2.729  0.00  0.00    -0.060 A 
ATOM     81  H   LIG d   1       2.138   0.256  -4.208  0.00  0.00     0.063 H 
ATOM     82  C   LIG d   1       3.923  -1.981  -2.418  0.00  0.00    -0.061 A 
ATOM     83  H   LIG d   1       2.180  -0.819  -1.997  0.00  0.00     0.062 H 
ATOM     84  C   LIG d   1       4.892  -2.299  -3.346  0.00  0.00    -0.046 A 
ATOM     85  H   LIG d   1       3.936  -2.451  -1.445  0.00  0.00     0.062 H 
ATOM     86  H   LIG d   1       5.662  -3.017  -3.101  0.00  0.00     0.063 H 
ENDBRANCH  74  76
ENDBRANCH  73  74
ENDBRANCH  20  73
TORSDOF 13
ENDMDL
MODEL 2
REMARK VINA RESULT:      -6.1      3.695      9.721
REMARK  13 active torsions:
REMARK  status: ('A' for Active; 'I' for Inactive)
REMARK    1  A    between atoms: C_1  and  C_2 
REMARK    2  A    between atoms: C_2  and  C_3 
REMARK    3  A    between atoms: C_3  and  C_4 
REMARK    4  A    between atoms: C_4  and  C_5 
REMARK    5  A    between atoms: C_5  and  C_6 
REMARK    6  A    between atoms: C_6  and  C_7 
REMARK    7  A    between atoms: C_7  and  C_8 
REMARK    8  A    between atoms: C_8  and  C_9 
REMARK    9  A    between atoms: C_15  and  C_42 
REMARK   10  A    between atoms: C_25  and  C_41 
REMARK   11  A    between atoms: C_28  and  O_31 
REMARK   12  A    between atoms: O_31  and  C_32 
REMARK   13  A    between atoms: C_32  and  C_34 
ROOT
ATOM      1  C   LIG d   1       7.649  -1.358  -5.336  0.00  0.00    -0.035 C 
ATOM      2  H   LIG d   1       7.436  -1.839  -4.382  0.00  0.00     0.031 H 
ATOM      3  C   LIG d   1       8.861  -2.038  -6.020  0.00  0.00    -0.049 C 
ATOM      4  C   LIG d   1       9.983  -0.966  -6.091  0.00  0.00    -0.049 C 
ATOM      5  C   LIG d   1       9.612  -0.006  -4.955  0.00  0.00    -0.032 C 
ATOM      6  H   LIG d   1       9.867  -0.445  -3.991  0.00  0.00     0.031 H 
ATOM      7  C   LIG d   1       8.069   0.091  -5.114  0.00  0.00    -0.026 C 
ATOM      8  C   LIG d   1       7.533   0.766  -3.866  0.00  0.00    -0.047 C 
ATOM      9  C   LIG d   1       8.087   2.200  -3.853  0.00  0.00    -0.049 C 
ATOM     10  C   LIG d   1       9.612   2.217  -3.890  0.00  0.00    -0.029 C 
ATOM     11  H   LIG d   1       9.984   1.767  -2.969  0.00  0.00     0.031 H 
ATOM     12  C   LIG d   1      10.183   1.396  -5.063  0.00  0.00    -0.031 C 
ATOM     13  H   LIG d   1       9.888   1.851  -6.010  0.00  0.00     0.031 H 
ATOM     14  C   LIG d   1      11.709   1.341  -4.931  0.00  0.00    -0.031 C 
ATOM     15  C   LIG d   1      12.250   2.739  -4.868  0.00  0.00    -0.084 C 
ATOM     16  C   LIG d   1      11.557   3.748  -4.427  0.00  0.00    -0.064 C 
ATOM     17  C   LIG d   1      10.107   3.652  -3.956  0.00  0.00    -0.008 C 
ATOM     18  C   LIG d   1       9.995   4.309  -2.577  0.00  0.00    -0.040 C 
ATOM     19  C   LIG d   1      10.510   5.747  -2.655  0.00  0.00    -0.015 C 
ATOM     20  C   LIG d   1      11.993   5.743  -3.031  0.00  0.00     0.107 C 
ATOM     21  H   LIG d   1      12.549   5.142  -2.311  0.00  0.00     0.074 H 
ATOM     22  C   LIG d   1      12.215   5.117  -4.402  0.00  0.00     0.006 C 
ATOM     23  H   LIG d   1       9.196  -2.890  -5.428  0.00  0.00     0.027 H 
ATOM     24  H   LIG d   1       8.590  -2.363  -7.025  0.00  0.00     0.027 H 
ATOM     25  H   LIG d   1      10.959  -1.417  -5.912  0.00  0.00     0.027 H 
ATOM     26  H   LIG d   1       9.965  -0.452  -7.052  0.00  0.00     0.027 H 
ATOM     27  H   LIG d   1       6.444   0.789  -3.896  0.00  0.00     0.027 H 
ATOM     28  H   LIG d   1       7.870   0.230  -2.980  0.00  0.00     0.027 H 
ATOM     29  H   LIG d   1       7.704   2.737  -4.722  0.00  0.00     0.027 H 
ATOM     30  H   LIG d   1       7.747   2.703  -2.948  0.00  0.00     0.027 H 
ATOM     31  H   LIG d   1      11.976   0.805  -4.021  0.00  0.00     0.031 H 
ATOM     32  H   LIG d   1      12.129   0.826  -5.795  0.00  0.00     0.031 H 
ATOM     33  H   LIG d   1      13.261   2.915  -5.202  0.00  0.00     0.057 H 
ATOM     34  H   LIG d   1       8.951   4.314  -2.261  0.00  0.00     0.028 H 
ATOM     35  H   LIG d   1      10.590   3.747  -1.856  0.00  0.00     0.028 H 
ATOM     36  H   LIG d   1       9.946   6.294  -3.410  0.00  0.00     0.030 H 
ATOM     37  H   LIG d   1      10.384   6.231  -1.686  0.00  0.00     0.030 H 
ATOM     38  H   LIG d   1      13.277   5.018  -4.630  0.00  0.00     0.035 H 
ATOM     39  H   LIG d   1      11.741   5.767  -5.137  0.00  0.00     0.035 H 
ENDROOT
BRANCH   1  40
ATOM     40  C   LIG d   1       6.423  -1.421  -6.248  0.00  0.00    -0.050 C 
ATOM     41  H   LIG d   1       6.555  -2.217  -6.980  0.00  0.00     0.027 H 
ATOM     42  H   LIG d   1       6.305  -0.469  -6.765  0.00  0.00     0.027 H 
BRANCH  40  43
ATOM     43  C   LIG d   1       5.176  -1.702  -5.407  0.00  0.00    -0.053 C 
ATOM     44  H   LIG d   1       4.459  -2.272  -5.998  0.00  0.00     0.026 H 
ATOM     45  H   LIG d   1       4.725  -0.758  -5.100  0.00  0.00     0.026 H 
BRANCH  43  46
ATOM     46  C   LIG d   1       5.569  -2.506  -4.166  0.00  0.00    -0.053 C 
ATOM     47  H   LIG d   1       6.321  -1.957  -3.599  0.00  0.00     0.026 H 
ATOM     48  H   LIG d   1       5.976  -3.470  -4.471  0.00  0.00     0.026 H 
BRANCH  46  49
ATOM     49  C   LIG d   1       4.334  -2.728  -3.290  0.00  0.00    -0.053 C 
ATOM     50  H   LIG d   1       4.436  -3.669  -2.748  0.00  0.00     0.026 H 
ATOM     51  H   LIG d   1       3.444  -2.766  -3.919  0.00  0.00     0.026 H 
BRANCH  49  52
ATOM     52  C   LIG d   1       4.203  -1.577  -2.291  0.00  0.00    -0.053 C 
ATOM     53  H   LIG d   1       5.109  -0.971  -2.314  0.00  0.00     0.026 H 
ATOM     54  H   LIG d   1       4.063  -1.980  -1.288  0.00  0.00     0.026 H 
BRANCH  52  55
ATOM     55  C   LIG d   1       3.000  -0.710  -2.665  0.00  0.00    -0.053 C 
ATOM     56  H   LIG d   1       2.187  -0.892  -1.960  0.00  0.00     0.026 H 
ATOM     57  H   LIG d   1       2.669  -0.964  -3.672  0.00  0.00     0.026 H 
BRANCH  55  58
ATOM     58  C   LIG d   1       3.398   0.766  -2.615  0.00  0.00    -0.056 C 
ATOM     59  H   LIG d   1       2.554   1.357  -2.258  0.00  0.00     0.026 H 
ATOM     60  H   LIG d   1       3.678   1.100  -3.614  0.00  0.00     0.026 H 
BRANCH  58  61
ATOM     61  C   LIG d   1       4.584   0.943  -1.666  0.00  0.00    -0.065 C 
ATOM     62  H   LIG d   1       4.333   1.681  -0.904  0.00  0.00     0.023 H 
ATOM     63  H   LIG d   1       4.813  -0.010  -1.188  0.00  0.00     0.023 H 
ATOM     64  H   LIG d   1       5.452   1.285  -2.230  0.00  0.00     0.023 H 
ENDBRANCH  58  61
ENDBRANCH  55  58
ENDBRANCH  52  55
ENDBRANCH  49  52
ENDBRANCH  46  49
ENDBRANCH  43  46
ENDBRANCH  40  43
ENDBRANCH   1  40
BRANCH   7  65
ATOM     65  C   LIG d   1       7.728   0.926  -6.350  0.00  0.00    -0.059 C 
ATOM     66  H   LIG d   1       6.804   0.555  -6.795  0.00  0.00     0.024 H 
ATOM     67  H   LIG d   1       7.597   1.968  -6.061  0.00  0.00     0.024 H 
ATOM     68  H   LIG d   1       8.537   0.849  -7.076  0.00  0.00     0.024 H 
ENDBRANCH   7  65
BRANCH  17  69
ATOM     69  C   LIG d   1       9.200   4.428  -4.912  0.00  0.00    -0.056 C 
ATOM     70  H   LIG d   1       9.396   4.111  -5.936  0.00  0.00     0.024 H 
ATOM     71  H   LIG d   1       8.157   4.232  -4.664  0.00  0.00     0.024 H 
ATOM     72  H   LIG d   1       9.402   5.495  -4.817  0.00  0.00     0.024 H 
ENDBRANCH  17  69
BRANCH  20  73
ATOM     73  O   LIG d   1      12.491   7.082  -3.019  0.00  0.00    -0.458 OA
BRANCH  73  74
ATOM     74  C   LIG d   1      12.862   7.586  -1.825  0.00  0.00     0.341 C 
ATOM     75  O   LIG d   1      13.815   7.115  -1.236  0.00  0.00    -0.245 OA
BRANCH  74  76
ATOM     76  C   LIG d   1      12.110   8.710  -1.232  0.00  0.00     0.077 A 
ATOM     77  C   LIG d   1      11.339   8.511  -0.084  0.00  0.00     0.055 A 
ATOM     78  C   LIG d   1      10.643   9.569   0.468  0.00  0.00    -0.043 A 
ATOM     79 CL   LIG d   1      11.262   6.940   0.652  0.00  0.00    -0.083 Cl
ATOM     80  C   LIG d   1      10.699  10.819  -0.121  0.00  0.00    -0.060 A 
ATOM     81  H   LIG d   1      10.050   9.419   1.358  0.00  0.00     0.063 H 
ATOM     82  C   LIG d   1      11.456  11.021  -1.262  0.00  0.00    -0.061 A 
ATOM     83  H   LIG d   1      10.150  11.642   0.311  0.00  0.00     0.062 H 
ATOM     84  C   LIG d   1      12.160   9.976  -1.820  0.00  0.00    -0.046 A 
ATOM     85  H   LIG d   1      11.496  12.000  -1.717  0.00  0.00     0.062 H 
ATOM     86  H   LIG d   1      12.751  10.136  -2.711  0.00  0.00     0.063 H 
ENDBRANCH  74  76
ENDBRANCH  73  74
ENDBRANCH  20  73
TORSDOF 13
ENDMDL
MODEL 3
REMARK VINA RESULT:      -6.0      7.250     13.095
REMARK  13 active torsions:
REMARK  status: ('A' for Active; 'I' for Inactive)
REMARK    1  A    between atoms: C_1  and  C_2 
REMARK    2  A    between atoms: C_2  and  C_3 
REMARK    3  A    between atoms: C_3  and  C_4 
REMARK    4  A    between atoms: C_4  and  C_5 
REMARK    5  A    between atoms: C_5  and  C_6 
REMARK    6  A    between atoms: C_6  and  C_7 
REMARK    7  A    between atoms: C_7  and  C_8 
REMARK    8  A    between atoms: C_8  and  C_9 
REMARK    9  A    between atoms: C_15  and  C_42 
REMARK   10  A    between atoms: C_25  and  C_41 
REMARK   11  A    between atoms: C_28  and  O_31 
REMARK   12  A    between atoms: O_31  and  C_32 
REMARK   13  A    between atoms: C_32  and  C_34 
ROOT
ATOM      1  C   LIG d   1      -0.165  -3.635 -13.627  0.00  0.00    -0.035 C 
ATOM      2  H   LIG d   1      -1.200  -3.507 -13.307  0.00  0.00     0.031 H 
ATOM      3  C   LIG d   1       0.294  -5.095 -13.385  0.00  0.00    -0.049 C 
ATOM      4  C   LIG d   1       1.426  -5.027 -12.324  0.00  0.00    -0.049 C 
ATOM      5  C   LIG d   1       1.136  -3.710 -11.596  0.00  0.00    -0.032 C 
ATOM      6  H   LIG d   1       0.289  -3.829 -10.922  0.00  0.00     0.031 H 
ATOM      7  C   LIG d   1       0.761  -2.772 -12.776  0.00  0.00    -0.026 C 
ATOM      8  C   LIG d   1       0.154  -1.519 -12.176  0.00  0.00    -0.047 C 
ATOM      9  C   LIG d   1       1.260  -0.822 -11.368  0.00  0.00    -0.049 C 
ATOM     10  C   LIG d   1       1.836  -1.738 -10.292  0.00  0.00    -0.029 C 
ATOM     11  H   LIG d   1       1.052  -1.951  -9.565  0.00  0.00     0.031 H 
ATOM     12  C   LIG d   1       2.311  -3.089 -10.862  0.00  0.00    -0.031 C 
ATOM     13  H   LIG d   1       3.143  -2.929 -11.548  0.00  0.00     0.031 H 
ATOM     14  C   LIG d   1       2.726  -3.997  -9.698  0.00  0.00    -0.031 C 
ATOM     15  C   LIG d   1       3.771  -3.300  -8.877  0.00  0.00    -0.084 C 
ATOM     16  C   LIG d   1       3.872  -2.005  -8.810  0.00  0.00    -0.064 C 
ATOM     17  C   LIG d   1       2.976  -1.034  -9.576  0.00  0.00    -0.008 C 
ATOM     18  C   LIG d   1       2.418  -0.000  -8.593  0.00  0.00    -0.040 C 
ATOM     19  C   LIG d   1       3.575   0.689  -7.869  0.00  0.00    -0.015 C 
ATOM     20  C   LIG d   1       4.354  -0.338  -7.046  0.00  0.00     0.107 C 
ATOM     21  H   LIG d   1       3.676  -0.843  -6.357  0.00  0.00     0.074 H 
ATOM     22  C   LIG d   1       4.965  -1.413  -7.936  0.00  0.00     0.006 C 
ATOM     23  H   LIG d   1      -0.538  -5.691 -13.006  0.00  0.00     0.027 H 
ATOM     24  H   LIG d   1       0.674  -5.526 -14.311  0.00  0.00     0.027 H 
ATOM     25  H   LIG d   1       1.361  -5.870 -11.636  0.00  0.00     0.027 H 
ATOM     26  H   LIG d   1       2.404  -4.995 -12.805  0.00  0.00     0.027 H 
ATOM     27  H   LIG d   1      -0.197  -0.859 -12.970  0.00  0.00     0.027 H 
ATOM     28  H   LIG d   1      -0.674  -1.785 -11.520  0.00  0.00     0.027 H 
ATOM     29  H   LIG d   1       2.060  -0.522 -12.045  0.00  0.00     0.027 H 
ATOM     30  H   LIG d   1       0.846   0.067 -10.893  0.00  0.00     0.027 H 
ATOM     31  H   LIG d   1       1.858  -4.212  -9.077  0.00  0.00     0.031 H 
ATOM     32  H   LIG d   1       3.133  -4.928 -10.092  0.00  0.00     0.031 H 
ATOM     33  H   LIG d   1       4.470  -3.901  -8.315  0.00  0.00     0.057 H 
ATOM     34  H   LIG d   1       1.836   0.744  -9.139  0.00  0.00     0.028 H 
ATOM     35  H   LIG d   1       1.778  -0.499  -7.864  0.00  0.00     0.028 H 
ATOM     36  H   LIG d   1       4.240   1.147  -8.601  0.00  0.00     0.030 H 
ATOM     37  H   LIG d   1       3.181   1.460  -7.206  0.00  0.00     0.030 H 
ATOM     38  H   LIG d   1       5.433  -2.202  -7.348  0.00  0.00     0.035 H 
ATOM     39  H   LIG d   1       5.714  -0.929  -8.563  0.00  0.00     0.035 H 
ENDROOT
BRANCH   1  40
ATOM     40  C   LIG d   1      -0.020  -3.273 -15.106  0.00  0.00    -0.050 C 
ATOM     41  H   LIG d   1       0.080  -4.184 -15.695  0.00  0.00     0.027 H 
ATOM     42  H   LIG d   1       0.867  -2.654 -15.242  0.00  0.00     0.027 H 
BRANCH  40  43
ATOM     43  C   LIG d   1      -1.257  -2.499 -15.566  0.00  0.00    -0.053 C 
ATOM     44  H   LIG d   1      -1.444  -2.707 -16.619  0.00  0.00     0.026 H 
ATOM     45  H   LIG d   1      -1.088  -1.431 -15.430  0.00  0.00     0.026 H 
BRANCH  43  46
ATOM     46  C   LIG d   1      -2.467  -2.934 -14.737  0.00  0.00    -0.053 C 
ATOM     47  H   LIG d   1      -2.127  -3.456 -13.842  0.00  0.00     0.026 H 
ATOM     48  H   LIG d   1      -3.094  -3.600 -15.330  0.00  0.00     0.026 H 
BRANCH  46  49
ATOM     49  C   LIG d   1      -3.276  -1.700 -14.330  0.00  0.00    -0.053 C 
ATOM     50  H   LIG d   1      -3.581  -1.793 -13.287  0.00  0.00     0.026 H 
ATOM     51  H   LIG d   1      -4.160  -1.620 -14.962  0.00  0.00     0.026 H 
BRANCH  49  52
ATOM     52  C   LIG d   1      -2.414  -0.448 -14.498  0.00  0.00    -0.053 C 
ATOM     53  H   LIG d   1      -2.602  -0.005 -15.476  0.00  0.00     0.026 H 
ATOM     54  H   LIG d   1      -1.360  -0.718 -14.419  0.00  0.00     0.026 H 
BRANCH  52  55
ATOM     55  C   LIG d   1      -2.764   0.563 -13.405  0.00  0.00    -0.053 C 
ATOM     56  H   LIG d   1      -1.985   0.558 -12.641  0.00  0.00     0.026 H 
ATOM     57  H   LIG d   1      -3.717   0.293 -12.952  0.00  0.00     0.026 H 
BRANCH  55  58
ATOM     58  C   LIG d   1      -2.868   1.962 -14.017  0.00  0.00    -0.056 C 
ATOM     59  H   LIG d   1      -3.494   1.921 -14.909  0.00  0.00     0.026 H 
ATOM     60  H   LIG d   1      -1.873   2.315 -14.286  0.00  0.00     0.026 H 
BRANCH  58  61
ATOM     61  C   LIG d   1      -3.492   2.919 -12.999  0.00  0.00    -0.065 C 
ATOM     62  H   LIG d   1      -3.040   3.905 -13.104  0.00  0.00     0.023 H 
ATOM     63  H   LIG d   1      -4.565   2.989 -13.176  0.00  0.00     0.023 H 
ATOM     64  H   LIG d   1      -3.313   2.543 -11.991  0.00  0.00     0.023 H 
ENDBRANCH  58  61
ENDBRANCH  55  58
ENDBRANCH  52  55
ENDBRANCH  49  52
ENDBRANCH  46  49
ENDBRANCH  43  46
ENDBRANCH  40  43
ENDBRANCH   1  40
BRANCH   7  65
ATOM     65  C   LIG d   1       2.016  -2.416 -13.575  0.00  0.00    -0.059 C 
ATOM     66  H   LIG d   1       2.549  -1.608 -13.074  0.00  0.00     0.024 H 
ATOM     67  H   LIG d   1       2.664  -3.290 -13.644  0.00  0.00     0.024 H 
ATOM     68  H   LIG d   1       1.731  -2.096 -14.578  0.00  0.00     0.024 H 
ENDBRANCH   7  65
BRANCH  17  69
ATOM     69  C   LIG d   1       3.803  -0.279 -10.618  0.00  0.00    -0.056 C 
ATOM     70  H   LIG d   1       3.200   0.520 -11.050  0.00  0.00     0.024 H 
ATOM     71  H   LIG d   1       4.686   0.148 -10.143  0.00  0.00     0.024 H 
ATOM     72  H   LIG d   1       4.110  -0.968 -11.405  0.00  0.00     0.024 H 
ENDBRANCH  17  69
BRANCH  20  73
ATOM     73  O   LIG d   1       5.380   0.324  -6.304  0.00  0.00    -0.458 OA
BRANCH  73  74
ATOM     74  C   LIG d   1       6.030  -0.405  -5.376  0.00  0.00     0.341 C 
ATOM     75  O   LIG d   1       7.227  -0.586  -5.474  0.00  0.00    -0.245 OA
BRANCH  74  76
ATOM     76  C   LIG d   1       5.288  -0.982  -4.237  0.00  0.00     0.077 A 
ATOM     77  C   LIG d   1       5.054  -0.217  -3.091  0.00  0.00     0.055 A 
ATOM     78  C   LIG d   1       4.353  -0.762  -2.033  0.00  0.00    -0.043 A 
ATOM     79 CL   LIG d   1       5.635   1.417  -3.002  0.00  0.00    -0.083 Cl
ATOM     80  C   LIG d   1       3.894  -2.065  -2.101  0.00  0.00    -0.060 A 
ATOM     81  H   LIG d   1       4.166  -0.171  -1.149  0.00  0.00     0.063 H 
ATOM     82  C   LIG d   1       4.128  -2.829  -3.231  0.00  0.00    -0.061 A 
ATOM     83  H   LIG d   1       3.351  -2.488  -1.270  0.00  0.00     0.062 H 
ATOM     84  C   LIG d   1       4.821  -2.297  -4.297  0.00  0.00    -0.046 A 
ATOM     85  H   LIG d   1       3.767  -3.847  -3.278  0.00  0.00     0.062 H 
ATOM     86  H   LIG d   1       5.002  -2.896  -5.178  0.00  0.00     0.063 H 
ENDBRANCH  74  76
ENDBRANCH  73  74
ENDBRANCH  20  73
TORSDOF 13
ENDMDL
MODEL 4
REMARK VINA RESULT:      -6.0      1.203      1.621
REMARK  13 active torsions:
REMARK  status: ('A' for Active; 'I' for Inactive)
REMARK    1  A    between atoms: C_1  and  C_2 
REMARK    2  A    between atoms: C_2  and  C_3 
REMARK    3  A    between atoms: C_3  and  C_4 
REMARK    4  A    between atoms: C_4  and  C_5 
REMARK    5  A    between atoms: C_5  and  C_6 
REMARK    6  A    between atoms: C_6  and  C_7 
REMARK    7  A    between atoms: C_7  and  C_8 
REMARK    8  A    between atoms: C_8  and  C_9 
REMARK    9  A    between atoms: C_15  and  C_42 
REMARK   10  A    between atoms: C_25  and  C_41 
REMARK   11  A    between atoms: C_28  and  O_31 
REMARK   12  A    between atoms: O_31  and  C_32 
REMARK   13  A    between atoms: C_32  and  C_34 
ROOT
ATOM      1  C   LIG d   1      11.022   7.315  -5.719  0.00  0.00    -0.035 C 
ATOM      2  H   LIG d   1      10.224   8.029  -5.514  0.00  0.00     0.031 H 
ATOM      3  C   LIG d   1      11.254   7.194  -7.246  0.00  0.00    -0.049 C 
ATOM      4  C   LIG d   1      10.882   5.736  -7.631  0.00  0.00    -0.049 C 
ATOM      5  C   LIG d   1       9.919   5.321  -6.514  0.00  0.00    -0.032 C 
ATOM      6  H   LIG d   1       8.944   5.783  -6.664  0.00  0.00     0.031 H 
ATOM      7  C   LIG d   1      10.613   5.919  -5.259  0.00  0.00    -0.026 C 
ATOM      8  C   LIG d   1       9.615   5.849  -4.120  0.00  0.00    -0.047 C 
ATOM      9  C   LIG d   1       9.354   4.361  -3.837  0.00  0.00    -0.049 C 
ATOM     10  C   LIG d   1       8.845   3.631  -5.076  0.00  0.00    -0.029 C 
ATOM     11  H   LIG d   1       7.868   4.039  -5.339  0.00  0.00     0.031 H 
ATOM     12  C   LIG d   1       9.767   3.826  -6.296  0.00  0.00    -0.031 C 
ATOM     13  H   LIG d   1      10.739   3.373  -6.100  0.00  0.00     0.031 H 
ATOM     14  C   LIG d   1       9.102   3.194  -7.523  0.00  0.00    -0.031 C 
ATOM     15  C   LIG d   1       8.800   1.753  -7.234  0.00  0.00    -0.084 C 
ATOM     16  C   LIG d   1       8.599   1.299  -6.031  0.00  0.00    -0.064 C 
ATOM     17  C   LIG d   1       8.678   2.153  -4.768  0.00  0.00    -0.008 C 
ATOM     18  C   LIG d   1       7.407   1.929  -3.943  0.00  0.00    -0.040 C 
ATOM     19  C   LIG d   1       7.245   0.436  -3.653  0.00  0.00    -0.015 C 
ATOM     20  C   LIG d   1       7.068  -0.328  -4.967  0.00  0.00     0.107 C 
ATOM     21  H   LIG d   1       6.220   0.083  -5.515  0.00  0.00     0.074 H 
ATOM     22  C   LIG d   1       8.292  -0.180  -5.863  0.00  0.00     0.006 C 
ATOM     23  H   LIG d   1      10.612   7.897  -7.778  0.00  0.00     0.027 H 
ATOM     24  H   LIG d   1      12.300   7.388  -7.482  0.00  0.00     0.027 H 
ATOM     25  H   LIG d   1      10.384   5.708  -8.600  0.00  0.00     0.027 H 
ATOM     26  H   LIG d   1      11.768   5.100  -7.634  0.00  0.00     0.027 H 
ATOM     27  H   LIG d   1      10.030   6.328  -3.233  0.00  0.00     0.027 H 
ATOM     28  H   LIG d   1       8.686   6.340  -4.409  0.00  0.00     0.027 H 
ATOM     29  H   LIG d   1      10.282   3.895  -3.505  0.00  0.00     0.027 H 
ATOM     30  H   LIG d   1       8.612   4.275  -3.044  0.00  0.00     0.027 H 
ATOM     31  H   LIG d   1       8.176   3.722  -7.748  0.00  0.00     0.031 H 
ATOM     32  H   LIG d   1       9.777   3.260  -8.376  0.00  0.00     0.031 H 
ATOM     33  H   LIG d   1       8.746   1.061  -8.061  0.00  0.00     0.057 H 
ATOM     34  H   LIG d   1       7.483   2.475  -3.002  0.00  0.00     0.028 H 
ATOM     35  H   LIG d   1       6.543   2.288  -4.502  0.00  0.00     0.028 H 
ATOM     36  H   LIG d   1       8.131   0.068  -3.137  0.00  0.00     0.030 H 
ATOM     37  H   LIG d   1       6.368   0.281  -3.024  0.00  0.00     0.030 H 
ATOM     38  H   LIG d   1       8.130  -0.636  -6.840  0.00  0.00     0.035 H 
ATOM     39  H   LIG d   1       9.124  -0.673  -5.361  0.00  0.00     0.035 H 
ENDROOT
BRANCH   1  40
ATOM     40  C   LIG d   1      12.313   7.747  -5.020  0.00  0.00    -0.050 C 
ATOM     41  H   LIG d   1      13.133   7.739  -5.736  0.00  0.00     0.027 H 
ATOM     42  H   LIG d   1      12.534   7.056  -4.207  0.00  0.00     0.027 H 
BRANCH  40  43
ATOM     43  C   LIG d   1      12.139   9.159  -4.456  0.00  0.00    -0.053 C 
ATOM     44  H   LIG d   1      11.905   9.848  -5.268  0.00  0.00     0.026 H 
ATOM     45  H   LIG d   1      13.063   9.471  -3.969  0.00  0.00     0.026 H 
BRANCH  43  46
ATOM     46  C   LIG d   1      10.998   9.164  -3.437  0.00  0.00    -0.053 C 
ATOM     47  H   LIG d   1      10.132   8.654  -3.858  0.00  0.00     0.026 H 
ATOM     48  H   LIG d   1      10.732  10.192  -3.194  0.00  0.00     0.026 H 
BRANCH  46  49
ATOM     49  C   LIG d   1      11.447   8.439  -2.166  0.00  0.00    -0.053 C 
ATOM     50  H   LIG d   1      12.149   9.067  -1.618  0.00  0.00     0.026 H 
ATOM     51  H   LIG d   1      11.933   7.501  -2.435  0.00  0.00     0.026 H 
BRANCH  49  52
ATOM     52  C   LIG d   1      10.229   8.148  -1.287  0.00  0.00    -0.053 C 
ATOM     53  H   LIG d   1       9.319   8.273  -1.874  0.00  0.00     0.026 H 
ATOM     54  H   LIG d   1      10.215   8.842  -0.446  0.00  0.00     0.026 H 
BRANCH  52  55
ATOM     55  C   LIG d   1      10.308   6.714  -0.764  0.00  0.00    -0.053 C 
ATOM     56  H   LIG d   1      10.441   6.028  -1.601  0.00  0.00     0.026 H 
ATOM     57  H   LIG d   1       9.385   6.469  -0.237  0.00  0.00     0.026 H 
BRANCH  55  58
ATOM     58  C   LIG d   1      11.492   6.584   0.196  0.00  0.00    -0.056 C 
ATOM     59  H   LIG d   1      11.811   7.576   0.516  0.00  0.00     0.026 H 
ATOM     60  H   LIG d   1      12.317   6.083  -0.311  0.00  0.00     0.026 H 
BRANCH  58  61
ATOM     61  C   LIG d   1      11.071   5.765   1.418  0.00  0.00    -0.065 C 
ATOM     62  H   LIG d   1      11.495   6.211   2.318  0.00  0.00     0.023 H 
ATOM     63  H   LIG d   1       9.984   5.757   1.493  0.00  0.00     0.023 H 
ATOM     64  H   LIG d   1      11.435   4.743   1.313  0.00  0.00     0.023 H 
ENDBRANCH  58  61
ENDBRANCH  55  58
ENDBRANCH  52  55
ENDBRANCH  49  52
ENDBRANCH  46  49
ENDBRANCH  43  46
ENDBRANCH  40  43
ENDBRANCH   1  40
BRANCH   7  65
ATOM     65  C   LIG d   1      11.859   5.100  -4.916  0.00  0.00    -0.059 C 
ATOM     66  H   LIG d   1      12.502   5.677  -4.251  0.00  0.00     0.024 H 
ATOM     67  H   LIG d   1      11.562   4.176  -4.421  0.00  0.00     0.024 H 
ATOM     68  H   LIG d   1      12.402   4.863  -5.831  0.00  0.00     0.024 H 
ENDBRANCH   7  65
BRANCH  17  69
ATOM     69  C   LIG d   1       9.866   1.705  -3.914  0.00  0.00    -0.056 C 
ATOM     70  H   LIG d   1       9.883   0.616  -3.859  0.00  0.00     0.024 H 
ATOM     71  H   LIG d   1      10.792   2.061  -4.364  0.00  0.00     0.024 H 
ATOM     72  H   LIG d   1       9.767   2.118  -2.910  0.00  0.00     0.024 H 
ENDBRANCH  17  69
BRANCH  20  73
ATOM     73  O   LIG d   1       6.831  -1.708  -4.687  0.00  0.00    -0.458 OA
BRANCH  73  74
ATOM     74  C   LIG d   1       5.613  -2.195  -4.998  0.00  0.00     0.341 C 
ATOM     75  O   LIG d   1       5.491  -3.354  -5.339  0.00  0.00    -0.245 OA
BRANCH  74  76
ATOM     76  C   LIG d   1       4.427  -1.319  -4.922  0.00  0.00     0.077 A 
ATOM     77  C   LIG d   1       3.695  -1.229  -3.735  0.00  0.00     0.055 A 
ATOM     78  C   LIG d   1       2.590  -0.403  -3.671  0.00  0.00    -0.043 A 
ATOM     79 CL   LIG d   1       4.178  -2.147  -2.343  0.00  0.00    -0.083 Cl
ATOM     80  C   LIG d   1       2.201   0.325  -4.781  0.00  0.00    -0.060 A 
ATOM     81  H   LIG d   1       2.025  -0.328  -2.753  0.00  0.00     0.063 H 
ATOM     82  C   LIG d   1       2.919   0.236  -5.961  0.00  0.00    -0.061 A 
ATOM     83  H   LIG d   1       1.334   0.967  -4.727  0.00  0.00     0.062 H 
ATOM     84  C   LIG d   1       4.027  -0.580  -6.038  0.00  0.00    -0.046 A 
ATOM     85  H   LIG d   1       2.610   0.807  -6.824  0.00  0.00     0.062 H 
ATOM     86  H   LIG d   1       4.586  -0.648  -6.961  0.00  0.00     0.063 H 
ENDBRANCH  74  76
ENDBRANCH  73  74
ENDBRANCH  20  73
TORSDOF 13
ENDMDL
MODEL 5
REMARK VINA RESULT:      -5.9      4.502      9.760
REMARK  13 active torsions:
REMARK  status: ('A' for Active; 'I' for Inactive)
REMARK    1  A    between atoms: C_1  and  C_2 
REMARK    2  A    between atoms: C_2  and  C_3 
REMARK    3  A    between atoms: C_3  and  C_4 
REMARK    4  A    between atoms: C_4  and  C_5 
REMARK    5  A    between atoms: C_5  and  C_6 
REMARK    6  A    between atoms: C_6  and  C_7 
REMARK    7  A    between atoms: C_7  and  C_8 
REMARK    8  A    between atoms: C_8  and  C_9 
REMARK    9  A    between atoms: C_15  and  C_42 
REMARK   10  A    between atoms: C_25  and  C_41 
REMARK   11  A    between atoms: C_28  and  O_31 
REMARK   12  A    between atoms: O_31  and  C_32 
REMARK   13  A    between atoms: C_32  and  C_34 
ROOT
ATOM      1  C   LIG d   1       7.205  -1.153  -4.654  0.00  0.00    -0.035 C 
ATOM      2  H   LIG d   1       7.892  -1.993  -4.751  0.00  0.00     0.031 H 
ATOM      3  C   LIG d   1       6.025  -1.308  -5.646  0.00  0.00    -0.049 C 
ATOM      4  C   LIG d   1       6.134  -0.124  -6.645  0.00  0.00    -0.049 C 
ATOM      5  C   LIG d   1       7.619   0.248  -6.575  0.00  0.00    -0.032 C 
ATOM      6  H   LIG d   1       8.218  -0.482  -7.120  0.00  0.00     0.031 H 
ATOM      7  C   LIG d   1       7.900   0.146  -5.051  0.00  0.00    -0.026 C 
ATOM      8  C   LIG d   1       9.405   0.189  -4.869  0.00  0.00    -0.047 C 
ATOM      9  C   LIG d   1       9.878   1.576  -5.333  0.00  0.00    -0.049 C 
ATOM     10  C   LIG d   1       9.478   1.855  -6.779  0.00  0.00    -0.029 C 
ATOM     11  H   LIG d   1      10.006   1.151  -7.424  0.00  0.00     0.031 H 
ATOM     12  C   LIG d   1       7.969   1.656  -7.022  0.00  0.00    -0.031 C 
ATOM     13  H   LIG d   1       7.402   2.386  -6.443  0.00  0.00     0.031 H 
ATOM     14  C   LIG d   1       7.686   1.804  -8.521  0.00  0.00    -0.031 C 
ATOM     15  C   LIG d   1       8.192   3.137  -8.989  0.00  0.00    -0.084 C 
ATOM     16  C   LIG d   1       9.168   3.769  -8.407  0.00  0.00    -0.064 C 
ATOM     17  C   LIG d   1       9.896   3.263  -7.164  0.00  0.00    -0.008 C 
ATOM     18  C   LIG d   1      11.405   3.309  -7.426  0.00  0.00    -0.040 C 
ATOM     19  C   LIG d   1      11.809   4.729  -7.827  0.00  0.00    -0.015 C 
ATOM     20  C   LIG d   1      11.114   5.113  -9.134  0.00  0.00     0.107 C 
ATOM     21  H   LIG d   1      11.357   4.379  -9.904  0.00  0.00     0.074 H 
ATOM     22  C   LIG d   1       9.599   5.110  -8.978  0.00  0.00     0.006 C 
ATOM     23  H   LIG d   1       6.107  -2.256  -6.179  0.00  0.00     0.027 H 
ATOM     24  H   LIG d   1       5.077  -1.259  -5.111  0.00  0.00     0.027 H 
ATOM     25  H   LIG d   1       5.864  -0.443  -7.652  0.00  0.00     0.027 H 
ATOM     26  H   LIG d   1       5.512   0.711  -6.324  0.00  0.00     0.027 H 
ATOM     27  H   LIG d   1       9.656   0.044  -3.818  0.00  0.00     0.027 H 
ATOM     28  H   LIG d   1       9.874  -0.585  -5.474  0.00  0.00     0.027 H 
ATOM     29  H   LIG d   1       9.435   2.336  -4.689  0.00  0.00     0.027 H 
ATOM     30  H   LIG d   1      10.963   1.628  -5.247  0.00  0.00     0.027 H 
ATOM     31  H   LIG d   1       8.195   1.010  -9.067  0.00  0.00     0.031 H 
ATOM     32  H   LIG d   1       6.613   1.739  -8.696  0.00  0.00     0.031 H 
ATOM     33  H   LIG d   1       7.724   3.591  -9.850  0.00  0.00     0.057 H 
ATOM     34  H   LIG d   1      11.940   3.021  -6.520  0.00  0.00     0.028 H 
ATOM     35  H   LIG d   1      11.655   2.618  -8.231  0.00  0.00     0.028 H 
ATOM     36  H   LIG d   1      11.514   5.425  -7.042  0.00  0.00     0.030 H 
ATOM     37  H   LIG d   1      12.889   4.774  -7.965  0.00  0.00     0.030 H 
ATOM     38  H   LIG d   1       9.097   5.282  -9.931  0.00  0.00     0.035 H 
ATOM     39  H   LIG d   1       9.342   5.907  -8.279  0.00  0.00     0.035 H 
ENDROOT
BRANCH   1  40
ATOM     40  C   LIG d   1       6.682  -1.058  -3.220  0.00  0.00    -0.050 C 
ATOM     41  H   LIG d   1       6.408  -0.027  -3.001  0.00  0.00     0.027 H 
ATOM     42  H   LIG d   1       7.459  -1.382  -2.528  0.00  0.00     0.027 H 
BRANCH  40  43
ATOM     43  C   LIG d   1       5.454  -1.958  -3.064  0.00  0.00    -0.053 C 
ATOM     44  H   LIG d   1       5.768  -2.946  -2.726  0.00  0.00     0.026 H 
ATOM     45  H   LIG d   1       4.944  -2.046  -4.023  0.00  0.00     0.026 H 
BRANCH  43  46
ATOM     46  C   LIG d   1       4.501  -1.345  -2.035  0.00  0.00    -0.053 C 
ATOM     47  H   LIG d   1       4.667  -1.811  -1.063  0.00  0.00     0.026 H 
ATOM     48  H   LIG d   1       3.471  -1.514  -2.348  0.00  0.00     0.026 H 
BRANCH  46  49
ATOM     49  C   LIG d   1       4.763   0.159  -1.930  0.00  0.00    -0.053 C 
ATOM     50  H   LIG d   1       5.573   0.434  -2.606  0.00  0.00     0.026 H 
ATOM     51  H   LIG d   1       5.043   0.408  -0.907  0.00  0.00     0.026 H 
BRANCH  49  52
ATOM     52  C   LIG d   1       3.496   0.925  -2.313  0.00  0.00    -0.053 C 
ATOM     53  H   LIG d   1       3.473   1.878  -1.783  0.00  0.00     0.026 H 
ATOM     54  H   LIG d   1       2.619   0.338  -2.040  0.00  0.00     0.026 H 
BRANCH  52  55
ATOM     55  C   LIG d   1       3.490   1.180  -3.821  0.00  0.00    -0.053 C 
ATOM     56  H   LIG d   1       4.472   0.946  -4.234  0.00  0.00     0.026 H 
ATOM     57  H   LIG d   1       3.257   2.228  -4.011  0.00  0.00     0.026 H 
BRANCH  55  58
ATOM     58  C   LIG d   1       2.433   0.295  -4.484  0.00  0.00    -0.056 C 
ATOM     59  H   LIG d   1       1.440   0.687  -4.262  0.00  0.00     0.026 H 
ATOM     60  H   LIG d   1       2.517  -0.721  -4.099  0.00  0.00     0.026 H 
BRANCH  58  61
ATOM     61  C   LIG d   1       2.651   0.287  -5.999  0.00  0.00    -0.065 C 
ATOM     62  H   LIG d   1       2.632   1.310  -6.374  0.00  0.00     0.023 H 
ATOM     63  H   LIG d   1       3.617  -0.165  -6.224  0.00  0.00     0.023 H 
ATOM     64  H   LIG d   1       1.859  -0.290  -6.476  0.00  0.00     0.023 H 
ENDBRANCH  58  61
ENDBRANCH  55  58
ENDBRANCH  52  55
ENDBRANCH  49  52
ENDBRANCH  46  49
ENDBRANCH  43  46
ENDBRANCH  40  43
ENDBRANCH   1  40
BRANCH   7  65
ATOM     65  C   LIG d   1       7.249   1.325  -4.324  0.00  0.00    -0.059 C 
ATOM     66  H   LIG d   1       6.203   1.096  -4.125  0.00  0.00     0.024 H 
ATOM     67  H   LIG d   1       7.768   1.502  -3.382  0.00  0.00     0.024 H 
ATOM     68  H   LIG d   1       7.314   2.217  -4.948  0.00  0.00     0.024 H 
ENDBRANCH   7  65
BRANCH  17  69
ATOM     69  C   LIG d   1       9.606   4.189  -5.981  0.00  0.00    -0.056 C 
ATOM     70  H   LIG d   1      10.002   3.746  -5.067  0.00  0.00     0.024 H 
ATOM     71  H   LIG d   1      10.079   5.156  -6.151  0.00  0.00     0.024 H 
ATOM     72  H   LIG d   1       8.528   4.324  -5.882  0.00  0.00     0.024 H 
ENDBRANCH  17  69
BRANCH  20  73
ATOM     73  O   LIG d   1      11.560   6.405  -9.549  0.00  0.00    -0.458 OA
BRANCH  73  74
ATOM     74  C   LIG d   1      11.947   6.534 -10.834  0.00  0.00     0.341 C 
ATOM     75  O   LIG d   1      12.861   5.859 -11.264  0.00  0.00    -0.245 OA
BRANCH  74  76
ATOM     76  C   LIG d   1      11.259   7.496 -11.719  0.00  0.00     0.077 A 
ATOM     77  C   LIG d   1      10.179   7.081 -12.502  0.00  0.00     0.055 A 
ATOM     78  C   LIG d   1       9.538   7.989 -13.322  0.00  0.00    -0.043 A 
ATOM     79 CL   LIG d   1       9.640   5.433 -12.438  0.00  0.00    -0.083 Cl
ATOM     80  C   LIG d   1       9.970   9.302 -13.378  0.00  0.00    -0.060 A 
ATOM     81  H   LIG d   1       8.699   7.672 -13.925  0.00  0.00     0.063 H 
ATOM     82  C   LIG d   1      11.043   9.717 -12.609  0.00  0.00    -0.061 A 
ATOM     83  H   LIG d   1       9.468  10.006 -14.024  0.00  0.00     0.062 H 
ATOM     84  C   LIG d   1      11.689   8.824 -11.781  0.00  0.00    -0.046 A 
ATOM     85  H   LIG d   1      11.376  10.743 -12.657  0.00  0.00     0.062 H 
ATOM     86  H   LIG d   1      12.527   9.150 -11.182  0.00  0.00     0.063 H 
ENDBRANCH  74  76
ENDBRANCH  73  74
ENDBRANCH  20  73
TORSDOF 13
ENDMDL
MODEL 6
REMARK VINA RESULT:      -5.9      1.367      2.121
REMARK  13 active torsions:
REMARK  status: ('A' for Active; 'I' for Inactive)
REMARK    1  A    between atoms: C_1  and  C_2 
REMARK    2  A    between atoms: C_2  and  C_3 
REMARK    3  A    between atoms: C_3  and  C_4 
REMARK    4  A    between atoms: C_4  and  C_5 
REMARK    5  A    between atoms: C_5  and  C_6 
REMARK    6  A    between atoms: C_6  and  C_7 
REMARK    7  A    between atoms: C_7  and  C_8 
REMARK    8  A    between atoms: C_8  and  C_9 
REMARK    9  A    between atoms: C_15  and  C_42 
REMARK   10  A    between atoms: C_25  and  C_41 
REMARK   11  A    between atoms: C_28  and  O_31 
REMARK   12  A    between atoms: O_31  and  C_32 
REMARK   13  A    between atoms: C_32  and  C_34 
ROOT
ATOM      1  C   LIG d   1      12.339   6.854  -2.901  0.00  0.00    -0.035 C 
ATOM      2  H   LIG d   1      11.678   7.431  -2.252  0.00  0.00     0.031 H 
ATOM      3  C   LIG d   1      12.475   7.547  -4.279  0.00  0.00    -0.049 C 
ATOM      4  C   LIG d   1      11.853   6.577  -5.320  0.00  0.00    -0.049 C 
ATOM      5  C   LIG d   1      10.889   5.738  -4.475  0.00  0.00    -0.032 C 
ATOM      6  H   LIG d   1       9.996   6.315  -4.235  0.00  0.00     0.031 H 
ATOM      7  C   LIG d   1      11.730   5.486  -3.192  0.00  0.00    -0.026 C 
ATOM      8  C   LIG d   1      10.788   4.929  -2.142  0.00  0.00    -0.047 C 
ATOM      9  C   LIG d   1      10.302   3.562  -2.650  0.00  0.00    -0.049 C 
ATOM     10  C   LIG d   1       9.623   3.674  -4.012  0.00  0.00    -0.029 C 
ATOM     11  H   LIG d   1       8.714   4.266  -3.896  0.00  0.00     0.031 H 
ATOM     12  C   LIG d   1      10.505   4.388  -5.054  0.00  0.00    -0.031 C 
ATOM     13  H   LIG d   1      11.399   3.794  -5.250  0.00  0.00     0.031 H 
ATOM     14  C   LIG d   1       9.689   4.594  -6.335  0.00  0.00    -0.031 C 
ATOM     15  C   LIG d   1       9.170   3.267  -6.807  0.00  0.00    -0.084 C 
ATOM     16  C   LIG d   1       8.955   2.264  -6.007  0.00  0.00    -0.064 C 
ATOM     17  C   LIG d   1       9.232   2.291  -4.505  0.00  0.00    -0.008 C 
ATOM     18  C   LIG d   1       7.982   1.805  -3.766  0.00  0.00    -0.040 C 
ATOM     19  C   LIG d   1       7.592   0.419  -4.283  0.00  0.00    -0.015 C 
ATOM     20  C   LIG d   1       7.232   0.505  -5.767  0.00  0.00     0.107 C 
ATOM     21  H   LIG d   1       6.437   1.239  -5.907  0.00  0.00     0.074 H 
ATOM     22  C   LIG d   1       8.419   0.972  -6.600  0.00  0.00     0.006 C 
ATOM     23  H   LIG d   1      11.932   8.493  -4.278  0.00  0.00     0.027 H 
ATOM     24  H   LIG d   1      13.527   7.719  -4.509  0.00  0.00     0.027 H 
ATOM     25  H   LIG d   1      11.311   7.130  -6.088  0.00  0.00     0.027 H 
ATOM     26  H   LIG d   1      12.622   5.946  -5.768  0.00  0.00     0.027 H 
ATOM     27  H   LIG d   1      11.317   4.807  -1.197  0.00  0.00     0.027 H 
ATOM     28  H   LIG d   1       9.940   5.599  -2.011  0.00  0.00     0.027 H 
ATOM     29  H   LIG d   1      11.156   2.890  -2.733  0.00  0.00     0.027 H 
ATOM     30  H   LIG d   1       9.594   3.148  -1.933  0.00  0.00     0.027 H 
ATOM     31  H   LIG d   1       8.852   5.260  -6.130  0.00  0.00     0.031 H 
ATOM     32  H   LIG d   1      10.325   5.031  -7.104  0.00  0.00     0.031 H 
ATOM     33  H   LIG d   1       8.965   3.139  -7.860  0.00  0.00     0.057 H 
ATOM     34  H   LIG d   1       8.191   1.748  -2.697  0.00  0.00     0.028 H 
ATOM     35  H   LIG d   1       7.162   2.502  -3.940  0.00  0.00     0.028 H 
ATOM     36  H   LIG d   1       8.430  -0.266  -4.154  0.00  0.00     0.030 H 
ATOM     37  H   LIG d   1       6.732   0.051  -3.723  0.00  0.00     0.030 H 
ATOM     38  H   LIG d   1       8.139   1.134  -7.641  0.00  0.00     0.035 H 
ATOM     39  H   LIG d   1       9.183   0.196  -6.541  0.00  0.00     0.035 H 
ENDROOT
BRANCH   1  40
ATOM     40  C   LIG d   1      13.714   6.695  -2.249  0.00  0.00    -0.050 C 
ATOM     41  H   LIG d   1      14.400   7.432  -2.666  0.00  0.00     0.027 H 
ATOM     42  H   LIG d   1      14.095   5.693  -2.446  0.00  0.00     0.027 H 
BRANCH  40  43
ATOM     43  C   LIG d   1      13.591   6.907  -0.739  0.00  0.00    -0.053 C 
ATOM     44  H   LIG d   1      14.563   6.757  -0.271  0.00  0.00     0.026 H 
ATOM     45  H   LIG d   1      12.876   6.193  -0.330  0.00  0.00     0.026 H 
BRANCH  43  46
ATOM     46  C   LIG d   1      13.105   8.331  -0.462  0.00  0.00    -0.053 C 
ATOM     47  H   LIG d   1      12.575   8.711  -1.336  0.00  0.00     0.026 H 
ATOM     48  H   LIG d   1      13.960   8.972  -0.249  0.00  0.00     0.026 H 
BRANCH  46  49
ATOM     49  C   LIG d   1      12.161   8.322   0.742  0.00  0.00    -0.053 C 
ATOM     50  H   LIG d   1      12.649   8.801   1.591  0.00  0.00     0.026 H 
ATOM     51  H   LIG d   1      11.910   7.293   1.000  0.00  0.00     0.026 H 
BRANCH  49  52
ATOM     52  C   LIG d   1      10.882   9.086   0.393  0.00  0.00    -0.053 C 
ATOM     53  H   LIG d   1      10.729   9.888   1.115  0.00  0.00     0.026 H 
ATOM     54  H   LIG d   1      10.031   8.404   0.426  0.00  0.00     0.026 H 
BRANCH  52  55
ATOM     55  C   LIG d   1      11.007   9.678  -1.011  0.00  0.00    -0.053 C 
ATOM     56  H   LIG d   1      11.912   9.298  -1.487  0.00  0.00     0.026 H 
ATOM     57  H   LIG d   1      11.063  10.765  -0.942  0.00  0.00     0.026 H 
BRANCH  55  58
ATOM     58  C   LIG d   1       9.787   9.282  -1.844  0.00  0.00    -0.056 C 
ATOM     59  H   LIG d   1      10.092   9.110  -2.876  0.00  0.00     0.026 H 
ATOM     60  H   LIG d   1       9.050  10.084  -1.812  0.00  0.00     0.026 H 
BRANCH  58  61
ATOM     61  C   LIG d   1       9.173   8.002  -1.273  0.00  0.00    -0.065 C 
ATOM     62  H   LIG d   1       9.913   7.487  -0.659  0.00  0.00     0.023 H 
ATOM     63  H   LIG d   1       8.306   8.255  -0.662  0.00  0.00     0.023 H 
ATOM     64  H   LIG d   1       8.864   7.352  -2.091  0.00  0.00     0.023 H 
ENDBRANCH  58  61
ENDBRANCH  55  58
ENDBRANCH  52  55
ENDBRANCH  49  52
ENDBRANCH  46  49
ENDBRANCH  43  46
ENDBRANCH  40  43
ENDBRANCH   1  40
BRANCH   7  65
ATOM     65  C   LIG d   1      12.840   4.477  -3.490  0.00  0.00    -0.059 C 
ATOM     66  H   LIG d   1      12.464   3.712  -4.168  0.00  0.00     0.024 H 
ATOM     67  H   LIG d   1      13.683   4.990  -3.955  0.00  0.00     0.024 H 
ATOM     68  H   LIG d   1      13.167   4.011  -2.561  0.00  0.00     0.024 H 
ENDBRANCH   7  65
BRANCH  17  69
ATOM     69  C   LIG d   1      10.370   1.325  -4.172  0.00  0.00    -0.056 C 
ATOM     70  H   LIG d   1      10.696   1.489  -3.144  0.00  0.00     0.024 H 
ATOM     71  H   LIG d   1      10.021   0.299  -4.283  0.00  0.00     0.024 H 
ATOM     72  H   LIG d   1      11.206   1.501  -4.850  0.00  0.00     0.024 H 
ENDBRANCH  17  69
BRANCH  20  73
ATOM     73  O   LIG d   1       6.786  -0.772  -6.225  0.00  0.00    -0.458 OA
BRANCH  73  74
ATOM     74  C   LIG d   1       5.454  -0.967  -6.295  0.00  0.00     0.341 C 
ATOM     75  O   LIG d   1       4.906  -1.033  -7.376  0.00  0.00    -0.245 OA
BRANCH  74  76
ATOM     76  C   LIG d   1       4.662  -1.100  -5.055  0.00  0.00     0.077 A 
ATOM     77  C   LIG d   1       4.863  -2.193  -4.208  0.00  0.00     0.055 A 
ATOM     78  C   LIG d   1       4.122  -2.308  -3.048  0.00  0.00    -0.043 A 
ATOM     79 CL   LIG d   1       6.046  -3.399  -4.608  0.00  0.00    -0.083 Cl
ATOM     80  C   LIG d   1       3.175  -1.350  -2.731  0.00  0.00    -0.060 A 
ATOM     81  H   LIG d   1       4.278  -3.148  -2.389  0.00  0.00     0.063 H 
ATOM     82  C   LIG d   1       2.968  -0.269  -3.569  0.00  0.00    -0.061 A 
ATOM     83  H   LIG d   1       2.596  -1.446  -1.825  0.00  0.00     0.062 H 
ATOM     84  C   LIG d   1       3.704  -0.138  -4.728  0.00  0.00    -0.046 A 
ATOM     85  H   LIG d   1       2.228   0.476  -3.316  0.00  0.00     0.062 H 
ATOM     86  H   LIG d   1       3.540   0.708  -5.381  0.00  0.00     0.063 H 
ENDBRANCH  74  76
ENDBRANCH  73  74
ENDBRANCH  20  73
TORSDOF 13
ENDMDL
MODEL 7
REMARK VINA RESULT:      -5.9      6.854     12.464
REMARK  13 active torsions:
REMARK  status: ('A' for Active; 'I' for Inactive)
REMARK    1  A    between atoms: C_1  and  C_2 
REMARK    2  A    between atoms: C_2  and  C_3 
REMARK    3  A    between atoms: C_3  and  C_4 
REMARK    4  A    between atoms: C_4  and  C_5 
REMARK    5  A    between atoms: C_5  and  C_6 
REMARK    6  A    between atoms: C_6  and  C_7 
REMARK    7  A    between atoms: C_7  and  C_8 
REMARK    8  A    between atoms: C_8  and  C_9 
REMARK    9  A    between atoms: C_15  and  C_42 
REMARK   10  A    between atoms: C_25  and  C_41 
REMARK   11  A    between atoms: C_28  and  O_31 
REMARK   12  A    between atoms: O_31  and  C_32 
REMARK   13  A    between atoms: C_32  and  C_34 
ROOT
ATOM      1  C   LIG d   1      10.540 -10.151  -2.192  0.00  0.00    -0.035 C 
ATOM      2  H   LIG d   1       9.638 -10.698  -1.918  0.00  0.00     0.031 H 
ATOM      3  C   LIG d   1      11.216  -9.562  -0.929  0.00  0.00    -0.049 C 
ATOM      4  C   LIG d   1      11.148  -8.018  -1.076  0.00  0.00    -0.049 C 
ATOM      5  C   LIG d   1       9.960  -7.815  -2.022  0.00  0.00    -0.032 C 
ATOM      6  H   LIG d   1       9.021  -7.969  -1.491  0.00  0.00     0.031 H 
ATOM      7  C   LIG d   1      10.185  -8.949  -3.061  0.00  0.00    -0.026 C 
ATOM      8  C   LIG d   1       8.916  -9.061  -3.884  0.00  0.00    -0.047 C 
ATOM      9  C   LIG d   1       8.764  -7.745  -4.663  0.00  0.00    -0.049 C 
ATOM     10  C   LIG d   1       8.726  -6.537  -3.732  0.00  0.00    -0.029 C 
ATOM     11  H   LIG d   1       7.825  -6.603  -3.120  0.00  0.00     0.031 H 
ATOM     12  C   LIG d   1       9.930  -6.495  -2.771  0.00  0.00    -0.031 C 
ATOM     13  H   LIG d   1      10.851  -6.363  -3.340  0.00  0.00     0.031 H 
ATOM     14  C   LIG d   1       9.729  -5.346  -1.777  0.00  0.00    -0.031 C 
ATOM     15  C   LIG d   1       9.530  -4.066  -2.535  0.00  0.00    -0.084 C 
ATOM     16  C   LIG d   1       9.046  -4.025  -3.742  0.00  0.00    -0.064 C 
ATOM     17  C   LIG d   1       8.655  -5.260  -4.551  0.00  0.00    -0.008 C 
ATOM     18  C   LIG d   1       7.236  -5.063  -5.093  0.00  0.00    -0.040 C 
ATOM     19  C   LIG d   1       7.176  -3.766  -5.903  0.00  0.00    -0.015 C 
ATOM     20  C   LIG d   1       7.479  -2.575  -4.992  0.00  0.00     0.107 C 
ATOM     21  H   LIG d   1       6.782  -2.573  -4.153  0.00  0.00     0.074 H 
ATOM     22  C   LIG d   1       8.882  -2.668  -4.406  0.00  0.00     0.006 C 
ATOM     23  H   LIG d   1      10.676  -9.877  -0.035  0.00  0.00     0.027 H 
ATOM     24  H   LIG d   1      12.254  -9.888  -0.873  0.00  0.00     0.027 H 
ATOM     25  H   LIG d   1      10.957  -7.546  -0.111  0.00  0.00     0.027 H 
ATOM     26  H   LIG d   1      12.066  -7.632  -1.520  0.00  0.00     0.027 H 
ATOM     27  H   LIG d   1       8.997  -9.897  -4.578  0.00  0.00     0.027 H 
ATOM     28  H   LIG d   1       8.059  -9.204  -3.227  0.00  0.00     0.027 H 
ATOM     29  H   LIG d   1       9.606  -7.639  -5.348  0.00  0.00     0.027 H 
ATOM     30  H   LIG d   1       7.841  -7.779  -5.240  0.00  0.00     0.027 H 
ATOM     31  H   LIG d   1       8.851  -5.545  -1.163  0.00  0.00     0.031 H 
ATOM     32  H   LIG d   1      10.608  -5.259  -1.140  0.00  0.00     0.031 H 
ATOM     33  H   LIG d   1       9.800  -3.137  -2.057  0.00  0.00     0.057 H 
ATOM     34  H   LIG d   1       6.972  -5.904  -5.735  0.00  0.00     0.028 H 
ATOM     35  H   LIG d   1       6.534  -5.005  -4.262  0.00  0.00     0.028 H 
ATOM     36  H   LIG d   1       7.913  -3.805  -6.705  0.00  0.00     0.030 H 
ATOM     37  H   LIG d   1       6.180  -3.651  -6.330  0.00  0.00     0.030 H 
ATOM     38  H   LIG d   1       9.065  -1.878  -3.677  0.00  0.00     0.035 H 
ATOM     39  H   LIG d   1       9.587  -2.576  -5.232  0.00  0.00     0.035 H 
ENDROOT
BRANCH   1  40
ATOM     40  C   LIG d   1      11.513 -11.072  -2.932  0.00  0.00    -0.050 C 
ATOM     41  H   LIG d   1      12.504 -10.983  -2.489  0.00  0.00     0.027 H 
ATOM     42  H   LIG d   1      11.557 -10.784  -3.982  0.00  0.00     0.027 H 
BRANCH  40  43
ATOM     43  C   LIG d   1      11.030 -12.519  -2.821  0.00  0.00    -0.053 C 
ATOM     44  H   LIG d   1      10.811 -12.750  -1.778  0.00  0.00     0.026 H 
ATOM     45  H   LIG d   1      11.807 -13.190  -3.187  0.00  0.00     0.026 H 
BRANCH  43  46
ATOM     46  C   LIG d   1       9.763 -12.700  -3.660  0.00  0.00    -0.053 C 
ATOM     47  H   LIG d   1       9.988 -13.317  -4.530  0.00  0.00     0.026 H 
ATOM     48  H   LIG d   1       9.403 -11.725  -3.989  0.00  0.00     0.026 H 
BRANCH  46  49
ATOM     49  C   LIG d   1       8.686 -13.383  -2.815  0.00  0.00    -0.053 C 
ATOM     50  H   LIG d   1       9.106 -13.667  -1.850  0.00  0.00     0.026 H 
ATOM     51  H   LIG d   1       8.328 -14.273  -3.332  0.00  0.00     0.026 H 
BRANCH  49  52
ATOM     52  C   LIG d   1       7.519 -12.417  -2.598  0.00  0.00    -0.053 C 
ATOM     53  H   LIG d   1       6.584 -12.911  -2.862  0.00  0.00     0.026 H 
ATOM     54  H   LIG d   1       7.653 -11.538  -3.229  0.00  0.00     0.026 H 
BRANCH  52  55
ATOM     55  C   LIG d   1       7.475 -11.991  -1.130  0.00  0.00    -0.053 C 
ATOM     56  H   LIG d   1       8.477 -12.048  -0.705  0.00  0.00     0.026 H 
ATOM     57  H   LIG d   1       6.809 -12.655  -0.580  0.00  0.00     0.026 H 
BRANCH  55  58
ATOM     58  C   LIG d   1       6.958 -10.555  -1.031  0.00  0.00    -0.056 C 
ATOM     59  H   LIG d   1       7.778  -9.860  -1.216  0.00  0.00     0.026 H 
ATOM     60  H   LIG d   1       6.554 -10.383  -0.033  0.00  0.00     0.026 H 
BRANCH  58  61
ATOM     61  C   LIG d   1       5.859 -10.334  -2.072  0.00  0.00    -0.065 C 
ATOM     62  H   LIG d   1       5.332 -11.273  -2.248  0.00  0.00     0.023 H 
ATOM     63  H   LIG d   1       5.156  -9.586  -1.706  0.00  0.00     0.023 H 
ATOM     64  H   LIG d   1       6.306  -9.989  -3.004  0.00  0.00     0.023 H 
ENDBRANCH  58  61
ENDBRANCH  55  58
ENDBRANCH  52  55
ENDBRANCH  49  52
ENDBRANCH  46  49
ENDBRANCH  43  46
ENDBRANCH  40  43
ENDBRANCH   1  40
BRANCH   7  65
ATOM     65  C   LIG d   1      11.368  -8.595  -3.965  0.00  0.00    -0.059 C 
ATOM     66  H   LIG d   1      11.252  -9.094  -4.927  0.00  0.00     0.024 H 
ATOM     67  H   LIG d   1      11.399  -7.517  -4.118  0.00  0.00     0.024 H 
ATOM     68  H   LIG d   1      12.296  -8.922  -3.496  0.00  0.00     0.024 H 
ENDBRANCH   7  65
BRANCH  17  69
ATOM     69  C   LIG d   1       9.590  -5.409  -5.752  0.00  0.00    -0.056 C 
ATOM     70  H   LIG d   1      10.302  -6.212  -5.560  0.00  0.00     0.024 H 
ATOM     71  H   LIG d   1       9.007  -5.646  -6.642  0.00  0.00     0.024 H 
ATOM     72  H   LIG d   1      10.131  -4.475  -5.910  0.00  0.00     0.024 H 
ENDBRANCH  17  69
BRANCH  20  73
ATOM     73  O   LIG d   1       7.338  -1.361  -5.732  0.00  0.00    -0.458 OA
BRANCH  73  74
ATOM     74  C   LIG d   1       6.184  -0.683  -5.579  0.00  0.00     0.341 C 
ATOM     75  O   LIG d   1       5.731  -0.038  -6.504  0.00  0.00    -0.245 OA
BRANCH  74  76
ATOM     76  C   LIG d   1       5.469  -0.723  -4.287  0.00  0.00     0.077 A 
ATOM     77  C   LIG d   1       5.775   0.203  -3.286  0.00  0.00     0.055 A 
ATOM     78  C   LIG d   1       5.098   0.163  -2.083  0.00  0.00    -0.043 A 
ATOM     79 CL   LIG d   1       6.997   1.406  -3.558  0.00  0.00    -0.083 Cl
ATOM     80  C   LIG d   1       4.128  -0.799  -1.864  0.00  0.00    -0.060 A 
ATOM     81  H   LIG d   1       5.329   0.880  -1.310  0.00  0.00     0.063 H 
ATOM     82  C   LIG d   1       3.825  -1.722  -2.849  0.00  0.00    -0.061 A 
ATOM     83  H   LIG d   1       3.604  -0.829  -0.920  0.00  0.00     0.062 H 
ATOM     84  C   LIG d   1       4.488  -1.690  -4.057  0.00  0.00    -0.046 A 
ATOM     85  H   LIG d   1       3.066  -2.470  -2.672  0.00  0.00     0.062 H 
ATOM     86  H   LIG d   1       4.249  -2.413  -4.825  0.00  0.00     0.063 H 
ENDBRANCH  74  76
ENDBRANCH  73  74
ENDBRANCH  20  73
TORSDOF 13
ENDMDL
MODEL 8
REMARK VINA RESULT:      -5.8      6.369     10.097
REMARK  13 active torsions:
REMARK  status: ('A' for Active; 'I' for Inactive)
REMARK    1  A    between atoms: C_1  and  C_2 
REMARK    2  A    between atoms: C_2  and  C_3 
REMARK    3  A    between atoms: C_3  and  C_4 
REMARK    4  A    between atoms: C_4  and  C_5 
REMARK    5  A    between atoms: C_5  and  C_6 
REMARK    6  A    between atoms: C_6  and  C_7 
REMARK    7  A    between atoms: C_7  and  C_8 
REMARK    8  A    between atoms: C_8  and  C_9 
REMARK    9  A    between atoms: C_15  and  C_42 
REMARK   10  A    between atoms: C_25  and  C_41 
REMARK   11  A    between atoms: C_28  and  O_31 
REMARK   12  A    between atoms: O_31  and  C_32 
REMARK   13  A    between atoms: C_32  and  C_34 
ROOT
ATOM      1  C   LIG d   1       6.943  -0.793  -6.626  0.00  0.00    -0.035 C 
ATOM      2  H   LIG d   1       7.793  -0.583  -7.275  0.00  0.00     0.031 H 
ATOM      3  C   LIG d   1       7.075  -2.208  -6.010  0.00  0.00    -0.049 C 
ATOM      4  C   LIG d   1       5.888  -3.041  -6.567  0.00  0.00    -0.049 C 
ATOM      5  C   LIG d   1       5.539  -2.313  -7.869  0.00  0.00    -0.032 C 
ATOM      6  H   LIG d   1       6.275  -2.542  -8.640  0.00  0.00     0.031 H 
ATOM      7  C   LIG d   1       5.653  -0.824  -7.440  0.00  0.00    -0.026 C 
ATOM      8  C   LIG d   1       5.634   0.010  -8.707  0.00  0.00    -0.047 C 
ATOM      9  C   LIG d   1       4.252  -0.179  -9.353  0.00  0.00    -0.049 C 
ATOM     10  C   LIG d   1       3.960  -1.649  -9.642  0.00  0.00    -0.029 C 
ATOM     11  H   LIG d   1       4.668  -1.999 -10.394  0.00  0.00     0.031 H 
ATOM     12  C   LIG d   1       4.134  -2.541  -8.398  0.00  0.00    -0.031 C 
ATOM     13  H   LIG d   1       3.398  -2.267  -7.641  0.00  0.00     0.031 H 
ATOM     14  C   LIG d   1       3.975  -4.007  -8.814  0.00  0.00    -0.031 C 
ATOM     15  C   LIG d   1       2.647  -4.186  -9.490  0.00  0.00    -0.084 C 
ATOM     16  C   LIG d   1       2.033  -3.223 -10.112  0.00  0.00    -0.064 C 
ATOM     17  C   LIG d   1       2.556  -1.791 -10.205  0.00  0.00    -0.008 C 
ATOM     18  C   LIG d   1       2.532  -1.353 -11.672  0.00  0.00    -0.040 C 
ATOM     19  C   LIG d   1       1.117  -1.516 -12.229  0.00  0.00    -0.015 C 
ATOM     20  C   LIG d   1       0.716  -2.992 -12.194  0.00  0.00     0.107 C 
ATOM     21  H   LIG d   1       1.449  -3.582 -12.746  0.00  0.00     0.074 H 
ATOM     22  C   LIG d   1       0.696  -3.527 -10.767  0.00  0.00     0.006 C 
ATOM     23  H   LIG d   1       8.022  -2.659  -6.310  0.00  0.00     0.027 H 
ATOM     24  H   LIG d   1       7.015  -2.150  -4.924  0.00  0.00     0.027 H 
ATOM     25  H   LIG d   1       6.198  -4.066  -6.770  0.00  0.00     0.027 H 
ATOM     26  H   LIG d   1       5.045  -3.021  -5.876  0.00  0.00     0.027 H 
ATOM     27  H   LIG d   1       5.788   1.061  -8.462  0.00  0.00     0.027 H 
ATOM     28  H   LIG d   1       6.412  -0.332  -9.388  0.00  0.00     0.027 H 
ATOM     29  H   LIG d   1       3.488   0.209  -8.678  0.00  0.00     0.027 H 
ATOM     30  H   LIG d   1       4.217   0.381 -10.287  0.00  0.00     0.027 H 
ATOM     31  H   LIG d   1       4.774  -4.278  -9.504  0.00  0.00     0.031 H 
ATOM     32  H   LIG d   1       4.023  -4.643  -7.931  0.00  0.00     0.031 H 
ATOM     33  H   LIG d   1       2.181  -5.160  -9.460  0.00  0.00     0.057 H 
ATOM     34  H   LIG d   1       2.833  -0.307 -11.745  0.00  0.00     0.028 H 
ATOM     35  H   LIG d   1       3.223  -1.970 -12.247  0.00  0.00     0.028 H 
ATOM     36  H   LIG d   1       0.420  -0.937 -11.624  0.00  0.00     0.030 H 
ATOM     37  H   LIG d   1       1.088  -1.158 -13.258  0.00  0.00     0.030 H 
ATOM     38  H   LIG d   1       0.512  -4.602 -10.745  0.00  0.00     0.035 H 
ATOM     39  H   LIG d   1      -0.101  -3.007 -10.236  0.00  0.00     0.035 H 
ENDROOT
BRANCH   1  40
ATOM     40  C   LIG d   1       6.847   0.260  -5.520  0.00  0.00    -0.050 C 
ATOM     41  H   LIG d   1       5.829   0.643  -5.471  0.00  0.00     0.027 H 
ATOM     42  H   LIG d   1       7.533   1.078  -5.738  0.00  0.00     0.027 H 
BRANCH  40  43
ATOM     43  C   LIG d   1       7.221  -0.375  -4.179  0.00  0.00    -0.053 C 
ATOM     44  H   LIG d   1       8.272  -0.662  -4.193  0.00  0.00     0.026 H 
ATOM     45  H   LIG d   1       6.605  -1.258  -4.011  0.00  0.00     0.026 H 
BRANCH  43  46
ATOM     46  C   LIG d   1       6.984   0.635  -3.054  0.00  0.00    -0.053 C 
ATOM     47  H   LIG d   1       7.714   1.441  -3.128  0.00  0.00     0.026 H 
ATOM     48  H   LIG d   1       7.088   0.137  -2.090  0.00  0.00     0.026 H 
BRANCH  46  49
ATOM     49  C   LIG d   1       5.573   1.214  -3.180  0.00  0.00    -0.053 C 
ATOM     50  H   LIG d   1       5.092   0.812  -4.072  0.00  0.00     0.026 H 
ATOM     51  H   LIG d   1       5.631   2.300  -3.257  0.00  0.00     0.026 H 
BRANCH  49  52
ATOM     52  C   LIG d   1       4.754   0.834  -1.945  0.00  0.00    -0.053 C 
ATOM     53  H   LIG d   1       4.247   1.719  -1.558  0.00  0.00     0.026 H 
ATOM     54  H   LIG d   1       5.417   0.433  -1.178  0.00  0.00     0.026 H 
BRANCH  52  55
ATOM     55  C   LIG d   1       3.716  -0.223  -2.325  0.00  0.00    -0.053 C 
ATOM     56  H   LIG d   1       3.491  -0.145  -3.390  0.00  0.00     0.026 H 
ATOM     57  H   LIG d   1       2.805  -0.061  -1.749  0.00  0.00     0.026 H 
BRANCH  55  58
ATOM     58  C   LIG d   1       4.271  -1.616  -2.022  0.00  0.00    -0.056 C 
ATOM     59  H   LIG d   1       3.646  -2.099  -1.270  0.00  0.00     0.026 H 
ATOM     60  H   LIG d   1       5.290  -1.527  -1.645  0.00  0.00     0.026 H 
BRANCH  58  61
ATOM     61  C   LIG d   1       4.270  -2.455  -3.301  0.00  0.00    -0.065 C 
ATOM     62  H   LIG d   1       3.745  -1.915  -4.089  0.00  0.00     0.023 H 
ATOM     63  H   LIG d   1       5.298  -2.644  -3.612  0.00  0.00     0.023 H 
ATOM     64  H   LIG d   1       3.766  -3.403  -3.113  0.00  0.00     0.023 H 
ENDBRANCH  58  61
ENDBRANCH  55  58
ENDBRANCH  52  55
ENDBRANCH  49  52
ENDBRANCH  46  49
ENDBRANCH  43  46
ENDBRANCH  40  43
ENDBRANCH   1  40
BRANCH   7  65
ATOM     65  C   LIG d   1       4.468  -0.450  -6.548  0.00  0.00    -0.059 C 
ATOM     66  H   LIG d   1       3.928   0.387  -6.992  0.00  0.00     0.024 H 
ATOM     67  H   LIG d   1       3.798  -1.305  -6.455  0.00  0.00     0.024 H 
ATOM     68  H   LIG d   1       4.831  -0.165  -5.560  0.00  0.00     0.024 H 
ENDBRANCH   7  65
BRANCH  17  69
ATOM     69  C   LIG d   1       1.632  -0.851  -9.429  0.00  0.00    -0.056 C 
ATOM     70  H   LIG d   1       2.096  -0.590  -8.477  0.00  0.00     0.024 H 
ATOM     71  H   LIG d   1       1.461   0.054 -10.010  0.00  0.00     0.024 H 
ATOM     72  H   LIG d   1       0.680  -1.350  -9.243  0.00  0.00     0.024 H 
ENDBRANCH  17  69
BRANCH  20  73
ATOM     73  O   LIG d   1      -0.571  -3.151 -12.793  0.00  0.00    -0.458 OA
BRANCH  73  74
ATOM     74  C   LIG d   1      -1.215  -4.312 -12.561  0.00  0.00     0.341 C 
ATOM     75  O   LIG d   1      -0.767  -5.353 -12.999  0.00  0.00    -0.245 OA
BRANCH  74  76
ATOM     76  C   LIG d   1      -2.465  -4.319 -11.774  0.00  0.00     0.077 A 
ATOM     77  C   LIG d   1      -3.607  -3.682 -12.266  0.00  0.00     0.055 A 
ATOM     78  C   LIG d   1      -4.774  -3.698 -11.527  0.00  0.00    -0.043 A 
ATOM     79 CL   LIG d   1      -3.563  -2.880 -13.805  0.00  0.00    -0.083 Cl
ATOM     80  C   LIG d   1      -4.809  -4.333 -10.298  0.00  0.00    -0.060 A 
ATOM     81  H   LIG d   1      -5.659  -3.212 -11.906  0.00  0.00     0.063 H 
ATOM     82  C   LIG d   1      -3.679  -4.960  -9.803  0.00  0.00    -0.061 A 
ATOM     83  H   LIG d   1      -5.722  -4.339  -9.722  0.00  0.00     0.062 H 
ATOM     84  C   LIG d   1      -2.509  -4.957 -10.533  0.00  0.00    -0.046 A 
ATOM     85  H   LIG d   1      -3.713  -5.454  -8.843  0.00  0.00     0.062 H 
ATOM     86  H   LIG d   1      -1.627  -5.448 -10.144  0.00  0.00     0.063 H 
ENDBRANCH  74  76
ENDBRANCH  73  74
ENDBRANCH  20  73
TORSDOF 13
ENDMDL
MODEL 9
REMARK VINA RESULT:      -5.6      2.404      3.380
REMARK  13 active torsions:
REMARK  status: ('A' for Active; 'I' for Inactive)
REMARK    1  A    between atoms: C_1  and  C_2 
REMARK    2  A    between atoms: C_2  and  C_3 
REMARK    3  A    between atoms: C_3  and  C_4 
REMARK    4  A    between atoms: C_4  and  C_5 
REMARK    5  A    between atoms: C_5  and  C_6 
REMARK    6  A    between atoms: C_6  and  C_7 
REMARK    7  A    between atoms: C_7  and  C_8 
REMARK    8  A    between atoms: C_8  and  C_9 
REMARK    9  A    between atoms: C_15  and  C_42 
REMARK   10  A    between atoms: C_25  and  C_41 
REMARK   11  A    between atoms: C_28  and  O_31 
REMARK   12  A    between atoms: O_31  and  C_32 
REMARK   13  A    between atoms: C_32  and  C_34 
ROOT
ATOM      1  C   LIG d   1      12.604   5.684  -3.077  0.00  0.00    -0.035 C 
ATOM      2  H   LIG d   1      12.025   6.213  -2.319  0.00  0.00     0.031 H 
ATOM      3  C   LIG d   1      12.750   6.559  -4.347  0.00  0.00    -0.049 C 
ATOM      4  C   LIG d   1      12.003   5.809  -5.483  0.00  0.00    -0.049 C 
ATOM      5  C   LIG d   1      11.000   4.939  -4.718  0.00  0.00    -0.032 C 
ATOM      6  H   LIG d   1      10.173   5.547  -4.353  0.00  0.00     0.031 H 
ATOM      7  C   LIG d   1      11.863   4.431  -3.530  0.00  0.00    -0.026 C 
ATOM      8  C   LIG d   1      10.915   3.806  -2.524  0.00  0.00    -0.047 C 
ATOM      9  C   LIG d   1      10.287   2.575  -3.197  0.00  0.00    -0.049 C 
ATOM     10  C   LIG d   1       9.569   2.944  -4.492  0.00  0.00    -0.029 C 
ATOM     11  H   LIG d   1       8.724   3.587  -4.245  0.00  0.00     0.031 H 
ATOM     12  C   LIG d   1      10.473   3.727  -5.465  0.00  0.00    -0.031 C 
ATOM     13  H   LIG d   1      11.300   3.095  -5.790  0.00  0.00     0.031 H 
ATOM     14  C   LIG d   1       9.630   4.187  -6.659  0.00  0.00    -0.031 C 
ATOM     15  C   LIG d   1       8.974   2.993  -7.290  0.00  0.00    -0.084 C 
ATOM     16  C   LIG d   1       8.700   1.905  -6.632  0.00  0.00    -0.064 C 
ATOM     17  C   LIG d   1       9.036   1.687  -5.158  0.00  0.00    -0.008 C 
ATOM     18  C   LIG d   1       7.776   1.204  -4.433  0.00  0.00    -0.040 C 
ATOM     19  C   LIG d   1       7.242  -0.052  -5.123  0.00  0.00    -0.015 C 
ATOM     20  C   LIG d   1       6.834   0.282  -6.559  0.00  0.00     0.107 C 
ATOM     21  H   LIG d   1       6.104   1.093  -6.551  0.00  0.00     0.074 H 
ATOM     22  C   LIG d   1       8.026   0.765  -7.376  0.00  0.00     0.006 C 
ATOM     23  H   LIG d   1      12.296   7.536  -4.182  0.00  0.00     0.027 H 
ATOM     24  H   LIG d   1      13.803   6.673  -4.604  0.00  0.00     0.027 H 
ATOM     25  H   LIG d   1      11.484   6.513  -6.134  0.00  0.00     0.027 H 
ATOM     26  H   LIG d   1      12.693   5.189  -6.056  0.00  0.00     0.027 H 
ATOM     27  H   LIG d   1      11.467   3.501  -1.635  0.00  0.00     0.027 H 
ATOM     28  H   LIG d   1      10.137   4.519  -2.254  0.00  0.00     0.027 H 
ATOM     29  H   LIG d   1      11.073   1.852  -3.420  0.00  0.00     0.027 H 
ATOM     30  H   LIG d   1       9.573   2.121  -2.511  0.00  0.00     0.027 H 
ATOM     31  H   LIG d   1       8.865   4.884  -6.318  0.00  0.00     0.031 H 
ATOM     32  H   LIG d   1      10.273   4.678  -7.390  0.00  0.00     0.031 H 
ATOM     33  H   LIG d   1       8.718   3.040  -8.338  0.00  0.00     0.057 H 
ATOM     34  H   LIG d   1       8.020   0.972  -3.395  0.00  0.00     0.028 H 
ATOM     35  H   LIG d   1       7.017   1.986  -4.463  0.00  0.00     0.028 H 
ATOM     36  H   LIG d   1       8.018  -0.817  -5.137  0.00  0.00     0.030 H 
ATOM     37  H   LIG d   1       6.375  -0.425  -4.579  0.00  0.00     0.030 H 
ATOM     38  H   LIG d   1       7.722   1.101  -8.368  0.00  0.00     0.035 H 
ATOM     39  H   LIG d   1       8.717  -0.073  -7.469  0.00  0.00     0.035 H 
ENDROOT
BRANCH   1  40
ATOM     40  C   LIG d   1      13.983   5.315  -2.527  0.00  0.00    -0.050 C 
ATOM     41  H   LIG d   1      14.723   6.025  -2.895  0.00  0.00     0.027 H 
ATOM     42  H   LIG d   1      14.249   4.311  -2.857  0.00  0.00     0.027 H 
BRANCH  40  43
ATOM     43  C   LIG d   1      13.951   5.358  -0.998  0.00  0.00    -0.053 C 
ATOM     44  H   LIG d   1      14.964   5.485  -0.616  0.00  0.00     0.026 H 
ATOM     45  H   LIG d   1      13.533   4.425  -0.618  0.00  0.00     0.026 H 
BRANCH  43  46
ATOM     46  C   LIG d   1      13.081   6.530  -0.539  0.00  0.00    -0.053 C 
ATOM     47  H   LIG d   1      12.692   7.057  -1.410  0.00  0.00     0.026 H 
ATOM     48  H   LIG d   1      13.681   7.214   0.062  0.00  0.00     0.026 H 
BRANCH  46  49
ATOM     49  C   LIG d   1      11.915   6.002   0.299  0.00  0.00    -0.053 C 
ATOM     50  H   LIG d   1      12.181   6.039   1.356  0.00  0.00     0.026 H 
ATOM     51  H   LIG d   1      11.700   4.973   0.015  0.00  0.00     0.026 H 
BRANCH  49  52
ATOM     52  C   LIG d   1      10.678   6.868   0.055  0.00  0.00    -0.053 C 
ATOM     53  H   LIG d   1      10.243   7.160   1.011  0.00  0.00     0.026 H 
ATOM     54  H   LIG d   1       9.944   6.300  -0.518  0.00  0.00     0.026 H 
BRANCH  52  55
ATOM     55  C   LIG d   1      11.077   8.120  -0.728  0.00  0.00    -0.053 C 
ATOM     56  H   LIG d   1      12.140   8.077  -0.965  0.00  0.00     0.026 H 
ATOM     57  H   LIG d   1      10.876   9.005  -0.124  0.00  0.00     0.026 H 
BRANCH  55  58
ATOM     58  C   LIG d   1      10.267   8.193  -2.023  0.00  0.00    -0.056 C 
ATOM     59  H   LIG d   1      10.944   8.159  -2.877  0.00  0.00     0.026 H 
ATOM     60  H   LIG d   1       9.700   9.123  -2.046  0.00  0.00     0.026 H 
BRANCH  58  61
ATOM     61  C   LIG d   1       9.303   7.006  -2.090  0.00  0.00    -0.065 C 
ATOM     62  H   LIG d   1       8.503   7.148  -1.362  0.00  0.00     0.023 H 
ATOM     63  H   LIG d   1       8.876   6.940  -3.090  0.00  0.00     0.023 H 
ATOM     64  H   LIG d   1       9.842   6.087  -1.862  0.00  0.00     0.023 H 
ENDBRANCH  58  61
ENDBRANCH  55  58
ENDBRANCH  52  55
ENDBRANCH  49  52
ENDBRANCH  46  49
ENDBRANCH  43  46
ENDBRANCH  40  43
ENDBRANCH   1  40
BRANCH   7  65
ATOM     65  C   LIG d   1      12.864   3.387  -4.027  0.00  0.00    -0.059 C 
ATOM     66  H   LIG d   1      13.315   3.729  -4.958  0.00  0.00     0.024 H 
ATOM     67  H   LIG d   1      13.644   3.245  -3.278  0.00  0.00     0.024 H 
ATOM     68  H   LIG d   1      12.350   2.441  -4.198  0.00  0.00     0.024 H 
ENDBRANCH   7  65
BRANCH  17  69
ATOM     69  C   LIG d   1      10.093   0.589  -5.026  0.00  0.00    -0.056 C 
ATOM     70  H   LIG d   1      10.418   0.277  -6.018  0.00  0.00     0.024 H 
ATOM     71  H   LIG d   1      10.947   0.972  -4.467  0.00  0.00     0.024 H 
ATOM     72  H   LIG d   1       9.666  -0.264  -4.498  0.00  0.00     0.024 H 
ENDBRANCH  17  69
BRANCH  20  73
ATOM     73  O   LIG d   1       6.257  -0.872  -7.172  0.00  0.00    -0.458 OA
BRANCH  73  74
ATOM     74  C   LIG d   1       4.939  -0.821  -7.452  0.00  0.00     0.341 C 
ATOM     75  O   LIG d   1       4.182  -1.636  -6.962  0.00  0.00    -0.245 OA
BRANCH  74  76
ATOM     76  C   LIG d   1       4.416   0.225  -8.354  0.00  0.00     0.077 A 
ATOM     77  C   LIG d   1       4.823   0.268  -9.690  0.00  0.00     0.055 A 
ATOM     78  C   LIG d   1       4.324   1.245 -10.528  0.00  0.00    -0.043 A 
ATOM     79 CL   LIG d   1       5.946  -0.909 -10.296  0.00  0.00    -0.083 Cl
ATOM     80  C   LIG d   1       3.433   2.187 -10.044  0.00  0.00    -0.060 A 
ATOM     81  H   LIG d   1       4.633   1.278 -11.562  0.00  0.00     0.063 H 
ATOM     82  C   LIG d   1       3.031   2.153  -8.721  0.00  0.00    -0.061 A 
ATOM     83  H   LIG d   1       3.049   2.952 -10.703  0.00  0.00     0.062 H 
ATOM     84  C   LIG d   1       3.516   1.179  -7.874  0.00  0.00    -0.046 A 
ATOM     85  H   LIG d   1       2.335   2.891  -8.349  0.00  0.00     0.062 H 
ATOM     86  H   LIG d   1       3.200   1.154  -6.840  0.00  0.00     0.063 H 
ENDBRANCH  74  76
ENDBRANCH  73  74
ENDBRANCH  20  73
TORSDOF 13
ENDMDL
MODEL 10
REMARK VINA RESULT:      -5.5      3.728      9.481
REMARK  13 active torsions:
REMARK  status: ('A' for Active; 'I' for Inactive)
REMARK    1  A    between atoms: C_1  and  C_2 
REMARK    2  A    between atoms: C_2  and  C_3 
REMARK    3  A    between atoms: C_3  and  C_4 
REMARK    4  A    between atoms: C_4  and  C_5 
REMARK    5  A    between atoms: C_5  and  C_6 
REMARK    6  A    between atoms: C_6  and  C_7 
REMARK    7  A    between atoms: C_7  and  C_8 
REMARK    8  A    between atoms: C_8  and  C_9 
REMARK    9  A    between atoms: C_15  and  C_42 
REMARK   10  A    between atoms: C_25  and  C_41 
REMARK   11  A    between atoms: C_28  and  O_31 
REMARK   12  A    between atoms: O_31  and  C_32 
REMARK   13  A    between atoms: C_32  and  C_34 
ROOT
ATOM      1  C   LIG d   1       8.584   0.117  -5.489  0.00  0.00    -0.035 C 
ATOM      2  H   LIG d   1       9.446  -0.514  -5.709  0.00  0.00     0.031 H 
ATOM      3  C   LIG d   1       7.891   0.556  -6.803  0.00  0.00    -0.049 C 
ATOM      4  C   LIG d   1       8.044   2.099  -6.884  0.00  0.00    -0.049 C 
ATOM      5  C   LIG d   1       9.277   2.368  -6.014  0.00  0.00    -0.032 C 
ATOM      6  H   LIG d   1      10.184   2.086  -6.548  0.00  0.00     0.031 H 
ATOM      7  C   LIG d   1       9.035   1.410  -4.816  0.00  0.00    -0.026 C 
ATOM      8  C   LIG d   1      10.328   1.345  -4.026  0.00  0.00    -0.047 C 
ATOM      9  C   LIG d   1      10.578   2.748  -3.451  0.00  0.00    -0.049 C 
ATOM     10  C   LIG d   1      10.641   3.806  -4.549  0.00  0.00    -0.029 C 
ATOM     11  H   LIG d   1      11.512   3.602  -5.173  0.00  0.00     0.031 H 
ATOM     12  C   LIG d   1       9.404   3.778  -5.467  0.00  0.00    -0.031 C 
ATOM     13  H   LIG d   1       8.514   4.042  -4.894  0.00  0.00     0.031 H 
ATOM     14  C   LIG d   1       9.624   4.760  -6.623  0.00  0.00    -0.031 C 
ATOM     15  C   LIG d   1       9.918   6.122  -6.065  0.00  0.00    -0.084 C 
ATOM     16  C   LIG d   1      10.451   6.307  -4.893  0.00  0.00    -0.064 C 
ATOM     17  C   LIG d   1      10.810   5.181  -3.926  0.00  0.00    -0.008 C 
ATOM     18  C   LIG d   1      12.258   5.374  -3.464  0.00  0.00    -0.040 C 
ATOM     19  C   LIG d   1      12.415   6.767  -2.853  0.00  0.00    -0.015 C 
ATOM     20  C   LIG d   1      12.139   7.831  -3.917  0.00  0.00     0.107 C 
ATOM     21  H   LIG d   1      12.801   7.674  -4.770  0.00  0.00     0.074 H 
ATOM     22  C   LIG d   1      10.710   7.734  -4.439  0.00  0.00     0.006 C 
ATOM     23  H   LIG d   1       8.378   0.086  -7.658  0.00  0.00     0.027 H 
ATOM     24  H   LIG d   1       6.835   0.285  -6.777  0.00  0.00     0.027 H 
ATOM     25  H   LIG d   1       8.220   2.416  -7.912  0.00  0.00     0.027 H 
ATOM     26  H   LIG d   1       7.165   2.596  -6.471  0.00  0.00     0.027 H 
ATOM     27  H   LIG d   1      10.231   0.623  -3.215  0.00  0.00     0.027 H 
ATOM     28  H   LIG d   1      11.149   1.061  -4.682  0.00  0.00     0.027 H 
ATOM     29  H   LIG d   1       9.770   2.999  -2.762  0.00  0.00     0.027 H 
ATOM     30  H   LIG d   1      11.520   2.745  -2.905  0.00  0.00     0.027 H 
ATOM     31  H   LIG d   1      10.466   4.425  -7.229  0.00  0.00     0.031 H 
ATOM     32  H   LIG d   1       8.726   4.804  -7.238  0.00  0.00     0.031 H 
ATOM     33  H   LIG d   1       9.677   6.987  -6.665  0.00  0.00     0.057 H 
ATOM     34  H   LIG d   1      12.503   4.619  -2.715  0.00  0.00     0.028 H 
ATOM     35  H   LIG d   1      12.928   5.272  -4.317  0.00  0.00     0.028 H 
ATOM     36  H   LIG d   1      11.710   6.886  -2.031  0.00  0.00     0.030 H 
ATOM     37  H   LIG d   1      13.432   6.887  -2.479  0.00  0.00     0.030 H 
ATOM     38  H   LIG d   1      10.540   8.421  -5.269  0.00  0.00     0.035 H 
ATOM     39  H   LIG d   1      10.045   7.984  -3.613  0.00  0.00     0.035 H 
ENDROOT
BRANCH   1  40
ATOM     40  C   LIG d   1       7.596  -0.632  -4.593  0.00  0.00    -0.050 C 
ATOM     41  H   LIG d   1       7.325  -0.002  -3.746  0.00  0.00     0.027 H 
ATOM     42  H   LIG d   1       8.058  -1.549  -4.230  0.00  0.00     0.027 H 
BRANCH  40  43
ATOM     43  C   LIG d   1       6.340  -0.977  -5.395  0.00  0.00    -0.053 C 
ATOM     44  H   LIG d   1       6.627  -1.454  -6.332  0.00  0.00     0.026 H 
ATOM     45  H   LIG d   1       5.782  -0.065  -5.607  0.00  0.00     0.026 H 
BRANCH  43  46
ATOM     46  C   LIG d   1       5.464  -1.934  -4.583  0.00  0.00    -0.053 C 
ATOM     47  H   LIG d   1       5.702  -2.962  -4.852  0.00  0.00     0.026 H 
ATOM     48  H   LIG d   1       4.414  -1.736  -4.798  0.00  0.00     0.026 H 
BRANCH  46  49
ATOM     49  C   LIG d   1       5.728  -1.723  -3.091  0.00  0.00    -0.053 C 
ATOM     50  H   LIG d   1       6.082  -0.705  -2.924  0.00  0.00     0.026 H 
ATOM     51  H   LIG d   1       6.484  -2.431  -2.752  0.00  0.00     0.026 H 
BRANCH  49  52
ATOM     52  C   LIG d   1       4.433  -1.947  -2.307  0.00  0.00    -0.053 C 
ATOM     53  H   LIG d   1       4.668  -2.115  -1.257  0.00  0.00     0.026 H 
ATOM     54  H   LIG d   1       3.913  -2.819  -2.706  0.00  0.00     0.026 H 
BRANCH  52  55
ATOM     55  C   LIG d   1       3.537  -0.714  -2.439  0.00  0.00    -0.053 C 
ATOM     56  H   LIG d   1       2.633  -0.857  -1.845  0.00  0.00     0.026 H 
ATOM     57  H   LIG d   1       3.265  -0.573  -3.485  0.00  0.00     0.026 H 
BRANCH  55  58
ATOM     58  C   LIG d   1       4.288   0.520  -1.937  0.00  0.00    -0.056 C 
ATOM     59  H   LIG d   1       5.357   0.306  -1.906  0.00  0.00     0.026 H 
ATOM     60  H   LIG d   1       3.939   0.775  -0.936  0.00  0.00     0.026 H 
BRANCH  58  61
ATOM     61  C   LIG d   1       4.030   1.695  -2.883  0.00  0.00    -0.065 C 
ATOM     62  H   LIG d   1       4.518   1.505  -3.839  0.00  0.00     0.023 H 
ATOM     63  H   LIG d   1       2.957   1.807  -3.038  0.00  0.00     0.023 H 
ATOM     64  H   LIG d   1       4.432   2.608  -2.445  0.00  0.00     0.023 H 
ENDBRANCH  58  61
ENDBRANCH  55  58
ENDBRANCH  52  55
ENDBRANCH  49  52
ENDBRANCH  46  49
ENDBRANCH  43  46
ENDBRANCH  40  43
ENDBRANCH   1  40
BRANCH   7  65
ATOM     65  C   LIG d   1       7.909   1.955  -3.935  0.00  0.00    -0.059 C 
ATOM     66  H   LIG d   1       8.241   1.986  -2.898  0.00  0.00     0.024 H 
ATOM     67  H   LIG d   1       7.647   2.961  -4.262  0.00  0.00     0.024 H 
ATOM     68  H   LIG d   1       7.035   1.308  -4.018  0.00  0.00     0.024 H 
ENDBRANCH   7  65
BRANCH  17  69
ATOM     69  C   LIG d   1       9.916   5.259  -2.687  0.00  0.00    -0.056 C 
ATOM     70  H   LIG d   1      10.474   4.916  -1.815  0.00  0.00     0.024 H 
ATOM     71  H   LIG d   1       9.597   6.289  -2.532  0.00  0.00     0.024 H 
ATOM     72  H   LIG d   1       9.041   4.624  -2.831  0.00  0.00     0.024 H 
ENDBRANCH  17  69
BRANCH  20  73
ATOM     73  O   LIG d   1      12.371   9.128  -3.367  0.00  0.00    -0.458 OA
BRANCH  73  74
ATOM     74  C   LIG d   1      11.447   9.603  -2.508  0.00  0.00     0.341 C 
ATOM     75  O   LIG d   1      10.494  10.230  -2.927  0.00  0.00    -0.245 OA
BRANCH  74  76
ATOM     76  C   LIG d   1      11.591   9.359  -1.059  0.00  0.00     0.077 A 
ATOM     77  C   LIG d   1      10.591   8.680  -0.358  0.00  0.00     0.055 A 
ATOM     78  C   LIG d   1      10.737   8.451   0.996  0.00  0.00    -0.043 A 
ATOM     79 CL   LIG d   1       9.175   8.117  -1.188  0.00  0.00    -0.083 Cl
ATOM     80  C   LIG d   1      11.864   8.903   1.660  0.00  0.00    -0.060 A 
ATOM     81  H   LIG d   1       9.969   7.922   1.540  0.00  0.00     0.063 H 
ATOM     82  C   LIG d   1      12.854   9.582   0.972  0.00  0.00    -0.061 A 
ATOM     83  H   LIG d   1      11.971   8.726   2.720  0.00  0.00     0.062 H 
ATOM     84  C   LIG d   1      12.725   9.812  -0.381  0.00  0.00    -0.046 A 
ATOM     85  H   LIG d   1      13.731   9.932   1.497  0.00  0.00     0.062 H 
ATOM     86  H   LIG d   1      13.500  10.343  -0.916  0.00  0.00     0.063 H 
ENDBRANCH  74  76
ENDBRANCH  73  74
ENDBRANCH  20  73
TORSDOF 13
ENDMDL
