MODEL 1
REMARK VINA RESULT:      -5.0      0.000      0.000
REMARK  4 active torsions:
REMARK  status: ('A' for Active; 'I' for Inactive)
REMARK    1  A    between atoms: C_1  and  O_2 
REMARK    2  A    between atoms: O_2  and  C_3 
REMARK    3  A    between atoms: C_7  and  C_9 
REMARK    4  A    between atoms: C_9  and  O_10 
ROOT
ATOM      1  C   LIG d   1       3.187   0.777  -3.925  0.00  0.00     0.120 A 
ATOM      2  C   LIG d   1       3.735   1.637  -2.986  0.00  0.00    -0.020 A 
ATOM      3  C   LIG d   1       4.338   1.127  -1.852  0.00  0.00    -0.058 A 
ATOM      4  C   LIG d   1       4.401  -0.241  -1.657  0.00  0.00    -0.056 A 
ATOM      5  C   LIG d   1       3.861  -1.101  -2.595  0.00  0.00    -0.019 A 
ATOM      6  C   LIG d   1       3.256  -0.595  -3.731  0.00  0.00    -0.015 A 
ATOM      7  H   LIG d   1       3.687   2.705  -3.137  0.00  0.00     0.065 H 
ATOM      8  H   LIG d   1       4.761   1.797  -1.118  0.00  0.00     0.062 H 
ATOM      9  H   LIG d   1       4.873  -0.637  -0.771  0.00  0.00     0.062 H 
ATOM     10  H   LIG d   1       2.835  -1.267  -4.463  0.00  0.00     0.066 H 
ENDROOT
BRANCH   1  11
ATOM     11  O   LIG d   1       2.587   1.277  -5.038  0.00  0.00    -0.495 OA
BRANCH  11  12
ATOM     12  C   LIG d   1       2.683   0.497  -6.232  0.00  0.00     0.079 C 
ATOM     13  H   LIG d   1       1.705   0.083  -6.475  0.00  0.00     0.066 H 
ATOM     14  H   LIG d   1       3.022   1.129  -7.052  0.00  0.00     0.066 H 
ATOM     15  H   LIG d   1       3.394  -0.315  -6.080  0.00  0.00     0.066 H 
ENDBRANCH  11  12
ENDBRANCH   1  11
BRANCH   5  16
ATOM     16  C   LIG d   1       3.931  -2.591  -2.380  0.00  0.00     0.069 C 
ATOM     17  H   LIG d   1       4.739  -2.819  -1.685  0.00  0.00     0.061 H 
ATOM     18  H   LIG d   1       2.986  -2.944  -1.968  0.00  0.00     0.061 H 
BRANCH  16  19
ATOM     19  O   LIG d   1       4.179  -3.240  -3.629  0.00  0.00    -0.390 OA
ATOM     20  H   LIG d   1       3.507  -3.068  -4.301  0.00  0.00     0.210 HD
ENDBRANCH  16  19
ENDBRANCH   5  16
TORSDOF 4
ENDMDL
MODEL 2
REMARK VINA RESULT:      -4.7      2.418      2.951
REMARK  4 active torsions:
REMARK  status: ('A' for Active; 'I' for Inactive)
REMARK    1  A    between atoms: C_1  and  O_2 
REMARK    2  A    between atoms: O_2  and  C_3 
REMARK    3  A    between atoms: C_7  and  C_9 
REMARK    4  A    between atoms: C_9  and  O_10 
ROOT
ATOM      1  C   LIG d   1       5.864   0.637  -3.112  0.00  0.00     0.120 A 
ATOM      2  C   LIG d   1       4.987   0.697  -2.039  0.00  0.00    -0.020 A 
ATOM      3  C   LIG d   1       4.226  -0.408  -1.708  0.00  0.00    -0.058 A 
ATOM      4  C   LIG d   1       4.343  -1.575  -2.441  0.00  0.00    -0.056 A 
ATOM      5  C   LIG d   1       5.221  -1.639  -3.507  0.00  0.00    -0.019 A 
ATOM      6  C   LIG d   1       5.985  -0.536  -3.843  0.00  0.00    -0.015 A 
ATOM      7  H   LIG d   1       4.895   1.607  -1.466  0.00  0.00     0.065 H 
ATOM      8  H   LIG d   1       3.539  -0.360  -0.876  0.00  0.00     0.062 H 
ATOM      9  H   LIG d   1       3.748  -2.437  -2.181  0.00  0.00     0.062 H 
ATOM     10  H   LIG d   1       6.670  -0.588  -4.674  0.00  0.00     0.066 H 
ENDROOT
BRANCH   1  11
ATOM     11  O   LIG d   1       6.609   1.724  -3.444  0.00  0.00    -0.495 OA
BRANCH  11  12
ATOM     12  C   LIG d   1       7.948   1.484  -3.884  0.00  0.00     0.079 C 
ATOM     13  H   LIG d   1       7.941   0.737  -4.677  0.00  0.00     0.066 H 
ATOM     14  H   LIG d   1       8.377   2.411  -4.262  0.00  0.00     0.066 H 
ATOM     15  H   LIG d   1       8.545   1.120  -3.048  0.00  0.00     0.066 H 
ENDBRANCH  11  12
ENDBRANCH   1  11
BRANCH   5  16
ATOM     16  C   LIG d   1       5.347  -2.912  -4.304  0.00  0.00     0.069 C 
ATOM     17  H   LIG d   1       6.125  -2.794  -5.058  0.00  0.00     0.061 H 
ATOM     18  H   LIG d   1       5.608  -3.734  -3.637  0.00  0.00     0.061 H 
BRANCH  16  19
ATOM     19  O   LIG d   1       4.101  -3.196  -4.945  0.00  0.00    -0.390 OA
ATOM     20  H   LIG d   1       3.953  -2.692  -5.756  0.00  0.00     0.210 HD
ENDBRANCH  16  19
ENDBRANCH   5  16
TORSDOF 4
ENDMDL
MODEL 3
REMARK VINA RESULT:      -4.5      2.016      2.373
REMARK  4 active torsions:
REMARK  status: ('A' for Active; 'I' for Inactive)
REMARK    1  A    between atoms: C_1  and  O_2 
REMARK    2  A    between atoms: O_2  and  C_3 
REMARK    3  A    between atoms: C_7  and  C_9 
REMARK    4  A    between atoms: C_9  and  O_10 
ROOT
ATOM      1  C   LIG d   1       3.585  -0.101  -4.494  0.00  0.00     0.120 A 
ATOM      2  C   LIG d   1       2.708  -0.581  -3.532  0.00  0.00    -0.020 A 
ATOM      3  C   LIG d   1       3.166  -1.430  -2.543  0.00  0.00    -0.058 A 
ATOM      4  C   LIG d   1       4.499  -1.798  -2.509  0.00  0.00    -0.056 A 
ATOM      5  C   LIG d   1       5.376  -1.316  -3.463  0.00  0.00    -0.019 A 
ATOM      6  C   LIG d   1       4.923  -0.466  -4.454  0.00  0.00    -0.015 A 
ATOM      7  H   LIG d   1       1.667  -0.294  -3.558  0.00  0.00     0.065 H 
ATOM      8  H   LIG d   1       2.483  -1.808  -1.797  0.00  0.00     0.062 H 
ATOM      9  H   LIG d   1       4.856  -2.461  -1.736  0.00  0.00     0.062 H 
ATOM     10  H   LIG d   1       5.608  -0.090  -5.198  0.00  0.00     0.066 H 
ENDROOT
BRANCH   1  11
ATOM     11  O   LIG d   1       3.135   0.730  -5.471  0.00  0.00    -0.495 OA
BRANCH  11  12
ATOM     12  C   LIG d   1       2.984   0.173  -6.778  0.00  0.00     0.079 C 
ATOM     13  H   LIG d   1       2.385   0.845  -7.392  0.00  0.00     0.066 H 
ATOM     14  H   LIG d   1       3.965   0.044  -7.234  0.00  0.00     0.066 H 
ATOM     15  H   LIG d   1       2.485  -0.793  -6.706  0.00  0.00     0.066 H 
ENDBRANCH  11  12
ENDBRANCH   1  11
BRANCH   5  16
ATOM     16  C   LIG d   1       6.828  -1.718  -3.422  0.00  0.00     0.069 C 
ATOM     17  H   LIG d   1       7.016  -2.313  -2.529  0.00  0.00     0.061 H 
ATOM     18  H   LIG d   1       7.068  -2.306  -4.308  0.00  0.00     0.061 H 
BRANCH  16  19
ATOM     19  O   LIG d   1       7.645  -0.546  -3.394  0.00  0.00    -0.390 OA
ATOM     20  H   LIG d   1       7.358   0.148  -4.004  0.00  0.00     0.210 HD
ENDBRANCH  16  19
ENDBRANCH   5  16
TORSDOF 4
ENDMDL
MODEL 4
REMARK VINA RESULT:      -4.5      2.493      3.855
REMARK  4 active torsions:
REMARK  status: ('A' for Active; 'I' for Inactive)
REMARK    1  A    between atoms: C_1  and  O_2 
REMARK    2  A    between atoms: O_2  and  C_3 
REMARK    3  A    between atoms: C_7  and  C_9 
REMARK    4  A    between atoms: C_9  and  O_10 
ROOT
ATOM      1  C   LIG d   1       4.610  -2.207  -3.373  0.00  0.00     0.120 A 
ATOM      2  C   LIG d   1       3.795  -1.604  -2.427  0.00  0.00    -0.020 A 
ATOM      3  C   LIG d   1       4.121  -0.357  -1.928  0.00  0.00    -0.058 A 
ATOM      4  C   LIG d   1       5.257   0.292  -2.378  0.00  0.00    -0.056 A 
ATOM      5  C   LIG d   1       6.068  -0.304  -3.325  0.00  0.00    -0.019 A 
ATOM      6  C   LIG d   1       5.745  -1.551  -3.827  0.00  0.00    -0.015 A 
ATOM      7  H   LIG d   1       2.908  -2.110  -2.076  0.00  0.00     0.065 H 
ATOM      8  H   LIG d   1       3.489   0.110  -1.188  0.00  0.00     0.062 H 
ATOM      9  H   LIG d   1       5.510   1.266  -1.988  0.00  0.00     0.062 H 
ATOM     10  H   LIG d   1       6.379  -2.015  -4.568  0.00  0.00     0.066 H 
ENDROOT
BRANCH   1  11
ATOM     11  O   LIG d   1       4.294  -3.436  -3.861  0.00  0.00    -0.495 OA
BRANCH  11  12
ATOM     12  C   LIG d   1       5.004  -3.876  -5.020  0.00  0.00     0.079 C 
ATOM     13  H   LIG d   1       4.579  -4.817  -5.370  0.00  0.00     0.066 H 
ATOM     14  H   LIG d   1       4.920  -3.126  -5.805  0.00  0.00     0.066 H 
ATOM     15  H   LIG d   1       6.054  -4.024  -4.768  0.00  0.00     0.066 H 
ENDBRANCH  11  12
ENDBRANCH   1  11
BRANCH   5  16
ATOM     16  C   LIG d   1       7.304   0.407  -3.813  0.00  0.00     0.069 C 
ATOM     17  H   LIG d   1       8.188  -0.065  -3.384  0.00  0.00     0.061 H 
ATOM     18  H   LIG d   1       7.352   0.349  -4.900  0.00  0.00     0.061 H 
BRANCH  16  19
ATOM     19  O   LIG d   1       7.254   1.777  -3.411  0.00  0.00    -0.390 OA
ATOM     20  H   LIG d   1       6.376   2.175  -3.481  0.00  0.00     0.210 HD
ENDBRANCH  16  19
ENDBRANCH   5  16
TORSDOF 4
ENDMDL
MODEL 5
REMARK VINA RESULT:      -4.4      1.354      3.486
REMARK  4 active torsions:
REMARK  status: ('A' for Active; 'I' for Inactive)
REMARK    1  A    between atoms: C_1  and  O_2 
REMARK    2  A    between atoms: O_2  and  C_3 
REMARK    3  A    between atoms: C_7  and  C_9 
REMARK    4  A    between atoms: C_9  and  O_10 
ROOT
ATOM      1  C   LIG d   1       4.218  -2.038  -3.492  0.00  0.00     0.120 A 
ATOM      2  C   LIG d   1       4.528  -1.676  -2.189  0.00  0.00    -0.020 A 
ATOM      3  C   LIG d   1       4.224  -0.408  -1.734  0.00  0.00    -0.058 A 
ATOM      4  C   LIG d   1       3.604   0.499  -2.575  0.00  0.00    -0.056 A 
ATOM      5  C   LIG d   1       3.288   0.139  -3.872  0.00  0.00    -0.019 A 
ATOM      6  C   LIG d   1       3.591  -1.129  -4.331  0.00  0.00    -0.015 A 
ATOM      7  H   LIG d   1       5.013  -2.384  -1.532  0.00  0.00     0.065 H 
ATOM      8  H   LIG d   1       4.470  -0.124  -0.722  0.00  0.00     0.062 H 
ATOM      9  H   LIG d   1       3.367   1.490  -2.218  0.00  0.00     0.062 H 
ATOM     10  H   LIG d   1       3.343  -1.409  -5.344  0.00  0.00     0.066 H 
ENDROOT
BRANCH   1  11
ATOM     11  O   LIG d   1       4.522  -3.283  -3.943  0.00  0.00    -0.495 OA
BRANCH  11  12
ATOM     12  C   LIG d   1       4.632  -3.452  -5.358  0.00  0.00     0.079 C 
ATOM     13  H   LIG d   1       4.836  -2.488  -5.824  0.00  0.00     0.066 H 
ATOM     14  H   LIG d   1       5.447  -4.141  -5.579  0.00  0.00     0.066 H 
ATOM     15  H   LIG d   1       3.698  -3.854  -5.750  0.00  0.00     0.066 H 
ENDBRANCH  11  12
ENDBRANCH   1  11
BRANCH   5  16
ATOM     16  C   LIG d   1       2.612   1.129  -4.785  0.00  0.00     0.069 C 
ATOM     17  H   LIG d   1       1.536   1.106  -4.613  0.00  0.00     0.061 H 
ATOM     18  H   LIG d   1       2.991   2.130  -4.580  0.00  0.00     0.061 H 
BRANCH  16  19
ATOM     19  O   LIG d   1       2.886   0.786  -6.145  0.00  0.00    -0.390 OA
ATOM     20  H   LIG d   1       2.168   1.000  -6.756  0.00  0.00     0.210 HD
ENDBRANCH  16  19
ENDBRANCH   5  16
TORSDOF 4
ENDMDL
MODEL 6
REMARK VINA RESULT:      -4.3      2.105      4.156
REMARK  4 active torsions:
REMARK  status: ('A' for Active; 'I' for Inactive)
REMARK    1  A    between atoms: C_1  and  O_2 
REMARK    2  A    between atoms: O_2  and  C_3 
REMARK    3  A    between atoms: C_7  and  C_9 
REMARK    4  A    between atoms: C_9  and  O_10 
ROOT
ATOM      1  C   LIG d   1       5.942  -1.462  -3.151  0.00  0.00     0.120 A 
ATOM      2  C   LIG d   1       5.011  -2.490  -3.125  0.00  0.00    -0.020 A 
ATOM      3  C   LIG d   1       3.694  -2.222  -2.806  0.00  0.00    -0.058 A 
ATOM      4  C   LIG d   1       3.302  -0.927  -2.517  0.00  0.00    -0.056 A 
ATOM      5  C   LIG d   1       4.227   0.101  -2.548  0.00  0.00    -0.019 A 
ATOM      6  C   LIG d   1       5.545  -0.163  -2.867  0.00  0.00    -0.015 A 
ATOM      7  H   LIG d   1       5.316  -3.502  -3.351  0.00  0.00     0.065 H 
ATOM      8  H   LIG d   1       2.971  -3.022  -2.781  0.00  0.00     0.062 H 
ATOM      9  H   LIG d   1       2.273  -0.718  -2.268  0.00  0.00     0.062 H 
ATOM     10  H   LIG d   1       6.266   0.640  -2.892  0.00  0.00     0.066 H 
ENDROOT
BRANCH   1  11
ATOM     11  O   LIG d   1       7.239  -1.725  -3.459  0.00  0.00    -0.495 OA
BRANCH  11  12
ATOM     12  C   LIG d   1       7.487  -2.829  -4.333  0.00  0.00     0.079 C 
ATOM     13  H   LIG d   1       6.905  -3.690  -4.006  0.00  0.00     0.066 H 
ATOM     14  H   LIG d   1       7.197  -2.560  -5.349  0.00  0.00     0.066 H 
ATOM     15  H   LIG d   1       8.548  -3.078  -4.312  0.00  0.00     0.066 H 
ENDBRANCH  11  12
ENDBRANCH   1  11
BRANCH   5  16
ATOM     16  C   LIG d   1       3.796   1.511  -2.233  0.00  0.00     0.069 C 
ATOM     17  H   LIG d   1       2.845   1.490  -1.702  0.00  0.00     0.061 H 
ATOM     18  H   LIG d   1       4.551   1.991  -1.611  0.00  0.00     0.061 H 
BRANCH  16  19
ATOM     19  O   LIG d   1       3.646   2.244  -3.451  0.00  0.00    -0.390 OA
ATOM     20  H   LIG d   1       3.445   3.181  -3.323  0.00  0.00     0.210 HD
ENDBRANCH  16  19
ENDBRANCH   5  16
TORSDOF 4
ENDMDL
MODEL 7
REMARK VINA RESULT:      -3.9      1.722      3.032
REMARK  4 active torsions:
REMARK  status: ('A' for Active; 'I' for Inactive)
REMARK    1  A    between atoms: C_1  and  O_2 
REMARK    2  A    between atoms: O_2  and  C_3 
REMARK    3  A    between atoms: C_7  and  C_9 
REMARK    4  A    between atoms: C_9  and  O_10 
ROOT
ATOM      1  C   LIG d   1       4.059  -1.021  -5.011  0.00  0.00     0.120 A 
ATOM      2  C   LIG d   1       4.248  -2.348  -4.657  0.00  0.00    -0.020 A 
ATOM      3  C   LIG d   1       4.476  -2.684  -3.336  0.00  0.00    -0.058 A 
ATOM      4  C   LIG d   1       4.509  -1.697  -2.367  0.00  0.00    -0.056 A 
ATOM      5  C   LIG d   1       4.315  -0.374  -2.717  0.00  0.00    -0.019 A 
ATOM      6  C   LIG d   1       4.086  -0.033  -4.037  0.00  0.00    -0.015 A 
ATOM      7  H   LIG d   1       4.222  -3.119  -5.413  0.00  0.00     0.065 H 
ATOM      8  H   LIG d   1       4.629  -3.716  -3.060  0.00  0.00     0.062 H 
ATOM      9  H   LIG d   1       4.688  -1.961  -1.336  0.00  0.00     0.062 H 
ATOM     10  H   LIG d   1       3.933   1.000  -4.310  0.00  0.00     0.066 H 
ENDROOT
BRANCH   1  11
ATOM     11  O   LIG d   1       3.840  -0.688  -6.311  0.00  0.00    -0.495 OA
BRANCH  11  12
ATOM     12  C   LIG d   1       2.934   0.388  -6.562  0.00  0.00     0.079 C 
ATOM     13  H   LIG d   1       2.863   1.017  -5.674  0.00  0.00     0.066 H 
ATOM     14  H   LIG d   1       3.299   0.983  -7.399  0.00  0.00     0.066 H 
ATOM     15  H   LIG d   1       1.950  -0.013  -6.802  0.00  0.00     0.066 H 
ENDBRANCH  11  12
ENDBRANCH   1  11
BRANCH   5  16
ATOM     16  C   LIG d   1       4.351   0.698  -1.659  0.00  0.00     0.069 C 
ATOM     17  H   LIG d   1       4.104   0.262  -0.691  0.00  0.00     0.061 H 
ATOM     18  H   LIG d   1       5.349   1.135  -1.618  0.00  0.00     0.061 H 
BRANCH  16  19
ATOM     19  O   LIG d   1       3.399   1.715  -1.980  0.00  0.00    -0.390 OA
ATOM     20  H   LIG d   1       2.749   1.878  -1.283  0.00  0.00     0.210 HD
ENDBRANCH  16  19
ENDBRANCH   5  16
TORSDOF 4
ENDMDL
MODEL 8
REMARK VINA RESULT:      -3.8      2.262      3.918
REMARK  4 active torsions:
REMARK  status: ('A' for Active; 'I' for Inactive)
REMARK    1  A    between atoms: C_1  and  O_2 
REMARK    2  A    between atoms: O_2  and  C_3 
REMARK    3  A    between atoms: C_7  and  C_9 
REMARK    4  A    between atoms: C_9  and  O_10 
ROOT
ATOM      1  C   LIG d   1       4.788  -2.655  -3.920  0.00  0.00     0.120 A 
ATOM      2  C   LIG d   1       6.140  -2.408  -3.734  0.00  0.00    -0.020 A 
ATOM      3  C   LIG d   1       6.564  -1.156  -3.332  0.00  0.00    -0.058 A 
ATOM      4  C   LIG d   1       5.639  -0.152  -3.108  0.00  0.00    -0.056 A 
ATOM      5  C   LIG d   1       4.290  -0.398  -3.288  0.00  0.00    -0.019 A 
ATOM      6  C   LIG d   1       3.862  -1.649  -3.690  0.00  0.00    -0.015 A 
ATOM      7  H   LIG d   1       6.863  -3.192  -3.908  0.00  0.00     0.065 H 
ATOM      8  H   LIG d   1       7.616  -0.961  -3.191  0.00  0.00     0.062 H 
ATOM      9  H   LIG d   1       5.971   0.826  -2.794  0.00  0.00     0.062 H 
ATOM     10  H   LIG d   1       2.809  -1.840  -3.829  0.00  0.00     0.066 H 
ENDROOT
BRANCH   1  11
ATOM     11  O   LIG d   1       4.371  -3.885  -4.322  0.00  0.00    -0.495 OA
BRANCH  11  12
ATOM     12  C   LIG d   1       5.045  -4.466  -5.440  0.00  0.00     0.079 C 
ATOM     13  H   LIG d   1       4.626  -5.452  -5.645  0.00  0.00     0.066 H 
ATOM     14  H   LIG d   1       4.915  -3.829  -6.314  0.00  0.00     0.066 H 
ATOM     15  H   LIG d   1       6.107  -4.563  -5.214  0.00  0.00     0.066 H 
ENDBRANCH  11  12
ENDBRANCH   1  11
BRANCH   5  16
ATOM     16  C   LIG d   1       3.286   0.699  -3.043  0.00  0.00     0.069 C 
ATOM     17  H   LIG d   1       3.301   1.399  -3.878  0.00  0.00     0.061 H 
ATOM     18  H   LIG d   1       2.290   0.265  -2.950  0.00  0.00     0.061 H 
BRANCH  16  19
ATOM     19  O   LIG d   1       3.620   1.389  -1.837  0.00  0.00    -0.390 OA
ATOM     20  H   LIG d   1       4.392   1.966  -1.915  0.00  0.00     0.210 HD
ENDBRANCH  16  19
ENDBRANCH   5  16
TORSDOF 4
ENDMDL
MODEL 9
REMARK VINA RESULT:      -3.8      3.795      6.534
REMARK  4 active torsions:
REMARK  status: ('A' for Active; 'I' for Inactive)
REMARK    1  A    between atoms: C_1  and  O_2 
REMARK    2  A    between atoms: O_2  and  C_3 
REMARK    3  A    between atoms: C_7  and  C_9 
REMARK    4  A    between atoms: C_9  and  O_10 
ROOT
ATOM      1  C   LIG d   1       3.052   1.175  -8.135  0.00  0.00     0.120 A 
ATOM      2  C   LIG d   1       3.677   2.104  -8.955  0.00  0.00    -0.020 A 
ATOM      3  C   LIG d   1       3.832   1.841 -10.302  0.00  0.00    -0.058 A 
ATOM      4  C   LIG d   1       3.359   0.656 -10.835  0.00  0.00    -0.056 A 
ATOM      5  C   LIG d   1       2.730  -0.269 -10.022  0.00  0.00    -0.019 A 
ATOM      6  C   LIG d   1       2.573  -0.010  -8.673  0.00  0.00    -0.015 A 
ATOM      7  H   LIG d   1       4.047   3.030  -8.539  0.00  0.00     0.065 H 
ATOM      8  H   LIG d   1       4.323   2.561 -10.939  0.00  0.00     0.062 H 
ATOM      9  H   LIG d   1       3.480   0.452 -11.888  0.00  0.00     0.062 H 
ATOM     10  H   LIG d   1       2.081  -0.732  -8.039  0.00  0.00     0.066 H 
ENDROOT
BRANCH   1  11
ATOM     11  O   LIG d   1       2.904   1.429  -6.808  0.00  0.00    -0.495 OA
BRANCH  11  12
ATOM     12  C   LIG d   1       2.850   0.301  -5.933  0.00  0.00     0.079 C 
ATOM     13  H   LIG d   1       3.396  -0.531  -6.379  0.00  0.00     0.066 H 
ATOM     14  H   LIG d   1       3.303   0.560  -4.977  0.00  0.00     0.066 H 
ATOM     15  H   LIG d   1       1.811   0.011  -5.777  0.00  0.00     0.066 H 
ENDBRANCH  11  12
ENDBRANCH   1  11
BRANCH   5  16
ATOM     16  C   LIG d   1       2.215  -1.559 -10.606  0.00  0.00     0.069 C 
ATOM     17  H   LIG d   1       2.317  -1.533 -11.691  0.00  0.00     0.061 H 
ATOM     18  H   LIG d   1       2.791  -2.394 -10.207  0.00  0.00     0.061 H 
BRANCH  16  19
ATOM     19  O   LIG d   1       0.838  -1.721 -10.260  0.00  0.00    -0.390 OA
ATOM     20  H   LIG d   1       0.687  -2.329  -9.523  0.00  0.00     0.210 HD
ENDBRANCH  16  19
ENDBRANCH   5  16
TORSDOF 4
ENDMDL
MODEL 10
REMARK VINA RESULT:      -3.7      8.427     10.037
REMARK  4 active torsions:
REMARK  status: ('A' for Active; 'I' for Inactive)
REMARK    1  A    between atoms: C_1  and  O_2 
REMARK    2  A    between atoms: O_2  and  C_3 
REMARK    3  A    between atoms: C_7  and  C_9 
REMARK    4  A    between atoms: C_9  and  O_10 
ROOT
ATOM      1  C   LIG d   1      10.719   5.260  -1.962  0.00  0.00     0.120 A 
ATOM      2  C   LIG d   1      11.556   4.994  -0.889  0.00  0.00    -0.020 A 
ATOM      3  C   LIG d   1      11.619   5.876   0.173  0.00  0.00    -0.058 A 
ATOM      4  C   LIG d   1      10.841   7.020   0.169  0.00  0.00    -0.056 A 
ATOM      5  C   LIG d   1      10.001   7.284  -0.897  0.00  0.00    -0.019 A 
ATOM      6  C   LIG d   1       9.935   6.405  -1.961  0.00  0.00    -0.015 A 
ATOM      7  H   LIG d   1      12.163   4.101  -0.885  0.00  0.00     0.065 H 
ATOM      8  H   LIG d   1      12.274   5.672   1.006  0.00  0.00     0.062 H 
ATOM      9  H   LIG d   1      10.891   7.708   0.999  0.00  0.00     0.062 H 
ATOM     10  H   LIG d   1       9.279   6.611  -2.792  0.00  0.00     0.066 H 
ENDROOT
BRANCH   1  11
ATOM     11  O   LIG d   1      10.660   4.396  -3.010  0.00  0.00    -0.495 OA
BRANCH  11  12
ATOM     12  C   LIG d   1      10.664   3.001  -2.702  0.00  0.00     0.079 C 
ATOM     13  H   LIG d   1      11.677   2.610  -2.800  0.00  0.00     0.066 H 
ATOM     14  H   LIG d   1      10.316   2.854  -1.680  0.00  0.00     0.066 H 
ATOM     15  H   LIG d   1      10.004   2.474  -3.391  0.00  0.00     0.066 H 
ENDBRANCH  11  12
ENDBRANCH   1  11
BRANCH   5  16
ATOM     16  C   LIG d   1       9.155   8.531  -0.898  0.00  0.00     0.069 C 
ATOM     17  H   LIG d   1       9.360   9.110   0.003  0.00  0.00     0.061 H 
ATOM     18  H   LIG d   1       9.392   9.131  -1.776  0.00  0.00     0.061 H 
BRANCH  16  19
ATOM     19  O   LIG d   1       7.773   8.168  -0.927  0.00  0.00    -0.390 OA
ATOM     20  H   LIG d   1       7.444   7.949  -1.809  0.00  0.00     0.210 HD
ENDBRANCH  16  19
ENDBRANCH   5  16
TORSDOF 4
ENDMDL
