MODEL 1
REMARK VINA RESULT:      -5.8      0.000      0.000
REMARK  3 active torsions:
REMARK  status: ('A' for Active; 'I' for Inactive)
REMARK    1  A    between atoms: C_1  and  C_2 
REMARK    2  A    between atoms: C_1  and  C_4 
REMARK    3  A    between atoms: C_1  and  C_8 
ROOT
ATOM      1  C   LIG d   1       3.580  -0.023  -2.618  0.00  0.00     0.188 C 
ATOM      2  H   LIG d   1       2.689   0.144  -2.012  0.00  0.00     0.054 H 
ENDROOT
BRANCH   1   3
ATOM      3  C   LIG d   1       3.211   0.035  -4.078  0.00  0.00     0.062 C 
ATOM      4  O   LIG d   1       2.054  -0.057  -4.413  0.00  0.00    -0.549 OA
ATOM      5  O   LIG d   1       4.168   0.186  -5.006  0.00  0.00    -0.549 OA
ENDBRANCH   1   3
BRANCH   1   6
ATOM      6  C   LIG d   1       4.615   1.060  -2.310  0.00  0.00     0.406 C 
ATOM      7  F   LIG d   1       4.660   1.284  -0.930  0.00  0.00    -0.170 F 
ATOM      8  F   LIG d   1       4.259   2.245  -2.963  0.00  0.00    -0.170 F 
ATOM      9  F   LIG d   1       5.874   0.641  -2.755  0.00  0.00    -0.170 F 
ENDBRANCH   1   6
BRANCH   1  10
ATOM     10  C   LIG d   1       4.168  -1.398  -2.294  0.00  0.00     0.406 C 
ATOM     11  F   LIG d   1       3.153  -2.359  -2.334  0.00  0.00    -0.170 F 
ATOM     12  F   LIG d   1       5.151  -1.718  -3.237  0.00  0.00    -0.170 F 
ATOM     13  F   LIG d   1       4.737  -1.372  -1.016  0.00  0.00    -0.170 F 
ENDBRANCH   1  10
TORSDOF 3
ENDMDL
MODEL 2
REMARK VINA RESULT:      -5.7      1.839      2.414
REMARK  3 active torsions:
REMARK  status: ('A' for Active; 'I' for Inactive)
REMARK    1  A    between atoms: C_1  and  C_2 
REMARK    2  A    between atoms: C_1  and  C_4 
REMARK    3  A    between atoms: C_1  and  C_8 
ROOT
ATOM      1  C   LIG d   1       4.338  -0.574  -3.528  0.00  0.00     0.188 C 
ATOM      2  H   LIG d   1       4.213  -1.106  -4.471  0.00  0.00     0.054 H 
ENDROOT
BRANCH   1   3
ATOM      3  C   LIG d   1       5.458   0.425  -3.660  0.00  0.00     0.062 C 
ATOM      4  O   LIG d   1       6.049   0.536  -4.709  0.00  0.00    -0.549 OA
ATOM      5  O   LIG d   1       5.801   1.191  -2.613  0.00  0.00    -0.549 OA
ENDBRANCH   1   3
BRANCH   1   6
ATOM      6  C   LIG d   1       3.041   0.157  -3.179  0.00  0.00     0.406 C 
ATOM      7  F   LIG d   1       3.261   1.002  -2.086  0.00  0.00    -0.170 F 
ATOM      8  F   LIG d   1       2.051  -0.777  -2.854  0.00  0.00    -0.170 F 
ATOM      9  F   LIG d   1       2.623   0.917  -4.278  0.00  0.00    -0.170 F 
ENDBRANCH   1   6
BRANCH   1  10
ATOM     10  C   LIG d   1       4.674  -1.573  -2.419  0.00  0.00     0.406 C 
ATOM     11  F   LIG d   1       3.876  -2.714  -2.562  0.00  0.00    -0.170 F 
ATOM     12  F   LIG d   1       6.023  -1.934  -2.510  0.00  0.00    -0.170 F 
ATOM     13  F   LIG d   1       4.430  -0.986  -1.173  0.00  0.00    -0.170 F 
ENDBRANCH   1  10
TORSDOF 3
ENDMDL
MODEL 3
REMARK VINA RESULT:      -5.6      1.096      3.132
REMARK  3 active torsions:
REMARK  status: ('A' for Active; 'I' for Inactive)
REMARK    1  A    between atoms: C_1  and  C_2 
REMARK    2  A    between atoms: C_1  and  C_4 
REMARK    3  A    between atoms: C_1  and  C_8 
ROOT
ATOM      1  C   LIG d   1       4.797  -0.297  -3.046  0.00  0.00     0.188 C 
ATOM      2  H   LIG d   1       5.871  -0.334  -2.867  0.00  0.00     0.054 H 
ENDROOT
BRANCH   1   3
ATOM      3  C   LIG d   1       4.540  -0.154  -4.524  0.00  0.00     0.062 C 
ATOM      4  O   LIG d   1       5.466  -0.014  -5.287  0.00  0.00    -0.549 OA
ATOM      5  O   LIG d   1       3.283  -0.180  -4.992  0.00  0.00    -0.549 OA
ENDBRANCH   1   3
BRANCH   1   6
ATOM      6  C   LIG d   1       4.151  -1.587  -2.539  0.00  0.00     0.406 C 
ATOM      7  F   LIG d   1       4.485  -1.779  -1.194  0.00  0.00    -0.170 F 
ATOM      8  F   LIG d   1       4.616  -2.670  -3.293  0.00  0.00    -0.170 F 
ATOM      9  F   LIG d   1       2.760  -1.493  -2.664  0.00  0.00    -0.170 F 
ENDBRANCH   1   6
BRANCH   1  10
ATOM     10  C   LIG d   1       4.196   0.900  -2.305  0.00  0.00     0.406 C 
ATOM     11  F   LIG d   1       4.769   0.994  -1.033  0.00  0.00    -0.170 F 
ATOM     12  F   LIG d   1       4.459   2.072  -3.023  0.00  0.00    -0.170 F 
ATOM     13  F   LIG d   1       2.813   0.726  -2.184  0.00  0.00    -0.170 F 
ENDBRANCH   1  10
TORSDOF 3
ENDMDL
MODEL 4
REMARK VINA RESULT:      -5.4      1.590      2.213
REMARK  3 active torsions:
REMARK  status: ('A' for Active; 'I' for Inactive)
REMARK    1  A    between atoms: C_1  and  C_2 
REMARK    2  A    between atoms: C_1  and  C_4 
REMARK    3  A    between atoms: C_1  and  C_8 
ROOT
ATOM      1  C   LIG d   1       4.324  -0.142  -3.350  0.00  0.00     0.188 C 
ATOM      2  H   LIG d   1       3.675   0.126  -4.184  0.00  0.00     0.054 H 
ENDROOT
BRANCH   1   3
ATOM      3  C   LIG d   1       5.707  -0.442  -3.869  0.00  0.00     0.062 C 
ATOM      4  O   LIG d   1       5.951  -0.317  -5.045  0.00  0.00    -0.549 OA
ATOM      5  O   LIG d   1       6.667  -0.848  -3.023  0.00  0.00    -0.549 OA
ENDBRANCH   1   3
BRANCH   1   6
ATOM      6  C   LIG d   1       4.391   1.023  -2.361  0.00  0.00     0.406 C 
ATOM      7  F   LIG d   1       4.770   0.544  -1.102  0.00  0.00    -0.170 F 
ATOM      8  F   LIG d   1       3.134   1.630  -2.270  0.00  0.00    -0.170 F 
ATOM      9  F   LIG d   1       5.331   1.959  -2.806  0.00  0.00    -0.170 F 
ENDBRANCH   1   6
BRANCH   1  10
ATOM     10  C   LIG d   1       3.765  -1.379  -2.644  0.00  0.00     0.406 C 
ATOM     11  F   LIG d   1       4.382  -1.523  -1.397  0.00  0.00    -0.170 F 
ATOM     12  F   LIG d   1       2.385  -1.230  -2.467  0.00  0.00    -0.170 F 
ATOM     13  F   LIG d   1       4.016  -2.514  -3.424  0.00  0.00    -0.170 F 
ENDBRANCH   1  10
TORSDOF 3
ENDMDL
MODEL 5
REMARK VINA RESULT:      -5.3      1.572      2.918
REMARK  3 active torsions:
REMARK  status: ('A' for Active; 'I' for Inactive)
REMARK    1  A    between atoms: C_1  and  C_2 
REMARK    2  A    between atoms: C_1  and  C_4 
REMARK    3  A    between atoms: C_1  and  C_8 
ROOT
ATOM      1  C   LIG d   1       4.558  -0.219  -3.338  0.00  0.00     0.188 C 
ATOM      2  H   LIG d   1       5.302   0.523  -3.047  0.00  0.00     0.054 H 
ENDROOT
BRANCH   1   3
ATOM      3  C   LIG d   1       4.752  -0.583  -4.787  0.00  0.00     0.062 C 
ATOM      4  O   LIG d   1       4.179  -1.540  -5.252  0.00  0.00    -0.549 OA
ATOM      5  O   LIG d   1       5.561   0.156  -5.562  0.00  0.00    -0.549 OA
ENDBRANCH   1   3
BRANCH   1   6
ATOM      6  C   LIG d   1       4.720  -1.469  -2.472  0.00  0.00     0.406 C 
ATOM      7  F   LIG d   1       4.544  -1.130  -1.126  0.00  0.00    -0.170 F 
ATOM      8  F   LIG d   1       6.002  -2.001  -2.654  0.00  0.00    -0.170 F 
ATOM      9  F   LIG d   1       3.763  -2.421  -2.841  0.00  0.00    -0.170 F 
ENDBRANCH   1   6
BRANCH   1  10
ATOM     10  C   LIG d   1       3.155   0.360  -3.140  0.00  0.00     0.406 C 
ATOM     11  F   LIG d   1       2.754   1.017  -4.308  0.00  0.00    -0.170 F 
ATOM     12  F   LIG d   1       2.259  -0.677  -2.858  0.00  0.00    -0.170 F 
ATOM     13  F   LIG d   1       3.171   1.267  -2.075  0.00  0.00    -0.170 F 
ENDBRANCH   1  10
TORSDOF 3
ENDMDL
MODEL 6
REMARK VINA RESULT:      -5.2      1.499      2.806
REMARK  3 active torsions:
REMARK  status: ('A' for Active; 'I' for Inactive)
REMARK    1  A    between atoms: C_1  and  C_2 
REMARK    2  A    between atoms: C_1  and  C_4 
REMARK    3  A    between atoms: C_1  and  C_8 
ROOT
ATOM      1  C   LIG d   1       4.426  -1.022  -3.747  0.00  0.00     0.188 C 
ATOM      2  H   LIG d   1       4.336  -1.823  -4.482  0.00  0.00     0.054 H 
ENDROOT
BRANCH   1   3
ATOM      3  C   LIG d   1       3.842   0.246  -4.314  0.00  0.00     0.062 C 
ATOM      4  O   LIG d   1       3.453   0.273  -5.458  0.00  0.00    -0.549 OA
ATOM      5  O   LIG d   1       3.754   1.345  -3.549  0.00  0.00    -0.549 OA
ENDBRANCH   1   3
BRANCH   1   6
ATOM      6  C   LIG d   1       3.669  -1.409  -2.476  0.00  0.00     0.406 C 
ATOM      7  F   LIG d   1       3.732  -2.796  -2.300  0.00  0.00    -0.170 F 
ATOM      8  F   LIG d   1       2.332  -1.014  -2.590  0.00  0.00    -0.170 F 
ATOM      9  F   LIG d   1       4.252  -0.773  -1.374  0.00  0.00    -0.170 F 
ENDBRANCH   1   6
BRANCH   1  10
ATOM     10  C   LIG d   1       5.903  -0.799  -3.414  0.00  0.00     0.406 C 
ATOM     11  F   LIG d   1       6.607  -0.514  -4.589  0.00  0.00    -0.170 F 
ATOM     12  F   LIG d   1       6.023   0.276  -2.526  0.00  0.00    -0.170 F 
ATOM     13  F   LIG d   1       6.427  -1.954  -2.823  0.00  0.00    -0.170 F 
ENDBRANCH   1  10
TORSDOF 3
ENDMDL
MODEL 7
REMARK VINA RESULT:      -5.2      1.863      3.083
REMARK  3 active torsions:
REMARK  status: ('A' for Active; 'I' for Inactive)
REMARK    1  A    between atoms: C_1  and  C_2 
REMARK    2  A    between atoms: C_1  and  C_4 
REMARK    3  A    between atoms: C_1  and  C_8 
ROOT
ATOM      1  C   LIG d   1       3.752  -0.263  -3.203  0.00  0.00     0.188 C 
ATOM      2  H   LIG d   1       2.672  -0.256  -3.052  0.00  0.00     0.054 H 
ENDROOT
BRANCH   1   3
ATOM      3  C   LIG d   1       4.303   1.115  -2.943  0.00  0.00     0.062 C 
ATOM      4  O   LIG d   1       3.650   2.091  -3.229  0.00  0.00    -0.549 OA
ATOM      5  O   LIG d   1       5.520   1.259  -2.396  0.00  0.00    -0.549 OA
ENDBRANCH   1   3
BRANCH   1   6
ATOM      6  C   LIG d   1       4.395  -1.260  -2.239  0.00  0.00     0.406 C 
ATOM      7  F   LIG d   1       4.514  -0.676  -0.974  0.00  0.00    -0.170 F 
ATOM      8  F   LIG d   1       5.665  -1.613  -2.711  0.00  0.00    -0.170 F 
ATOM      9  F   LIG d   1       3.596  -2.406  -2.150  0.00  0.00    -0.170 F 
ENDBRANCH   1   6
BRANCH   1  10
ATOM     10  C   LIG d   1       4.063  -0.673  -4.645  0.00  0.00     0.406 C 
ATOM     11  F   LIG d   1       5.331  -0.201  -5.000  0.00  0.00    -0.170 F 
ATOM     12  F   LIG d   1       4.039  -2.068  -4.748  0.00  0.00    -0.170 F 
ATOM     13  F   LIG d   1       3.103  -0.125  -5.502  0.00  0.00    -0.170 F 
ENDBRANCH   1  10
TORSDOF 3
ENDMDL
MODEL 8
REMARK VINA RESULT:      -4.9      1.751      2.557
REMARK  3 active torsions:
REMARK  status: ('A' for Active; 'I' for Inactive)
REMARK    1  A    between atoms: C_1  and  C_2 
REMARK    2  A    between atoms: C_1  and  C_4 
REMARK    3  A    between atoms: C_1  and  C_8 
ROOT
ATOM      1  C   LIG d   1       4.354  -0.256  -3.758  0.00  0.00     0.188 C 
ATOM      2  H   LIG d   1       3.967   0.451  -4.492  0.00  0.00     0.054 H 
ENDROOT
BRANCH   1   3
ATOM      3  C   LIG d   1       4.289  -1.651  -4.324  0.00  0.00     0.062 C 
ATOM      4  O   LIG d   1       4.052  -2.588  -3.598  0.00  0.00    -0.549 OA
ATOM      5  O   LIG d   1       4.495  -1.854  -5.635  0.00  0.00    -0.549 OA
ENDBRANCH   1   3
BRANCH   1   6
ATOM      6  C   LIG d   1       5.805   0.094  -3.427  0.00  0.00     0.406 C 
ATOM      7  F   LIG d   1       6.469   0.483  -4.596  0.00  0.00    -0.170 F 
ATOM      8  F   LIG d   1       6.442  -1.026  -2.880  0.00  0.00    -0.170 F 
ATOM      9  F   LIG d   1       5.833   1.145  -2.504  0.00  0.00    -0.170 F 
ENDBRANCH   1   6
BRANCH   1  10
ATOM     10  C   LIG d   1       3.508  -0.183  -2.484  0.00  0.00     0.406 C 
ATOM     11  F   LIG d   1       2.280  -0.816  -2.704  0.00  0.00    -0.170 F 
ATOM     12  F   LIG d   1       4.183  -0.824  -1.439  0.00  0.00    -0.170 F 
ATOM     13  F   LIG d   1       3.289   1.157  -2.147  0.00  0.00    -0.170 F 
ENDBRANCH   1  10
TORSDOF 3
ENDMDL
MODEL 9
REMARK VINA RESULT:      -4.8      2.166      3.058
REMARK  3 active torsions:
REMARK  status: ('A' for Active; 'I' for Inactive)
REMARK    1  A    between atoms: C_1  and  C_2 
REMARK    2  A    between atoms: C_1  and  C_4 
REMARK    3  A    between atoms: C_1  and  C_8 
ROOT
ATOM      1  C   LIG d   1       4.545   0.462  -3.615  0.00  0.00     0.188 C 
ATOM      2  H   LIG d   1       4.223   1.372  -4.121  0.00  0.00     0.054 H 
ENDROOT
BRANCH   1   3
ATOM      3  C   LIG d   1       6.015   0.556  -3.300  0.00  0.00     0.062 C 
ATOM      4  O   LIG d   1       6.557   1.636  -3.260  0.00  0.00    -0.549 OA
ATOM      5  O   LIG d   1       6.724  -0.559  -3.065  0.00  0.00    -0.549 OA
ENDBRANCH   1   3
BRANCH   1   6
ATOM      6  C   LIG d   1       3.755   0.294  -2.316  0.00  0.00     0.406 C 
ATOM      7  F   LIG d   1       4.468  -0.530  -1.439  0.00  0.00    -0.170 F 
ATOM      8  F   LIG d   1       2.513  -0.288  -2.597  0.00  0.00    -0.170 F 
ATOM      9  F   LIG d   1       3.560   1.547  -1.723  0.00  0.00    -0.170 F 
ENDBRANCH   1   6
BRANCH   1  10
ATOM     10  C   LIG d   1       4.294  -0.744  -4.524  0.00  0.00     0.406 C 
ATOM     11  F   LIG d   1       5.338  -0.855  -5.448  0.00  0.00    -0.170 F 
ATOM     12  F   LIG d   1       4.232  -1.907  -3.748  0.00  0.00    -0.170 F 
ATOM     13  F   LIG d   1       3.084  -0.570  -5.204  0.00  0.00    -0.170 F 
ENDBRANCH   1  10
TORSDOF 3
ENDMDL
MODEL 10
REMARK VINA RESULT:      -4.8      1.080      3.088
REMARK  3 active torsions:
REMARK  status: ('A' for Active; 'I' for Inactive)
REMARK    1  A    between atoms: C_1  and  C_2 
REMARK    2  A    between atoms: C_1  and  C_4 
REMARK    3  A    between atoms: C_1  and  C_8 
ROOT
ATOM      1  C   LIG d   1       4.563  -0.279  -3.756  0.00  0.00     0.188 C 
ATOM      2  H   LIG d   1       5.198  -0.007  -4.599  0.00  0.00     0.054 H 
ENDROOT
BRANCH   1   3
ATOM      3  C   LIG d   1       3.118  -0.064  -4.126  0.00  0.00     0.062 C 
ATOM      4  O   LIG d   1       2.836   0.573  -5.113  0.00  0.00    -0.549 OA
ATOM      5  O   LIG d   1       2.145  -0.580  -3.360  0.00  0.00    -0.549 OA
ENDBRANCH   1   3
BRANCH   1   6
ATOM      6  C   LIG d   1       4.786  -1.751  -3.403  0.00  0.00     0.406 C 
ATOM      7  F   LIG d   1       6.126  -1.949  -3.053  0.00  0.00    -0.170 F 
ATOM      8  F   LIG d   1       4.470  -2.549  -4.509  0.00  0.00    -0.170 F 
ATOM      9  F   LIG d   1       3.966  -2.102  -2.324  0.00  0.00    -0.170 F 
ENDBRANCH   1   6
BRANCH   1  10
ATOM     10  C   LIG d   1       4.915   0.593  -2.549  0.00  0.00     0.406 C 
ATOM     11  F   LIG d   1       6.293   0.831  -2.532  0.00  0.00    -0.170 F 
ATOM     12  F   LIG d   1       4.233   1.812  -2.640  0.00  0.00    -0.170 F 
ATOM     13  F   LIG d   1       4.540  -0.065  -1.372  0.00  0.00    -0.170 F 
ENDBRANCH   1  10
TORSDOF 3
ENDMDL
