MODEL 1
REMARK VINA RESULT:      -7.2      0.000      0.000
REMARK  5 active torsions:
REMARK  status: ('A' for Active; 'I' for Inactive)
REMARK    1  A    between atoms: C_1  and  O_2 
REMARK    2  A    between atoms: O_2  and  C_3 
REMARK    3  A    between atoms: C_3  and  C_5 
REMARK    4  A    between atoms: C_8  and  C_11 
REMARK    5  A    between atoms: N_30  and  C_33 
ROOT
ATOM      1  C   LIG d   1       4.903  -3.847  -9.465  0.00  0.00     0.092 C 
ATOM      2  H   LIG d   1       5.851  -3.607  -9.946  0.00  0.00     0.062 H 
ATOM      3  C   LIG d   1       3.756  -3.316 -10.293  0.00  0.00     0.046 A 
ATOM      4  C   LIG d   1       3.005  -2.253  -9.932  0.00  0.00    -0.015 A 
ATOM      5  C   LIG d   1       2.022  -2.055 -10.978  0.00  0.00     0.003 A 
ATOM      6  C   LIG d   1       0.994  -1.122 -11.149  0.00  0.00    -0.052 A 
ATOM      7  C   LIG d   1       0.236  -1.235 -12.288  0.00  0.00    -0.061 A 
ATOM      8  C   LIG d   1       0.468  -2.222 -13.231  0.00  0.00    -0.060 A 
ATOM      9  C   LIG d   1       1.478  -3.158 -13.088  0.00  0.00    -0.038 A 
ATOM     10  C   LIG d   1       2.264  -3.068 -11.941  0.00  0.00     0.047 A 
ATOM     11  N   LIG d   1       3.318  -3.810 -11.494  0.00  0.00    -0.356 N 
ATOM     12  H   LIG d   1       3.701  -4.572 -11.956  0.00  0.00     0.166 HD
ATOM     13  C   LIG d   1       3.196  -1.458  -8.666  0.00  0.00     0.002 C 
ATOM     14  C   LIG d   1       4.592  -1.753  -8.101  0.00  0.00     0.107 A 
ATOM     15  H   LIG d   1       5.328  -1.257  -8.735  0.00  0.00     0.060 H 
ATOM     16  N   LIG d   1       4.832  -3.196  -8.140  0.00  0.00    -0.276 N 
ATOM     17  C   LIG d   1       4.984  -3.939  -7.043  0.00  0.00     0.234 A 
ATOM     18  O   LIG d   1       5.108  -5.138  -7.184  0.00  0.00    -0.274 OA
ATOM     19  C   LIG d   1       5.013  -3.396  -5.651  0.00  0.00     0.092 A 
ATOM     20  N   LIG d   1       4.886  -1.949  -5.627  0.00  0.00    -0.288 N 
ATOM     21  C   LIG d   1       4.700  -1.204  -6.715  0.00  0.00     0.237 A 
ATOM     22  O   LIG d   1       4.612  -0.003  -6.572  0.00  0.00    -0.274 OA
ATOM     23  H   LIG d   1       0.807  -0.348 -10.419  0.00  0.00     0.062 H 
ATOM     24  H   LIG d   1      -0.566  -0.531 -12.454  0.00  0.00     0.062 H 
ATOM     25  H   LIG d   1      -0.160  -2.262 -14.109  0.00  0.00     0.062 H 
ATOM     26  H   LIG d   1       1.651  -3.921 -13.834  0.00  0.00     0.064 H 
ATOM     27  H   LIG d   1       2.439  -1.746  -7.937  0.00  0.00     0.034 H 
ATOM     28  H   LIG d   1       3.109  -0.394  -8.886  0.00  0.00     0.034 H 
ATOM     29  H   LIG d   1       4.192  -3.834  -5.083  0.00  0.00     0.056 H 
ATOM     30  H   LIG d   1       5.955  -3.677  -5.181  0.00  0.00     0.056 H 
ENDROOT
BRANCH  20  31
ATOM     31  C   LIG d   1       4.966  -1.270  -4.331  0.00  0.00     0.027 C 
ATOM     32  C   LIG d   1       4.405  -2.184  -3.241  0.00  0.00    -0.034 C 
ATOM     33  C   LIG d   1       4.118  -1.361  -1.984  0.00  0.00    -0.051 C 
ATOM     34  H   LIG d   1       3.481  -2.644  -3.593  0.00  0.00     0.028 H 
ATOM     35  H   LIG d   1       5.132  -2.962  -3.008  0.00  0.00     0.028 H 
ATOM     36  C   LIG d   1       3.428  -0.053  -2.376  0.00  0.00    -0.053 C 
ATOM     37  H   LIG d   1       3.468  -1.929  -1.318  0.00  0.00     0.027 H 
ATOM     38  H   LIG d   1       5.054  -1.139  -1.473  0.00  0.00     0.027 H 
ATOM     39  C   LIG d   1       4.359   1.124  -2.082  0.00  0.00    -0.053 C 
ATOM     40  H   LIG d   1       3.191  -0.072  -3.439  0.00  0.00     0.026 H 
ATOM     41  H   LIG d   1       2.508   0.059  -1.801  0.00  0.00     0.026 H 
ATOM     42  C   LIG d   1       5.450   1.190  -3.154  0.00  0.00    -0.053 C 
ATOM     43  H   LIG d   1       3.787   2.052  -2.088  0.00  0.00     0.026 H 
ATOM     44  H   LIG d   1       4.820   0.987  -1.103  0.00  0.00     0.026 H 
ATOM     45  C   LIG d   1       6.487   0.096  -2.895  0.00  0.00    -0.051 C 
ATOM     46  H   LIG d   1       5.002   1.042  -4.137  0.00  0.00     0.026 H 
ATOM     47  H   LIG d   1       5.935   2.166  -3.119  0.00  0.00     0.026 H 
ATOM     48  C   LIG d   1       6.427  -0.941  -4.018  0.00  0.00    -0.034 C 
ATOM     49  H   LIG d   1       7.482   0.539  -2.861  0.00  0.00     0.027 H 
ATOM     50  H   LIG d   1       6.273  -0.389  -1.942  0.00  0.00     0.027 H 
ATOM     51  H   LIG d   1       6.945  -1.847  -3.705  0.00  0.00     0.028 H 
ATOM     52  H   LIG d   1       6.908  -0.537  -4.910  0.00  0.00     0.028 H 
ATOM     53  H   LIG d   1       4.386  -0.348  -4.368  0.00  0.00     0.050 H 
ENDBRANCH  20  31
BRANCH   1  54
ATOM     54  C   LIG d   1       4.773  -5.341  -9.308  0.00  0.00    -0.021 A 
ATOM     55  C   LIG d   1       3.532  -5.903  -9.065  0.00  0.00    -0.056 A 
ATOM     56  C   LIG d   1       3.406  -7.269  -8.922  0.00  0.00    -0.047 A 
ATOM     57  H   LIG d   1       2.660  -5.270  -8.990  0.00  0.00     0.062 H 
ATOM     58  C   LIG d   1       4.535  -8.085  -9.020  0.00  0.00     0.059 A 
ATOM     59  H   LIG d   1       2.436  -7.706  -8.733  0.00  0.00     0.063 H 
ATOM     60  C   LIG d   1       5.784  -7.512  -9.265  0.00  0.00    -0.047 A 
ATOM     61  C   LIG d   1       5.895  -6.145  -9.412  0.00  0.00    -0.056 A 
ATOM     62  H   LIG d   1       6.660  -8.137  -9.344  0.00  0.00     0.063 H 
ATOM     63  H   LIG d   1       6.860  -5.700  -9.606  0.00  0.00     0.062 H 
BRANCH  58  64
ATOM     64  C   LIG d   1       4.407  -9.548  -8.867  0.00  0.00     0.339 C 
ATOM     65  O   LIG d   1       3.686 -10.178  -9.617  0.00  0.00    -0.245 OA
BRANCH  64  66
ATOM     66  O   LIG d   1       5.088 -10.186  -7.896  0.00  0.00    -0.465 OA
BRANCH  66  67
ATOM     67  C   LIG d   1       4.688  -9.920  -6.525  0.00  0.00     0.082 C 
ATOM     68  H   LIG d   1       4.059 -10.734  -6.167  0.00  0.00     0.066 H 
ATOM     69  H   LIG d   1       5.575  -9.843  -5.897  0.00  0.00     0.066 H 
ATOM     70  H   LIG d   1       4.131  -8.985  -6.484  0.00  0.00     0.066 H 
ENDBRANCH  66  67
ENDBRANCH  64  66
ENDBRANCH  58  64
ENDBRANCH   1  54
TORSDOF 5
ENDMDL
MODEL 2
REMARK VINA RESULT:      -7.0      3.316      8.084
REMARK  5 active torsions:
REMARK  status: ('A' for Active; 'I' for Inactive)
REMARK    1  A    between atoms: C_1  and  O_2 
REMARK    2  A    between atoms: O_2  and  C_3 
REMARK    3  A    between atoms: C_3  and  C_5 
REMARK    4  A    between atoms: C_8  and  C_11 
REMARK    5  A    between atoms: N_30  and  C_33 
ROOT
ATOM      1  C   LIG d   1       5.278  -1.323  -4.951  0.00  0.00     0.092 C 
ATOM      2  H   LIG d   1       4.594  -1.339  -4.103  0.00  0.00     0.062 H 
ATOM      3  C   LIG d   1       4.499  -1.166  -6.237  0.00  0.00     0.046 A 
ATOM      4  C   LIG d   1       4.331  -2.162  -7.134  0.00  0.00    -0.015 A 
ATOM      5  C   LIG d   1       3.532  -1.626  -8.217  0.00  0.00     0.003 A 
ATOM      6  C   LIG d   1       3.048  -2.185  -9.404  0.00  0.00    -0.052 A 
ATOM      7  C   LIG d   1       2.307  -1.366 -10.219  0.00  0.00    -0.061 A 
ATOM      8  C   LIG d   1       2.043  -0.046  -9.891  0.00  0.00    -0.060 A 
ATOM      9  C   LIG d   1       2.509   0.532  -8.722  0.00  0.00    -0.038 A 
ATOM     10  C   LIG d   1       3.265  -0.276  -7.876  0.00  0.00     0.047 A 
ATOM     11  N   LIG d   1       3.864  -0.034  -6.674  0.00  0.00    -0.356 N 
ATOM     12  H   LIG d   1       3.844   0.813  -6.200  0.00  0.00     0.166 HD
ATOM     13  C   LIG d   1       4.895  -3.552  -6.987  0.00  0.00     0.002 C 
ATOM     14  C   LIG d   1       5.286  -3.776  -5.519  0.00  0.00     0.107 A 
ATOM     15  H   LIG d   1       4.372  -3.892  -4.936  0.00  0.00     0.060 H 
ATOM     16  N   LIG d   1       6.011  -2.604  -5.031  0.00  0.00    -0.276 N 
ATOM     17  C   LIG d   1       7.293  -2.640  -4.662  0.00  0.00     0.234 A 
ATOM     18  O   LIG d   1       7.819  -1.596  -4.338  0.00  0.00    -0.274 OA
ATOM     19  C   LIG d   1       8.125  -3.881  -4.619  0.00  0.00     0.092 A 
ATOM     20  N   LIG d   1       7.366  -5.060  -4.998  0.00  0.00    -0.288 N 
ATOM     21  C   LIG d   1       6.097  -5.026  -5.400  0.00  0.00     0.237 A 
ATOM     22  O   LIG d   1       5.565  -6.077  -5.689  0.00  0.00    -0.274 OA
ATOM     23  H   LIG d   1       3.248  -3.214  -9.666  0.00  0.00     0.062 H 
ATOM     24  H   LIG d   1       1.916  -1.763 -11.144  0.00  0.00     0.062 H 
ATOM     25  H   LIG d   1       1.453   0.552 -10.570  0.00  0.00     0.062 H 
ATOM     26  H   LIG d   1       2.292   1.562  -8.477  0.00  0.00     0.064 H 
ATOM     27  H   LIG d   1       5.775  -3.658  -7.620  0.00  0.00     0.034 H 
ATOM     28  H   LIG d   1       4.142  -4.284  -7.278  0.00  0.00     0.034 H 
ATOM     29  H   LIG d   1       8.967  -3.766  -5.301  0.00  0.00     0.056 H 
ATOM     30  H   LIG d   1       8.507  -4.016  -3.607  0.00  0.00     0.056 H 
ENDROOT
BRANCH  20  31
ATOM     31  C   LIG d   1       8.036  -6.362  -4.937  0.00  0.00     0.027 C 
ATOM     32  C   LIG d   1       8.801  -6.604  -6.239  0.00  0.00    -0.034 C 
ATOM     33  C   LIG d   1       9.163  -8.086  -6.349  0.00  0.00    -0.051 C 
ATOM     34  H   LIG d   1       8.177  -6.318  -7.086  0.00  0.00     0.028 H 
ATOM     35  H   LIG d   1       9.712  -6.006  -6.243  0.00  0.00     0.028 H 
ATOM     36  C   LIG d   1       7.957  -8.938  -5.952  0.00  0.00    -0.053 C 
ATOM     37  H   LIG d   1       9.447  -8.315  -7.377  0.00  0.00     0.027 H 
ATOM     38  H   LIG d   1       9.999  -8.307  -5.685  0.00  0.00     0.027 H 
ATOM     39  C   LIG d   1       8.263  -9.682  -4.652  0.00  0.00    -0.053 C 
ATOM     40  H   LIG d   1       7.089  -8.294  -5.806  0.00  0.00     0.026 H 
ATOM     41  H   LIG d   1       7.744  -9.659  -6.742  0.00  0.00     0.026 H 
ATOM     42  C   LIG d   1       8.169  -8.710  -3.474  0.00  0.00    -0.053 C 
ATOM     43  H   LIG d   1       7.543 -10.489  -4.515  0.00  0.00     0.026 H 
ATOM     44  H   LIG d   1       9.270 -10.098  -4.699  0.00  0.00     0.026 H 
ATOM     45  C   LIG d   1       9.412  -7.819  -3.446  0.00  0.00    -0.051 C 
ATOM     46  H   LIG d   1       7.279  -8.089  -3.585  0.00  0.00     0.026 H 
ATOM     47  H   LIG d   1       8.104  -9.272  -2.542  0.00  0.00     0.026 H 
ATOM     48  C   LIG d   1       9.014  -6.376  -3.761  0.00  0.00    -0.034 C 
ATOM     49  H   LIG d   1       9.869  -7.863  -2.457  0.00  0.00     0.027 H 
ATOM     50  H   LIG d   1      10.126  -8.169  -4.191  0.00  0.00     0.027 H 
ATOM     51  H   LIG d   1       9.903  -5.802  -4.020  0.00  0.00     0.028 H 
ATOM     52  H   LIG d   1       8.537  -5.932  -2.886  0.00  0.00     0.028 H 
ATOM     53  H   LIG d   1       7.292  -7.147  -4.801  0.00  0.00     0.050 H 
ENDBRANCH  20  31
BRANCH   1  54
ATOM     54  C   LIG d   1       6.252  -0.183  -4.801  0.00  0.00    -0.021 A 
ATOM     55  C   LIG d   1       7.020   0.215  -5.881  0.00  0.00    -0.056 A 
ATOM     56  C   LIG d   1       7.913   1.257  -5.750  0.00  0.00    -0.047 A 
ATOM     57  H   LIG d   1       6.918  -0.293  -6.830  0.00  0.00     0.062 H 
ATOM     58  C   LIG d   1       8.043   1.912  -4.523  0.00  0.00     0.059 A 
ATOM     59  H   LIG d   1       8.511   1.567  -6.595  0.00  0.00     0.063 H 
ATOM     60  C   LIG d   1       7.266   1.505  -3.437  0.00  0.00    -0.047 A 
ATOM     61  C   LIG d   1       6.373   0.465  -3.583  0.00  0.00    -0.056 A 
ATOM     62  H   LIG d   1       7.361   2.007  -2.486  0.00  0.00     0.063 H 
ATOM     63  H   LIG d   1       5.768   0.152  -2.745  0.00  0.00     0.062 H 
BRANCH  58  64
ATOM     64  C   LIG d   1       8.997   3.029  -4.376  0.00  0.00     0.339 C 
ATOM     65  O   LIG d   1       9.431   3.592  -5.362  0.00  0.00    -0.245 OA
BRANCH  64  66
ATOM     66  O   LIG d   1       9.389   3.423  -3.149  0.00  0.00    -0.465 OA
BRANCH  66  67
ATOM     67  C   LIG d   1      10.683   2.952  -2.687  0.00  0.00     0.082 C 
ATOM     68  H   LIG d   1      10.545   2.293  -1.831  0.00  0.00     0.066 H 
ATOM     69  H   LIG d   1      11.179   2.407  -3.490  0.00  0.00     0.066 H 
ATOM     70  H   LIG d   1      11.296   3.804  -2.394  0.00  0.00     0.066 H 
ENDBRANCH  66  67
ENDBRANCH  64  66
ENDBRANCH  58  64
ENDBRANCH   1  54
TORSDOF 5
ENDMDL
MODEL 3
REMARK VINA RESULT:      -6.9      6.428      8.735
REMARK  5 active torsions:
REMARK  status: ('A' for Active; 'I' for Inactive)
REMARK    1  A    between atoms: C_1  and  O_2 
REMARK    2  A    between atoms: O_2  and  C_3 
REMARK    3  A    between atoms: C_3  and  C_5 
REMARK    4  A    between atoms: C_8  and  C_11 
REMARK    5  A    between atoms: N_30  and  C_33 
ROOT
ATOM      1  C   LIG d   1       8.406  -2.761  -5.001  0.00  0.00     0.092 C 
ATOM      2  H   LIG d   1       7.980  -3.116  -5.939  0.00  0.00     0.062 H 
ATOM      3  C   LIG d   1       7.384  -1.939  -4.250  0.00  0.00     0.046 A 
ATOM      4  C   LIG d   1       7.458  -0.596  -4.120  0.00  0.00    -0.015 A 
ATOM      5  C   LIG d   1       6.304  -0.182  -3.347  0.00  0.00     0.003 A 
ATOM      6  C   LIG d   1       5.858   1.067  -2.906  0.00  0.00    -0.052 A 
ATOM      7  C   LIG d   1       4.695   1.089  -2.176  0.00  0.00    -0.061 A 
ATOM      8  C   LIG d   1       3.988  -0.066  -1.884  0.00  0.00    -0.060 A 
ATOM      9  C   LIG d   1       4.407  -1.316  -2.308  0.00  0.00    -0.038 A 
ATOM     10  C   LIG d   1       5.584  -1.368  -3.051  0.00  0.00     0.047 A 
ATOM     11  N   LIG d   1       6.266  -2.408  -3.613  0.00  0.00    -0.356 N 
ATOM     12  H   LIG d   1       6.000  -3.340  -3.568  0.00  0.00     0.166 HD
ATOM     13  C   LIG d   1       8.557   0.262  -4.691  0.00  0.00     0.002 C 
ATOM     14  C   LIG d   1       9.300  -0.537  -5.771  0.00  0.00     0.107 A 
ATOM     15  H   LIG d   1       8.655  -0.605  -6.648  0.00  0.00     0.060 H 
ATOM     16  N   LIG d   1       9.566  -1.886  -5.273  0.00  0.00    -0.276 N 
ATOM     17  C   LIG d   1      10.796  -2.354  -5.055  0.00  0.00     0.234 A 
ATOM     18  O   LIG d   1      10.903  -3.463  -4.575  0.00  0.00    -0.274 OA
ATOM     19  C   LIG d   1      12.052  -1.605  -5.363  0.00  0.00     0.092 A 
ATOM     20  N   LIG d   1      11.781  -0.308  -5.961  0.00  0.00    -0.288 N 
ATOM     21  C   LIG d   1      10.557   0.178  -6.150  0.00  0.00     0.237 A 
ATOM     22  O   LIG d   1      10.454   1.273  -6.663  0.00  0.00    -0.274 OA
ATOM     23  H   LIG d   1       6.402   1.973  -3.130  0.00  0.00     0.062 H 
ATOM     24  H   LIG d   1       4.319   2.036  -1.818  0.00  0.00     0.062 H 
ATOM     25  H   LIG d   1       3.079   0.011  -1.306  0.00  0.00     0.062 H 
ATOM     26  H   LIG d   1       3.844  -2.209  -2.077  0.00  0.00     0.064 H 
ATOM     27  H   LIG d   1       9.253   0.539  -3.899  0.00  0.00     0.034 H 
ATOM     28  H   LIG d   1       8.127   1.160  -5.133  0.00  0.00     0.034 H 
ATOM     29  H   LIG d   1      12.612  -1.460  -4.440  0.00  0.00     0.056 H 
ATOM     30  H   LIG d   1      12.655  -2.194  -6.053  0.00  0.00     0.056 H 
ENDROOT
BRANCH  20  31
ATOM     31  C   LIG d   1      12.922   0.511  -6.379  0.00  0.00     0.027 C 
ATOM     32  C   LIG d   1      13.755   0.889  -5.152  0.00  0.00    -0.034 C 
ATOM     33  C   LIG d   1      14.693   2.043  -5.510  0.00  0.00    -0.051 C 
ATOM     34  H   LIG d   1      13.091   1.197  -4.344  0.00  0.00     0.028 H 
ATOM     35  H   LIG d   1      14.342   0.029  -4.832  0.00  0.00     0.028 H 
ATOM     36  C   LIG d   1      13.928   3.091  -6.321  0.00  0.00    -0.053 C 
ATOM     37  H   LIG d   1      15.073   2.499  -4.595  0.00  0.00     0.027 H 
ATOM     38  H   LIG d   1      15.527   1.665  -6.100  0.00  0.00     0.027 H 
ATOM     39  C   LIG d   1      14.476   3.131  -7.748  0.00  0.00    -0.053 C 
ATOM     40  H   LIG d   1      12.870   2.830  -6.346  0.00  0.00     0.026 H 
ATOM     41  H   LIG d   1      14.049   4.070  -5.857  0.00  0.00     0.026 H 
ATOM     42  C   LIG d   1      13.961   1.918  -8.526  0.00  0.00    -0.053 C 
ATOM     43  H   LIG d   1      14.144   4.046  -8.240  0.00  0.00     0.026 H 
ATOM     44  H   LIG d   1      15.566   3.108  -7.720  0.00  0.00     0.026 H 
ATOM     45  C   LIG d   1      14.732   0.670  -8.094  0.00  0.00    -0.051 C 
ATOM     46  H   LIG d   1      12.899   1.779  -8.321  0.00  0.00     0.026 H 
ATOM     47  H   LIG d   1      14.106   2.083  -9.594  0.00  0.00     0.026 H 
ATOM     48  C   LIG d   1      13.788  -0.284  -7.358  0.00  0.00    -0.034 C 
ATOM     49  H   LIG d   1      15.139   0.171  -8.973  0.00  0.00     0.027 H 
ATOM     50  H   LIG d   1      15.546   0.958  -7.429  0.00  0.00     0.027 H 
ATOM     51  H   LIG d   1      14.372  -1.022  -6.810  0.00  0.00     0.028 H 
ATOM     52  H   LIG d   1      13.148  -0.791  -8.081  0.00  0.00     0.028 H 
ATOM     53  H   LIG d   1      12.560   1.416  -6.866  0.00  0.00     0.050 H 
ENDBRANCH  20  31
BRANCH   1  54
ATOM     54  C   LIG d   1       8.837  -3.935  -4.158  0.00  0.00    -0.021 A 
ATOM     55  C   LIG d   1       9.229  -3.734  -2.847  0.00  0.00    -0.056 A 
ATOM     56  C   LIG d   1       9.624  -4.804  -2.070  0.00  0.00    -0.047 A 
ATOM     57  H   LIG d   1       9.224  -2.738  -2.430  0.00  0.00     0.062 H 
ATOM     58  C   LIG d   1       9.629  -6.091  -2.611  0.00  0.00     0.059 A 
ATOM     59  H   LIG d   1       9.929  -4.646  -1.046  0.00  0.00     0.063 H 
ATOM     60  C   LIG d   1       9.232  -6.286  -3.936  0.00  0.00    -0.047 A 
ATOM     61  C   LIG d   1       8.835  -5.209  -4.699  0.00  0.00    -0.056 A 
ATOM     62  H   LIG d   1       9.233  -7.279  -4.360  0.00  0.00     0.063 H 
ATOM     63  H   LIG d   1       8.524  -5.359  -5.722  0.00  0.00     0.062 H 
BRANCH  58  64
ATOM     64  C   LIG d   1      10.051  -7.241  -1.786  0.00  0.00     0.339 C 
ATOM     65  O   LIG d   1       9.387  -8.259  -1.776  0.00  0.00    -0.245 OA
BRANCH  64  66
ATOM     66  O   LIG d   1      11.170  -7.160  -1.041  0.00  0.00    -0.465 OA
BRANCH  66  67
ATOM     67  C   LIG d   1      11.242  -8.007   0.137  0.00  0.00     0.082 C 
ATOM     68  H   LIG d   1      11.506  -9.021  -0.160  0.00  0.00     0.066 H 
ATOM     69  H   LIG d   1      12.000  -7.618   0.817  0.00  0.00     0.066 H 
ATOM     70  H   LIG d   1      10.274  -8.015   0.638  0.00  0.00     0.066 H 
ENDBRANCH  66  67
ENDBRANCH  64  66
ENDBRANCH  58  64
ENDBRANCH   1  54
TORSDOF 5
ENDMDL
MODEL 4
REMARK VINA RESULT:      -6.9      6.121      9.959
REMARK  5 active torsions:
REMARK  status: ('A' for Active; 'I' for Inactive)
REMARK    1  A    between atoms: C_1  and  O_2 
REMARK    2  A    between atoms: O_2  and  C_3 
REMARK    3  A    between atoms: C_3  and  C_5 
REMARK    4  A    between atoms: C_8  and  C_11 
REMARK    5  A    between atoms: N_30  and  C_33 
ROOT
ATOM      1  C   LIG d   1      10.998   1.692  -4.574  0.00  0.00     0.092 C 
ATOM      2  H   LIG d   1      11.474   1.497  -3.613  0.00  0.00     0.062 H 
ATOM      3  C   LIG d   1      10.921   3.182  -4.816  0.00  0.00     0.046 A 
ATOM      4  C   LIG d   1       9.771   3.888  -4.759  0.00  0.00    -0.015 A 
ATOM      5  C   LIG d   1      10.108   5.269  -5.041  0.00  0.00     0.003 A 
ATOM      6  C   LIG d   1       9.340   6.435  -5.118  0.00  0.00    -0.052 A 
ATOM      7  C   LIG d   1      10.006   7.598  -5.416  0.00  0.00    -0.061 A 
ATOM      8  C   LIG d   1      11.373   7.628  -5.631  0.00  0.00    -0.060 A 
ATOM      9  C   LIG d   1      12.158   6.490  -5.561  0.00  0.00    -0.038 A 
ATOM     10  C   LIG d   1      11.508   5.294  -5.260  0.00  0.00     0.047 A 
ATOM     11  N   LIG d   1      11.965   4.016  -5.115  0.00  0.00    -0.356 N 
ATOM     12  H   LIG d   1      12.891   3.739  -5.211  0.00  0.00     0.166 HD
ATOM     13  C   LIG d   1       8.417   3.299  -4.457  0.00  0.00     0.002 C 
ATOM     14  C   LIG d   1       8.609   1.919  -3.812  0.00  0.00     0.107 A 
ATOM     15  H   LIG d   1       8.970   2.066  -2.793  0.00  0.00     0.060 H 
ATOM     16  N   LIG d   1       9.615   1.172  -4.566  0.00  0.00    -0.276 N 
ATOM     17  C   LIG d   1       9.338   0.056  -5.243  0.00  0.00     0.234 A 
ATOM     18  O   LIG d   1      10.231  -0.448  -5.893  0.00  0.00    -0.274 OA
ATOM     19  C   LIG d   1       8.004  -0.618  -5.254  0.00  0.00     0.092 A 
ATOM     20  N   LIG d   1       7.040   0.069  -4.411  0.00  0.00    -0.288 N 
ATOM     21  C   LIG d   1       7.298   1.202  -3.761  0.00  0.00     0.237 A 
ATOM     22  O   LIG d   1       6.414   1.682  -3.085  0.00  0.00    -0.274 OA
ATOM     23  H   LIG d   1       8.273   6.421  -4.950  0.00  0.00     0.062 H 
ATOM     24  H   LIG d   1       9.445   8.519  -5.483  0.00  0.00     0.062 H 
ATOM     25  H   LIG d   1      11.845   8.573  -5.861  0.00  0.00     0.062 H 
ATOM     26  H   LIG d   1      13.225   6.528  -5.727  0.00  0.00     0.064 H 
ATOM     27  H   LIG d   1       7.850   3.195  -5.381  0.00  0.00     0.034 H 
ATOM     28  H   LIG d   1       7.880   3.952  -3.768  0.00  0.00     0.034 H 
ATOM     29  H   LIG d   1       7.629  -0.643  -6.276  0.00  0.00     0.056 H 
ATOM     30  H   LIG d   1       8.122  -1.641  -4.896  0.00  0.00     0.056 H 
ENDROOT
BRANCH  20  31
ATOM     31  C   LIG d   1       5.705  -0.518  -4.271  0.00  0.00     0.027 C 
ATOM     32  C   LIG d   1       4.978  -0.460  -5.616  0.00  0.00    -0.034 C 
ATOM     33  C   LIG d   1       3.482  -0.693  -5.397  0.00  0.00    -0.051 C 
ATOM     34  H   LIG d   1       5.130   0.520  -6.069  0.00  0.00     0.028 H 
ATOM     35  H   LIG d   1       5.373  -1.231  -6.277  0.00  0.00     0.028 H 
ATOM     36  C   LIG d   1       3.009   0.117  -4.189  0.00  0.00    -0.053 C 
ATOM     37  H   LIG d   1       2.932  -0.377  -6.284  0.00  0.00     0.027 H 
ATOM     38  H   LIG d   1       3.301  -1.752  -5.218  0.00  0.00     0.027 H 
ATOM     39  C   LIG d   1       2.607  -0.835  -3.062  0.00  0.00    -0.053 C 
ATOM     40  H   LIG d   1       3.817   0.764  -3.846  0.00  0.00     0.026 H 
ATOM     41  H   LIG d   1       2.152   0.728  -4.473  0.00  0.00     0.026 H 
ATOM     42  C   LIG d   1       3.865  -1.398  -2.396  0.00  0.00    -0.053 C 
ATOM     43  H   LIG d   1       2.016  -0.295  -2.322  0.00  0.00     0.026 H 
ATOM     44  H   LIG d   1       2.016  -1.655  -3.471  0.00  0.00     0.026 H 
ATOM     45  C   LIG d   1       4.484  -2.468  -3.298  0.00  0.00    -0.051 C 
ATOM     46  H   LIG d   1       4.585  -0.594  -2.241  0.00  0.00     0.026 H 
ATOM     47  H   LIG d   1       3.602  -1.840  -1.436  0.00  0.00     0.026 H 
ATOM     48  C   LIG d   1       5.833  -1.975  -3.824  0.00  0.00    -0.034 C 
ATOM     49  H   LIG d   1       4.629  -3.384  -2.726  0.00  0.00     0.027 H 
ATOM     50  H   LIG d   1       3.817  -2.665  -4.137  0.00  0.00     0.027 H 
ATOM     51  H   LIG d   1       6.140  -2.589  -4.670  0.00  0.00     0.028 H 
ATOM     52  H   LIG d   1       6.580  -2.048  -3.033  0.00  0.00     0.028 H 
ATOM     53  H   LIG d   1       5.138   0.042  -3.527  0.00  0.00     0.050 H 
ENDBRANCH  20  31
BRANCH   1  54
ATOM     54  C   LIG d   1      11.787   1.035  -5.677  0.00  0.00    -0.021 A 
ATOM     55  C   LIG d   1      11.556   1.390  -6.995  0.00  0.00    -0.056 A 
ATOM     56  C   LIG d   1      12.274   0.792  -8.009  0.00  0.00    -0.047 A 
ATOM     57  H   LIG d   1      10.812   2.138  -7.228  0.00  0.00     0.062 H 
ATOM     58  C   LIG d   1      13.236  -0.174  -7.705  0.00  0.00     0.059 A 
ATOM     59  H   LIG d   1      12.094   1.071  -9.037  0.00  0.00     0.063 H 
ATOM     60  C   LIG d   1      13.463  -0.528  -6.373  0.00  0.00    -0.047 A 
ATOM     61  C   LIG d   1      12.741   0.081  -5.368  0.00  0.00    -0.056 A 
ATOM     62  H   LIG d   1      14.205  -1.274  -6.131  0.00  0.00     0.063 H 
ATOM     63  H   LIG d   1      12.919  -0.189  -4.338  0.00  0.00     0.062 H 
BRANCH  58  64
ATOM     64  C   LIG d   1      14.008  -0.818  -8.786  0.00  0.00     0.339 C 
ATOM     65  O   LIG d   1      14.118  -2.028  -8.818  0.00  0.00    -0.245 OA
BRANCH  64  66
ATOM     66  O   LIG d   1      14.593  -0.064  -9.736  0.00  0.00    -0.465 OA
BRANCH  66  67
ATOM     67  C   LIG d   1      15.823   0.618  -9.374  0.00  0.00     0.082 C 
ATOM     68  H   LIG d   1      16.674   0.075  -9.783  0.00  0.00     0.066 H 
ATOM     69  H   LIG d   1      15.809   1.630  -9.778  0.00  0.00     0.066 H 
ATOM     70  H   LIG d   1      15.908   0.662  -8.288  0.00  0.00     0.066 H 
ENDBRANCH  66  67
ENDBRANCH  64  66
ENDBRANCH  58  64
ENDBRANCH   1  54
TORSDOF 5
ENDMDL
MODEL 5
REMARK VINA RESULT:      -6.8      6.791     12.985
REMARK  5 active torsions:
REMARK  status: ('A' for Active; 'I' for Inactive)
REMARK    1  A    between atoms: C_1  and  O_2 
REMARK    2  A    between atoms: O_2  and  C_3 
REMARK    3  A    between atoms: C_3  and  C_5 
REMARK    4  A    between atoms: C_8  and  C_11 
REMARK    5  A    between atoms: N_30  and  C_33 
ROOT
ATOM      1  C   LIG d   1      11.420   3.448  -4.426  0.00  0.00     0.092 C 
ATOM      2  H   LIG d   1      11.523   3.885  -5.419  0.00  0.00     0.062 H 
ATOM      3  C   LIG d   1      12.730   2.827  -3.998  0.00  0.00     0.046 A 
ATOM      4  C   LIG d   1      12.935   1.493  -3.929  0.00  0.00    -0.015 A 
ATOM      5  C   LIG d   1      14.302   1.298  -3.489  0.00  0.00     0.003 A 
ATOM      6  C   LIG d   1      15.064   0.152  -3.243  0.00  0.00    -0.052 A 
ATOM      7  C   LIG d   1      16.358   0.344  -2.825  0.00  0.00    -0.061 A 
ATOM      8  C   LIG d   1      16.895   1.609  -2.653  0.00  0.00    -0.060 A 
ATOM      9  C   LIG d   1      16.164   2.761  -2.890  0.00  0.00    -0.038 A 
ATOM     10  C   LIG d   1      14.847   2.596  -3.316  0.00  0.00     0.047 A 
ATOM     11  N   LIG d   1      13.869   3.493  -3.633  0.00  0.00    -0.356 N 
ATOM     12  H   LIG d   1      13.965   4.458  -3.603  0.00  0.00     0.166 HD
ATOM     13  C   LIG d   1      11.901   0.448  -4.257  0.00  0.00     0.002 C 
ATOM     14  C   LIG d   1      10.777   1.101  -5.073  0.00  0.00     0.107 A 
ATOM     15  H   LIG d   1      11.155   1.297  -6.077  0.00  0.00     0.060 H 
ATOM     16  N   LIG d   1      10.407   2.372  -4.451  0.00  0.00    -0.276 N 
ATOM     17  C   LIG d   1       9.208   2.597  -3.910  0.00  0.00     0.234 A 
ATOM     18  O   LIG d   1       9.028   3.662  -3.358  0.00  0.00    -0.274 OA
ATOM     19  C   LIG d   1       8.072   1.627  -3.938  0.00  0.00     0.092 A 
ATOM     20  N   LIG d   1       8.412   0.410  -4.657  0.00  0.00    -0.288 N 
ATOM     21  C   LIG d   1       9.616   0.165  -5.169  0.00  0.00     0.237 A 
ATOM     22  O   LIG d   1       9.781  -0.886  -5.751  0.00  0.00    -0.274 OA
ATOM     23  H   LIG d   1      14.653  -0.838  -3.375  0.00  0.00     0.062 H 
ATOM     24  H   LIG d   1      16.976  -0.518  -2.625  0.00  0.00     0.062 H 
ATOM     25  H   LIG d   1      17.919   1.700  -2.323  0.00  0.00     0.062 H 
ATOM     26  H   LIG d   1      16.597   3.742  -2.756  0.00  0.00     0.064 H 
ATOM     27  H   LIG d   1      11.490   0.038  -3.334  0.00  0.00     0.034 H 
ATOM     28  H   LIG d   1      12.360  -0.350  -4.841  0.00  0.00     0.034 H 
ATOM     29  H   LIG d   1       7.799   1.372  -2.915  0.00  0.00     0.056 H 
ATOM     30  H   LIG d   1       7.217   2.098  -4.424  0.00  0.00     0.056 H 
ENDROOT
BRANCH  20  31
ATOM     31  C   LIG d   1       7.370  -0.606  -4.824  0.00  0.00     0.027 C 
ATOM     32  C   LIG d   1       6.705  -0.882  -3.474  0.00  0.00    -0.034 C 
ATOM     33  C   LIG d   1       5.916  -2.190  -3.553  0.00  0.00    -0.051 C 
ATOM     34  H   LIG d   1       7.470  -0.966  -2.702  0.00  0.00     0.028 H 
ATOM     35  H   LIG d   1       6.028  -0.064  -3.227  0.00  0.00     0.028 H 
ATOM     36  C   LIG d   1       6.753  -3.250  -4.273  0.00  0.00    -0.053 C 
ATOM     37  H   LIG d   1       5.682  -2.535  -2.545  0.00  0.00     0.027 H 
ATOM     38  H   LIG d   1       4.990  -2.024  -4.103  0.00  0.00     0.027 H 
ATOM     39  C   LIG d   1       6.099  -3.593  -5.612  0.00  0.00    -0.053 C 
ATOM     40  H   LIG d   1       7.757  -2.863  -4.447  0.00  0.00     0.026 H 
ATOM     41  H   LIG d   1       6.812  -4.147  -3.656  0.00  0.00     0.026 H 
ATOM     42  C   LIG d   1       6.368  -2.468  -6.614  0.00  0.00    -0.053 C 
ATOM     43  H   LIG d   1       6.517  -4.526  -5.992  0.00  0.00     0.026 H 
ATOM     44  H   LIG d   1       5.023  -3.706  -5.474  0.00  0.00     0.026 H 
ATOM     45  C   LIG d   1       5.465  -1.275  -6.296  0.00  0.00    -0.051 C 
ATOM     46  H   LIG d   1       7.412  -2.162  -6.544  0.00  0.00     0.026 H 
ATOM     47  H   LIG d   1       6.160  -2.822  -7.623  0.00  0.00     0.026 H 
ATOM     48  C   LIG d   1       6.320  -0.101  -5.815  0.00  0.00    -0.034 C 
ATOM     49  H   LIG d   1       4.919  -0.984  -7.192  0.00  0.00     0.027 H 
ATOM     50  H   LIG d   1       4.758  -1.553  -5.514  0.00  0.00     0.027 H 
ATOM     51  H   LIG d   1       5.684   0.636  -5.326  0.00  0.00     0.028 H 
ATOM     52  H   LIG d   1       6.818   0.359  -6.669  0.00  0.00     0.028 H 
ATOM     53  H   LIG d   1       7.816  -1.525  -5.204  0.00  0.00     0.050 H 
ENDBRANCH  20  31
BRANCH   1  54
ATOM     54  C   LIG d   1      11.012   4.512  -3.439  0.00  0.00    -0.021 A 
ATOM     55  C   LIG d   1      11.164   4.288  -2.082  0.00  0.00    -0.056 A 
ATOM     56  C   LIG d   1      10.794   5.258  -1.174  0.00  0.00    -0.047 A 
ATOM     57  H   LIG d   1      11.576   3.352  -1.734  0.00  0.00     0.062 H 
ATOM     58  C   LIG d   1      10.262   6.467  -1.627  0.00  0.00     0.059 A 
ATOM     59  H   LIG d   1      10.913   5.082  -0.115  0.00  0.00     0.063 H 
ATOM     60  C   LIG d   1      10.111   6.687  -2.998  0.00  0.00    -0.047 A 
ATOM     61  C   LIG d   1      10.491   5.711  -3.895  0.00  0.00    -0.056 A 
ATOM     62  H   LIG d   1       9.702   7.620  -3.354  0.00  0.00     0.063 H 
ATOM     63  H   LIG d   1      10.379   5.881  -4.955  0.00  0.00     0.062 H 
BRANCH  58  64
ATOM     64  C   LIG d   1       9.863   7.510  -0.660  0.00  0.00     0.339 C 
ATOM     65  O   LIG d   1      10.611   7.815   0.248  0.00  0.00    -0.245 OA
BRANCH  64  66
ATOM     66  O   LIG d   1       8.670   8.122  -0.784  0.00  0.00    -0.465 OA
BRANCH  66  67
ATOM     67  C   LIG d   1       8.668   9.574  -0.775  0.00  0.00     0.082 C 
ATOM     68  H   LIG d   1       9.408   9.942  -1.485  0.00  0.00     0.066 H 
ATOM     69  H   LIG d   1       7.680   9.937  -1.058  0.00  0.00     0.066 H 
ATOM     70  H   LIG d   1       8.915   9.932   0.224  0.00  0.00     0.066 H 
ENDBRANCH  66  67
ENDBRANCH  64  66
ENDBRANCH  58  64
ENDBRANCH   1  54
TORSDOF 5
ENDMDL
MODEL 6
REMARK VINA RESULT:      -6.7      3.822      4.319
REMARK  5 active torsions:
REMARK  status: ('A' for Active; 'I' for Inactive)
REMARK    1  A    between atoms: C_1  and  O_2 
REMARK    2  A    between atoms: O_2  and  C_3 
REMARK    3  A    between atoms: C_3  and  C_5 
REMARK    4  A    between atoms: C_8  and  C_11 
REMARK    5  A    between atoms: N_30  and  C_33 
ROOT
ATOM      1  C   LIG d   1       5.669  -0.357 -10.650  0.00  0.00     0.092 C 
ATOM      2  H   LIG d   1       5.886   0.675 -10.925  0.00  0.00     0.062 H 
ATOM      3  C   LIG d   1       4.410  -0.821 -11.345  0.00  0.00     0.046 A 
ATOM      4  C   LIG d   1       3.234  -1.015 -10.708  0.00  0.00    -0.015 A 
ATOM      5  C   LIG d   1       2.279  -1.450 -11.706  0.00  0.00     0.003 A 
ATOM      6  C   LIG d   1       0.925  -1.793 -11.636  0.00  0.00    -0.052 A 
ATOM      7  C   LIG d   1       0.318  -2.169 -12.810  0.00  0.00    -0.061 A 
ATOM      8  C   LIG d   1       1.004  -2.210 -14.012  0.00  0.00    -0.060 A 
ATOM      9  C   LIG d   1       2.344  -1.874 -14.110  0.00  0.00    -0.038 A 
ATOM     10  C   LIG d   1       2.986  -1.489 -12.935  0.00  0.00     0.047 A 
ATOM     11  N   LIG d   1       4.269  -1.103 -12.678  0.00  0.00    -0.356 N 
ATOM     12  H   LIG d   1       4.976  -1.038 -13.340  0.00  0.00     0.166 HD
ATOM     13  C   LIG d   1       3.014  -0.807  -9.232  0.00  0.00     0.002 C 
ATOM     14  C   LIG d   1       4.160   0.051  -8.676  0.00  0.00     0.107 A 
ATOM     15  H   LIG d   1       4.018   1.075  -9.023  0.00  0.00     0.060 H 
ATOM     16  N   LIG d   1       5.432  -0.452  -9.194  0.00  0.00    -0.276 N 
ATOM     17  C   LIG d   1       6.375  -0.989  -8.417  0.00  0.00     0.234 A 
ATOM     18  O   LIG d   1       7.364  -1.439  -8.957  0.00  0.00    -0.274 OA
ATOM     19  C   LIG d   1       6.296  -1.072  -6.927  0.00  0.00     0.092 A 
ATOM     20  N   LIG d   1       5.079  -0.469  -6.411  0.00  0.00    -0.288 N 
ATOM     21  C   LIG d   1       4.118   0.037  -7.182  0.00  0.00     0.237 A 
ATOM     22  O   LIG d   1       3.148   0.518  -6.637  0.00  0.00    -0.274 OA
ATOM     23  H   LIG d   1       0.382  -1.763 -10.703  0.00  0.00     0.062 H 
ATOM     24  H   LIG d   1      -0.727  -2.441 -12.794  0.00  0.00     0.062 H 
ATOM     25  H   LIG d   1       0.475  -2.512 -14.904  0.00  0.00     0.062 H 
ATOM     26  H   LIG d   1       2.866  -1.907 -15.056  0.00  0.00     0.064 H 
ATOM     27  H   LIG d   1       3.001  -1.771  -8.725  0.00  0.00     0.034 H 
ATOM     28  H   LIG d   1       2.065  -0.295  -9.073  0.00  0.00     0.034 H 
ATOM     29  H   LIG d   1       6.327  -2.119  -6.630  0.00  0.00     0.056 H 
ATOM     30  H   LIG d   1       7.155  -0.557  -6.498  0.00  0.00     0.056 H 
ENDROOT
BRANCH  20  31
ATOM     31  C   LIG d   1       4.897  -0.417  -4.958  0.00  0.00     0.027 C 
ATOM     32  C   LIG d   1       4.374  -1.766  -4.460  0.00  0.00    -0.034 C 
ATOM     33  C   LIG d   1       3.814  -1.605  -3.046  0.00  0.00    -0.051 C 
ATOM     34  H   LIG d   1       3.586  -2.118  -5.126  0.00  0.00     0.028 H 
ATOM     35  H   LIG d   1       5.189  -2.490  -4.448  0.00  0.00     0.028 H 
ATOM     36  C   LIG d   1       2.965  -0.334  -2.974  0.00  0.00    -0.053 C 
ATOM     37  H   LIG d   1       3.196  -2.469  -2.800  0.00  0.00     0.027 H 
ATOM     38  H   LIG d   1       4.636  -1.534  -2.335  0.00  0.00     0.027 H 
ATOM     39  C   LIG d   1       3.648   0.685  -2.062  0.00  0.00    -0.053 C 
ATOM     40  H   LIG d   1       2.857   0.088  -3.974  0.00  0.00     0.026 H 
ATOM     41  H   LIG d   1       1.980  -0.577  -2.575  0.00  0.00     0.026 H 
ATOM     42  C   LIG d   1       4.828   1.321  -2.802  0.00  0.00    -0.053 C 
ATOM     43  H   LIG d   1       2.934   1.460  -1.783  0.00  0.00     0.026 H 
ATOM     44  H   LIG d   1       4.012   0.184  -1.164  0.00  0.00     0.026 H 
ATOM     45  C   LIG d   1       5.996   0.334  -2.844  0.00  0.00    -0.051 C 
ATOM     46  H   LIG d   1       4.526   1.570  -3.820  0.00  0.00     0.026 H 
ATOM     47  H   LIG d   1       5.137   2.228  -2.282  0.00  0.00     0.026 H 
ATOM     48  C   LIG d   1       6.238  -0.111  -4.287  0.00  0.00    -0.034 C 
ATOM     49  H   LIG d   1       6.893   0.817  -2.457  0.00  0.00     0.027 H 
ATOM     50  H   LIG d   1       5.759  -0.535  -2.231  0.00  0.00     0.027 H 
ATOM     51  H   LIG d   1       6.859  -1.005  -4.293  0.00  0.00     0.028 H 
ATOM     52  H   LIG d   1       6.743   0.686  -4.833  0.00  0.00     0.028 H 
ATOM     53  H   LIG d   1       4.179   0.365  -4.709  0.00  0.00     0.050 H 
ENDBRANCH  20  31
BRANCH   1  54
ATOM     54  C   LIG d   1       6.825  -1.244 -11.039  0.00  0.00    -0.021 A 
ATOM     55  C   LIG d   1       6.657  -2.617 -11.079  0.00  0.00    -0.056 A 
ATOM     56  C   LIG d   1       7.710  -3.433 -11.434  0.00  0.00    -0.047 A 
ATOM     57  H   LIG d   1       5.698  -3.049 -10.831  0.00  0.00     0.062 H 
ATOM     58  C   LIG d   1       8.948  -2.872 -11.754  0.00  0.00     0.059 A 
ATOM     59  H   LIG d   1       7.578  -4.505 -11.466  0.00  0.00     0.063 H 
ATOM     60  C   LIG d   1       9.110  -1.485 -11.712  0.00  0.00    -0.047 A 
ATOM     61  C   LIG d   1       8.048  -0.680 -11.359  0.00  0.00    -0.056 A 
ATOM     62  H   LIG d   1      10.064  -1.045 -11.958  0.00  0.00     0.063 H 
ATOM     63  H   LIG d   1       8.171   0.392 -11.331  0.00  0.00     0.062 H 
BRANCH  58  64
ATOM     64  C   LIG d   1      10.080  -3.740 -12.136  0.00  0.00     0.339 C 
ATOM     65  O   LIG d   1       9.974  -4.497 -13.081  0.00  0.00    -0.245 OA
BRANCH  64  66
ATOM     66  O   LIG d   1      11.229  -3.695 -11.435  0.00  0.00    -0.465 OA
BRANCH  66  67
ATOM     67  C   LIG d   1      11.195  -4.207 -10.076  0.00  0.00     0.082 C 
ATOM     68  H   LIG d   1      10.241  -3.951  -9.616  0.00  0.00     0.066 H 
ATOM     69  H   LIG d   1      11.311  -5.290 -10.094  0.00  0.00     0.066 H 
ATOM     70  H   LIG d   1      12.006  -3.763  -9.500  0.00  0.00     0.066 H 
ENDBRANCH  66  67
ENDBRANCH  64  66
ENDBRANCH  58  64
ENDBRANCH   1  54
TORSDOF 5
ENDMDL
MODEL 7
REMARK VINA RESULT:      -6.7      4.351      7.631
REMARK  5 active torsions:
REMARK  status: ('A' for Active; 'I' for Inactive)
REMARK    1  A    between atoms: C_1  and  O_2 
REMARK    2  A    between atoms: O_2  and  C_3 
REMARK    3  A    between atoms: C_3  and  C_5 
REMARK    4  A    between atoms: C_8  and  C_11 
REMARK    5  A    between atoms: N_30  and  C_33 
ROOT
ATOM      1  C   LIG d   1       4.320   0.268  -8.020  0.00  0.00     0.092 C 
ATOM      2  H   LIG d   1       3.985   1.303  -8.089  0.00  0.00     0.062 H 
ATOM      3  C   LIG d   1       4.324  -0.176  -6.575  0.00  0.00     0.046 A 
ATOM      4  C   LIG d   1       5.452  -0.373  -5.859  0.00  0.00    -0.015 A 
ATOM      5  C   LIG d   1       5.044  -0.785  -4.531  0.00  0.00     0.003 A 
ATOM      6  C   LIG d   1       5.764  -1.120  -3.380  0.00  0.00    -0.052 A 
ATOM      7  C   LIG d   1       5.033  -1.473  -2.272  0.00  0.00    -0.061 A 
ATOM      8  C   LIG d   1       3.648  -1.499  -2.282  0.00  0.00    -0.060 A 
ATOM      9  C   LIG d   1       2.911  -1.171  -3.407  0.00  0.00    -0.038 A 
ATOM     10  C   LIG d   1       3.626  -0.808  -4.547  0.00  0.00     0.047 A 
ATOM     11  N   LIG d   1       3.227  -0.435  -5.797  0.00  0.00    -0.356 N 
ATOM     12  H   LIG d   1       2.305  -0.364  -6.091  0.00  0.00     0.166 HD
ATOM     13  C   LIG d   1       6.850  -0.187  -6.392  0.00  0.00     0.002 C 
ATOM     14  C   LIG d   1       6.784   0.654  -7.675  0.00  0.00     0.107 A 
ATOM     15  H   LIG d   1       6.561   1.685  -7.395  0.00  0.00     0.060 H 
ATOM     16  N   LIG d   1       5.704   0.151  -8.524  0.00  0.00    -0.276 N 
ATOM     17  C   LIG d   1       5.915  -0.404  -9.718  0.00  0.00     0.234 A 
ATOM     18  O   LIG d   1       4.956  -0.852 -10.311  0.00  0.00    -0.274 OA
ATOM     19  C   LIG d   1       7.252  -0.511 -10.377  0.00  0.00     0.092 A 
ATOM     20  N   LIG d   1       8.304   0.092  -9.576  0.00  0.00    -0.288 N 
ATOM     21  C   LIG d   1       8.107   0.617  -8.369  0.00  0.00     0.237 A 
ATOM     22  O   LIG d   1       9.063   1.095  -7.795  0.00  0.00    -0.274 OA
ATOM     23  H   LIG d   1       6.844  -1.101  -3.363  0.00  0.00     0.062 H 
ATOM     24  H   LIG d   1       5.555  -1.738  -1.365  0.00  0.00     0.062 H 
ATOM     25  H   LIG d   1       3.125  -1.784  -1.380  0.00  0.00     0.062 H 
ATOM     26  H   LIG d   1       1.831  -1.191  -3.400  0.00  0.00     0.064 H 
ATOM     27  H   LIG d   1       7.288  -1.159  -6.615  0.00  0.00     0.034 H 
ATOM     28  H   LIG d   1       7.458   0.329  -5.649  0.00  0.00     0.034 H 
ATOM     29  H   LIG d   1       7.485  -1.563 -10.536  0.00  0.00     0.056 H 
ATOM     30  H   LIG d   1       7.211  -0.009 -11.344  0.00  0.00     0.056 H 
ENDROOT
BRANCH  20  31
ATOM     31  C   LIG d   1       9.661   0.121 -10.129  0.00  0.00     0.027 C 
ATOM     32  C   LIG d   1      10.096  -1.300 -10.490  0.00  0.00    -0.034 C 
ATOM     33  C   LIG d   1      11.612  -1.335 -10.686  0.00  0.00    -0.051 C 
ATOM     34  H   LIG d   1       9.818  -1.981  -9.685  0.00  0.00     0.028 H 
ATOM     35  H   LIG d   1       9.603  -1.608 -11.412  0.00  0.00     0.028 H 
ATOM     36  C   LIG d   1      12.291  -0.543  -9.566  0.00  0.00    -0.053 C 
ATOM     37  H   LIG d   1      11.959  -2.368 -10.661  0.00  0.00     0.027 H 
ATOM     38  H   LIG d   1      11.865  -0.892 -11.649  0.00  0.00     0.027 H 
ATOM     39  C   LIG d   1      12.950   0.706 -10.151  0.00  0.00    -0.053 C 
ATOM     40  H   LIG d   1      11.546  -0.249  -8.827  0.00  0.00     0.026 H 
ATOM     41  H   LIG d   1      13.049  -1.165  -9.089  0.00  0.00     0.026 H 
ATOM     42  C   LIG d   1      11.875   1.752 -10.459  0.00  0.00    -0.053 C 
ATOM     43  H   LIG d   1      13.659   1.116  -9.431  0.00  0.00     0.026 H 
ATOM     44  H   LIG d   1      13.475   0.445 -11.071  0.00  0.00     0.026 H 
ATOM     45  C   LIG d   1      11.126   1.354 -11.733  0.00  0.00    -0.051 C 
ATOM     46  H   LIG d   1      11.173   1.808  -9.627  0.00  0.00     0.026 H 
ATOM     47  H   LIG d   1      12.345   2.725 -10.604  0.00  0.00     0.026 H 
ATOM     48  C   LIG d   1       9.681   0.995 -11.384  0.00  0.00    -0.034 C 
ATOM     49  H   LIG d   1      11.135   2.188 -12.435  0.00  0.00     0.027 H 
ATOM     50  H   LIG d   1      11.615   0.492 -12.187  0.00  0.00     0.027 H 
ATOM     51  H   LIG d   1       9.231   0.450 -12.213  0.00  0.00     0.028 H 
ATOM     52  H   LIG d   1       9.114   1.908 -11.200  0.00  0.00     0.028 H 
ATOM     53  H   LIG d   1      10.346   0.534  -9.388  0.00  0.00     0.050 H 
ENDBRANCH  20  31
BRANCH   1  54
ATOM     54  C   LIG d   1       3.405  -0.620  -8.825  0.00  0.00    -0.021 A 
ATOM     55  C   LIG d   1       3.484  -1.994  -8.690  0.00  0.00    -0.056 A 
ATOM     56  C   LIG d   1       2.650  -2.812  -9.423  0.00  0.00    -0.047 A 
ATOM     57  H   LIG d   1       4.200  -2.427  -8.006  0.00  0.00     0.062 H 
ATOM     58  C   LIG d   1       1.725  -2.250 -10.306  0.00  0.00     0.059 A 
ATOM     59  H   LIG d   1       2.712  -3.885  -9.316  0.00  0.00     0.063 H 
ATOM     60  C   LIG d   1       1.652  -0.862 -10.438  0.00  0.00    -0.047 A 
ATOM     61  C   LIG d   1       2.488  -0.056  -9.695  0.00  0.00    -0.056 A 
ATOM     62  H   LIG d   1       0.938  -0.420 -11.118  0.00  0.00     0.063 H 
ATOM     63  H   LIG d   1       2.429   1.018  -9.793  0.00  0.00     0.062 H 
BRANCH  58  64
ATOM     64  C   LIG d   1       0.830  -3.119 -11.095  0.00  0.00     0.339 C 
ATOM     65  O   LIG d   1       0.290  -2.689 -12.095  0.00  0.00    -0.245 OA
BRANCH  64  66
ATOM     66  O   LIG d   1       0.609  -4.389 -10.705  0.00  0.00    -0.465 OA
BRANCH  66  67
ATOM     67  C   LIG d   1      -0.771  -4.780 -10.475  0.00  0.00     0.082 C 
ATOM     68  H   LIG d   1      -0.923  -4.966  -9.413  0.00  0.00     0.066 H 
ATOM     69  H   LIG d   1      -1.433  -3.978 -10.802  0.00  0.00     0.066 H 
ATOM     70  H   LIG d   1      -0.991  -5.686 -11.038  0.00  0.00     0.066 H 
ENDBRANCH  66  67
ENDBRANCH  64  66
ENDBRANCH  58  64
ENDBRANCH   1  54
TORSDOF 5
ENDMDL
MODEL 8
REMARK VINA RESULT:      -6.6      6.288     11.825
REMARK  5 active torsions:
REMARK  status: ('A' for Active; 'I' for Inactive)
REMARK    1  A    between atoms: C_1  and  O_2 
REMARK    2  A    between atoms: O_2  and  C_3 
REMARK    3  A    between atoms: C_3  and  C_5 
REMARK    4  A    between atoms: C_8  and  C_11 
REMARK    5  A    between atoms: N_30  and  C_33 
ROOT
ATOM      1  C   LIG d   1      10.939   2.140  -5.633  0.00  0.00     0.092 C 
ATOM      2  H   LIG d   1      10.832   2.279  -6.709  0.00  0.00     0.062 H 
ATOM      3  C   LIG d   1      12.060   1.168  -5.349  0.00  0.00     0.046 A 
ATOM      4  C   LIG d   1      11.860  -0.093  -4.906  0.00  0.00    -0.015 A 
ATOM      5  C   LIG d   1      13.166  -0.703  -4.760  0.00  0.00     0.003 A 
ATOM      6  C   LIG d   1      13.578  -1.973  -4.345  0.00  0.00    -0.052 A 
ATOM      7  C   LIG d   1      14.931  -2.212  -4.327  0.00  0.00    -0.061 A 
ATOM      8  C   LIG d   1      15.853  -1.248  -4.701  0.00  0.00    -0.060 A 
ATOM      9  C   LIG d   1      15.473   0.017  -5.116  0.00  0.00    -0.038 A 
ATOM     10  C   LIG d   1      14.106   0.287  -5.145  0.00  0.00     0.047 A 
ATOM     11  N   LIG d   1      13.402   1.403  -5.494  0.00  0.00    -0.356 N 
ATOM     12  H   LIG d   1      13.792   2.237  -5.799  0.00  0.00     0.166 HD
ATOM     13  C   LIG d   1      10.509  -0.700  -4.629  0.00  0.00     0.002 C 
ATOM     14  C   LIG d   1       9.433   0.145  -5.324  0.00  0.00     0.107 A 
ATOM     15  H   LIG d   1       9.494  -0.040  -6.397  0.00  0.00     0.060 H 
ATOM     16  N   LIG d   1       9.699   1.562  -5.074  0.00  0.00    -0.276 N 
ATOM     17  C   LIG d   1       8.880   2.344  -4.368  0.00  0.00     0.234 A 
ATOM     18  O   LIG d   1       9.229   3.487  -4.161  0.00  0.00    -0.274 OA
ATOM     19  C   LIG d   1       7.561   1.908  -3.817  0.00  0.00     0.092 A 
ATOM     20  N   LIG d   1       7.253   0.531  -4.166  0.00  0.00    -0.288 N 
ATOM     21  C   LIG d   1       8.080  -0.265  -4.840  0.00  0.00     0.237 A 
ATOM     22  O   LIG d   1       7.712  -1.397  -5.076  0.00  0.00    -0.274 OA
ATOM     23  H   LIG d   1      12.866  -2.730  -4.054  0.00  0.00     0.062 H 
ATOM     24  H   LIG d   1      15.286  -3.181  -4.012  0.00  0.00     0.062 H 
ATOM     25  H   LIG d   1      16.905  -1.492  -4.668  0.00  0.00     0.062 H 
ATOM     26  H   LIG d   1      16.203   0.758  -5.409  0.00  0.00     0.064 H 
ATOM     27  H   LIG d   1      10.327  -0.711  -3.555  0.00  0.00     0.034 H 
ATOM     28  H   LIG d   1      10.480  -1.718  -5.017  0.00  0.00     0.034 H 
ATOM     29  H   LIG d   1       7.582   2.003  -2.732  0.00  0.00     0.056 H 
ATOM     30  H   LIG d   1       6.780   2.556  -4.213  0.00  0.00     0.056 H 
ENDROOT
BRANCH  20  31
ATOM     31  C   LIG d   1       5.958  -0.013  -3.749  0.00  0.00     0.027 C 
ATOM     32  C   LIG d   1       5.311   0.930  -2.733  0.00  0.00    -0.034 C 
ATOM     33  C   LIG d   1       4.180   0.199  -2.008  0.00  0.00    -0.051 C 
ATOM     34  H   LIG d   1       6.060   1.251  -2.008  0.00  0.00     0.028 H 
ATOM     35  H   LIG d   1       4.909   1.801  -3.249  0.00  0.00     0.028 H 
ATOM     36  C   LIG d   1       4.643  -1.208  -1.623  0.00  0.00    -0.053 C 
ATOM     37  H   LIG d   1       3.910   0.751  -1.107  0.00  0.00     0.027 H 
ATOM     38  H   LIG d   1       3.313   0.129  -2.663  0.00  0.00     0.027 H 
ATOM     39  C   LIG d   1       3.852  -2.242  -2.424  0.00  0.00    -0.053 C 
ATOM     40  H   LIG d   1       5.706  -1.313  -1.844  0.00  0.00     0.026 H 
ATOM     41  H   LIG d   1       4.477  -1.367  -0.557  0.00  0.00     0.026 H 
ATOM     42  C   LIG d   1       4.379  -2.286  -3.860  0.00  0.00    -0.053 C 
ATOM     43  H   LIG d   1       3.967  -3.224  -1.965  0.00  0.00     0.026 H 
ATOM     44  H   LIG d   1       2.797  -1.967  -2.433  0.00  0.00     0.026 H 
ATOM     45  C   LIG d   1       3.869  -1.065  -4.628  0.00  0.00    -0.051 C 
ATOM     46  H   LIG d   1       5.469  -2.279  -3.848  0.00  0.00     0.026 H 
ATOM     47  H   LIG d   1       4.027  -3.195  -4.349  0.00  0.00     0.026 H 
ATOM     48  C   LIG d   1       5.046  -0.149  -4.970  0.00  0.00    -0.034 C 
ATOM     49  H   LIG d   1       3.383  -1.391  -5.548  0.00  0.00     0.027 H 
ATOM     50  H   LIG d   1       3.153  -0.522  -4.012  0.00  0.00     0.027 H 
ATOM     51  H   LIG d   1       4.671   0.833  -5.255  0.00  0.00     0.028 H 
ATOM     52  H   LIG d   1       5.610  -0.577  -5.799  0.00  0.00     0.028 H 
ATOM     53  H   LIG d   1       6.105  -0.993  -3.294  0.00  0.00     0.050 H 
ENDBRANCH  20  31
BRANCH   1  54
ATOM     54  C   LIG d   1      11.230   3.464  -4.973  0.00  0.00    -0.021 A 
ATOM     55  C   LIG d   1      11.736   3.495  -3.686  0.00  0.00    -0.056 A 
ATOM     56  C   LIG d   1      12.005   4.703  -3.076  0.00  0.00    -0.047 A 
ATOM     57  H   LIG d   1      11.923   2.571  -3.158  0.00  0.00     0.062 H 
ATOM     58  C   LIG d   1      11.763   5.896  -3.761  0.00  0.00     0.059 A 
ATOM     59  H   LIG d   1      12.401   4.726  -2.071  0.00  0.00     0.063 H 
ATOM     60  C   LIG d   1      11.251   5.857  -5.059  0.00  0.00    -0.047 A 
ATOM     61  C   LIG d   1      10.992   4.642  -5.658  0.00  0.00    -0.056 A 
ATOM     62  H   LIG d   1      11.063   6.775  -5.594  0.00  0.00     0.063 H 
ATOM     63  H   LIG d   1      10.601   4.611  -6.665  0.00  0.00     0.062 H 
BRANCH  58  64
ATOM     64  C   LIG d   1      12.048   7.192  -3.114  0.00  0.00     0.339 C 
ATOM     65  O   LIG d   1      12.840   7.964  -3.620  0.00  0.00    -0.245 OA
BRANCH  64  66
ATOM     66  O   LIG d   1      11.433   7.520  -1.961  0.00  0.00    -0.465 OA
BRANCH  66  67
ATOM     67  C   LIG d   1      10.035   7.905  -2.046  0.00  0.00     0.082 C 
ATOM     68  H   LIG d   1       9.864   8.789  -1.433  0.00  0.00     0.066 H 
ATOM     69  H   LIG d   1       9.782   8.127  -3.083  0.00  0.00     0.066 H 
ATOM     70  H   LIG d   1       9.410   7.088  -1.687  0.00  0.00     0.066 H 
ENDBRANCH  66  67
ENDBRANCH  64  66
ENDBRANCH  58  64
ENDBRANCH   1  54
TORSDOF 5
ENDMDL
MODEL 9
REMARK VINA RESULT:      -6.5      6.518     11.090
REMARK  5 active torsions:
REMARK  status: ('A' for Active; 'I' for Inactive)
REMARK    1  A    between atoms: C_1  and  O_2 
REMARK    2  A    between atoms: O_2  and  C_3 
REMARK    3  A    between atoms: C_3  and  C_5 
REMARK    4  A    between atoms: C_8  and  C_11 
REMARK    5  A    between atoms: N_30  and  C_33 
ROOT
ATOM      1  C   LIG d   1      10.449   3.348  -6.647  0.00  0.00     0.092 C 
ATOM      2  H   LIG d   1      11.388   2.801  -6.563  0.00  0.00     0.062 H 
ATOM      3  C   LIG d   1      10.459   4.535  -5.712  0.00  0.00     0.046 A 
ATOM      4  C   LIG d   1       9.724   4.599  -4.580  0.00  0.00    -0.015 A 
ATOM      5  C   LIG d   1      10.008   5.878  -3.963  0.00  0.00     0.003 A 
ATOM      6  C   LIG d   1       9.549   6.489  -2.792  0.00  0.00    -0.052 A 
ATOM      7  C   LIG d   1      10.041   7.739  -2.508  0.00  0.00    -0.061 A 
ATOM      8  C   LIG d   1      10.952   8.375  -3.335  0.00  0.00    -0.060 A 
ATOM      9  C   LIG d   1      11.425   7.794  -4.500  0.00  0.00    -0.038 A 
ATOM     10  C   LIG d   1      10.942   6.525  -4.813  0.00  0.00     0.047 A 
ATOM     11  N   LIG d   1      11.191   5.684  -5.858  0.00  0.00    -0.356 N 
ATOM     12  H   LIG d   1      11.794   5.871  -6.594  0.00  0.00     0.166 HD
ATOM     13  C   LIG d   1       8.795   3.515  -4.098  0.00  0.00     0.002 C 
ATOM     14  C   LIG d   1       9.142   2.206  -4.823  0.00  0.00     0.107 A 
ATOM     15  H   LIG d   1      10.081   1.830  -4.415  0.00  0.00     0.060 H 
ATOM     16  N   LIG d   1       9.322   2.479  -6.248  0.00  0.00    -0.276 N 
ATOM     17  C   LIG d   1       8.519   1.985  -7.192  0.00  0.00     0.234 A 
ATOM     18  O   LIG d   1       8.714   2.330  -8.339  0.00  0.00    -0.274 OA
ATOM     19  C   LIG d   1       7.395   1.034  -6.934  0.00  0.00     0.092 A 
ATOM     20  N   LIG d   1       7.293   0.680  -5.528  0.00  0.00    -0.288 N 
ATOM     21  C   LIG d   1       8.069   1.195  -4.576  0.00  0.00     0.237 A 
ATOM     22  O   LIG d   1       7.893   0.821  -3.437  0.00  0.00    -0.274 OA
ATOM     23  H   LIG d   1       8.839   5.999  -2.141  0.00  0.00     0.062 H 
ATOM     24  H   LIG d   1       9.709   8.241  -1.612  0.00  0.00     0.062 H 
ATOM     25  H   LIG d   1      11.307   9.358  -3.062  0.00  0.00     0.062 H 
ATOM     26  H   LIG d   1      12.139   8.300  -5.134  0.00  0.00     0.064 H 
ATOM     27  H   LIG d   1       7.764   3.792  -4.319  0.00  0.00     0.034 H 
ATOM     28  H   LIG d   1       8.917   3.380  -3.024  0.00  0.00     0.034 H 
ATOM     29  H   LIG d   1       6.461   1.495  -7.252  0.00  0.00     0.056 H 
ATOM     30  H   LIG d   1       7.558   0.128  -7.516  0.00  0.00     0.056 H 
ENDROOT
BRANCH  20  31
ATOM     31  C   LIG d   1       6.277  -0.299  -5.135  0.00  0.00     0.027 C 
ATOM     32  C   LIG d   1       5.115  -0.256  -6.130  0.00  0.00    -0.034 C 
ATOM     33  C   LIG d   1       3.901  -0.965  -5.526  0.00  0.00    -0.051 C 
ATOM     34  H   LIG d   1       4.860   0.781  -6.346  0.00  0.00     0.028 H 
ATOM     35  H   LIG d   1       5.407  -0.758  -7.052  0.00  0.00     0.028 H 
ATOM     36  C   LIG d   1       3.732  -0.535  -4.067  0.00  0.00    -0.053 C 
ATOM     37  H   LIG d   1       3.007  -0.697  -6.089  0.00  0.00     0.027 H 
ATOM     38  H   LIG d   1       4.049  -2.043  -5.572  0.00  0.00     0.027 H 
ATOM     39  C   LIG d   1       4.002  -1.727  -3.149  0.00  0.00    -0.053 C 
ATOM     40  H   LIG d   1       4.436   0.265  -3.840  0.00  0.00     0.026 H 
ATOM     41  H   LIG d   1       2.714  -0.177  -3.909  0.00  0.00     0.026 H 
ATOM     42  C   LIG d   1       5.510  -1.977  -3.069  0.00  0.00    -0.053 C 
ATOM     43  H   LIG d   1       3.615  -1.514  -2.152  0.00  0.00     0.026 H 
ATOM     44  H   LIG d   1       3.508  -2.614  -3.549  0.00  0.00     0.026 H 
ATOM     45  C   LIG d   1       5.984  -2.655  -4.356  0.00  0.00    -0.051 C 
ATOM     46  H   LIG d   1       6.030  -1.027  -2.946  0.00  0.00     0.026 H 
ATOM     47  H   LIG d   1       5.726  -2.623  -2.218  0.00  0.00     0.026 H 
ATOM     48  C   LIG d   1       6.893  -1.700  -5.131  0.00  0.00    -0.034 C 
ATOM     49  H   LIG d   1       6.536  -3.561  -4.107  0.00  0.00     0.027 H 
ATOM     50  H   LIG d   1       5.121  -2.912  -4.970  0.00  0.00     0.027 H 
ATOM     51  H   LIG d   1       7.001  -2.052  -6.156  0.00  0.00     0.028 H 
ATOM     52  H   LIG d   1       7.873  -1.664  -4.654  0.00  0.00     0.028 H 
ATOM     53  H   LIG d   1       5.910  -0.061  -4.136  0.00  0.00     0.050 H 
ENDBRANCH  20  31
BRANCH   1  54
ATOM     54  C   LIG d   1      10.256   3.817  -8.067  0.00  0.00    -0.021 A 
ATOM     55  C   LIG d   1       9.314   4.791  -8.349  0.00  0.00    -0.056 A 
ATOM     56  C   LIG d   1       9.133   5.225  -9.645  0.00  0.00    -0.047 A 
ATOM     57  H   LIG d   1       8.721   5.213  -7.551  0.00  0.00     0.062 H 
ATOM     58  C   LIG d   1       9.902   4.679 -10.675  0.00  0.00     0.059 A 
ATOM     59  H   LIG d   1       8.398   5.986  -9.864  0.00  0.00     0.063 H 
ATOM     60  C   LIG d   1      10.851   3.696 -10.384  0.00  0.00    -0.047 A 
ATOM     61  C   LIG d   1      11.025   3.275  -9.082  0.00  0.00    -0.056 A 
ATOM     62  H   LIG d   1      11.449   3.270 -11.175  0.00  0.00     0.063 H 
ATOM     63  H   LIG d   1      11.761   2.519  -8.855  0.00  0.00     0.062 H 
BRANCH  58  64
ATOM     64  C   LIG d   1       9.714   5.139 -12.066  0.00  0.00     0.339 C 
ATOM     65  O   LIG d   1      10.384   4.662 -12.961  0.00  0.00    -0.245 OA
BRANCH  64  66
ATOM     66  O   LIG d   1       8.799   6.088 -12.343  0.00  0.00    -0.465 OA
BRANCH  66  67
ATOM     67  C   LIG d   1       9.298   7.371 -12.806  0.00  0.00     0.082 C 
ATOM     68  H   LIG d   1      10.190   7.215 -13.413  0.00  0.00     0.066 H 
ATOM     69  H   LIG d   1       8.532   7.863 -13.405  0.00  0.00     0.066 H 
ATOM     70  H   LIG d   1       9.547   7.995 -11.949  0.00  0.00     0.066 H 
ENDBRANCH  66  67
ENDBRANCH  64  66
ENDBRANCH  58  64
ENDBRANCH   1  54
TORSDOF 5
ENDMDL
