MODEL 1
REMARK VINA RESULT:      -7.6      0.000      0.000
REMARK  7 active torsions:
REMARK  status: ('A' for Active; 'I' for Inactive)
REMARK    1  A    between atoms: C_1  and  C_2 
REMARK    2  A    between atoms: C_6  and  C_35 
REMARK    3  A    between atoms: C_10  and  C_34 
REMARK    4  A    between atoms: C_15  and  C_16 
REMARK    5  A    between atoms: C_16  and  C_17 
REMARK       I    between atoms: C_17  and  N_19 
REMARK    6  A    between atoms: C_22  and  C_25 
REMARK    7  A    between atoms: C_22  and  C_31 
ROOT
ATOM      1  C   LIG d   1       9.318   3.047  -6.282  0.00  0.00    -0.029 A 
ATOM      2  C   LIG d   1       9.605   4.482  -6.193  0.00  0.00     0.022 A 
ATOM      3  C   LIG d   1       9.892   5.078  -4.964  0.00  0.00    -0.039 A 
ATOM      4  C   LIG d   1      10.160   6.437  -4.915  0.00  0.00     0.029 A 
ATOM      5  C   LIG d   1      10.493   7.378  -3.827  0.00  0.00     0.028 A 
ATOM      6  C   LIG d   1      10.641   8.586  -4.415  0.00  0.00     0.101 A 
ATOM      7  O   LIG d   1      10.436   8.482  -5.739  0.00  0.00    -0.462 OA
ATOM      8  C   LIG d   1      10.143   7.214  -6.091  0.00  0.00     0.142 A 
ATOM      9  C   LIG d   1       9.857   6.615  -7.309  0.00  0.00     0.035 A 
ATOM     10  C   LIG d   1       9.589   5.258  -7.371  0.00  0.00     0.146 A 
ATOM     11  O   LIG d   1       9.310   4.670  -8.556  0.00  0.00    -0.422 OA
ATOM     12  C   LIG d   1       9.046   3.357  -8.643  0.00  0.00     0.341 A 
ATOM     13  O   LIG d   1       8.801   2.872  -9.733  0.00  0.00    -0.245 OA
ATOM     14  C   LIG d   1       9.051   2.522  -7.506  0.00  0.00     0.049 A 
ATOM     15  H   LIG d   1       9.905   4.487  -4.061  0.00  0.00     0.063 H 
ATOM     16  H   LIG d   1      10.889   9.499  -3.896  0.00  0.00     0.104 H 
ENDROOT
BRANCH  14  17
ATOM     17  C   LIG d   1       8.757   1.051  -7.647  0.00  0.00     0.056 C 
ATOM     18  H   LIG d   1       8.918   0.745  -8.681  0.00  0.00     0.041 H 
ATOM     19  H   LIG d   1       9.418   0.482  -6.992  0.00  0.00     0.041 H 
BRANCH  17  20
ATOM     20  C   LIG d   1       7.324   0.787  -7.263  0.00  0.00     0.220 C 
ATOM     21  O   LIG d   1       6.429   1.414  -7.790  0.00  0.00    -0.275 OA
ATOM     22  N   LIG d   1       7.035  -0.146  -6.334  0.00  0.00    -0.301 N 
ATOM     23  C   LIG d   1       5.642  -0.414  -5.949  0.00  0.00     0.016 C 
ATOM     24  C   LIG d   1       8.107  -0.910  -5.683  0.00  0.00     0.016 C 
ATOM     25  C   LIG d   1       5.373  -1.918  -6.104  0.00  0.00    -0.022 C 
ATOM     26  H   LIG d   1       5.486  -0.117  -4.912  0.00  0.00     0.046 H 
ATOM     27  H   LIG d   1       4.970   0.148  -6.598  0.00  0.00     0.046 H 
ATOM     28  C   LIG d   1       6.410  -2.702  -5.297  0.00  0.00     0.038 C 
ATOM     29  H   LIG d   1       5.446  -2.197  -7.156  0.00  0.00     0.029 H 
ATOM     30  H   LIG d   1       4.374  -2.149  -5.734  0.00  0.00     0.029 H 
ATOM     31  C   LIG d   1       7.811  -2.405  -5.836  0.00  0.00    -0.022 C 
ATOM     32  H   LIG d   1       7.860  -2.679  -6.890  0.00  0.00     0.029 H 
ATOM     33  H   LIG d   1       8.547  -2.982  -5.276  0.00  0.00     0.029 H 
ATOM     34  H   LIG d   1       9.061  -0.676  -6.154  0.00  0.00     0.046 H 
ATOM     35  H   LIG d   1       8.149  -0.653  -4.624  0.00  0.00     0.046 H 
BRANCH  28  36
ATOM     36  C   LIG d   1       6.130  -4.178  -5.415  0.00  0.00    -0.036 A 
ATOM     37  C   LIG d   1       7.176  -5.082  -5.417  0.00  0.00    -0.058 A 
ATOM     38  C   LIG d   1       6.918  -6.437  -5.521  0.00  0.00    -0.061 A 
ATOM     39  H   LIG d   1       8.194  -4.731  -5.335  0.00  0.00     0.062 H 
ATOM     40  C   LIG d   1       5.615  -6.886  -5.630  0.00  0.00    -0.062 A 
ATOM     41  H   LIG d   1       7.734  -7.143  -5.518  0.00  0.00     0.062 H 
ATOM     42  C   LIG d   1       4.571  -5.982  -5.634  0.00  0.00    -0.061 A 
ATOM     43  H   LIG d   1       5.415  -7.943  -5.714  0.00  0.00     0.062 H 
ATOM     44  C   LIG d   1       4.828  -4.627  -5.525  0.00  0.00    -0.058 A 
ATOM     45  H   LIG d   1       3.552  -6.333  -5.719  0.00  0.00     0.062 H 
ATOM     46  H   LIG d   1       4.010  -3.920  -5.528  0.00  0.00     0.062 H 
ENDBRANCH  28  36
BRANCH  28  47
ATOM     47  C   LIG d   1       6.333  -2.292  -3.848  0.00  0.00     0.052 C 
ATOM     48  O   LIG d   1       7.337  -2.305  -3.156  0.00  0.00    -0.549 OA
ATOM     49  O   LIG d   1       5.266  -1.949  -3.368  0.00  0.00    -0.549 OA
ENDBRANCH  28  47
ENDBRANCH  17  20
ENDBRANCH  14  17
BRANCH   1  50
ATOM     50  C   LIG d   1       9.324   2.180  -5.051  0.00  0.00    -0.038 C 
ATOM     51  H   LIG d   1       8.302   2.042  -4.699  0.00  0.00     0.028 H 
ATOM     52  H   LIG d   1       9.759   1.210  -5.291  0.00  0.00     0.028 H 
ATOM     53  H   LIG d   1       9.915   2.660  -4.271  0.00  0.00     0.028 H 
ENDBRANCH   1  50
BRANCH   9  54
ATOM     54  C   LIG d   1       9.839   7.443  -8.568  0.00  0.00    -0.033 C 
ATOM     55  H   LIG d   1      10.055   8.483  -8.321  0.00  0.00     0.028 H 
ATOM     56  H   LIG d   1      10.595   7.069  -9.259  0.00  0.00     0.028 H 
ATOM     57  H   LIG d   1       8.857   7.376  -9.034  0.00  0.00     0.028 H 
ENDBRANCH   9  54
BRANCH   5  58
ATOM     58  C   LIG d   1      10.634   7.061  -2.386  0.00  0.00    -0.014 A 
ATOM     59  C   LIG d   1      10.220   7.982  -1.423  0.00  0.00    -0.052 A 
ATOM     60  C   LIG d   1      10.349   7.680  -0.083  0.00  0.00    -0.043 A 
ATOM     61  H   LIG d   1       9.798   8.928  -1.727  0.00  0.00     0.062 H 
ATOM     62  C   LIG d   1      10.897   6.470   0.307  0.00  0.00     0.041 A 
ATOM     63  H   LIG d   1      10.024   8.391   0.663  0.00  0.00     0.063 H 
ATOM     64  C   LIG d   1      11.314   5.555  -0.644  0.00  0.00    -0.043 A 
ATOM     65 CL   LIG d   1      11.062   6.099   1.994  0.00  0.00    -0.084 Cl
ATOM     66  C   LIG d   1      11.184   5.844  -1.988  0.00  0.00    -0.052 A 
ATOM     67  H   LIG d   1      11.740   4.612  -0.335  0.00  0.00     0.063 H 
ATOM     68  H   LIG d   1      11.510   5.130  -2.729  0.00  0.00     0.062 H 
ENDBRANCH   5  58
TORSDOF 7
ENDMDL
MODEL 2
REMARK VINA RESULT:      -7.5      3.629      5.217
REMARK  7 active torsions:
REMARK  status: ('A' for Active; 'I' for Inactive)
REMARK    1  A    between atoms: C_1  and  C_2 
REMARK    2  A    between atoms: C_6  and  C_35 
REMARK    3  A    between atoms: C_10  and  C_34 
REMARK    4  A    between atoms: C_15  and  C_16 
REMARK    5  A    between atoms: C_16  and  C_17 
REMARK       I    between atoms: C_17  and  N_19 
REMARK    6  A    between atoms: C_22  and  C_25 
REMARK    7  A    between atoms: C_22  and  C_31 
ROOT
ATOM      1  C   LIG d   1      11.407   0.364  -5.160  0.00  0.00    -0.029 A 
ATOM      2  C   LIG d   1      12.510   1.175  -4.634  0.00  0.00     0.022 A 
ATOM      3  C   LIG d   1      12.259   2.385  -3.984  0.00  0.00    -0.039 A 
ATOM      4  C   LIG d   1      13.324   3.127  -3.498  0.00  0.00     0.029 A 
ATOM      5  C   LIG d   1      13.435   4.412  -2.780  0.00  0.00     0.028 A 
ATOM      6  C   LIG d   1      14.756   4.610  -2.577  0.00  0.00     0.101 A 
ATOM      7  O   LIG d   1      15.460   3.587  -3.092  0.00  0.00    -0.462 OA
ATOM      8  C   LIG d   1      14.647   2.670  -3.657  0.00  0.00     0.142 A 
ATOM      9  C   LIG d   1      14.889   1.467  -4.304  0.00  0.00     0.035 A 
ATOM     10  C   LIG d   1      13.834   0.717  -4.794  0.00  0.00     0.146 A 
ATOM     11  O   LIG d   1      14.064  -0.456  -5.425  0.00  0.00    -0.422 OA
ATOM     12  C   LIG d   1      13.059  -1.203  -5.908  0.00  0.00     0.341 A 
ATOM     13  O   LIG d   1      13.316  -2.252  -6.469  0.00  0.00    -0.245 OA
ATOM     14  C   LIG d   1      11.711  -0.806  -5.779  0.00  0.00     0.049 A 
ATOM     15  H   LIG d   1      11.247   2.739  -3.861  0.00  0.00     0.063 H 
ATOM     16  H   LIG d   1      15.184   5.464  -2.075  0.00  0.00     0.104 H 
ENDROOT
BRANCH  14  17
ATOM     17  C   LIG d   1      10.611  -1.676  -6.329  0.00  0.00     0.056 C 
ATOM     18  H   LIG d   1       9.889  -1.056  -6.861  0.00  0.00     0.041 H 
ATOM     19  H   LIG d   1      11.034  -2.411  -7.013  0.00  0.00     0.041 H 
BRANCH  17  20
ATOM     20  C   LIG d   1       9.919  -2.386  -5.194  0.00  0.00     0.220 C 
ATOM     21  O   LIG d   1      10.572  -2.975  -4.358  0.00  0.00    -0.275 OA
ATOM     22  N   LIG d   1       8.573  -2.369  -5.108  0.00  0.00    -0.301 N 
ATOM     23  C   LIG d   1       7.884  -3.058  -4.008  0.00  0.00     0.016 C 
ATOM     24  C   LIG d   1       7.768  -1.666  -6.116  0.00  0.00     0.016 C 
ATOM     25  C   LIG d   1       6.948  -2.056  -3.315  0.00  0.00    -0.022 C 
ATOM     26  H   LIG d   1       7.304  -3.891  -4.405  0.00  0.00     0.046 H 
ATOM     27  H   LIG d   1       8.619  -3.428  -3.292  0.00  0.00     0.046 H 
ATOM     28  C   LIG d   1       6.010  -1.440  -4.356  0.00  0.00     0.038 C 
ATOM     29  H   LIG d   1       7.537  -1.268  -2.845  0.00  0.00     0.029 H 
ATOM     30  H   LIG d   1       6.360  -2.574  -2.557  0.00  0.00     0.029 H 
ATOM     31  C   LIG d   1       6.832  -0.686  -5.403  0.00  0.00    -0.022 C 
ATOM     32  H   LIG d   1       7.422   0.089  -4.912  0.00  0.00     0.029 H 
ATOM     33  H   LIG d   1       6.163  -0.227  -6.130  0.00  0.00     0.029 H 
ATOM     34  H   LIG d   1       8.425  -1.119  -6.792  0.00  0.00     0.046 H 
ATOM     35  H   LIG d   1       7.178  -2.388  -6.681  0.00  0.00     0.046 H 
BRANCH  28  36
ATOM     36  C   LIG d   1       5.064  -0.484  -3.677  0.00  0.00    -0.036 A 
ATOM     37  C   LIG d   1       3.929  -0.050  -4.337  0.00  0.00    -0.058 A 
ATOM     38  C   LIG d   1       3.058   0.824  -3.712  0.00  0.00    -0.061 A 
ATOM     39  H   LIG d   1       3.722  -0.395  -5.339  0.00  0.00     0.062 H 
ATOM     40  C   LIG d   1       3.326   1.269  -2.431  0.00  0.00    -0.062 A 
ATOM     41  H   LIG d   1       2.169   1.159  -4.225  0.00  0.00     0.062 H 
ATOM     42  C   LIG d   1       4.463   0.839  -1.774  0.00  0.00    -0.061 A 
ATOM     43  H   LIG d   1       2.647   1.953  -1.945  0.00  0.00     0.062 H 
ATOM     44  C   LIG d   1       5.332  -0.038  -2.397  0.00  0.00    -0.058 A 
ATOM     45  H   LIG d   1       4.672   1.187  -0.772  0.00  0.00     0.062 H 
ATOM     46  H   LIG d   1       6.221  -0.374  -1.882  0.00  0.00     0.062 H 
ENDBRANCH  28  36
BRANCH  28  47
ATOM     47  C   LIG d   1       5.220  -2.533  -5.030  0.00  0.00     0.052 C 
ATOM     48  O   LIG d   1       4.685  -3.400  -4.361  0.00  0.00    -0.549 OA
ATOM     49  O   LIG d   1       5.119  -2.550  -6.245  0.00  0.00    -0.549 OA
ENDBRANCH  28  47
ENDBRANCH  17  20
ENDBRANCH  14  17
BRANCH   1  50
ATOM     50  C   LIG d   1       9.978   0.814  -5.014  0.00  0.00    -0.038 C 
ATOM     51  H   LIG d   1       9.570   0.432  -4.078  0.00  0.00     0.028 H 
ATOM     52  H   LIG d   1       9.937   1.903  -5.010  0.00  0.00     0.028 H 
ATOM     53  H   LIG d   1       9.389   0.432  -5.848  0.00  0.00     0.028 H 
ENDBRANCH   1  50
BRANCH   9  54
ATOM     54  C   LIG d   1      16.304   0.977  -4.475  0.00  0.00    -0.033 C 
ATOM     55  H   LIG d   1      16.531   0.246  -3.699  0.00  0.00     0.028 H 
ATOM     56  H   LIG d   1      16.410   0.512  -5.455  0.00  0.00     0.028 H 
ATOM     57  H   LIG d   1      16.992   1.817  -4.395  0.00  0.00     0.028 H 
ENDBRANCH   9  54
BRANCH   5  58
ATOM     58  C   LIG d   1      12.324   5.303  -2.368  0.00  0.00    -0.014 A 
ATOM     59  C   LIG d   1      11.836   5.255  -1.062  0.00  0.00    -0.052 A 
ATOM     60  C   LIG d   1      10.807   6.090  -0.681  0.00  0.00    -0.043 A 
ATOM     61  H   LIG d   1      12.266   4.566  -0.350  0.00  0.00     0.062 H 
ATOM     62  C   LIG d   1      10.250   6.968  -1.596  0.00  0.00     0.041 A 
ATOM     63  H   LIG d   1      10.432   6.057   0.331  0.00  0.00     0.063 H 
ATOM     64  C   LIG d   1      10.727   7.016  -2.895  0.00  0.00    -0.043 A 
ATOM     65 CL   LIG d   1       8.951   8.011  -1.112  0.00  0.00    -0.084 Cl
ATOM     66  C   LIG d   1      11.761   6.189  -3.284  0.00  0.00    -0.052 A 
ATOM     67  H   LIG d   1      10.289   7.703  -3.604  0.00  0.00     0.063 H 
ATOM     68  H   LIG d   1      12.131   6.228  -4.297  0.00  0.00     0.062 H 
ENDBRANCH   5  58
TORSDOF 7
ENDMDL
MODEL 3
REMARK VINA RESULT:      -7.5      6.700     12.333
REMARK  7 active torsions:
REMARK  status: ('A' for Active; 'I' for Inactive)
REMARK    1  A    between atoms: C_1  and  C_2 
REMARK    2  A    between atoms: C_6  and  C_35 
REMARK    3  A    between atoms: C_10  and  C_34 
REMARK    4  A    between atoms: C_15  and  C_16 
REMARK    5  A    between atoms: C_16  and  C_17 
REMARK       I    between atoms: C_17  and  N_19 
REMARK    6  A    between atoms: C_22  and  C_25 
REMARK    7  A    between atoms: C_22  and  C_31 
ROOT
ATOM      1  C   LIG d   1       6.829  -7.901  -5.934  0.00  0.00    -0.029 A 
ATOM      2  C   LIG d   1       6.454  -8.727  -4.782  0.00  0.00     0.022 A 
ATOM      3  C   LIG d   1       7.350  -8.937  -3.732  0.00  0.00    -0.039 A 
ATOM      4  C   LIG d   1       6.964  -9.723  -2.657  0.00  0.00     0.029 A 
ATOM      5  C   LIG d   1       7.627 -10.150  -1.410  0.00  0.00     0.028 A 
ATOM      6  C   LIG d   1       6.727 -10.919  -0.757  0.00  0.00     0.101 A 
ATOM      7  O   LIG d   1       5.591 -11.005  -1.471  0.00  0.00    -0.462 OA
ATOM      8  C   LIG d   1       5.682 -10.306  -2.621  0.00  0.00     0.142 A 
ATOM      9  C   LIG d   1       4.796 -10.093  -3.667  0.00  0.00     0.035 A 
ATOM     10  C   LIG d   1       5.170  -9.310  -4.746  0.00  0.00     0.146 A 
ATOM     11  O   LIG d   1       4.311  -9.100  -5.768  0.00  0.00    -0.422 OA
ATOM     12  C   LIG d   1       4.648  -8.344  -6.825  0.00  0.00     0.341 A 
ATOM     13  O   LIG d   1       3.840  -8.183  -7.721  0.00  0.00    -0.245 OA
ATOM     14  C   LIG d   1       5.914  -7.728  -6.922  0.00  0.00     0.049 A 
ATOM     15  H   LIG d   1       8.334  -8.493  -3.758  0.00  0.00     0.063 H 
ATOM     16  H   LIG d   1       6.896 -11.393   0.198  0.00  0.00     0.104 H 
ENDROOT
BRANCH  14  17
ATOM     17  C   LIG d   1       6.252  -6.881  -8.122  0.00  0.00     0.056 C 
ATOM     18  H   LIG d   1       7.247  -6.453  -7.997  0.00  0.00     0.041 H 
ATOM     19  H   LIG d   1       6.232  -7.498  -9.021  0.00  0.00     0.041 H 
BRANCH  17  20
ATOM     20  C   LIG d   1       5.242  -5.771  -8.253  0.00  0.00     0.220 C 
ATOM     21  O   LIG d   1       4.214  -5.954  -8.870  0.00  0.00    -0.275 OA
ATOM     22  N   LIG d   1       5.480  -4.572  -7.683  0.00  0.00    -0.301 N 
ATOM     23  C   LIG d   1       4.506  -3.479  -7.802  0.00  0.00     0.016 C 
ATOM     24  C   LIG d   1       6.723  -4.333  -6.937  0.00  0.00     0.016 C 
ATOM     25  C   LIG d   1       4.172  -2.967  -6.392  0.00  0.00    -0.022 C 
ATOM     26  H   LIG d   1       4.933  -2.671  -8.396  0.00  0.00     0.046 H 
ATOM     27  H   LIG d   1       3.599  -3.849  -8.281  0.00  0.00     0.046 H 
ATOM     28  C   LIG d   1       5.468  -2.578  -5.677  0.00  0.00     0.038 C 
ATOM     29  H   LIG d   1       3.667  -3.750  -5.828  0.00  0.00     0.029 H 
ATOM     30  H   LIG d   1       3.522  -2.095  -6.467  0.00  0.00     0.029 H 
ATOM     31  C   LIG d   1       6.368  -3.808  -5.542  0.00  0.00    -0.022 C 
ATOM     32  H   LIG d   1       5.841  -4.584  -4.985  0.00  0.00     0.029 H 
ATOM     33  H   LIG d   1       7.280  -3.536  -5.012  0.00  0.00     0.029 H 
ATOM     34  H   LIG d   1       7.280  -5.264  -6.846  0.00  0.00     0.046 H 
ATOM     35  H   LIG d   1       7.328  -3.592  -7.461  0.00  0.00     0.046 H 
BRANCH  28  36
ATOM     36  C   LIG d   1       5.145  -2.040  -4.308  0.00  0.00    -0.036 A 
ATOM     37  C   LIG d   1       5.817  -0.932  -3.825  0.00  0.00    -0.058 A 
ATOM     38  C   LIG d   1       5.518  -0.435  -2.569  0.00  0.00    -0.061 A 
ATOM     39  H   LIG d   1       6.574  -0.453  -4.428  0.00  0.00     0.062 H 
ATOM     40  C   LIG d   1       4.552  -1.050  -1.795  0.00  0.00    -0.062 A 
ATOM     41  H   LIG d   1       6.039   0.433  -2.194  0.00  0.00     0.062 H 
ATOM     42  C   LIG d   1       3.884  -2.160  -2.276  0.00  0.00    -0.061 A 
ATOM     43  H   LIG d   1       4.320  -0.663  -0.814  0.00  0.00     0.062 H 
ATOM     44  C   LIG d   1       4.180  -2.655  -3.533  0.00  0.00    -0.058 A 
ATOM     45  H   LIG d   1       3.129  -2.641  -1.671  0.00  0.00     0.062 H 
ATOM     46  H   LIG d   1       3.658  -3.523  -3.909  0.00  0.00     0.062 H 
ENDBRANCH  28  36
BRANCH  28  47
ATOM     47  C   LIG d   1       6.184  -1.518  -6.476  0.00  0.00     0.052 C 
ATOM     48  O   LIG d   1       7.402  -1.514  -6.530  0.00  0.00    -0.549 OA
ATOM     49  O   LIG d   1       5.544  -0.665  -7.067  0.00  0.00    -0.549 OA
ENDBRANCH  28  47
ENDBRANCH  17  20
ENDBRANCH  14  17
BRANCH   1  50
ATOM     50  C   LIG d   1       8.189  -7.259  -6.016  0.00  0.00    -0.038 C 
ATOM     51  H   LIG d   1       8.076  -6.185  -6.162  0.00  0.00     0.028 H 
ATOM     52  H   LIG d   1       8.735  -7.444  -5.091  0.00  0.00     0.028 H 
ATOM     53  H   LIG d   1       8.740  -7.683  -6.855  0.00  0.00     0.028 H 
ENDBRANCH   1  50
BRANCH   9  54
ATOM     54  C   LIG d   1       3.425 -10.716  -3.629  0.00  0.00    -0.033 C 
ATOM     55  H   LIG d   1       3.019 -10.639  -2.621  0.00  0.00     0.028 H 
ATOM     56  H   LIG d   1       2.770 -10.192  -4.326  0.00  0.00     0.028 H 
ATOM     57  H   LIG d   1       3.493 -11.765  -3.915  0.00  0.00     0.028 H 
ENDBRANCH   9  54
BRANCH   5  58
ATOM     58  C   LIG d   1       8.998  -9.805  -0.964  0.00  0.00    -0.014 A 
ATOM     59  C   LIG d   1       9.636  -8.675  -1.473  0.00  0.00    -0.052 A 
ATOM     60  C   LIG d   1      10.910  -8.355  -1.051  0.00  0.00    -0.043 A 
ATOM     61  H   LIG d   1       9.133  -8.049  -2.195  0.00  0.00     0.062 H 
ATOM     62  C   LIG d   1      11.559  -9.161  -0.131  0.00  0.00     0.041 A 
ATOM     63  H   LIG d   1      11.403  -7.477  -1.441  0.00  0.00     0.063 H 
ATOM     64  C   LIG d   1      10.932 -10.287   0.374  0.00  0.00    -0.043 A 
ATOM     65 CL   LIG d   1      13.164  -8.757   0.392  0.00  0.00    -0.084 Cl
ATOM     66  C   LIG d   1       9.655 -10.612  -0.037  0.00  0.00    -0.052 A 
ATOM     67  H   LIG d   1      11.443 -10.911   1.092  0.00  0.00     0.063 H 
ATOM     68  H   LIG d   1       9.168 -11.491   0.357  0.00  0.00     0.062 H 
ENDBRANCH   5  58
TORSDOF 7
ENDMDL
MODEL 4
REMARK VINA RESULT:      -7.3      3.811     11.569
REMARK  7 active torsions:
REMARK  status: ('A' for Active; 'I' for Inactive)
REMARK    1  A    between atoms: C_1  and  C_2 
REMARK    2  A    between atoms: C_6  and  C_35 
REMARK    3  A    between atoms: C_10  and  C_34 
REMARK    4  A    between atoms: C_15  and  C_16 
REMARK    5  A    between atoms: C_16  and  C_17 
REMARK       I    between atoms: C_17  and  N_19 
REMARK    6  A    between atoms: C_22  and  C_25 
REMARK    7  A    between atoms: C_22  and  C_31 
ROOT
ATOM      1  C   LIG d   1       6.615  -2.583  -4.871  0.00  0.00    -0.029 A 
ATOM      2  C   LIG d   1       5.863  -3.555  -5.671  0.00  0.00     0.022 A 
ATOM      3  C   LIG d   1       5.925  -4.919  -5.381  0.00  0.00    -0.039 A 
ATOM      4  C   LIG d   1       5.202  -5.811  -6.155  0.00  0.00     0.029 A 
ATOM      5  C   LIG d   1       5.033  -7.277  -6.143  0.00  0.00     0.028 A 
ATOM      6  C   LIG d   1       4.191  -7.562  -7.161  0.00  0.00     0.101 A 
ATOM      7  O   LIG d   1       3.831  -6.430  -7.791  0.00  0.00    -0.462 OA
ATOM      8  C   LIG d   1       4.410  -5.351  -7.227  0.00  0.00     0.142 A 
ATOM      9  C   LIG d   1       4.353  -3.994  -7.510  0.00  0.00     0.035 A 
ATOM     10  C   LIG d   1       5.071  -3.093  -6.742  0.00  0.00     0.146 A 
ATOM     11  O   LIG d   1       5.018  -1.770  -7.014  0.00  0.00    -0.422 OA
ATOM     12  C   LIG d   1       5.704  -0.876  -6.285  0.00  0.00     0.341 A 
ATOM     13  O   LIG d   1       5.624   0.306  -6.568  0.00  0.00    -0.245 OA
ATOM     14  C   LIG d   1       6.511  -1.268  -5.196  0.00  0.00     0.049 A 
ATOM     15  H   LIG d   1       6.532  -5.275  -4.561  0.00  0.00     0.063 H 
ATOM     16  H   LIG d   1       3.858  -8.553  -7.429  0.00  0.00     0.104 H 
ENDROOT
BRANCH  14  17
ATOM     17  C   LIG d   1       7.261  -0.233  -4.398  0.00  0.00     0.056 C 
ATOM     18  H   LIG d   1       6.649   0.665  -4.302  0.00  0.00     0.041 H 
ATOM     19  H   LIG d   1       7.486  -0.628  -3.408  0.00  0.00     0.041 H 
BRANCH  17  20
ATOM     20  C   LIG d   1       8.546   0.111  -5.106  0.00  0.00     0.220 C 
ATOM     21  O   LIG d   1       9.010  -0.651  -5.927  0.00  0.00    -0.275 OA
ATOM     22  N   LIG d   1       9.181   1.267  -4.825  0.00  0.00    -0.301 N 
ATOM     23  C   LIG d   1      10.436   1.617  -5.506  0.00  0.00     0.016 C 
ATOM     24  C   LIG d   1       8.635   2.199  -3.829  0.00  0.00     0.016 C 
ATOM     25  C   LIG d   1      10.281   3.011  -6.132  0.00  0.00    -0.022 C 
ATOM     26  H   LIG d   1      11.253   1.626  -4.784  0.00  0.00     0.046 H 
ATOM     27  H   LIG d   1      10.643   0.885  -6.287  0.00  0.00     0.046 H 
ATOM     28  C   LIG d   1       9.855   4.005  -5.049  0.00  0.00     0.038 C 
ATOM     29  H   LIG d   1       9.522   2.979  -6.914  0.00  0.00     0.029 H 
ATOM     30  H   LIG d   1      11.232   3.324  -6.560  0.00  0.00     0.029 H 
ATOM     31  C   LIG d   1       8.504   3.584  -4.469  0.00  0.00    -0.022 C 
ATOM     32  H   LIG d   1       7.762   3.547  -5.267  0.00  0.00     0.029 H 
ATOM     33  H   LIG d   1       8.190   4.305  -3.715  0.00  0.00     0.029 H 
ATOM     34  H   LIG d   1       7.655   1.852  -3.503  0.00  0.00     0.046 H 
ATOM     35  H   LIG d   1       9.308   2.255  -2.973  0.00  0.00     0.046 H 
BRANCH  28  36
ATOM     36  C   LIG d   1       9.737   5.382  -5.649  0.00  0.00    -0.036 A 
ATOM     37  C   LIG d   1      10.037   5.582  -6.984  0.00  0.00    -0.058 A 
ATOM     38  C   LIG d   1       9.924   6.845  -7.536  0.00  0.00    -0.061 A 
ATOM     39  H   LIG d   1      10.357   4.752  -7.596  0.00  0.00     0.062 H 
ATOM     40  C   LIG d   1       9.519   7.908  -6.751  0.00  0.00    -0.062 A 
ATOM     41  H   LIG d   1      10.154   7.000  -8.579  0.00  0.00     0.062 H 
ATOM     42  C   LIG d   1       9.224   7.709  -5.416  0.00  0.00    -0.061 A 
ATOM     43  H   LIG d   1       9.433   8.895  -7.182  0.00  0.00     0.062 H 
ATOM     44  C   LIG d   1       9.333   6.445  -4.864  0.00  0.00    -0.058 A 
ATOM     45  H   LIG d   1       8.907   8.540  -4.802  0.00  0.00     0.062 H 
ATOM     46  H   LIG d   1       9.102   6.290  -3.820  0.00  0.00     0.062 H 
ENDBRANCH  28  36
BRANCH  28  47
ATOM     47  C   LIG d   1      10.889   4.024  -3.951  0.00  0.00     0.052 C 
ATOM     48  O   LIG d   1      10.538   4.014  -2.783  0.00  0.00    -0.549 OA
ATOM     49  O   LIG d   1      12.075   4.051  -4.231  0.00  0.00    -0.549 OA
ENDBRANCH  28  47
ENDBRANCH  17  20
ENDBRANCH  14  17
BRANCH   1  50
ATOM     50  C   LIG d   1       7.474  -3.029  -3.718  0.00  0.00    -0.038 C 
ATOM     51  H   LIG d   1       6.913  -3.726  -3.095  0.00  0.00     0.028 H 
ATOM     52  H   LIG d   1       8.368  -3.522  -4.099  0.00  0.00     0.028 H 
ATOM     53  H   LIG d   1       7.763  -2.163  -3.122  0.00  0.00     0.028 H 
ENDBRANCH   1  50
BRANCH   9  54
ATOM     54  C   LIG d   1       3.507  -3.500  -8.655  0.00  0.00    -0.033 C 
ATOM     55  H   LIG d   1       4.152  -3.198  -9.480  0.00  0.00     0.028 H 
ATOM     56  H   LIG d   1       2.843  -4.300  -8.986  0.00  0.00     0.028 H 
ATOM     57  H   LIG d   1       2.912  -2.648  -8.327  0.00  0.00     0.028 H 
ENDBRANCH   9  54
BRANCH   5  58
ATOM     58  C   LIG d   1       5.658  -8.240  -5.204  0.00  0.00    -0.014 A 
ATOM     59  C   LIG d   1       7.035  -8.209  -4.985  0.00  0.00    -0.052 A 
ATOM     60  C   LIG d   1       7.611  -9.103  -4.106  0.00  0.00    -0.043 A 
ATOM     61  H   LIG d   1       7.648  -7.485  -5.500  0.00  0.00     0.062 H 
ATOM     62  C   LIG d   1       6.826 -10.036  -3.451  0.00  0.00     0.041 A 
ATOM     63  H   LIG d   1       8.677  -9.077  -3.932  0.00  0.00     0.063 H 
ATOM     64  C   LIG d   1       5.459 -10.074  -3.668  0.00  0.00    -0.043 A 
ATOM     65 CL   LIG d   1       7.558 -11.162  -2.351  0.00  0.00    -0.084 Cl
ATOM     66  C   LIG d   1       4.872  -9.180  -4.541  0.00  0.00    -0.052 A 
ATOM     67  H   LIG d   1       4.852 -10.804  -3.154  0.00  0.00     0.063 H 
ATOM     68  H   LIG d   1       3.807  -9.211  -4.710  0.00  0.00     0.062 H 
ENDBRANCH   5  58
TORSDOF 7
ENDMDL
MODEL 5
REMARK VINA RESULT:      -7.2      3.509     11.068
REMARK  7 active torsions:
REMARK  status: ('A' for Active; 'I' for Inactive)
REMARK    1  A    between atoms: C_1  and  C_2 
REMARK    2  A    between atoms: C_6  and  C_35 
REMARK    3  A    between atoms: C_10  and  C_34 
REMARK    4  A    between atoms: C_15  and  C_16 
REMARK    5  A    between atoms: C_16  and  C_17 
REMARK       I    between atoms: C_17  and  N_19 
REMARK    6  A    between atoms: C_22  and  C_25 
REMARK    7  A    between atoms: C_22  and  C_31 
ROOT
ATOM      1  C   LIG d   1       8.642   0.454  -5.298  0.00  0.00    -0.029 A 
ATOM      2  C   LIG d   1       7.455  -0.083  -4.626  0.00  0.00     0.022 A 
ATOM      3  C   LIG d   1       6.961  -1.347  -4.951  0.00  0.00    -0.039 A 
ATOM      4  C   LIG d   1       5.838  -1.826  -4.296  0.00  0.00     0.029 A 
ATOM      5  C   LIG d   1       5.058  -3.077  -4.377  0.00  0.00     0.028 A 
ATOM      6  C   LIG d   1       4.061  -2.951  -3.474  0.00  0.00     0.101 A 
ATOM      7  O   LIG d   1       4.149  -1.762  -2.853  0.00  0.00    -0.462 OA
ATOM      8  C   LIG d   1       5.198  -1.049  -3.310  0.00  0.00     0.142 A 
ATOM      9  C   LIG d   1       5.695   0.207  -2.991  0.00  0.00     0.035 A 
ATOM     10  C   LIG d   1       6.816   0.696  -3.639  0.00  0.00     0.146 A 
ATOM     11  O   LIG d   1       7.304   1.918  -3.332  0.00  0.00    -0.422 OA
ATOM     12  C   LIG d   1       8.390   2.415  -3.944  0.00  0.00     0.341 A 
ATOM     13  O   LIG d   1       8.793   3.521  -3.633  0.00  0.00    -0.245 OA
ATOM     14  C   LIG d   1       9.081   1.687  -4.937  0.00  0.00     0.049 A 
ATOM     15  H   LIG d   1       7.448  -1.945  -5.707  0.00  0.00     0.063 H 
ATOM     16  H   LIG d   1       3.305  -3.697  -3.280  0.00  0.00     0.104 H 
ENDROOT
BRANCH  14  17
ATOM     17  C   LIG d   1      10.300   2.277  -5.596  0.00  0.00     0.056 C 
ATOM     18  H   LIG d   1      10.942   2.726  -4.838  0.00  0.00     0.041 H 
ATOM     19  H   LIG d   1      10.848   1.493  -6.119  0.00  0.00     0.041 H 
BRANCH  17  20
ATOM     20  C   LIG d   1       9.874   3.334  -6.582  0.00  0.00     0.220 C 
ATOM     21  O   LIG d   1       9.053   3.074  -7.435  0.00  0.00    -0.275 OA
ATOM     22  N   LIG d   1      10.407   4.572  -6.516  0.00  0.00    -0.301 N 
ATOM     23  C   LIG d   1      10.003   5.613  -7.471  0.00  0.00     0.016 C 
ATOM     24  C   LIG d   1      11.407   4.902  -5.492  0.00  0.00     0.016 C 
ATOM     25  C   LIG d   1       9.546   6.849  -6.681  0.00  0.00    -0.022 C 
ATOM     26  H   LIG d   1      10.849   5.874  -8.106  0.00  0.00     0.046 H 
ATOM     27  H   LIG d   1       9.180   5.246  -8.085  0.00  0.00     0.046 H 
ATOM     28  C   LIG d   1      10.660   7.274  -5.721  0.00  0.00     0.038 C 
ATOM     29  H   LIG d   1       8.648   6.608  -6.111  0.00  0.00     0.029 H 
ATOM     30  H   LIG d   1       9.331   7.663  -7.372  0.00  0.00     0.029 H 
ATOM     31  C   LIG d   1      10.940   6.144  -4.728  0.00  0.00    -0.022 C 
ATOM     32  H   LIG d   1      10.028   5.910  -4.177  0.00  0.00     0.029 H 
ATOM     33  H   LIG d   1      11.716   6.456  -4.030  0.00  0.00     0.029 H 
ATOM     34  H   LIG d   1      11.513   4.066  -4.801  0.00  0.00     0.046 H 
ATOM     35  H   LIG d   1      12.366   5.106  -5.970  0.00  0.00     0.046 H 
BRANCH  28  36
ATOM     36  C   LIG d   1      10.232   8.508  -4.970  0.00  0.00    -0.036 A 
ATOM     37  C   LIG d   1      10.510   8.626  -3.620  0.00  0.00    -0.058 A 
ATOM     38  C   LIG d   1      10.122   9.760  -2.931  0.00  0.00    -0.061 A 
ATOM     39  H   LIG d   1      11.032   7.833  -3.105  0.00  0.00     0.062 H 
ATOM     40  C   LIG d   1       9.450  10.773  -3.590  0.00  0.00    -0.062 A 
ATOM     41  H   LIG d   1      10.343   9.854  -1.879  0.00  0.00     0.062 H 
ATOM     42  C   LIG d   1       9.168  10.652  -4.937  0.00  0.00    -0.061 A 
ATOM     43  H   LIG d   1       9.145  11.657  -3.051  0.00  0.00     0.062 H 
ATOM     44  C   LIG d   1       9.560   9.520  -5.627  0.00  0.00    -0.058 A 
ATOM     45  H   LIG d   1       8.643  11.444  -5.452  0.00  0.00     0.062 H 
ATOM     46  H   LIG d   1       9.339   9.426  -6.681  0.00  0.00     0.062 H 
ENDBRANCH  28  36
BRANCH  28  47
ATOM     47  C   LIG d   1      11.911   7.574  -6.506  0.00  0.00     0.052 C 
ATOM     48  O   LIG d   1      13.002   7.503  -5.966  0.00  0.00    -0.549 OA
ATOM     49  O   LIG d   1      11.832   7.889  -7.681  0.00  0.00    -0.549 OA
ENDBRANCH  28  47
ENDBRANCH  17  20
ENDBRANCH  14  17
BRANCH   1  50
ATOM     50  C   LIG d   1       9.357  -0.342  -6.359  0.00  0.00    -0.038 C 
ATOM     51  H   LIG d   1       9.463   0.264  -7.259  0.00  0.00     0.028 H 
ATOM     52  H   LIG d   1      10.343  -0.629  -5.996  0.00  0.00     0.028 H 
ATOM     53  H   LIG d   1       8.780  -1.237  -6.592  0.00  0.00     0.028 H 
ENDBRANCH   1  50
BRANCH   9  54
ATOM     54  C   LIG d   1       5.012   1.040  -1.937  0.00  0.00    -0.033 C 
ATOM     55  H   LIG d   1       5.116   0.555  -0.967  0.00  0.00     0.028 H 
ATOM     56  H   LIG d   1       5.473   2.027  -1.901  0.00  0.00     0.028 H 
ATOM     57  H   LIG d   1       3.955   1.141  -2.181  0.00  0.00     0.028 H 
ENDBRANCH   9  54
BRANCH   5  58
ATOM     58  C   LIG d   1       5.317  -4.234  -5.268  0.00  0.00    -0.014 A 
ATOM     59  C   LIG d   1       4.293  -4.748  -6.062  0.00  0.00    -0.052 A 
ATOM     60  C   LIG d   1       4.541  -5.821  -6.894  0.00  0.00    -0.043 A 
ATOM     61  H   LIG d   1       3.308  -4.306  -6.028  0.00  0.00     0.062 H 
ATOM     62  C   LIG d   1       5.801  -6.393  -6.933  0.00  0.00     0.041 A 
ATOM     63  H   LIG d   1       3.749  -6.217  -7.513  0.00  0.00     0.063 H 
ATOM     64  C   LIG d   1       6.820  -5.889  -6.143  0.00  0.00    -0.043 A 
ATOM     65 CL   LIG d   1       6.104  -7.746  -7.976  0.00  0.00    -0.084 Cl
ATOM     66  C   LIG d   1       6.584  -4.812  -5.312  0.00  0.00    -0.052 A 
ATOM     67  H   LIG d   1       7.801  -6.339  -6.178  0.00  0.00     0.063 H 
ATOM     68  H   LIG d   1       7.380  -4.420  -4.696  0.00  0.00     0.062 H 
ENDBRANCH   5  58
TORSDOF 7
ENDMDL
MODEL 6
REMARK VINA RESULT:      -7.2      4.085     10.843
REMARK  7 active torsions:
REMARK  status: ('A' for Active; 'I' for Inactive)
REMARK    1  A    between atoms: C_1  and  C_2 
REMARK    2  A    between atoms: C_6  and  C_35 
REMARK    3  A    between atoms: C_10  and  C_34 
REMARK    4  A    between atoms: C_15  and  C_16 
REMARK    5  A    between atoms: C_16  and  C_17 
REMARK       I    between atoms: C_17  and  N_19 
REMARK    6  A    between atoms: C_22  and  C_25 
REMARK    7  A    between atoms: C_22  and  C_31 
ROOT
ATOM      1  C   LIG d   1       8.915   2.057  -6.411  0.00  0.00    -0.029 A 
ATOM      2  C   LIG d   1       7.772   1.167  -6.186  0.00  0.00     0.022 A 
ATOM      3  C   LIG d   1       6.999   0.713  -7.256  0.00  0.00    -0.039 A 
ATOM      4  C   LIG d   1       5.926  -0.129  -7.010  0.00  0.00     0.029 A 
ATOM      5  C   LIG d   1       4.920  -0.784  -7.867  0.00  0.00     0.028 A 
ATOM      6  C   LIG d   1       4.124  -1.488  -7.031  0.00  0.00     0.101 A 
ATOM      7  O   LIG d   1       4.536  -1.332  -5.762  0.00  0.00    -0.462 OA
ATOM      8  C   LIG d   1       5.614  -0.524  -5.694  0.00  0.00     0.142 A 
ATOM      9  C   LIG d   1       6.387  -0.070  -4.635  0.00  0.00     0.035 A 
ATOM     10  C   LIG d   1       7.461   0.771  -4.869  0.00  0.00     0.146 A 
ATOM     11  O   LIG d   1       8.217   1.216  -3.840  0.00  0.00    -0.422 OA
ATOM     12  C   LIG d   1       9.264   2.031  -4.040  0.00  0.00     0.341 A 
ATOM     13  O   LIG d   1       9.915   2.406  -3.082  0.00  0.00    -0.245 OA
ATOM     14  C   LIG d   1       9.634   2.462  -5.332  0.00  0.00     0.049 A 
ATOM     15  H   LIG d   1       7.235   1.015  -8.266  0.00  0.00     0.063 H 
ATOM     16  H   LIG d   1       3.280  -2.088  -7.340  0.00  0.00     0.104 H 
ENDROOT
BRANCH  14  17
ATOM     17  C   LIG d   1      10.821   3.372  -5.515  0.00  0.00     0.056 C 
ATOM     18  H   LIG d   1      11.614   3.077  -4.829  0.00  0.00     0.041 H 
ATOM     19  H   LIG d   1      11.181   3.300  -6.541  0.00  0.00     0.041 H 
BRANCH  17  20
ATOM     20  C   LIG d   1      10.411   4.793  -5.226  0.00  0.00     0.220 C 
ATOM     21  O   LIG d   1       9.481   5.291  -5.822  0.00  0.00    -0.275 OA
ATOM     22  N   LIG d   1      11.082   5.513  -4.303  0.00  0.00    -0.301 N 
ATOM     23  C   LIG d   1      10.696   6.900  -4.010  0.00  0.00     0.016 C 
ATOM     24  C   LIG d   1      12.216   4.927  -3.576  0.00  0.00     0.016 C 
ATOM     25  C   LIG d   1      10.465   7.034  -2.497  0.00  0.00    -0.022 C 
ATOM     26  H   LIG d   1      11.493   7.575  -4.322  0.00  0.00     0.046 H 
ATOM     27  H   LIG d   1       9.777   7.144  -4.544  0.00  0.00     0.046 H 
ATOM     28  C   LIG d   1      11.715   6.559  -1.752  0.00  0.00     0.038 C 
ATOM     29  H   LIG d   1       9.611   6.423  -2.201  0.00  0.00     0.029 H 
ATOM     30  H   LIG d   1      10.269   8.077  -2.250  0.00  0.00     0.029 H 
ATOM     31  C   LIG d   1      11.972   5.085  -2.072  0.00  0.00    -0.022 C 
ATOM     32  H   LIG d   1      11.104   4.493  -1.780  0.00  0.00     0.029 H 
ATOM     33  H   LIG d   1      12.848   4.741  -1.523  0.00  0.00     0.029 H 
ATOM     34  H   LIG d   1      12.301   3.869  -3.823  0.00  0.00     0.046 H 
ATOM     35  H   LIG d   1      13.135   5.444  -3.853  0.00  0.00     0.046 H 
BRANCH  28  36
ATOM     36  C   LIG d   1      11.509   6.722  -0.269  0.00  0.00    -0.036 A 
ATOM     37  C   LIG d   1      11.582   7.979   0.304  0.00  0.00    -0.058 A 
ATOM     38  C   LIG d   1      11.389   8.130   1.665  0.00  0.00    -0.061 A 
ATOM     39  H   LIG d   1      11.788   8.842  -0.311  0.00  0.00     0.062 H 
ATOM     40  C   LIG d   1      11.129   7.023   2.453  0.00  0.00    -0.062 A 
ATOM     41  H   LIG d   1      11.442   9.111   2.113  0.00  0.00     0.062 H 
ATOM     42  C   LIG d   1      11.061   5.768   1.881  0.00  0.00    -0.061 A 
ATOM     43  H   LIG d   1      10.981   7.142   3.516  0.00  0.00     0.062 H 
ATOM     44  C   LIG d   1      11.250   5.617   0.519  0.00  0.00    -0.058 A 
ATOM     45  H   LIG d   1      10.858   4.903   2.497  0.00  0.00     0.062 H 
ATOM     46  H   LIG d   1      11.196   4.635   0.072  0.00  0.00     0.062 H 
ENDBRANCH  28  36
BRANCH  28  47
ATOM     47  C   LIG d   1      12.901   7.382  -2.187  0.00  0.00     0.052 C 
ATOM     48  O   LIG d   1      14.032   6.965  -2.005  0.00  0.00    -0.549 OA
ATOM     49  O   LIG d   1      12.729   8.465  -2.720  0.00  0.00    -0.549 OA
ENDBRANCH  28  47
ENDBRANCH  17  20
ENDBRANCH  14  17
BRANCH   1  50
ATOM     50  C   LIG d   1       9.284   2.507  -7.800  0.00  0.00    -0.038 C 
ATOM     51  H   LIG d   1       9.861   1.725  -8.294  0.00  0.00     0.028 H 
ATOM     52  H   LIG d   1       8.378   2.705  -8.372  0.00  0.00     0.028 H 
ATOM     53  H   LIG d   1       9.883   3.416  -7.741  0.00  0.00     0.028 H 
ENDBRANCH   1  50
BRANCH   9  54
ATOM     54  C   LIG d   1       6.054  -0.493  -3.227  0.00  0.00    -0.033 C 
ATOM     55  H   LIG d   1       6.030  -1.581  -3.170  0.00  0.00     0.028 H 
ATOM     56  H   LIG d   1       6.814  -0.110  -2.545  0.00  0.00     0.028 H 
ATOM     57  H   LIG d   1       5.081  -0.092  -2.947  0.00  0.00     0.028 H 
ENDBRANCH   9  54
BRANCH   5  58
ATOM     58  C   LIG d   1       4.806  -0.690  -9.343  0.00  0.00    -0.014 A 
ATOM     59  C   LIG d   1       5.310  -1.709 -10.150  0.00  0.00    -0.052 A 
ATOM     60  C   LIG d   1       5.196  -1.620 -11.522  0.00  0.00    -0.043 A 
ATOM     61  H   LIG d   1       5.786  -2.568  -9.701  0.00  0.00     0.062 H 
ATOM     62  C   LIG d   1       4.592  -0.515 -12.098  0.00  0.00     0.041 A 
ATOM     63  H   LIG d   1       5.582  -2.411 -12.148  0.00  0.00     0.063 H 
ATOM     64  C   LIG d   1       4.094   0.502 -11.301  0.00  0.00    -0.043 A 
ATOM     65 CL   LIG d   1       4.457  -0.405 -13.824  0.00  0.00    -0.084 Cl
ATOM     66  C   LIG d   1       4.197   0.419  -9.927  0.00  0.00    -0.052 A 
ATOM     67  H   LIG d   1       3.623   1.361 -11.756  0.00  0.00     0.063 H 
ATOM     68  H   LIG d   1       3.809   1.213  -9.307  0.00  0.00     0.062 H 
ENDBRANCH   5  58
TORSDOF 7
ENDMDL
MODEL 7
REMARK VINA RESULT:      -7.2      2.401      3.275
REMARK  7 active torsions:
REMARK  status: ('A' for Active; 'I' for Inactive)
REMARK    1  A    between atoms: C_1  and  C_2 
REMARK    2  A    between atoms: C_6  and  C_35 
REMARK    3  A    between atoms: C_10  and  C_34 
REMARK    4  A    between atoms: C_15  and  C_16 
REMARK    5  A    between atoms: C_16  and  C_17 
REMARK       I    between atoms: C_17  and  N_19 
REMARK    6  A    between atoms: C_22  and  C_25 
REMARK    7  A    between atoms: C_22  and  C_31 
ROOT
ATOM      1  C   LIG d   1       9.403   3.747  -4.807  0.00  0.00    -0.029 A 
ATOM      2  C   LIG d   1       9.569   4.844  -5.766  0.00  0.00     0.022 A 
ATOM      3  C   LIG d   1       9.837   6.142  -5.327  0.00  0.00    -0.039 A 
ATOM      4  C   LIG d   1       9.991   7.156  -6.259  0.00  0.00     0.029 A 
ATOM      5  C   LIG d   1      10.271   8.602  -6.164  0.00  0.00     0.028 A 
ATOM      6  C   LIG d   1      10.302   9.057  -7.437  0.00  0.00     0.101 A 
ATOM      7  O   LIG d   1      10.072   8.047  -8.293  0.00  0.00    -0.462 OA
ATOM      8  C   LIG d   1       9.878   6.884  -7.637  0.00  0.00     0.142 A 
ATOM      9  C   LIG d   1       9.611   5.592  -8.067  0.00  0.00     0.035 A 
ATOM     10  C   LIG d   1       9.457   4.571  -7.145  0.00  0.00     0.146 A 
ATOM     11  O   LIG d   1       9.197   3.311  -7.559  0.00  0.00    -0.422 OA
ATOM     12  C   LIG d   1       9.044   2.303  -6.685  0.00  0.00     0.341 A 
ATOM     13  O   LIG d   1       8.812   1.184  -7.106  0.00  0.00    -0.245 OA
ATOM     14  C   LIG d   1       9.149   2.505  -5.293  0.00  0.00     0.049 A 
ATOM     15  H   LIG d   1       9.923   6.354  -4.271  0.00  0.00     0.063 H 
ATOM     16  H   LIG d   1      10.485  10.081  -7.722  0.00  0.00     0.104 H 
ENDROOT
BRANCH  14  17
ATOM     17  C   LIG d   1       8.976   1.346  -4.346  0.00  0.00     0.056 C 
ATOM     18  H   LIG d   1       9.318   0.429  -4.827  0.00  0.00     0.041 H 
ATOM     19  H   LIG d   1       9.561   1.523  -3.443  0.00  0.00     0.041 H 
BRANCH  17  20
ATOM     20  C   LIG d   1       7.520   1.208  -3.982  0.00  0.00     0.220 C 
ATOM     21  O   LIG d   1       6.941   2.123  -3.438  0.00  0.00    -0.275 OA
ATOM     22  N   LIG d   1       6.861   0.065  -4.263  0.00  0.00    -0.301 N 
ATOM     23  C   LIG d   1       5.441  -0.085  -3.914  0.00  0.00     0.016 C 
ATOM     24  C   LIG d   1       7.550  -1.055  -4.917  0.00  0.00     0.016 C 
ATOM     25  C   LIG d   1       4.670  -0.501  -5.176  0.00  0.00    -0.022 C 
ATOM     26  H   LIG d   1       5.333  -0.851  -3.146  0.00  0.00     0.046 H 
ATOM     27  H   LIG d   1       5.054   0.865  -3.544  0.00  0.00     0.046 H 
ATOM     28  C   LIG d   1       5.309  -1.761  -5.765  0.00  0.00     0.038 C 
ATOM     29  H   LIG d   1       4.708   0.304  -5.911  0.00  0.00     0.029 H 
ATOM     30  H   LIG d   1       3.632  -0.707  -4.915  0.00  0.00     0.029 H 
ATOM     31  C   LIG d   1       6.757  -1.463  -6.161  0.00  0.00    -0.022 C 
ATOM     32  H   LIG d   1       6.775  -0.650  -6.887  0.00  0.00     0.029 H 
ATOM     33  H   LIG d   1       7.204  -2.354  -6.603  0.00  0.00     0.029 H 
ATOM     34  H   LIG d   1       8.554  -0.747  -5.208  0.00  0.00     0.046 H 
ATOM     35  H   LIG d   1       7.610  -1.899  -4.229  0.00  0.00     0.046 H 
BRANCH  28  36
ATOM     36  C   LIG d   1       4.535  -2.195  -6.982  0.00  0.00    -0.036 A 
ATOM     37  C   LIG d   1       3.784  -1.274  -7.688  0.00  0.00    -0.058 A 
ATOM     38  C   LIG d   1       3.076  -1.672  -8.808  0.00  0.00    -0.061 A 
ATOM     39  H   LIG d   1       3.752  -0.243  -7.367  0.00  0.00     0.062 H 
ATOM     40  C   LIG d   1       3.114  -2.992  -9.216  0.00  0.00    -0.062 A 
ATOM     41  H   LIG d   1       2.494  -0.952  -9.363  0.00  0.00     0.062 H 
ATOM     42  C   LIG d   1       3.860  -3.914  -8.507  0.00  0.00    -0.061 A 
ATOM     43  H   LIG d   1       2.560  -3.303 -10.089  0.00  0.00     0.062 H 
ATOM     44  C   LIG d   1       4.571  -3.515  -7.390  0.00  0.00    -0.058 A 
ATOM     45  H   LIG d   1       3.890  -4.946  -8.826  0.00  0.00     0.062 H 
ATOM     46  H   LIG d   1       5.155  -4.236  -6.835  0.00  0.00     0.062 H 
ENDBRANCH  28  36
BRANCH  28  47
ATOM     47  C   LIG d   1       5.287  -2.863  -4.736  0.00  0.00     0.052 C 
ATOM     48  O   LIG d   1       6.267  -3.570  -4.579  0.00  0.00    -0.549 OA
ATOM     49  O   LIG d   1       4.287  -3.048  -4.063  0.00  0.00    -0.549 OA
ENDBRANCH  28  47
ENDBRANCH  17  20
ENDBRANCH  14  17
BRANCH   1  50
ATOM     50  C   LIG d   1       9.514   3.992  -3.325  0.00  0.00    -0.038 C 
ATOM     51  H   LIG d   1       9.577   5.064  -3.137  0.00  0.00     0.028 H 
ATOM     52  H   LIG d   1       8.636   3.586  -2.822  0.00  0.00     0.028 H 
ATOM     53  H   LIG d   1      10.410   3.503  -2.943  0.00  0.00     0.028 H 
ENDBRANCH   1  50
BRANCH   9  54
ATOM     54  C   LIG d   1       9.491   5.300  -9.540  0.00  0.00    -0.033 C 
ATOM     55  H   LIG d   1      10.365   4.741  -9.873  0.00  0.00     0.028 H 
ATOM     56  H   LIG d   1       8.591   4.710  -9.720  0.00  0.00     0.028 H 
ATOM     57  H   LIG d   1       9.426   6.237 -10.093  0.00  0.00     0.028 H 
ENDBRANCH   9  54
BRANCH   5  58
ATOM     58  C   LIG d   1      10.477   9.392  -4.927  0.00  0.00    -0.014 A 
ATOM     59  C   LIG d   1       9.568  10.390  -4.575  0.00  0.00    -0.052 A 
ATOM     60  C   LIG d   1       9.761  11.118  -3.419  0.00  0.00    -0.043 A 
ATOM     61  H   LIG d   1       8.714  10.590  -5.205  0.00  0.00     0.062 H 
ATOM     62  C   LIG d   1      10.860  10.867  -2.615  0.00  0.00     0.041 A 
ATOM     63  H   LIG d   1       9.055  11.888  -3.143  0.00  0.00     0.063 H 
ATOM     64  C   LIG d   1      11.767   9.881  -2.962  0.00  0.00    -0.043 A 
ATOM     65 CL   LIG d   1      11.099  11.791  -1.166  0.00  0.00    -0.084 Cl
ATOM     66  C   LIG d   1      11.580   9.142  -4.113  0.00  0.00    -0.052 A 
ATOM     67  H   LIG d   1      12.621   9.689  -2.331  0.00  0.00     0.063 H 
ATOM     68  H   LIG d   1      12.289   8.374  -4.383  0.00  0.00     0.062 H 
ENDBRANCH   5  58
TORSDOF 7
ENDMDL
MODEL 8
REMARK VINA RESULT:      -7.2      3.757      6.097
REMARK  7 active torsions:
REMARK  status: ('A' for Active; 'I' for Inactive)
REMARK    1  A    between atoms: C_1  and  C_2 
REMARK    2  A    between atoms: C_6  and  C_35 
REMARK    3  A    between atoms: C_10  and  C_34 
REMARK    4  A    between atoms: C_15  and  C_16 
REMARK    5  A    between atoms: C_16  and  C_17 
REMARK       I    between atoms: C_17  and  N_19 
REMARK    6  A    between atoms: C_22  and  C_25 
REMARK    7  A    between atoms: C_22  and  C_31 
ROOT
ATOM      1  C   LIG d   1       9.261   2.908  -6.286  0.00  0.00    -0.029 A 
ATOM      2  C   LIG d   1       9.547   4.280  -6.717  0.00  0.00     0.022 A 
ATOM      3  C   LIG d   1       9.592   4.608  -8.073  0.00  0.00    -0.039 A 
ATOM      4  C   LIG d   1       9.864   5.914  -8.447  0.00  0.00     0.029 A 
ATOM      5  C   LIG d   1       9.988   6.604  -9.746  0.00  0.00     0.028 A 
ATOM      6  C   LIG d   1      10.269   7.894  -9.454  0.00  0.00     0.101 A 
ATOM      7  O   LIG d   1      10.328   8.063  -8.122  0.00  0.00    -0.462 OA
ATOM      8  C   LIG d   1      10.093   6.905  -7.472  0.00  0.00     0.142 A 
ATOM      9  C   LIG d   1      10.046   6.572  -6.125  0.00  0.00     0.035 A 
ATOM     10  C   LIG d   1       9.775   5.271  -5.740  0.00  0.00     0.146 A 
ATOM     11  O   LIG d   1       9.729   4.942  -4.430  0.00  0.00    -0.422 OA
ATOM     12  C   LIG d   1       9.467   3.688  -4.030  0.00  0.00     0.341 A 
ATOM     13  O   LIG d   1       9.435   3.440  -2.838  0.00  0.00    -0.245 OA
ATOM     14  C   LIG d   1       9.224   2.649  -4.954  0.00  0.00     0.049 A 
ATOM     15  H   LIG d   1       9.418   3.851  -8.823  0.00  0.00     0.063 H 
ATOM     16  H   LIG d   1      10.422   8.674 -10.185  0.00  0.00     0.104 H 
ENDROOT
BRANCH  14  17
ATOM     17  C   LIG d   1       8.928   1.255  -4.464  0.00  0.00     0.056 C 
ATOM     18  H   LIG d   1       9.162   0.537  -5.249  0.00  0.00     0.041 H 
ATOM     19  H   LIG d   1       9.533   1.042  -3.583  0.00  0.00     0.041 H 
BRANCH  17  20
ATOM     20  C   LIG d   1       7.468   1.150  -4.107  0.00  0.00     0.220 C 
ATOM     21  O   LIG d   1       6.907   2.076  -3.562  0.00  0.00    -0.275 OA
ATOM     22  N   LIG d   1       6.784   0.023  -4.393  0.00  0.00    -0.301 N 
ATOM     23  C   LIG d   1       5.359  -0.096  -4.051  0.00  0.00     0.016 C 
ATOM     24  C   LIG d   1       7.450  -1.111  -5.047  0.00  0.00     0.016 C 
ATOM     25  C   LIG d   1       4.584  -0.491  -5.317  0.00  0.00    -0.022 C 
ATOM     26  H   LIG d   1       5.230  -0.861  -3.286  0.00  0.00     0.046 H 
ATOM     27  H   LIG d   1       4.992   0.861  -3.680  0.00  0.00     0.046 H 
ATOM     28  C   LIG d   1       5.197  -1.763  -5.907  0.00  0.00     0.038 C 
ATOM     29  H   LIG d   1       4.644   0.314  -6.049  0.00  0.00     0.029 H 
ATOM     30  H   LIG d   1       3.541  -0.675  -5.061  0.00  0.00     0.029 H 
ATOM     31  C   LIG d   1       6.653  -1.498  -6.296  0.00  0.00    -0.022 C 
ATOM     32  H   LIG d   1       6.692  -0.683  -7.020  0.00  0.00     0.029 H 
ATOM     33  H   LIG d   1       7.081  -2.397  -6.738  0.00  0.00     0.029 H 
ATOM     34  H   LIG d   1       8.462  -0.825  -5.333  0.00  0.00     0.046 H 
ATOM     35  H   LIG d   1       7.488  -1.958  -4.362  0.00  0.00     0.046 H 
BRANCH  28  36
ATOM     36  C   LIG d   1       4.418  -2.177  -7.128  0.00  0.00    -0.036 A 
ATOM     37  C   LIG d   1       4.449  -3.493  -7.554  0.00  0.00    -0.058 A 
ATOM     38  C   LIG d   1       3.731  -3.874  -8.672  0.00  0.00    -0.061 A 
ATOM     39  H   LIG d   1       5.033  -4.222  -7.013  0.00  0.00     0.062 H 
ATOM     40  C   LIG d   1       2.987  -2.939  -9.368  0.00  0.00    -0.062 A 
ATOM     41  H   LIG d   1       3.751  -4.901  -9.003  0.00  0.00     0.062 H 
ATOM     42  C   LIG d   1       2.960  -1.624  -8.945  0.00  0.00    -0.061 A 
ATOM     43  H   LIG d   1       2.428  -3.237 -10.243  0.00  0.00     0.062 H 
ATOM     44  C   LIG d   1       3.675  -1.243  -7.824  0.00  0.00    -0.058 A 
ATOM     45  H   LIG d   1       2.379  -0.893  -9.489  0.00  0.00     0.062 H 
ATOM     46  H   LIG d   1       3.654  -0.215  -7.493  0.00  0.00     0.062 H 
ENDBRANCH  28  36
BRANCH  28  47
ATOM     47  C   LIG d   1       5.146  -2.868  -4.881  0.00  0.00     0.052 C 
ATOM     48  O   LIG d   1       6.096  -3.618  -4.745  0.00  0.00    -0.549 OA
ATOM     49  O   LIG d   1       4.152  -3.011  -4.190  0.00  0.00    -0.549 OA
ENDBRANCH  28  47
ENDBRANCH  17  20
ENDBRANCH  14  17
BRANCH   1  50
ATOM     50  C   LIG d   1       9.011   1.817  -7.294  0.00  0.00    -0.038 C 
ATOM     51  H   LIG d   1       9.352   0.863  -6.890  0.00  0.00     0.028 H 
ATOM     52  H   LIG d   1       7.945   1.758  -7.510  0.00  0.00     0.028 H 
ATOM     53  H   LIG d   1       9.556   2.038  -8.212  0.00  0.00     0.028 H 
ENDBRANCH   1  50
BRANCH   9  54
ATOM     54  C   LIG d   1      10.291   7.631  -5.081  0.00  0.00    -0.033 C 
ATOM     55  H   LIG d   1       9.866   8.577  -5.416  0.00  0.00     0.028 H 
ATOM     56  H   LIG d   1       9.820   7.331  -4.144  0.00  0.00     0.028 H 
ATOM     57  H   LIG d   1      11.363   7.748  -4.926  0.00  0.00     0.028 H 
ENDBRANCH   9  54
BRANCH   5  58
ATOM     58  C   LIG d   1       9.837   6.005 -11.093  0.00  0.00    -0.014 A 
ATOM     59  C   LIG d   1       8.995   6.599 -12.033  0.00  0.00    -0.052 A 
ATOM     60  C   LIG d   1       8.863   6.041 -13.287  0.00  0.00    -0.043 A 
ATOM     61  H   LIG d   1       8.451   7.497 -11.780  0.00  0.00     0.062 H 
ATOM     62  C   LIG d   1       9.555   4.886 -13.610  0.00  0.00     0.041 A 
ATOM     63  H   LIG d   1       8.215   6.504 -14.018  0.00  0.00     0.063 H 
ATOM     64  C   LIG d   1      10.387   4.289 -12.680  0.00  0.00    -0.043 A 
ATOM     65 CL   LIG d   1       9.378   4.186 -15.188  0.00  0.00    -0.084 Cl
ATOM     66  C   LIG d   1      10.532   4.843 -11.424  0.00  0.00    -0.052 A 
ATOM     67  H   LIG d   1      10.925   3.389 -12.937  0.00  0.00     0.063 H 
ATOM     68  H   LIG d   1      11.181   4.376 -10.699  0.00  0.00     0.062 H 
ENDBRANCH   5  58
TORSDOF 7
ENDMDL
MODEL 9
REMARK VINA RESULT:      -7.0      3.749     10.673
REMARK  7 active torsions:
REMARK  status: ('A' for Active; 'I' for Inactive)
REMARK    1  A    between atoms: C_1  and  C_2 
REMARK    2  A    between atoms: C_6  and  C_35 
REMARK    3  A    between atoms: C_10  and  C_34 
REMARK    4  A    between atoms: C_15  and  C_16 
REMARK    5  A    between atoms: C_16  and  C_17 
REMARK       I    between atoms: C_17  and  N_19 
REMARK    6  A    between atoms: C_22  and  C_25 
REMARK    7  A    between atoms: C_22  and  C_31 
ROOT
ATOM      1  C   LIG d   1      10.357   2.890  -5.207  0.00  0.00    -0.029 A 
ATOM      2  C   LIG d   1      10.277   1.442  -5.420  0.00  0.00     0.022 A 
ATOM      3  C   LIG d   1       9.113   0.738  -5.110  0.00  0.00    -0.039 A 
ATOM      4  C   LIG d   1       9.070  -0.631  -5.324  0.00  0.00     0.029 A 
ATOM      5  C   LIG d   1       8.041  -1.669  -5.119  0.00  0.00     0.028 A 
ATOM      6  C   LIG d   1       8.602  -2.831  -5.521  0.00  0.00     0.101 A 
ATOM      7  O   LIG d   1       9.858  -2.612  -5.948  0.00  0.00    -0.462 OA
ATOM      8  C   LIG d   1      10.188  -1.309  -5.850  0.00  0.00     0.142 A 
ATOM      9  C   LIG d   1      11.342  -0.602  -6.157  0.00  0.00     0.035 A 
ATOM     10  C   LIG d   1      11.396   0.765  -5.948  0.00  0.00     0.146 A 
ATOM     11  O   LIG d   1      12.519   1.457  -6.245  0.00  0.00    -0.422 OA
ATOM     12  C   LIG d   1      12.597   2.783  -6.052  0.00  0.00     0.341 A 
ATOM     13  O   LIG d   1      13.629   3.364  -6.336  0.00  0.00    -0.245 OA
ATOM     14  C   LIG d   1      11.514   3.523  -5.533  0.00  0.00     0.049 A 
ATOM     15  H   LIG d   1       8.255   1.254  -4.705  0.00  0.00     0.063 H 
ATOM     16  H   LIG d   1       8.113  -3.793  -5.502  0.00  0.00     0.104 H 
ENDROOT
BRANCH  14  17
ATOM     17  C   LIG d   1      11.639   5.012  -5.337  0.00  0.00     0.056 C 
ATOM     18  H   LIG d   1      12.310   5.423  -6.092  0.00  0.00     0.041 H 
ATOM     19  H   LIG d   1      10.658   5.476  -5.430  0.00  0.00     0.041 H 
BRANCH  17  20
ATOM     20  C   LIG d   1      12.199   5.291  -3.966  0.00  0.00     0.220 C 
ATOM     21  O   LIG d   1      13.285   4.852  -3.652  0.00  0.00    -0.275 OA
ATOM     22  N   LIG d   1      11.491   6.030  -3.087  0.00  0.00    -0.301 N 
ATOM     23  C   LIG d   1      12.023   6.310  -1.746  0.00  0.00     0.016 C 
ATOM     24  C   LIG d   1      10.172   6.564  -3.450  0.00  0.00     0.016 C 
ATOM     25  C   LIG d   1      11.999   7.829  -1.519  0.00  0.00    -0.022 C 
ATOM     26  H   LIG d   1      11.404   5.816  -0.997  0.00  0.00     0.046 H 
ATOM     27  H   LIG d   1      13.047   5.945  -1.676  0.00  0.00     0.046 H 
ATOM     28  C   LIG d   1      10.581   8.353  -1.755  0.00  0.00     0.038 C 
ATOM     29  H   LIG d   1      12.686   8.314  -2.214  0.00  0.00     0.029 H 
ATOM     30  H   LIG d   1      12.302   8.048  -0.495  0.00  0.00     0.029 H 
ATOM     31  C   LIG d   1      10.166   8.075  -3.202  0.00  0.00    -0.022 C 
ATOM     32  H   LIG d   1      10.870   8.558  -3.880  0.00  0.00     0.029 H 
ATOM     33  H   LIG d   1       9.165   8.469  -3.376  0.00  0.00     0.029 H 
ATOM     34  H   LIG d   1       9.974   6.366  -4.503  0.00  0.00     0.046 H 
ATOM     35  H   LIG d   1       9.404   6.091  -2.837  0.00  0.00     0.046 H 
BRANCH  28  36
ATOM     36  C   LIG d   1      10.543   9.837  -1.498  0.00  0.00    -0.036 A 
ATOM     37  C   LIG d   1      10.899  10.332  -0.257  0.00  0.00    -0.058 A 
ATOM     38  C   LIG d   1      10.869  11.695  -0.022  0.00  0.00    -0.061 A 
ATOM     39  H   LIG d   1      11.202   9.655   0.528  0.00  0.00     0.062 H 
ATOM     40  C   LIG d   1      10.475  12.560  -1.026  0.00  0.00    -0.062 A 
ATOM     41  H   LIG d   1      11.151  12.082   0.945  0.00  0.00     0.062 H 
ATOM     42  C   LIG d   1      10.115  12.064  -2.264  0.00  0.00    -0.061 A 
ATOM     43  H   LIG d   1      10.450  13.624  -0.841  0.00  0.00     0.062 H 
ATOM     44  C   LIG d   1      10.149  10.702  -2.500  0.00  0.00    -0.058 A 
ATOM     45  H   LIG d   1       9.808  12.741  -3.049  0.00  0.00     0.062 H 
ATOM     46  H   LIG d   1       9.868  10.315  -3.469  0.00  0.00     0.062 H 
ENDBRANCH  28  36
BRANCH  28  47
ATOM     47  C   LIG d   1       9.627   7.657  -0.817  0.00  0.00     0.052 C 
ATOM     48  O   LIG d   1       8.424   7.809  -0.948  0.00  0.00    -0.549 OA
ATOM     49  O   LIG d   1      10.059   6.945   0.073  0.00  0.00    -0.549 OA
ENDBRANCH  28  47
ENDBRANCH  17  20
ENDBRANCH  14  17
BRANCH   1  50
ATOM     50  C   LIG d   1       9.187   3.655  -4.646  0.00  0.00    -0.038 C 
ATOM     51  H   LIG d   1       9.524   4.279  -3.818  0.00  0.00     0.028 H 
ATOM     52  H   LIG d   1       8.758   4.286  -5.423  0.00  0.00     0.028 H 
ATOM     53  H   LIG d   1       8.433   2.955  -4.288  0.00  0.00     0.028 H 
ENDBRANCH   1  50
BRANCH   9  54
ATOM     54  C   LIG d   1      12.538  -1.325  -6.720  0.00  0.00    -0.033 C 
ATOM     55  H   LIG d   1      13.045  -0.684  -7.441  0.00  0.00     0.028 H 
ATOM     56  H   LIG d   1      13.224  -1.576  -5.911  0.00  0.00     0.028 H 
ATOM     57  H   LIG d   1      12.211  -2.240  -7.215  0.00  0.00     0.028 H 
ENDBRANCH   9  54
BRANCH   5  58
ATOM     58  C   LIG d   1       6.673  -1.476  -4.581  0.00  0.00    -0.014 A 
ATOM     59  C   LIG d   1       5.669  -0.953  -5.394  0.00  0.00    -0.052 A 
ATOM     60  C   LIG d   1       4.396  -0.781  -4.891  0.00  0.00    -0.043 A 
ATOM     61  H   LIG d   1       5.887  -0.685  -6.418  0.00  0.00     0.062 H 
ATOM     62  C   LIG d   1       4.118  -1.117  -3.577  0.00  0.00     0.041 A 
ATOM     63  H   LIG d   1       3.616  -0.380  -5.522  0.00  0.00     0.063 H 
ATOM     64  C   LIG d   1       5.112  -1.632  -2.763  0.00  0.00    -0.043 A 
ATOM     65 CL   LIG d   1       2.516  -0.892  -2.948  0.00  0.00    -0.084 Cl
ATOM     66  C   LIG d   1       6.387  -1.814  -3.259  0.00  0.00    -0.052 A 
ATOM     67  H   LIG d   1       4.889  -1.893  -1.740  0.00  0.00     0.063 H 
ATOM     68  H   LIG d   1       7.162  -2.215  -2.624  0.00  0.00     0.062 H 
ENDBRANCH   5  58
TORSDOF 7
ENDMDL
