MODEL 1
REMARK VINA RESULT:      -5.1      0.000      0.000
REMARK  7 active torsions:
REMARK  status: ('A' for Active; 'I' for Inactive)
REMARK    1  A    between atoms: C_1  and  C_2 
REMARK    2  A    between atoms: C_2  and  C_4 
REMARK    3  A    between atoms: C_2  and  N_30 
REMARK    4  A    between atoms: C_4  and  C_6 
REMARK    5  A    between atoms: C_4  and  O_12 
REMARK    6  A    between atoms: C_13  and  N_30 
REMARK    7  A    between atoms: C_14  and  N_30 
ROOT
ATOM      1  C   LIG d   1       3.636  -0.398  -6.395  0.00  0.00     0.006 C 
ATOM      2  H   LIG d   1       3.799  -1.440  -6.119  0.00  0.00     0.088 H 
ENDROOT
BRANCH   1   3
ATOM      3  C   LIG d   1       2.774  -0.333  -7.657  0.00  0.00    -0.019 C 
ATOM      4  H   LIG d   1       1.727  -0.226  -7.377  0.00  0.00     0.029 H 
ATOM      5  H   LIG d   1       3.077   0.523  -8.261  0.00  0.00     0.029 H 
ATOM      6  H   LIG d   1       2.905  -1.249  -8.234  0.00  0.00     0.029 H 
ENDBRANCH   1   3
BRANCH   1   7
ATOM      7  C   LIG d   1       2.923   0.327  -5.252  0.00  0.00     0.122 C 
ATOM      8  H   LIG d   1       3.059   1.403  -5.363  0.00  0.00     0.070 H 
BRANCH   7   9
ATOM      9  C   LIG d   1       3.503  -0.118  -3.935  0.00  0.00    -0.014 A 
ATOM     10  C   LIG d   1       4.016   0.815  -3.055  0.00  0.00    -0.056 A 
ATOM     11  C   LIG d   1       4.548   0.407  -1.846  0.00  0.00    -0.061 A 
ATOM     12  H   LIG d   1       4.002   1.864  -3.311  0.00  0.00     0.062 H 
ATOM     13  C   LIG d   1       4.566  -0.937  -1.518  0.00  0.00    -0.062 A 
ATOM     14  H   LIG d   1       4.950   1.135  -1.158  0.00  0.00     0.062 H 
ATOM     15  C   LIG d   1       4.052  -1.871  -2.398  0.00  0.00    -0.061 A 
ATOM     16  H   LIG d   1       4.983  -1.256  -0.574  0.00  0.00     0.062 H 
ATOM     17  C   LIG d   1       3.516  -1.461  -3.604  0.00  0.00    -0.056 A 
ATOM     18  H   LIG d   1       4.067  -2.919  -2.142  0.00  0.00     0.062 H 
ATOM     19  H   LIG d   1       3.111  -2.190  -4.291  0.00  0.00     0.062 H 
ENDBRANCH   7   9
BRANCH   7  20
ATOM     20  O   LIG d   1       1.528   0.017  -5.289  0.00  0.00    -0.382 OA
ATOM     21  H   LIG d   1       1.287  -0.770  -4.782  0.00  0.00     0.210 HD
ENDBRANCH   7  20
ENDBRANCH   1   7
BRANCH   1  22
ATOM     22  N   LIG d   1       4.925   0.274  -6.661  0.00  0.00     0.235 N 
ATOM     23  H   LIG d   1       4.978   1.131  -6.098  0.00  0.00     0.203 HD
BRANCH  22  24
ATOM     24  C   LIG d   1       6.045  -0.615  -6.286  0.00  0.00    -0.043 C 
ATOM     25  H   LIG d   1       6.848  -0.550  -7.021  0.00  0.00     0.078 H 
ATOM     26  H   LIG d   1       6.422  -0.317  -5.308  0.00  0.00     0.078 H 
ATOM     27  H   LIG d   1       5.681  -1.641  -6.237  0.00  0.00     0.078 H 
ENDBRANCH  22  24
BRANCH  22  28
ATOM     28  C   LIG d   1       5.023   0.633  -8.091  0.00  0.00    -0.043 C 
ATOM     29  H   LIG d   1       5.440  -0.211  -8.640  0.00  0.00     0.078 H 
ATOM     30  H   LIG d   1       4.025   0.856  -8.471  0.00  0.00     0.078 H 
ATOM     31  H   LIG d   1       5.665   1.504  -8.224  0.00  0.00     0.078 H 
ENDBRANCH  22  28
ENDBRANCH   1  22
TORSDOF 7
ENDMDL
MODEL 2
REMARK VINA RESULT:      -4.6      1.592      2.497
REMARK  7 active torsions:
REMARK  status: ('A' for Active; 'I' for Inactive)
REMARK    1  A    between atoms: C_1  and  C_2 
REMARK    2  A    between atoms: C_2  and  C_4 
REMARK    3  A    between atoms: C_2  and  N_30 
REMARK    4  A    between atoms: C_4  and  C_6 
REMARK    5  A    between atoms: C_4  and  O_12 
REMARK    6  A    between atoms: C_13  and  N_30 
REMARK    7  A    between atoms: C_14  and  N_30 
ROOT
ATOM      1  C   LIG d   1       4.196  -0.895  -6.258  0.00  0.00     0.006 C 
ATOM      2  H   LIG d   1       4.311   0.181  -6.121  0.00  0.00     0.088 H 
ENDROOT
BRANCH   1   3
ATOM      3  C   LIG d   1       5.572  -1.532  -6.460  0.00  0.00    -0.019 C 
ATOM      4  H   LIG d   1       6.337  -0.893  -6.020  0.00  0.00     0.029 H 
ATOM      5  H   LIG d   1       5.594  -2.510  -5.978  0.00  0.00     0.029 H 
ATOM      6  H   LIG d   1       5.765  -1.649  -7.527  0.00  0.00     0.029 H 
ENDBRANCH   1   3
BRANCH   1   7
ATOM      7  C   LIG d   1       3.532  -1.498  -5.019  0.00  0.00     0.122 C 
ATOM      8  H   LIG d   1       2.454  -1.549  -5.172  0.00  0.00     0.070 H 
BRANCH   7   9
ATOM      9  C   LIG d   1       3.828  -0.636  -3.819  0.00  0.00    -0.014 A 
ATOM     10  C   LIG d   1       4.417  -1.189  -2.698  0.00  0.00    -0.056 A 
ATOM     11  C   LIG d   1       4.689  -0.398  -1.598  0.00  0.00    -0.061 A 
ATOM     12  H   LIG d   1       4.666  -2.240  -2.681  0.00  0.00     0.062 H 
ATOM     13  C   LIG d   1       4.370   0.948  -1.619  0.00  0.00    -0.062 A 
ATOM     14  H   LIG d   1       5.148  -0.830  -0.721  0.00  0.00     0.062 H 
ATOM     15  C   LIG d   1       3.782   1.502  -2.740  0.00  0.00    -0.061 A 
ATOM     16  H   LIG d   1       4.582   1.565  -0.758  0.00  0.00     0.062 H 
ATOM     17  C   LIG d   1       3.514   0.711  -3.842  0.00  0.00    -0.056 A 
ATOM     18  H   LIG d   1       3.533   2.552  -2.756  0.00  0.00     0.062 H 
ATOM     19  H   LIG d   1       3.058   1.145  -4.720  0.00  0.00     0.062 H 
ENDBRANCH   7   9
BRANCH   7  20
ATOM     20  O   LIG d   1       4.044  -2.814  -4.798  0.00  0.00    -0.382 OA
ATOM     21  H   LIG d   1       4.529  -3.179  -5.550  0.00  0.00     0.210 HD
ENDBRANCH   7  20
ENDBRANCH   1   7
BRANCH   1  22
ATOM     22  N   LIG d   1       3.358  -1.180  -7.441  0.00  0.00     0.235 N 
ATOM     23  H   LIG d   1       2.617  -1.840  -7.174  0.00  0.00     0.203 HD
BRANCH  22  24
ATOM     24  C   LIG d   1       2.734   0.068  -7.931  0.00  0.00    -0.043 C 
ATOM     25  H   LIG d   1       3.357   0.531  -8.697  0.00  0.00     0.078 H 
ATOM     26  H   LIG d   1       1.756  -0.166  -8.350  0.00  0.00     0.078 H 
ATOM     27  H   LIG d   1       2.616   0.756  -7.094  0.00  0.00     0.078 H 
ENDBRANCH  22  24
BRANCH  22  28
ATOM     28  C   LIG d   1       4.179  -1.787  -8.508  0.00  0.00    -0.043 C 
ATOM     29  H   LIG d   1       3.701  -2.708  -8.842  0.00  0.00     0.078 H 
ATOM     30  H   LIG d   1       4.247  -1.090  -9.344  0.00  0.00     0.078 H 
ATOM     31  H   LIG d   1       5.180  -2.011  -8.140  0.00  0.00     0.078 H 
ENDBRANCH  22  28
ENDBRANCH   1  22
TORSDOF 7
ENDMDL
MODEL 3
REMARK VINA RESULT:      -4.6      2.134      2.949
REMARK  7 active torsions:
REMARK  status: ('A' for Active; 'I' for Inactive)
REMARK    1  A    between atoms: C_1  and  C_2 
REMARK    2  A    between atoms: C_2  and  C_4 
REMARK    3  A    between atoms: C_2  and  N_30 
REMARK    4  A    between atoms: C_4  and  C_6 
REMARK    5  A    between atoms: C_4  and  O_12 
REMARK    6  A    between atoms: C_13  and  N_30 
REMARK    7  A    between atoms: C_14  and  N_30 
ROOT
ATOM      1  C   LIG d   1       4.890  -2.117  -5.459  0.00  0.00     0.006 C 
ATOM      2  H   LIG d   1       5.303  -1.109  -5.510  0.00  0.00     0.088 H 
ENDROOT
BRANCH   1   3
ATOM      3  C   LIG d   1       6.023  -3.119  -5.230  0.00  0.00    -0.019 C 
ATOM      4  H   LIG d   1       6.797  -2.972  -5.982  0.00  0.00     0.029 H 
ATOM      5  H   LIG d   1       6.447  -2.968  -4.237  0.00  0.00     0.029 H 
ATOM      6  H   LIG d   1       5.631  -4.134  -5.306  0.00  0.00     0.029 H 
ENDBRANCH   1   3
BRANCH   1   7
ATOM      7  C   LIG d   1       3.891  -2.202  -4.304  0.00  0.00     0.122 C 
ATOM      8  H   LIG d   1       2.887  -2.348  -4.701  0.00  0.00     0.070 H 
BRANCH   7   9
ATOM      9  C   LIG d   1       3.935  -0.924  -3.506  0.00  0.00    -0.014 A 
ATOM     10  C   LIG d   1       3.354   0.224  -4.009  0.00  0.00    -0.056 A 
ATOM     11  C   LIG d   1       3.393   1.396  -3.277  0.00  0.00    -0.061 A 
ATOM     12  H   LIG d   1       2.868   0.206  -4.973  0.00  0.00     0.062 H 
ATOM     13  C   LIG d   1       4.015   1.419  -2.042  0.00  0.00    -0.062 A 
ATOM     14  H   LIG d   1       2.940   2.294  -3.670  0.00  0.00     0.062 H 
ATOM     15  C   LIG d   1       4.597   0.271  -1.539  0.00  0.00    -0.061 A 
ATOM     16  H   LIG d   1       4.047   2.336  -1.472  0.00  0.00     0.062 H 
ATOM     17  C   LIG d   1       4.552  -0.902  -2.269  0.00  0.00    -0.056 A 
ATOM     18  H   LIG d   1       5.082   0.289  -0.575  0.00  0.00     0.062 H 
ATOM     19  H   LIG d   1       5.003  -1.801  -1.874  0.00  0.00     0.062 H 
ENDBRANCH   7   9
BRANCH   7  20
ATOM     20  O   LIG d   1       4.233  -3.303  -3.459  0.00  0.00    -0.382 OA
ATOM     21  H   LIG d   1       5.012  -3.797  -3.752  0.00  0.00     0.210 HD
ENDBRANCH   7  20
ENDBRANCH   1   7
BRANCH   1  22
ATOM     22  N   LIG d   1       4.198  -2.457  -6.720  0.00  0.00     0.235 N 
ATOM     23  H   LIG d   1       3.256  -2.803  -6.501  0.00  0.00     0.203 HD
BRANCH  22  24
ATOM     24  C   LIG d   1       4.082  -1.255  -7.572  0.00  0.00    -0.043 C 
ATOM     25  H   LIG d   1       4.993  -1.109  -8.154  0.00  0.00     0.078 H 
ATOM     26  H   LIG d   1       3.235  -1.380  -8.248  0.00  0.00     0.078 H 
ATOM     27  H   LIG d   1       3.913  -0.386  -6.937  0.00  0.00     0.078 H 
ENDBRANCH  22  24
BRANCH  22  28
ATOM     28  C   LIG d   1       4.942  -3.514  -7.436  0.00  0.00    -0.043 C 
ATOM     29  H   LIG d   1       5.387  -3.086  -8.334  0.00  0.00     0.078 H 
ATOM     30  H   LIG d   1       5.731  -3.896  -6.787  0.00  0.00     0.078 H 
ATOM     31  H   LIG d   1       4.275  -4.329  -7.715  0.00  0.00     0.078 H 
ENDBRANCH  22  28
ENDBRANCH   1  22
TORSDOF 7
ENDMDL
MODEL 4
REMARK VINA RESULT:      -4.5      3.306      4.136
REMARK  7 active torsions:
REMARK  status: ('A' for Active; 'I' for Inactive)
REMARK    1  A    between atoms: C_1  and  C_2 
REMARK    2  A    between atoms: C_2  and  C_4 
REMARK    3  A    between atoms: C_2  and  N_30 
REMARK    4  A    between atoms: C_4  and  C_6 
REMARK    5  A    between atoms: C_4  and  O_12 
REMARK    6  A    between atoms: C_13  and  N_30 
REMARK    7  A    between atoms: C_14  and  N_30 
ROOT
ATOM      1  C   LIG d   1       6.216  -2.476  -4.858  0.00  0.00     0.006 C 
ATOM      2  H   LIG d   1       5.370  -1.941  -5.291  0.00  0.00     0.088 H 
ENDROOT
BRANCH   1   3
ATOM      3  C   LIG d   1       7.484  -2.148  -5.648  0.00  0.00    -0.019 C 
ATOM      4  H   LIG d   1       8.251  -1.778  -4.967  0.00  0.00     0.029 H 
ATOM      5  H   LIG d   1       7.845  -3.047  -6.147  0.00  0.00     0.029 H 
ATOM      6  H   LIG d   1       7.261  -1.384  -6.393  0.00  0.00     0.029 H 
ENDBRANCH   1   3
BRANCH   1   7
ATOM      7  C   LIG d   1       6.398  -2.050  -3.400  0.00  0.00     0.122 C 
ATOM      8  H   LIG d   1       6.274  -2.916  -2.750  0.00  0.00     0.070 H 
BRANCH   7   9
ATOM      9  C   LIG d   1       5.369  -1.007  -3.049  0.00  0.00    -0.014 A 
ATOM     10  C   LIG d   1       4.034  -1.353  -2.967  0.00  0.00    -0.056 A 
ATOM     11  C   LIG d   1       3.090  -0.397  -2.644  0.00  0.00    -0.061 A 
ATOM     12  H   LIG d   1       3.728  -2.372  -3.153  0.00  0.00     0.062 H 
ATOM     13  C   LIG d   1       3.482   0.908  -2.405  0.00  0.00    -0.062 A 
ATOM     14  H   LIG d   1       2.047  -0.667  -2.580  0.00  0.00     0.062 H 
ATOM     15  C   LIG d   1       4.817   1.255  -2.487  0.00  0.00    -0.061 A 
ATOM     16  H   LIG d   1       2.744   1.655  -2.154  0.00  0.00     0.062 H 
ATOM     17  C   LIG d   1       5.762   0.297  -2.805  0.00  0.00    -0.056 A 
ATOM     18  H   LIG d   1       5.123   2.273  -2.300  0.00  0.00     0.062 H 
ATOM     19  H   LIG d   1       6.806   0.566  -2.865  0.00  0.00     0.062 H 
ENDBRANCH   7   9
BRANCH   7  20
ATOM     20  O   LIG d   1       7.708  -1.506  -3.223  0.00  0.00    -0.382 OA
ATOM     21  H   LIG d   1       7.774  -0.867  -2.500  0.00  0.00     0.210 HD
ENDBRANCH   7  20
ENDBRANCH   1   7
BRANCH   1  22
ATOM     22  N   LIG d   1       5.986  -3.935  -4.908  0.00  0.00     0.235 N 
ATOM     23  H   LIG d   1       5.820  -4.280  -3.955  0.00  0.00     0.203 HD
BRANCH  22  24
ATOM     24  C   LIG d   1       4.799  -4.231  -5.738  0.00  0.00    -0.043 C 
ATOM     25  H   LIG d   1       4.479  -5.263  -5.594  0.00  0.00     0.078 H 
ATOM     26  H   LIG d   1       3.991  -3.556  -5.454  0.00  0.00     0.078 H 
ATOM     27  H   LIG d   1       5.051  -4.072  -6.786  0.00  0.00     0.078 H 
ENDBRANCH  22  24
BRANCH  22  28
ATOM     28  C   LIG d   1       7.173  -4.616  -5.465  0.00  0.00    -0.043 C 
ATOM     29  H   LIG d   1       7.459  -4.123  -6.394  0.00  0.00     0.078 H 
ATOM     30  H   LIG d   1       7.993  -4.543  -4.749  0.00  0.00     0.078 H 
ATOM     31  H   LIG d   1       6.955  -5.665  -5.662  0.00  0.00     0.078 H 
ENDBRANCH  22  28
ENDBRANCH   1  22
TORSDOF 7
ENDMDL
MODEL 5
REMARK VINA RESULT:      -4.4      3.041      3.965
REMARK  7 active torsions:
REMARK  status: ('A' for Active; 'I' for Inactive)
REMARK    1  A    between atoms: C_1  and  C_2 
REMARK    2  A    between atoms: C_2  and  C_4 
REMARK    3  A    between atoms: C_2  and  N_30 
REMARK    4  A    between atoms: C_4  and  C_6 
REMARK    5  A    between atoms: C_4  and  O_12 
REMARK    6  A    between atoms: C_13  and  N_30 
REMARK    7  A    between atoms: C_14  and  N_30 
ROOT
ATOM      1  C   LIG d   1       7.830   0.651  -5.054  0.00  0.00     0.006 C 
ATOM      2  H   LIG d   1       7.559   1.414  -4.324  0.00  0.00     0.088 H 
ENDROOT
BRANCH   1   3
ATOM      3  C   LIG d   1       9.353   0.571  -5.166  0.00  0.00    -0.019 C 
ATOM      4  H   LIG d   1       9.694   1.222  -5.971  0.00  0.00     0.029 H 
ATOM      5  H   LIG d   1       9.804   0.890  -4.226  0.00  0.00     0.029 H 
ATOM      6  H   LIG d   1       9.649  -0.456  -5.380  0.00  0.00     0.029 H 
ENDBRANCH   1   3
BRANCH   1   7
ATOM      7  C   LIG d   1       7.280  -0.704  -4.605  0.00  0.00     0.122 C 
ATOM      8  H   LIG d   1       6.853  -1.226  -5.462  0.00  0.00     0.070 H 
BRANCH   7   9
ATOM      9  C   LIG d   1       6.211  -0.493  -3.564  0.00  0.00    -0.014 A 
ATOM     10  C   LIG d   1       5.508  -1.573  -3.065  0.00  0.00    -0.056 A 
ATOM     11  C   LIG d   1       4.529  -1.380  -2.110  0.00  0.00    -0.061 A 
ATOM     12  H   LIG d   1       5.725  -2.570  -3.422  0.00  0.00     0.062 H 
ATOM     13  C   LIG d   1       4.252  -0.104  -1.653  0.00  0.00    -0.062 A 
ATOM     14  H   LIG d   1       3.979  -2.223  -1.720  0.00  0.00     0.062 H 
ATOM     15  C   LIG d   1       4.955   0.977  -2.151  0.00  0.00    -0.061 A 
ATOM     16  H   LIG d   1       3.485   0.047  -0.907  0.00  0.00     0.062 H 
ATOM     17  C   LIG d   1       5.938   0.782  -3.103  0.00  0.00    -0.056 A 
ATOM     18  H   LIG d   1       4.739   1.973  -1.795  0.00  0.00     0.062 H 
ATOM     19  H   LIG d   1       6.491   1.626  -3.490  0.00  0.00     0.062 H 
ENDBRANCH   7   9
BRANCH   7  20
ATOM     20  O   LIG d   1       8.338  -1.488  -4.050  0.00  0.00    -0.382 OA
ATOM     21  H   LIG d   1       8.077  -2.387  -3.807  0.00  0.00     0.210 HD
ENDBRANCH   7  20
ENDBRANCH   1   7
BRANCH   1  22
ATOM     22  N   LIG d   1       7.270   0.982  -6.381  0.00  0.00     0.235 N 
ATOM     23  H   LIG d   1       6.381   1.480  -6.254  0.00  0.00     0.203 HD
BRANCH  22  24
ATOM     24  C   LIG d   1       8.207   1.854  -7.121  0.00  0.00    -0.043 C 
ATOM     25  H   LIG d   1       7.702   2.332  -7.962  0.00  0.00     0.078 H 
ATOM     26  H   LIG d   1       8.589   2.618  -6.445  0.00  0.00     0.078 H 
ATOM     27  H   LIG d   1       9.035   1.250  -7.491  0.00  0.00     0.078 H 
ENDBRANCH  22  24
BRANCH  22  28
ATOM     28  C   LIG d   1       7.020  -0.256  -7.148  0.00  0.00    -0.043 C 
ATOM     29  H   LIG d   1       7.464  -1.097  -6.616  0.00  0.00     0.078 H 
ATOM     30  H   LIG d   1       5.943  -0.409  -7.234  0.00  0.00     0.078 H 
ATOM     31  H   LIG d   1       7.458  -0.185  -8.143  0.00  0.00     0.078 H 
ENDBRANCH  22  28
ENDBRANCH   1  22
TORSDOF 7
ENDMDL
MODEL 6
REMARK VINA RESULT:      -4.4      1.456      1.972
REMARK  7 active torsions:
REMARK  status: ('A' for Active; 'I' for Inactive)
REMARK    1  A    between atoms: C_1  and  C_2 
REMARK    2  A    between atoms: C_2  and  C_4 
REMARK    3  A    between atoms: C_2  and  N_30 
REMARK    4  A    between atoms: C_4  and  C_6 
REMARK    5  A    between atoms: C_4  and  O_12 
REMARK    6  A    between atoms: C_13  and  N_30 
REMARK    7  A    between atoms: C_14  and  N_30 
ROOT
ATOM      1  C   LIG d   1       5.133  -0.504  -7.020  0.00  0.00     0.006 C 
ATOM      2  H   LIG d   1       5.684  -1.212  -6.400  0.00  0.00     0.088 H 
ENDROOT
BRANCH   1   3
ATOM      3  C   LIG d   1       4.806  -1.154  -8.366  0.00  0.00    -0.019 C 
ATOM      4  H   LIG d   1       5.163  -0.516  -9.174  0.00  0.00     0.029 H 
ATOM      5  H   LIG d   1       5.294  -2.127  -8.429  0.00  0.00     0.029 H 
ATOM      6  H   LIG d   1       3.727  -1.282  -8.455  0.00  0.00     0.029 H 
ENDBRANCH   1   3
BRANCH   1   7
ATOM      7  C   LIG d   1       3.834  -0.110  -6.315  0.00  0.00     0.122 C 
ATOM      8  H   LIG d   1       3.798   0.973  -6.198  0.00  0.00     0.070 H 
BRANCH   7   9
ATOM      9  C   LIG d   1       3.780  -0.764  -4.958  0.00  0.00    -0.014 A 
ATOM     10  C   LIG d   1       4.593  -1.845  -4.679  0.00  0.00    -0.056 A 
ATOM     11  C   LIG d   1       4.545  -2.445  -3.434  0.00  0.00    -0.061 A 
ATOM     12  H   LIG d   1       5.268  -2.223  -5.433  0.00  0.00     0.062 H 
ATOM     13  C   LIG d   1       3.681  -1.961  -2.468  0.00  0.00    -0.062 A 
ATOM     14  H   LIG d   1       5.179  -3.290  -3.216  0.00  0.00     0.062 H 
ATOM     15  C   LIG d   1       2.868  -0.879  -2.747  0.00  0.00    -0.061 A 
ATOM     16  H   LIG d   1       3.642  -2.430  -1.496  0.00  0.00     0.062 H 
ATOM     17  C   LIG d   1       2.920  -0.277  -3.990  0.00  0.00    -0.056 A 
ATOM     18  H   LIG d   1       2.194  -0.502  -1.993  0.00  0.00     0.062 H 
ATOM     19  H   LIG d   1       2.288   0.572  -4.207  0.00  0.00     0.062 H 
ENDBRANCH   7   9
BRANCH   7  20
ATOM     20  O   LIG d   1       2.718  -0.542  -7.096  0.00  0.00    -0.382 OA
ATOM     21  H   LIG d   1       2.930  -0.715  -8.024  0.00  0.00     0.210 HD
ENDBRANCH   7  20
ENDBRANCH   1   7
BRANCH   1  22
ATOM     22  N   LIG d   1       5.939   0.711  -7.259  0.00  0.00     0.235 N 
ATOM     23  H   LIG d   1       5.580   1.471  -6.669  0.00  0.00     0.203 HD
BRANCH  22  24
ATOM     24  C   LIG d   1       7.352   0.458  -6.906  0.00  0.00    -0.043 C 
ATOM     25  H   LIG d   1       8.009   0.745  -7.728  0.00  0.00     0.078 H 
ATOM     26  H   LIG d   1       7.605   1.037  -6.018  0.00  0.00     0.078 H 
ATOM     27  H   LIG d   1       7.479  -0.604  -6.695  0.00  0.00     0.078 H 
ENDBRANCH  22  24
BRANCH  22  28
ATOM     28  C   LIG d   1       5.837   1.115  -8.676  0.00  0.00    -0.043 C 
ATOM     29  H   LIG d   1       6.763   0.851  -9.186  0.00  0.00     0.078 H 
ATOM     30  H   LIG d   1       5.004   0.584  -9.139  0.00  0.00     0.078 H 
ATOM     31  H   LIG d   1       5.672   2.190  -8.757  0.00  0.00     0.078 H 
ENDBRANCH  22  28
ENDBRANCH   1  22
TORSDOF 7
ENDMDL
MODEL 7
REMARK VINA RESULT:      -4.4      1.836      4.867
REMARK  7 active torsions:
REMARK  status: ('A' for Active; 'I' for Inactive)
REMARK    1  A    between atoms: C_1  and  C_2 
REMARK    2  A    between atoms: C_2  and  C_4 
REMARK    3  A    between atoms: C_2  and  N_30 
REMARK    4  A    between atoms: C_4  and  C_6 
REMARK    5  A    between atoms: C_4  and  O_12 
REMARK    6  A    between atoms: C_13  and  N_30 
REMARK    7  A    between atoms: C_14  and  N_30 
ROOT
ATOM      1  C   LIG d   1       4.054  -0.618  -5.067  0.00  0.00     0.006 C 
ATOM      2  H   LIG d   1       4.654  -0.887  -5.937  0.00  0.00     0.088 H 
ENDROOT
BRANCH   1   3
ATOM      3  C   LIG d   1       4.894   0.231  -4.111  0.00  0.00    -0.019 C 
ATOM      4  H   LIG d   1       4.317   0.445  -3.212  0.00  0.00     0.029 H 
ATOM      5  H   LIG d   1       5.799  -0.314  -3.841  0.00  0.00     0.029 H 
ATOM      6  H   LIG d   1       5.166   1.166  -4.600  0.00  0.00     0.029 H 
ENDBRANCH   1   3
BRANCH   1   7
ATOM      7  C   LIG d   1       2.831   0.182  -5.518  0.00  0.00     0.122 C 
ATOM      8  H   LIG d   1       1.924  -0.370  -5.270  0.00  0.00     0.070 H 
BRANCH   7   9
ATOM      9  C   LIG d   1       2.894   0.400  -7.008  0.00  0.00    -0.014 A 
ATOM     10  C   LIG d   1       2.764   1.674  -7.527  0.00  0.00    -0.056 A 
ATOM     11  C   LIG d   1       2.822   1.874  -8.893  0.00  0.00    -0.061 A 
ATOM     12  H   LIG d   1       2.618   2.515  -6.864  0.00  0.00     0.062 H 
ATOM     13  C   LIG d   1       3.009   0.798  -9.741  0.00  0.00    -0.062 A 
ATOM     14  H   LIG d   1       2.721   2.870  -9.298  0.00  0.00     0.062 H 
ATOM     15  C   LIG d   1       3.138  -0.477  -9.223  0.00  0.00    -0.061 A 
ATOM     16  H   LIG d   1       3.053   0.955 -10.809  0.00  0.00     0.062 H 
ATOM     17  C   LIG d   1       3.085  -0.675  -7.856  0.00  0.00    -0.056 A 
ATOM     18  H   LIG d   1       3.284  -1.317  -9.886  0.00  0.00     0.062 H 
ATOM     19  H   LIG d   1       3.191  -1.671  -7.451  0.00  0.00     0.062 H 
ENDBRANCH   7   9
BRANCH   7  20
ATOM     20  O   LIG d   1       2.816   1.446  -4.852  0.00  0.00    -0.382 OA
ATOM     21  H   LIG d   1       2.507   1.405  -3.936  0.00  0.00     0.210 HD
ENDBRANCH   7  20
ENDBRANCH   1   7
BRANCH   1  22
ATOM     22  N   LIG d   1       3.600  -1.831  -4.357  0.00  0.00     0.235 N 
ATOM     23  H   LIG d   1       2.750  -2.186  -4.810  0.00  0.00     0.203 HD
BRANCH  22  24
ATOM     24  C   LIG d   1       4.647  -2.874  -4.418  0.00  0.00    -0.043 C 
ATOM     25  H   LIG d   1       5.432  -2.672  -3.688  0.00  0.00     0.078 H 
ATOM     26  H   LIG d   1       4.195  -3.843  -4.208  0.00  0.00     0.078 H 
ATOM     27  H   LIG d   1       5.077  -2.884  -5.419  0.00  0.00     0.078 H 
ENDBRANCH  22  24
BRANCH  22  28
ATOM     28  C   LIG d   1       3.293  -1.508  -2.948  0.00  0.00    -0.043 C 
ATOM     29  H   LIG d   1       2.507  -2.175  -2.596  0.00  0.00     0.078 H 
ATOM     30  H   LIG d   1       4.190  -1.654  -2.346  0.00  0.00     0.078 H 
ATOM     31  H   LIG d   1       2.959  -0.474  -2.857  0.00  0.00     0.078 H 
ENDBRANCH  22  28
ENDBRANCH   1  22
TORSDOF 7
ENDMDL
MODEL 8
REMARK VINA RESULT:      -4.4      1.881      2.145
REMARK  7 active torsions:
REMARK  status: ('A' for Active; 'I' for Inactive)
REMARK    1  A    between atoms: C_1  and  C_2 
REMARK    2  A    between atoms: C_2  and  C_4 
REMARK    3  A    between atoms: C_2  and  N_30 
REMARK    4  A    between atoms: C_4  and  C_6 
REMARK    5  A    between atoms: C_4  and  O_12 
REMARK    6  A    between atoms: C_13  and  N_30 
REMARK    7  A    between atoms: C_14  and  N_30 
ROOT
ATOM      1  C   LIG d   1       3.772  -1.101  -6.671  0.00  0.00     0.006 C 
ATOM      2  H   LIG d   1       3.151  -1.815  -6.129  0.00  0.00     0.088 H 
ENDROOT
BRANCH   1   3
ATOM      3  C   LIG d   1       3.038   0.237  -6.775  0.00  0.00    -0.019 C 
ATOM      4  H   LIG d   1       3.712   0.991  -7.179  0.00  0.00     0.029 H 
ATOM      5  H   LIG d   1       2.177   0.128  -7.434  0.00  0.00     0.029 H 
ATOM      6  H   LIG d   1       2.700   0.544  -5.785  0.00  0.00     0.029 H 
ENDBRANCH   1   3
BRANCH   1   7
ATOM      7  C   LIG d   1       5.092  -0.902  -5.922  0.00  0.00     0.122 C 
ATOM      8  H   LIG d   1       5.783  -1.703  -6.184  0.00  0.00     0.070 H 
BRANCH   7   9
ATOM      9  C   LIG d   1       4.836  -0.925  -4.437  0.00  0.00    -0.014 A 
ATOM     10  C   LIG d   1       5.209   0.150  -3.655  0.00  0.00    -0.056 A 
ATOM     11  C   LIG d   1       4.975   0.129  -2.293  0.00  0.00    -0.061 A 
ATOM     12  H   LIG d   1       5.684   1.009  -4.107  0.00  0.00     0.062 H 
ATOM     13  C   LIG d   1       4.367  -0.970  -1.714  0.00  0.00    -0.062 A 
ATOM     14  H   LIG d   1       5.267   0.969  -1.680  0.00  0.00     0.062 H 
ATOM     15  C   LIG d   1       3.993  -2.047  -2.496  0.00  0.00    -0.061 A 
ATOM     16  H   LIG d   1       4.185  -0.987  -0.649  0.00  0.00     0.062 H 
ATOM     17  C   LIG d   1       4.224  -2.022  -3.859  0.00  0.00    -0.056 A 
ATOM     18  H   LIG d   1       3.519  -2.904  -2.044  0.00  0.00     0.062 H 
ATOM     19  H   LIG d   1       3.928  -2.861  -4.472  0.00  0.00     0.062 H 
ENDBRANCH   7   9
BRANCH   7  20
ATOM     20  O   LIG d   1       5.661   0.357  -6.288  0.00  0.00    -0.382 OA
ATOM     21  H   LIG d   1       5.916   0.907  -5.535  0.00  0.00     0.210 HD
ENDBRANCH   7  20
ENDBRANCH   1   7
BRANCH   1  22
ATOM     22  N   LIG d   1       4.062  -1.595  -8.033  0.00  0.00     0.235 N 
ATOM     23  H   LIG d   1       4.865  -1.079  -8.412  0.00  0.00     0.203 HD
BRANCH  22  24
ATOM     24  C   LIG d   1       4.395  -3.035  -7.988  0.00  0.00    -0.043 C 
ATOM     25  H   LIG d   1       5.355  -3.220  -8.470  0.00  0.00     0.078 H 
ATOM     26  H   LIG d   1       4.443  -3.355  -6.947  0.00  0.00     0.078 H 
ATOM     27  H   LIG d   1       3.615  -3.594  -8.504  0.00  0.00     0.078 H 
ENDBRANCH  22  24
BRANCH  22  28
ATOM     28  C   LIG d   1       2.893  -1.375  -8.910  0.00  0.00    -0.043 C 
ATOM     29  H   LIG d   1       1.996  -1.312  -8.294  0.00  0.00     0.078 H 
ATOM     30  H   LIG d   1       3.027  -0.438  -9.452  0.00  0.00     0.078 H 
ATOM     31  H   LIG d   1       2.788  -2.194  -9.621  0.00  0.00     0.078 H 
ENDBRANCH  22  28
ENDBRANCH   1  22
TORSDOF 7
ENDMDL
MODEL 9
REMARK VINA RESULT:      -4.3      1.887      4.619
REMARK  7 active torsions:
REMARK  status: ('A' for Active; 'I' for Inactive)
REMARK    1  A    between atoms: C_1  and  C_2 
REMARK    2  A    between atoms: C_2  and  C_4 
REMARK    3  A    between atoms: C_2  and  N_30 
REMARK    4  A    between atoms: C_4  and  C_6 
REMARK    5  A    between atoms: C_4  and  O_12 
REMARK    6  A    between atoms: C_13  and  N_30 
REMARK    7  A    between atoms: C_14  and  N_30 
ROOT
ATOM      1  C   LIG d   1       3.533   0.007  -4.141  0.00  0.00     0.006 C 
ATOM      2  H   LIG d   1       2.876   0.614  -4.764  0.00  0.00     0.088 H 
ENDROOT
BRANCH   1   3
ATOM      3  C   LIG d   1       2.708  -0.690  -3.058  0.00  0.00    -0.019 C 
ATOM      4  H   LIG d   1       1.648  -0.520  -3.242  0.00  0.00     0.029 H 
ATOM      5  H   LIG d   1       2.913  -1.761  -3.077  0.00  0.00     0.029 H 
ATOM      6  H   LIG d   1       2.977  -0.287  -2.081  0.00  0.00     0.029 H 
ENDBRANCH   1   3
BRANCH   1   7
ATOM      7  C   LIG d   1       4.229  -1.045  -5.008  0.00  0.00     0.122 C 
ATOM      8  H   LIG d   1       5.309  -0.943  -4.907  0.00  0.00     0.070 H 
BRANCH   7   9
ATOM      9  C   LIG d   1       3.838  -0.846  -6.450  0.00  0.00    -0.014 A 
ATOM     10  C   LIG d   1       3.021   0.210  -6.806  0.00  0.00    -0.056 A 
ATOM     11  C   LIG d   1       2.664   0.393  -8.128  0.00  0.00    -0.061 A 
ATOM     12  H   LIG d   1       2.663   0.894  -6.050  0.00  0.00     0.062 H 
ATOM     13  C   LIG d   1       3.123  -0.482  -9.095  0.00  0.00    -0.062 A 
ATOM     14  H   LIG d   1       2.025   1.218  -8.406  0.00  0.00     0.062 H 
ATOM     15  C   LIG d   1       3.941  -1.539  -8.740  0.00  0.00    -0.061 A 
ATOM     16  H   LIG d   1       2.842  -0.340 -10.129  0.00  0.00     0.062 H 
ATOM     17  C   LIG d   1       4.302  -1.718  -7.418  0.00  0.00    -0.056 A 
ATOM     18  H   LIG d   1       4.299  -2.222  -9.496  0.00  0.00     0.062 H 
ATOM     19  H   LIG d   1       4.944  -2.541  -7.141  0.00  0.00     0.062 H 
ENDBRANCH   7   9
BRANCH   7  20
ATOM     20  O   LIG d   1       3.832  -2.351  -4.583  0.00  0.00    -0.382 OA
ATOM     21  H   LIG d   1       4.113  -3.060  -5.177  0.00  0.00     0.210 HD
ENDBRANCH   7  20
ENDBRANCH   1   7
BRANCH   1  22
ATOM     22  N   LIG d   1       4.559   0.850  -3.493  0.00  0.00     0.235 N 
ATOM     23  H   LIG d   1       4.567   1.773  -3.945  0.00  0.00     0.203 HD
BRANCH  22  24
ATOM     24  C   LIG d   1       4.240   1.021  -2.060  0.00  0.00    -0.043 C 
ATOM     25  H   LIG d   1       3.828   0.100  -1.647  0.00  0.00     0.078 H 
ATOM     26  H   LIG d   1       5.151   1.284  -1.523  0.00  0.00     0.078 H 
ATOM     27  H   LIG d   1       3.512   1.824  -1.953  0.00  0.00     0.078 H 
ENDBRANCH  22  24
BRANCH  22  28
ATOM     28  C   LIG d   1       5.892   0.231  -3.644  0.00  0.00    -0.043 C 
ATOM     29  H   LIG d   1       5.807  -0.840  -3.462  0.00  0.00     0.078 H 
ATOM     30  H   LIG d   1       6.250   0.400  -4.660  0.00  0.00     0.078 H 
ATOM     31  H   LIG d   1       6.597   0.664  -2.934  0.00  0.00     0.078 H 
ENDBRANCH  22  28
ENDBRANCH   1  22
TORSDOF 7
ENDMDL
MODEL 10
REMARK VINA RESULT:      -4.2      3.155      3.996
REMARK  7 active torsions:
REMARK  status: ('A' for Active; 'I' for Inactive)
REMARK    1  A    between atoms: C_1  and  C_2 
REMARK    2  A    between atoms: C_2  and  C_4 
REMARK    3  A    between atoms: C_2  and  N_30 
REMARK    4  A    between atoms: C_4  and  C_6 
REMARK    5  A    between atoms: C_4  and  O_12 
REMARK    6  A    between atoms: C_13  and  N_30 
REMARK    7  A    between atoms: C_14  and  N_30 
ROOT
ATOM      1  C   LIG d   1       7.927  -2.024  -4.461  0.00  0.00     0.006 C 
ATOM      2  H   LIG d   1       8.219  -1.131  -3.906  0.00  0.00     0.088 H 
ENDROOT
BRANCH   1   3
ATOM      3  C   LIG d   1       8.348  -3.269  -3.679  0.00  0.00    -0.019 C 
ATOM      4  H   LIG d   1       8.176  -3.107  -2.616  0.00  0.00     0.029 H 
ATOM      5  H   LIG d   1       7.762  -4.125  -4.016  0.00  0.00     0.029 H 
ATOM      6  H   LIG d   1       9.407  -3.465  -3.850  0.00  0.00     0.029 H 
ENDBRANCH   1   3
BRANCH   1   7
ATOM      7  C   LIG d   1       6.409  -2.031  -4.653  0.00  0.00     0.122 C 
ATOM      8  H   LIG d   1       6.168  -1.678  -5.656  0.00  0.00     0.070 H 
BRANCH   7   9
ATOM      9  C   LIG d   1       5.769  -1.124  -3.634  0.00  0.00    -0.014 A 
ATOM     10  C   LIG d   1       6.061   0.226  -3.630  0.00  0.00    -0.056 A 
ATOM     11  C   LIG d   1       5.473   1.058  -2.696  0.00  0.00    -0.061 A 
ATOM     12  H   LIG d   1       6.748   0.632  -4.357  0.00  0.00     0.062 H 
ATOM     13  C   LIG d   1       4.593   0.538  -1.764  0.00  0.00    -0.062 A 
ATOM     14  H   LIG d   1       5.702   2.113  -2.691  0.00  0.00     0.062 H 
ATOM     15  C   LIG d   1       4.300  -0.813  -1.768  0.00  0.00    -0.061 A 
ATOM     16  H   LIG d   1       4.135   1.188  -1.033  0.00  0.00     0.062 H 
ATOM     17  C   LIG d   1       4.884  -1.644  -2.706  0.00  0.00    -0.056 A 
ATOM     18  H   LIG d   1       3.613  -1.219  -1.041  0.00  0.00     0.062 H 
ATOM     19  H   LIG d   1       4.652  -2.699  -2.713  0.00  0.00     0.062 H 
ENDBRANCH   7   9
BRANCH   7  20
ATOM     20  O   LIG d   1       5.914  -3.362  -4.485  0.00  0.00    -0.382 OA
ATOM     21  H   LIG d   1       5.588  -3.551  -3.595  0.00  0.00     0.210 HD
ENDBRANCH   7  20
ENDBRANCH   1   7
BRANCH   1  22
ATOM     22  N   LIG d   1       8.580  -2.047  -5.786  0.00  0.00     0.235 N 
ATOM     23  H   LIG d   1       8.596  -3.013  -6.134  0.00  0.00     0.203 HD
BRANCH  22  24
ATOM     24  C   LIG d   1       7.822  -1.207  -6.738  0.00  0.00    -0.043 C 
ATOM     25  H   LIG d   1       7.547  -0.258  -6.275  0.00  0.00     0.078 H 
ATOM     26  H   LIG d   1       8.440  -1.018  -7.615  0.00  0.00     0.078 H 
ATOM     27  H   LIG d   1       6.920  -1.739  -7.038  0.00  0.00     0.078 H 
ENDBRANCH  22  24
BRANCH  22  28
ATOM     28  C   LIG d   1       9.969  -1.555  -5.674  0.00  0.00    -0.043 C 
ATOM     29  H   LIG d   1      10.492  -1.758  -6.609  0.00  0.00     0.078 H 
ATOM     30  H   LIG d   1       9.952  -0.480  -5.495  0.00  0.00     0.078 H 
ATOM     31  H   LIG d   1      10.486  -2.052  -4.854  0.00  0.00     0.078 H 
ENDBRANCH  22  28
ENDBRANCH   1  22
TORSDOF 7
ENDMDL
