MODEL 1
REMARK VINA RESULT:      -5.1      0.000      0.000
REMARK  6 active torsions:
REMARK  status: ('A' for Active; 'I' for Inactive)
REMARK    1  A    between atoms: C_1  and  C_2 
REMARK    2  A    between atoms: C_2  and  C_3 
REMARK    3  A    between atoms: C_2  and  C_4 
REMARK    4  A    between atoms: C_2  and  N_11 
REMARK    5  A    between atoms: C_4  and  C_5 
REMARK    6  A    between atoms: N_11  and  C_12 
ROOT
ATOM      1  C   LIG d   1       4.914  -2.893  -4.566  0.00  0.00    -0.014 C 
ENDROOT
BRANCH   1   2
ATOM      2  C   LIG d   1       6.318  -2.324  -4.353  0.00  0.00    -0.019 C 
ATOM      3  H   LIG d   1       6.353  -1.789  -3.404  0.00  0.00     0.029 H 
ATOM      4  H   LIG d   1       7.042  -3.139  -4.338  0.00  0.00     0.029 H 
ATOM      5  H   LIG d   1       6.559  -1.639  -5.166  0.00  0.00     0.029 H 
ENDBRANCH   1   2
BRANCH   1   6
ATOM      6  C   LIG d   1       5.013  -4.383  -4.904  0.00  0.00    -0.019 C 
ATOM      7  H   LIG d   1       4.450  -4.586  -5.814  0.00  0.00     0.029 H 
ATOM      8  H   LIG d   1       6.058  -4.653  -5.054  0.00  0.00     0.029 H 
ATOM      9  H   LIG d   1       4.600  -4.970  -4.083  0.00  0.00     0.029 H 
ENDBRANCH   1   6
BRANCH   1  10
ATOM     10  C   LIG d   1       4.092  -2.714  -3.288  0.00  0.00     0.018 C 
ATOM     11  H   LIG d   1       3.097  -3.136  -3.435  0.00  0.00     0.037 H 
ATOM     12  H   LIG d   1       4.585  -3.227  -2.463  0.00  0.00     0.037 H 
BRANCH  10  13
ATOM     13  C   LIG d   1       3.973  -1.246  -2.968  0.00  0.00    -0.042 A 
ATOM     14  C   LIG d   1       3.167  -0.433  -3.743  0.00  0.00    -0.058 A 
ATOM     15  C   LIG d   1       3.056   0.913  -3.448  0.00  0.00    -0.061 A 
ATOM     16  H   LIG d   1       2.622  -0.850  -4.577  0.00  0.00     0.062 H 
ATOM     17  C   LIG d   1       3.757   1.446  -2.383  0.00  0.00    -0.062 A 
ATOM     18  H   LIG d   1       2.422   1.548  -4.049  0.00  0.00     0.062 H 
ATOM     19  C   LIG d   1       4.567   0.634  -1.612  0.00  0.00    -0.061 A 
ATOM     20  H   LIG d   1       3.672   2.499  -2.153  0.00  0.00     0.062 H 
ATOM     21  C   LIG d   1       4.675  -0.712  -1.905  0.00  0.00    -0.058 A 
ATOM     22  H   LIG d   1       5.115   1.051  -0.780  0.00  0.00     0.062 H 
ATOM     23  H   LIG d   1       5.309  -1.346  -1.303  0.00  0.00     0.062 H 
ENDBRANCH  10  13
ENDBRANCH   1  10
BRANCH   1  24
ATOM     24  N   LIG d   1       4.260  -2.182  -5.673  0.00  0.00     0.229 N 
ATOM     25  H   LIG d   1       3.643  -2.815  -6.161  0.00  0.00     0.202 HD
ATOM     26  H   LIG d   1       3.726  -1.408  -5.307  0.00  0.00     0.202 HD
BRANCH  24  27
ATOM     27  C   LIG d   1       5.280  -1.678  -6.602  0.00  0.00    -0.044 C 
ATOM     28  H   LIG d   1       5.786  -2.519  -7.076  0.00  0.00     0.078 H 
ATOM     29  H   LIG d   1       4.805  -1.061  -7.365  0.00  0.00     0.078 H 
ATOM     30  H   LIG d   1       6.008  -1.080  -6.052  0.00  0.00     0.078 H 
ENDBRANCH  24  27
ENDBRANCH   1  24
TORSDOF 6
ENDMDL
MODEL 2
REMARK VINA RESULT:      -4.9      1.421      4.230
REMARK  6 active torsions:
REMARK  status: ('A' for Active; 'I' for Inactive)
REMARK    1  A    between atoms: C_1  and  C_2 
REMARK    2  A    between atoms: C_2  and  C_3 
REMARK    3  A    between atoms: C_2  and  C_4 
REMARK    4  A    between atoms: C_2  and  N_11 
REMARK    5  A    between atoms: C_4  and  C_5 
REMARK    6  A    between atoms: N_11  and  C_12 
ROOT
ATOM      1  C   LIG d   1       4.623   0.465  -3.059  0.00  0.00    -0.014 C 
ENDROOT
BRANCH   1   2
ATOM      2  C   LIG d   1       3.630   1.368  -2.324  0.00  0.00    -0.019 C 
ATOM      3  H   LIG d   1       2.636   0.924  -2.366  0.00  0.00     0.029 H 
ATOM      4  H   LIG d   1       3.938   1.474  -1.283  0.00  0.00     0.029 H 
ATOM      5  H   LIG d   1       3.611   2.348  -2.799  0.00  0.00     0.029 H 
ENDBRANCH   1   2
BRANCH   1   6
ATOM      6  C   LIG d   1       6.002   1.129  -3.077  0.00  0.00    -0.019 C 
ATOM      7  H   LIG d   1       5.892   2.187  -3.315  0.00  0.00     0.029 H 
ATOM      8  H   LIG d   1       6.469   1.023  -2.098  0.00  0.00     0.029 H 
ATOM      9  H   LIG d   1       6.626   0.650  -3.831  0.00  0.00     0.029 H 
ENDBRANCH   1   6
BRANCH   1  10
ATOM     10  C   LIG d   1       4.716  -0.883  -2.341  0.00  0.00     0.018 C 
ATOM     11  H   LIG d   1       5.295  -0.767  -1.425  0.00  0.00     0.037 H 
ATOM     12  H   LIG d   1       3.715  -1.234  -2.095  0.00  0.00     0.037 H 
BRANCH  10  13
ATOM     13  C   LIG d   1       5.393  -1.886  -3.240  0.00  0.00    -0.042 A 
ATOM     14  C   LIG d   1       4.636  -2.786  -3.966  0.00  0.00    -0.058 A 
ATOM     15  C   LIG d   1       5.257  -3.704  -4.792  0.00  0.00    -0.061 A 
ATOM     16  H   LIG d   1       3.558  -2.770  -3.889  0.00  0.00     0.062 H 
ATOM     17  C   LIG d   1       6.635  -3.726  -4.886  0.00  0.00    -0.062 A 
ATOM     18  H   LIG d   1       4.665  -4.404  -5.363  0.00  0.00     0.062 H 
ATOM     19  C   LIG d   1       7.393  -2.829  -4.157  0.00  0.00    -0.061 A 
ATOM     20  H   LIG d   1       7.121  -4.445  -5.530  0.00  0.00     0.062 H 
ATOM     21  C   LIG d   1       6.772  -1.909  -3.333  0.00  0.00    -0.058 A 
ATOM     22  H   LIG d   1       8.470  -2.847  -4.231  0.00  0.00     0.062 H 
ATOM     23  H   LIG d   1       7.364  -1.209  -2.763  0.00  0.00     0.062 H 
ENDBRANCH  10  13
ENDBRANCH   1  10
BRANCH   1  24
ATOM     24  N   LIG d   1       4.163   0.254  -4.439  0.00  0.00     0.229 N 
ATOM     25  H   LIG d   1       4.608   0.924  -5.048  0.00  0.00     0.202 HD
ATOM     26  H   LIG d   1       4.404  -0.680  -4.734  0.00  0.00     0.202 HD
BRANCH  24  27
ATOM     27  C   LIG d   1       2.706   0.426  -4.501  0.00  0.00    -0.044 C 
ATOM     28  H   LIG d   1       2.366   0.964  -3.615  0.00  0.00     0.078 H 
ATOM     29  H   LIG d   1       2.444   0.994  -5.394  0.00  0.00     0.078 H 
ATOM     30  H   LIG d   1       2.225  -0.552  -4.538  0.00  0.00     0.078 H 
ENDBRANCH  24  27
ENDBRANCH   1  24
TORSDOF 6
ENDMDL
MODEL 3
REMARK VINA RESULT:      -4.8      1.802      3.007
REMARK  6 active torsions:
REMARK  status: ('A' for Active; 'I' for Inactive)
REMARK    1  A    between atoms: C_1  and  C_2 
REMARK    2  A    between atoms: C_2  and  C_3 
REMARK    3  A    between atoms: C_2  and  C_4 
REMARK    4  A    between atoms: C_2  and  N_11 
REMARK    5  A    between atoms: C_4  and  C_5 
REMARK    6  A    between atoms: N_11  and  C_12 
ROOT
ATOM      1  C   LIG d   1       3.830  -0.166  -6.565  0.00  0.00    -0.014 C 
ENDROOT
BRANCH   1   2
ATOM      2  C   LIG d   1       3.887  -1.636  -6.989  0.00  0.00    -0.019 C 
ATOM      3  H   LIG d   1       4.720  -1.783  -7.676  0.00  0.00     0.029 H 
ATOM      4  H   LIG d   1       4.025  -2.263  -6.109  0.00  0.00     0.029 H 
ATOM      5  H   LIG d   1       2.955  -1.906  -7.486  0.00  0.00     0.029 H 
ENDBRANCH   1   2
BRANCH   1   6
ATOM      6  C   LIG d   1       3.532   0.706  -7.786  0.00  0.00    -0.019 C 
ATOM      7  H   LIG d   1       4.468   1.063  -8.215  0.00  0.00     0.029 H 
ATOM      8  H   LIG d   1       2.991   0.119  -8.529  0.00  0.00     0.029 H 
ATOM      9  H   LIG d   1       2.923   1.558  -7.484  0.00  0.00     0.029 H 
ENDBRANCH   1   6
BRANCH   1  10
ATOM     10  C   LIG d   1       2.726   0.022  -5.523  0.00  0.00     0.018 C 
ATOM     11  H   LIG d   1       2.278   1.008  -5.642  0.00  0.00     0.037 H 
ATOM     12  H   LIG d   1       1.962  -0.742  -5.660  0.00  0.00     0.037 H 
BRANCH  10  13
ATOM     13  C   LIG d   1       3.314  -0.099  -4.140  0.00  0.00    -0.042 A 
ATOM     14  C   LIG d   1       3.565  -1.348  -3.602  0.00  0.00    -0.058 A 
ATOM     15  C   LIG d   1       4.108  -1.458  -2.336  0.00  0.00    -0.061 A 
ATOM     16  H   LIG d   1       3.341  -2.237  -4.174  0.00  0.00     0.062 H 
ATOM     17  C   LIG d   1       4.390  -0.320  -1.604  0.00  0.00    -0.062 A 
ATOM     18  H   LIG d   1       4.309  -2.433  -1.918  0.00  0.00     0.062 H 
ATOM     19  C   LIG d   1       4.134   0.928  -2.140  0.00  0.00    -0.061 A 
ATOM     20  H   LIG d   1       4.812  -0.407  -0.613  0.00  0.00     0.062 H 
ATOM     21  C   LIG d   1       3.596   1.038  -3.408  0.00  0.00    -0.058 A 
ATOM     22  H   LIG d   1       4.356   1.817  -1.568  0.00  0.00     0.062 H 
ATOM     23  H   LIG d   1       3.395   2.013  -3.826  0.00  0.00     0.062 H 
ENDBRANCH  10  13
ENDBRANCH   1  10
BRANCH   1  24
ATOM     24  N   LIG d   1       5.122   0.227  -5.986  0.00  0.00     0.229 N 
ATOM     25  H   LIG d   1       5.315   1.190  -6.217  0.00  0.00     0.202 HD
ATOM     26  H   LIG d   1       5.087   0.122  -4.983  0.00  0.00     0.202 HD
BRANCH  24  27
ATOM     27  C   LIG d   1       6.183  -0.631  -6.531  0.00  0.00    -0.044 C 
ATOM     28  H   LIG d   1       7.106  -0.056  -6.616  0.00  0.00     0.078 H 
ATOM     29  H   LIG d   1       6.343  -1.479  -5.865  0.00  0.00     0.078 H 
ATOM     30  H   LIG d   1       5.888  -0.993  -7.515  0.00  0.00     0.078 H 
ENDBRANCH  24  27
ENDBRANCH   1  24
TORSDOF 6
ENDMDL
MODEL 4
REMARK VINA RESULT:      -4.6      2.260      3.001
REMARK  6 active torsions:
REMARK  status: ('A' for Active; 'I' for Inactive)
REMARK    1  A    between atoms: C_1  and  C_2 
REMARK    2  A    between atoms: C_2  and  C_3 
REMARK    3  A    between atoms: C_2  and  C_4 
REMARK    4  A    between atoms: C_2  and  N_11 
REMARK    5  A    between atoms: C_4  and  C_5 
REMARK    6  A    between atoms: N_11  and  C_12 
ROOT
ATOM      1  C   LIG d   1       7.486  -0.982  -4.336  0.00  0.00    -0.014 C 
ENDROOT
BRANCH   1   2
ATOM      2  C   LIG d   1       8.514  -1.953  -4.922  0.00  0.00    -0.019 C 
ATOM      3  H   LIG d   1       8.160  -2.977  -4.794  0.00  0.00     0.029 H 
ATOM      4  H   LIG d   1       8.647  -1.744  -5.983  0.00  0.00     0.029 H 
ATOM      5  H   LIG d   1       9.465  -1.830  -4.404  0.00  0.00     0.029 H 
ENDBRANCH   1   2
BRANCH   1   6
ATOM      6  C   LIG d   1       6.429  -0.657  -5.394  0.00  0.00    -0.019 C 
ATOM      7  H   LIG d   1       6.798   0.136  -6.043  0.00  0.00     0.029 H 
ATOM      8  H   LIG d   1       6.224  -1.548  -5.989  0.00  0.00     0.029 H 
ATOM      9  H   LIG d   1       5.513  -0.329  -4.904  0.00  0.00     0.029 H 
ENDBRANCH   1   6
BRANCH   1  10
ATOM     10  C   LIG d   1       6.811  -1.625  -3.123  0.00  0.00     0.018 C 
ATOM     11  H   LIG d   1       6.705  -2.697  -3.291  0.00  0.00     0.037 H 
ATOM     12  H   LIG d   1       7.419  -1.456  -2.235  0.00  0.00     0.037 H 
BRANCH  10  13
ATOM     13  C   LIG d   1       5.449  -1.012  -2.922  0.00  0.00    -0.042 A 
ATOM     14  C   LIG d   1       5.335   0.275  -2.428  0.00  0.00    -0.058 A 
ATOM     15  C   LIG d   1       4.086   0.838  -2.248  0.00  0.00    -0.061 A 
ATOM     16  H   LIG d   1       6.224   0.841  -2.187  0.00  0.00     0.062 H 
ATOM     17  C   LIG d   1       2.951   0.112  -2.552  0.00  0.00    -0.062 A 
ATOM     18  H   LIG d   1       3.998   1.845  -1.867  0.00  0.00     0.062 H 
ATOM     19  C   LIG d   1       3.063  -1.176  -3.041  0.00  0.00    -0.061 A 
ATOM     20  H   LIG d   1       1.974   0.552  -2.409  0.00  0.00     0.062 H 
ATOM     21  C   LIG d   1       4.312  -1.738  -3.225  0.00  0.00    -0.058 A 
ATOM     22  H   LIG d   1       2.176  -1.743  -3.279  0.00  0.00     0.062 H 
ATOM     23  H   LIG d   1       4.400  -2.744  -3.606  0.00  0.00     0.062 H 
ENDBRANCH  10  13
ENDBRANCH   1  10
BRANCH   1  24
ATOM     24  N   LIG d   1       8.162   0.255  -3.922  0.00  0.00     0.229 N 
ATOM     25  H   LIG d   1       7.721   0.616  -3.089  0.00  0.00     0.202 HD
ATOM     26  H   LIG d   1       9.133   0.060  -3.731  0.00  0.00     0.202 HD
BRANCH  24  27
ATOM     27  C   LIG d   1       8.064   1.250  -4.999  0.00  0.00    -0.044 C 
ATOM     28  H   LIG d   1       7.140   1.817  -4.886  0.00  0.00     0.078 H 
ATOM     29  H   LIG d   1       8.916   1.927  -4.946  0.00  0.00     0.078 H 
ATOM     30  H   LIG d   1       8.063   0.742  -5.963  0.00  0.00     0.078 H 
ENDBRANCH  24  27
ENDBRANCH   1  24
TORSDOF 6
ENDMDL
MODEL 5
REMARK VINA RESULT:      -4.4      2.817      4.390
REMARK  6 active torsions:
REMARK  status: ('A' for Active; 'I' for Inactive)
REMARK    1  A    between atoms: C_1  and  C_2 
REMARK    2  A    between atoms: C_2  and  C_3 
REMARK    3  A    between atoms: C_2  and  C_4 
REMARK    4  A    between atoms: C_2  and  N_11 
REMARK    5  A    between atoms: C_4  and  C_5 
REMARK    6  A    between atoms: N_11  and  C_12 
ROOT
ATOM      1  C   LIG d   1       4.547  -0.064  -2.904  0.00  0.00    -0.014 C 
ENDROOT
BRANCH   1   2
ATOM      2  C   LIG d   1       3.552  -1.198  -2.647  0.00  0.00    -0.019 C 
ATOM      3  H   LIG d   1       3.784  -1.676  -1.695  0.00  0.00     0.029 H 
ATOM      4  H   LIG d   1       2.540  -0.793  -2.614  0.00  0.00     0.029 H 
ATOM      5  H   LIG d   1       3.624  -1.932  -3.449  0.00  0.00     0.029 H 
ENDBRANCH   1   2
BRANCH   1   6
ATOM      6  C   LIG d   1       4.544   0.897  -1.713  0.00  0.00    -0.019 C 
ATOM      7  H   LIG d   1       4.988   1.846  -2.012  0.00  0.00     0.029 H 
ATOM      8  H   LIG d   1       3.518   1.064  -1.383  0.00  0.00     0.029 H 
ATOM      9  H   LIG d   1       5.122   0.466  -0.896  0.00  0.00     0.029 H 
ENDBRANCH   1   6
BRANCH   1  10
ATOM     10  C   LIG d   1       5.950  -0.648  -3.084  0.00  0.00     0.018 C 
ATOM     11  H   LIG d   1       6.464  -0.659  -2.123  0.00  0.00     0.037 H 
ATOM     12  H   LIG d   1       5.875  -1.665  -3.467  0.00  0.00     0.037 H 
BRANCH  10  13
ATOM     13  C   LIG d   1       6.726   0.200  -4.059  0.00  0.00    -0.042 A 
ATOM     14  C   LIG d   1       7.351   1.355  -3.626  0.00  0.00    -0.058 A 
ATOM     15  C   LIG d   1       8.065   2.130  -4.519  0.00  0.00    -0.061 A 
ATOM     16  H   LIG d   1       7.284   1.648  -2.588  0.00  0.00     0.062 H 
ATOM     17  C   LIG d   1       8.147   1.756  -5.847  0.00  0.00    -0.062 A 
ATOM     18  H   LIG d   1       8.558   3.029  -4.180  0.00  0.00     0.062 H 
ATOM     19  C   LIG d   1       7.518   0.604  -6.281  0.00  0.00    -0.061 A 
ATOM     20  H   LIG d   1       8.704   2.363  -6.546  0.00  0.00     0.062 H 
ATOM     21  C   LIG d   1       6.807  -0.174  -5.387  0.00  0.00    -0.058 A 
ATOM     22  H   LIG d   1       7.583   0.311  -7.319  0.00  0.00     0.062 H 
ATOM     23  H   LIG d   1       6.315  -1.073  -5.726  0.00  0.00     0.062 H 
ENDBRANCH  10  13
ENDBRANCH   1  10
BRANCH   1  24
ATOM     24  N   LIG d   1       4.159   0.662  -4.121  0.00  0.00     0.229 N 
ATOM     25  H   LIG d   1       4.145   1.653  -3.931  0.00  0.00     0.202 HD
ATOM     26  H   LIG d   1       4.825   0.470  -4.854  0.00  0.00     0.202 HD
BRANCH  24  27
ATOM     27  C   LIG d   1       2.823   0.224  -4.547  0.00  0.00    -0.044 C 
ATOM     28  H   LIG d   1       2.920  -0.591  -5.264  0.00  0.00     0.078 H 
ATOM     29  H   LIG d   1       2.259  -0.120  -3.679  0.00  0.00     0.078 H 
ATOM     30  H   LIG d   1       2.299   1.058  -5.013  0.00  0.00     0.078 H 
ENDBRANCH  24  27
ENDBRANCH   1  24
TORSDOF 6
ENDMDL
MODEL 6
REMARK VINA RESULT:      -4.2      2.136      2.960
REMARK  6 active torsions:
REMARK  status: ('A' for Active; 'I' for Inactive)
REMARK    1  A    between atoms: C_1  and  C_2 
REMARK    2  A    between atoms: C_2  and  C_3 
REMARK    3  A    between atoms: C_2  and  C_4 
REMARK    4  A    between atoms: C_2  and  N_11 
REMARK    5  A    between atoms: C_4  and  C_5 
REMARK    6  A    between atoms: N_11  and  C_12 
ROOT
ATOM      1  C   LIG d   1       7.412  -2.152  -4.144  0.00  0.00    -0.014 C 
ENDROOT
BRANCH   1   2
ATOM      2  C   LIG d   1       6.235  -3.071  -4.476  0.00  0.00    -0.019 C 
ATOM      3  H   LIG d   1       6.594  -3.933  -5.038  0.00  0.00     0.029 H 
ATOM      4  H   LIG d   1       5.765  -3.408  -3.552  0.00  0.00     0.029 H 
ATOM      5  H   LIG d   1       5.507  -2.525  -5.076  0.00  0.00     0.029 H 
ENDBRANCH   1   2
BRANCH   1   6
ATOM      6  C   LIG d   1       7.994  -1.579  -5.439  0.00  0.00    -0.019 C 
ATOM      7  H   LIG d   1       9.012  -1.944  -5.572  0.00  0.00     0.029 H 
ATOM      8  H   LIG d   1       7.381  -1.895  -6.283  0.00  0.00     0.029 H 
ATOM      9  H   LIG d   1       8.002  -0.491  -5.383  0.00  0.00     0.029 H 
ENDBRANCH   1   6
BRANCH   1  10
ATOM     10  C   LIG d   1       6.930  -1.006  -3.252  0.00  0.00     0.018 C 
ATOM     11  H   LIG d   1       7.250  -1.187  -2.226  0.00  0.00     0.037 H 
ATOM     12  H   LIG d   1       7.355  -0.067  -3.604  0.00  0.00     0.037 H 
BRANCH  10  13
ATOM     13  C   LIG d   1       5.426  -0.928  -3.304  0.00  0.00    -0.042 A 
ATOM     14  C   LIG d   1       4.807  -0.160  -4.272  0.00  0.00    -0.058 A 
ATOM     15  C   LIG d   1       3.427  -0.090  -4.321  0.00  0.00    -0.061 A 
ATOM     16  H   LIG d   1       5.401   0.383  -4.992  0.00  0.00     0.062 H 
ATOM     17  C   LIG d   1       2.668  -0.782  -3.397  0.00  0.00    -0.062 A 
ATOM     18  H   LIG d   1       2.943   0.506  -5.081  0.00  0.00     0.062 H 
ATOM     19  C   LIG d   1       3.287  -1.546  -2.426  0.00  0.00    -0.061 A 
ATOM     20  H   LIG d   1       1.589  -0.726  -3.434  0.00  0.00     0.062 H 
ATOM     21  C   LIG d   1       4.666  -1.619  -2.379  0.00  0.00    -0.058 A 
ATOM     22  H   LIG d   1       2.693  -2.087  -1.704  0.00  0.00     0.062 H 
ATOM     23  H   LIG d   1       5.150  -2.215  -1.620  0.00  0.00     0.062 H 
ENDBRANCH  10  13
ENDBRANCH   1  10
BRANCH   1  24
ATOM     24  N   LIG d   1       8.449  -2.919  -3.439  0.00  0.00     0.229 N 
ATOM     25  H   LIG d   1       9.327  -2.425  -3.492  0.00  0.00     0.202 HD
ATOM     26  H   LIG d   1       8.184  -3.032  -2.472  0.00  0.00     0.202 HD
BRANCH  24  27
ATOM     27  C   LIG d   1       8.591  -4.240  -4.066  0.00  0.00    -0.044 C 
ATOM     28  H   LIG d   1       8.574  -5.011  -3.295  0.00  0.00     0.078 H 
ATOM     29  H   LIG d   1       7.767  -4.403  -4.761  0.00  0.00     0.078 H 
ATOM     30  H   LIG d   1       9.536  -4.286  -4.606  0.00  0.00     0.078 H 
ENDBRANCH  24  27
ENDBRANCH   1  24
TORSDOF 6
ENDMDL
MODEL 7
REMARK VINA RESULT:      -4.2      1.975      4.152
REMARK  6 active torsions:
REMARK  status: ('A' for Active; 'I' for Inactive)
REMARK    1  A    between atoms: C_1  and  C_2 
REMARK    2  A    between atoms: C_2  and  C_3 
REMARK    3  A    between atoms: C_2  and  C_4 
REMARK    4  A    between atoms: C_2  and  N_11 
REMARK    5  A    between atoms: C_4  and  C_5 
REMARK    6  A    between atoms: N_11  and  C_12 
ROOT
ATOM      1  C   LIG d   1       4.138   0.169  -2.988  0.00  0.00    -0.014 C 
ENDROOT
BRANCH   1   2
ATOM      2  C   LIG d   1       3.569   1.439  -2.351  0.00  0.00    -0.019 C 
ATOM      3  H   LIG d   1       3.097   2.051  -3.120  0.00  0.00     0.029 H 
ATOM      4  H   LIG d   1       2.830   1.167  -1.597  0.00  0.00     0.029 H 
ATOM      5  H   LIG d   1       4.376   2.002  -1.883  0.00  0.00     0.029 H 
ENDBRANCH   1   2
BRANCH   1   6
ATOM      6  C   LIG d   1       4.663  -0.761  -1.892  0.00  0.00    -0.019 C 
ATOM      7  H   LIG d   1       3.844  -1.041  -1.231  0.00  0.00     0.029 H 
ATOM      8  H   LIG d   1       5.087  -1.657  -2.347  0.00  0.00     0.029 H 
ATOM      9  H   LIG d   1       5.434  -0.247  -1.317  0.00  0.00     0.029 H 
ENDBRANCH   1   6
BRANCH   1  10
ATOM     10  C   LIG d   1       3.038  -0.543  -3.777  0.00  0.00     0.018 C 
ATOM     11  H   LIG d   1       2.982  -1.585  -3.462  0.00  0.00     0.037 H 
ATOM     12  H   LIG d   1       2.082  -0.056  -3.589  0.00  0.00     0.037 H 
BRANCH  10  13
ATOM     13  C   LIG d   1       3.353  -0.479  -5.249  0.00  0.00    -0.042 A 
ATOM     14  C   LIG d   1       2.733   0.464  -6.049  0.00  0.00    -0.058 A 
ATOM     15  C   LIG d   1       3.025   0.524  -7.398  0.00  0.00    -0.061 A 
ATOM     16  H   LIG d   1       2.024   1.155  -5.617  0.00  0.00     0.062 H 
ATOM     17  C   LIG d   1       3.929  -0.363  -7.950  0.00  0.00    -0.062 A 
ATOM     18  H   LIG d   1       2.545   1.265  -8.022  0.00  0.00     0.062 H 
ATOM     19  C   LIG d   1       4.544  -1.309  -7.152  0.00  0.00    -0.061 A 
ATOM     20  H   LIG d   1       4.155  -0.317  -9.005  0.00  0.00     0.062 H 
ATOM     21  C   LIG d   1       4.256  -1.367  -5.802  0.00  0.00    -0.058 A 
ATOM     22  H   LIG d   1       5.251  -2.002  -7.584  0.00  0.00     0.062 H 
ATOM     23  H   LIG d   1       4.736  -2.107  -5.179  0.00  0.00     0.062 H 
ENDBRANCH  10  13
ENDBRANCH   1  10
BRANCH   1  24
ATOM     24  N   LIG d   1       5.238   0.527  -3.895  0.00  0.00     0.229 N 
ATOM     25  H   LIG d   1       5.135   0.021  -4.762  0.00  0.00     0.202 HD
ATOM     26  H   LIG d   1       5.213   1.518  -4.079  0.00  0.00     0.202 HD
BRANCH  24  27
ATOM     27  C   LIG d   1       6.520   0.176  -3.271  0.00  0.00    -0.044 C 
ATOM     28  H   LIG d   1       6.992  -0.626  -3.839  0.00  0.00     0.078 H 
ATOM     29  H   LIG d   1       7.173   1.050  -3.265  0.00  0.00     0.078 H 
ATOM     30  H   LIG d   1       6.348  -0.156  -2.247  0.00  0.00     0.078 H 
ENDBRANCH  24  27
ENDBRANCH   1  24
TORSDOF 6
ENDMDL
MODEL 8
REMARK VINA RESULT:      -4.1      3.196      4.913
REMARK  6 active torsions:
REMARK  status: ('A' for Active; 'I' for Inactive)
REMARK    1  A    between atoms: C_1  and  C_2 
REMARK    2  A    between atoms: C_2  and  C_3 
REMARK    3  A    between atoms: C_2  and  C_4 
REMARK    4  A    between atoms: C_2  and  N_11 
REMARK    5  A    between atoms: C_4  and  C_5 
REMARK    6  A    between atoms: N_11  and  C_12 
ROOT
ATOM      1  C   LIG d   1       4.212  -0.594  -5.489  0.00  0.00    -0.014 C 
ENDROOT
BRANCH   1   2
ATOM      2  C   LIG d   1       2.968   0.132  -4.975  0.00  0.00    -0.019 C 
ATOM      3  H   LIG d   1       3.182   1.197  -4.879  0.00  0.00     0.029 H 
ATOM      4  H   LIG d   1       2.146  -0.012  -5.676  0.00  0.00     0.029 H 
ATOM      5  H   LIG d   1       2.689  -0.271  -4.001  0.00  0.00     0.029 H 
ENDBRANCH   1   2
BRANCH   1   6
ATOM      6  C   LIG d   1       4.424  -1.878  -4.684  0.00  0.00    -0.019 C 
ATOM      7  H   LIG d   1       3.470  -2.212  -4.277  0.00  0.00     0.029 H 
ATOM      8  H   LIG d   1       4.833  -2.651  -5.334  0.00  0.00     0.029 H 
ATOM      9  H   LIG d   1       5.120  -1.685  -3.868  0.00  0.00     0.029 H 
ENDBRANCH   1   6
BRANCH   1  10
ATOM     10  C   LIG d   1       4.024  -0.944  -6.967  0.00  0.00     0.018 C 
ATOM     11  H   LIG d   1       4.829  -1.604  -7.289  0.00  0.00     0.037 H 
ATOM     12  H   LIG d   1       3.067  -1.446  -7.103  0.00  0.00     0.037 H 
BRANCH  10  13
ATOM     13  C   LIG d   1       4.050   0.319  -7.790  0.00  0.00    -0.042 A 
ATOM     14  C   LIG d   1       2.899   1.070  -7.940  0.00  0.00    -0.058 A 
ATOM     15  C   LIG d   1       2.923   2.229  -8.692  0.00  0.00    -0.061 A 
ATOM     16  H   LIG d   1       1.981   0.752  -7.466  0.00  0.00     0.062 H 
ATOM     17  C   LIG d   1       4.096   2.633  -9.300  0.00  0.00    -0.062 A 
ATOM     18  H   LIG d   1       2.026   2.819  -8.804  0.00  0.00     0.062 H 
ATOM     19  C   LIG d   1       5.246   1.879  -9.155  0.00  0.00    -0.061 A 
ATOM     20  H   LIG d   1       4.115   3.538  -9.890  0.00  0.00     0.062 H 
ATOM     21  C   LIG d   1       5.223   0.722  -8.400  0.00  0.00    -0.058 A 
ATOM     22  H   LIG d   1       6.163   2.195  -9.631  0.00  0.00     0.062 H 
ATOM     23  H   LIG d   1       6.120   0.133  -8.287  0.00  0.00     0.062 H 
ENDBRANCH  10  13
ENDBRANCH   1  10
BRANCH   1  24
ATOM     24  N   LIG d   1       5.386   0.278  -5.338  0.00  0.00     0.229 N 
ATOM     25  H   LIG d   1       5.731   0.537  -6.250  0.00  0.00     0.202 HD
ATOM     26  H   LIG d   1       5.124   1.108  -4.829  0.00  0.00     0.202 HD
BRANCH  24  27
ATOM     27  C   LIG d   1       6.435  -0.438  -4.601  0.00  0.00    -0.044 C 
ATOM     28  H   LIG d   1       7.393  -0.295  -5.102  0.00  0.00     0.078 H 
ATOM     29  H   LIG d   1       6.495  -0.050  -3.584  0.00  0.00     0.078 H 
ATOM     30  H   LIG d   1       6.197  -1.501  -4.570  0.00  0.00     0.078 H 
ENDBRANCH  24  27
ENDBRANCH   1  24
TORSDOF 6
ENDMDL
MODEL 9
REMARK VINA RESULT:      -4.1      3.199      4.689
REMARK  6 active torsions:
REMARK  status: ('A' for Active; 'I' for Inactive)
REMARK    1  A    between atoms: C_1  and  C_2 
REMARK    2  A    between atoms: C_2  and  C_3 
REMARK    3  A    between atoms: C_2  and  C_4 
REMARK    4  A    between atoms: C_2  and  N_11 
REMARK    5  A    between atoms: C_4  and  C_5 
REMARK    6  A    between atoms: N_11  and  C_12 
ROOT
ATOM      1  C   LIG d   1       3.590   0.960  -8.657  0.00  0.00    -0.014 C 
ENDROOT
BRANCH   1   2
ATOM      2  C   LIG d   1       3.718   0.616 -10.143  0.00  0.00    -0.019 C 
ATOM      3  H   LIG d   1       2.759   0.257 -10.516  0.00  0.00     0.029 H 
ATOM      4  H   LIG d   1       4.015   1.506 -10.698  0.00  0.00     0.029 H 
ATOM      5  H   LIG d   1       4.471  -0.161 -10.271  0.00  0.00     0.029 H 
ENDBRANCH   1   2
BRANCH   1   6
ATOM      6  C   LIG d   1       2.833   2.281  -8.503  0.00  0.00    -0.019 C 
ATOM      7  H   LIG d   1       3.271   2.857  -7.688  0.00  0.00     0.029 H 
ATOM      8  H   LIG d   1       2.903   2.851  -9.430  0.00  0.00     0.029 H 
ATOM      9  H   LIG d   1       1.786   2.076  -8.281  0.00  0.00     0.029 H 
ENDBRANCH   1   6
BRANCH   1  10
ATOM     10  C   LIG d   1       2.825  -0.153  -7.940  0.00  0.00     0.018 C 
ATOM     11  H   LIG d   1       1.754   0.034  -8.019  0.00  0.00     0.037 H 
ATOM     12  H   LIG d   1       3.061  -1.112  -8.399  0.00  0.00     0.037 H 
BRANCH  10  13
ATOM     13  C   LIG d   1       3.224  -0.181  -6.486  0.00  0.00    -0.042 A 
ATOM     14  C   LIG d   1       2.513   0.560  -5.560  0.00  0.00    -0.058 A 
ATOM     15  C   LIG d   1       2.877   0.531  -4.227  0.00  0.00    -0.061 A 
ATOM     16  H   LIG d   1       1.671   1.157  -5.878  0.00  0.00     0.062 H 
ATOM     17  C   LIG d   1       3.956  -0.231  -3.822  0.00  0.00    -0.062 A 
ATOM     18  H   LIG d   1       2.318   1.105  -3.502  0.00  0.00     0.062 H 
ATOM     19  C   LIG d   1       4.670  -0.967  -4.748  0.00  0.00    -0.061 A 
ATOM     20  H   LIG d   1       4.242  -0.251  -2.780  0.00  0.00     0.062 H 
ATOM     21  C   LIG d   1       4.304  -0.941  -6.081  0.00  0.00    -0.058 A 
ATOM     22  H   LIG d   1       5.513  -1.562  -4.431  0.00  0.00     0.062 H 
ATOM     23  H   LIG d   1       4.862  -1.516  -6.805  0.00  0.00     0.062 H 
ENDBRANCH  10  13
ENDBRANCH   1  10
BRANCH   1  24
ATOM     24  N   LIG d   1       4.930   1.092  -8.068  0.00  0.00     0.229 N 
ATOM     25  H   LIG d   1       4.866   1.602  -7.200  0.00  0.00     0.202 HD
ATOM     26  H   LIG d   1       5.312   0.175  -7.893  0.00  0.00     0.202 HD
BRANCH  24  27
ATOM     27  C   LIG d   1       5.805   1.817  -9.000  0.00  0.00    -0.044 C 
ATOM     28  H   LIG d   1       6.579   1.144  -9.368  0.00  0.00     0.078 H 
ATOM     29  H   LIG d   1       5.216   2.188  -9.838  0.00  0.00     0.078 H 
ATOM     30  H   LIG d   1       6.270   2.656  -8.483  0.00  0.00     0.078 H 
ENDBRANCH  24  27
ENDBRANCH   1  24
TORSDOF 6
ENDMDL
MODEL 10
REMARK VINA RESULT:      -4.1      3.138      5.031
REMARK  6 active torsions:
REMARK  status: ('A' for Active; 'I' for Inactive)
REMARK    1  A    between atoms: C_1  and  C_2 
REMARK    2  A    between atoms: C_2  and  C_3 
REMARK    3  A    between atoms: C_2  and  C_4 
REMARK    4  A    between atoms: C_2  and  N_11 
REMARK    5  A    between atoms: C_4  and  C_5 
REMARK    6  A    between atoms: N_11  and  C_12 
ROOT
ATOM      1  C   LIG d   1       4.658  -0.701  -5.593  0.00  0.00    -0.014 C 
ENDROOT
BRANCH   1   2
ATOM      2  C   LIG d   1       4.404  -1.920  -4.704  0.00  0.00    -0.019 C 
ATOM      3  H   LIG d   1       4.084  -2.759  -5.321  0.00  0.00     0.029 H 
ATOM      4  H   LIG d   1       5.322  -2.184  -4.178  0.00  0.00     0.029 H 
ATOM      5  H   LIG d   1       3.625  -1.684  -3.979  0.00  0.00     0.029 H 
ENDBRANCH   1   2
BRANCH   1   6
ATOM      6  C   LIG d   1       6.151  -0.363  -5.584  0.00  0.00    -0.019 C 
ATOM      7  H   LIG d   1       6.469  -0.095  -6.591  0.00  0.00     0.029 H 
ATOM      8  H   LIG d   1       6.329   0.475  -4.910  0.00  0.00     0.029 H 
ATOM      9  H   LIG d   1       6.717  -1.230  -5.242  0.00  0.00     0.029 H 
ENDBRANCH   1   6
BRANCH   1  10
ATOM     10  C   LIG d   1       4.215  -1.012  -7.024  0.00  0.00     0.018 C 
ATOM     11  H   LIG d   1       4.939  -1.681  -7.490  0.00  0.00     0.037 H 
ATOM     12  H   LIG d   1       3.237  -1.491  -7.007  0.00  0.00     0.037 H 
BRANCH  10  13
ATOM     13  C   LIG d   1       4.133   0.268  -7.815  0.00  0.00    -0.042 A 
ATOM     14  C   LIG d   1       5.262   0.772  -8.434  0.00  0.00    -0.058 A 
ATOM     15  C   LIG d   1       5.186   1.945  -9.162  0.00  0.00    -0.061 A 
ATOM     16  H   LIG d   1       6.203   0.247  -8.351  0.00  0.00     0.062 H 
ATOM     17  C   LIG d   1       3.983   2.617  -9.264  0.00  0.00    -0.062 A 
ATOM     18  H   LIG d   1       6.067   2.335  -9.650  0.00  0.00     0.062 H 
ATOM     19  C   LIG d   1       2.856   2.116  -8.641  0.00  0.00    -0.061 A 
ATOM     20  H   LIG d   1       3.924   3.535  -9.831  0.00  0.00     0.062 H 
ATOM     21  C   LIG d   1       2.931   0.942  -7.916  0.00  0.00    -0.058 A 
ATOM     22  H   LIG d   1       1.916   2.642  -8.721  0.00  0.00     0.062 H 
ATOM     23  H   LIG d   1       2.050   0.551  -7.429  0.00  0.00     0.062 H 
ENDBRANCH  10  13
ENDBRANCH   1  10
BRANCH   1  24
ATOM     24  N   LIG d   1       3.893   0.446  -5.083  0.00  0.00     0.229 N 
ATOM     25  H   LIG d   1       4.509   1.057  -4.567  0.00  0.00     0.202 HD
ATOM     26  H   LIG d   1       3.488   0.951  -5.856  0.00  0.00     0.202 HD
BRANCH  24  27
ATOM     27  C   LIG d   1       2.824  -0.035  -4.197  0.00  0.00    -0.044 C 
ATOM     28  H   LIG d   1       3.261  -0.602  -3.376  0.00  0.00     0.078 H 
ATOM     29  H   LIG d   1       2.272   0.817  -3.798  0.00  0.00     0.078 H 
ATOM     30  H   LIG d   1       2.146  -0.675  -4.761  0.00  0.00     0.078 H 
ENDBRANCH  24  27
ENDBRANCH   1  24
TORSDOF 6
ENDMDL
