MODEL 1
REMARK VINA RESULT:      -7.5      0.000      0.000
REMARK  4 active torsions:
REMARK  status: ('A' for Active; 'I' for Inactive)
REMARK    1  A    between atoms: C_1  and  C_2 
REMARK    2  A    between atoms: C_7  and  C_8 
REMARK    3  A    between atoms: C_13  and  C_31 
REMARK    4  A    between atoms: C_31  and  C_33 
ROOT
ATOM      1  C   LIG d   1       8.817  -5.778  -3.898  0.00  0.00    -0.046 A 
ATOM      2  C   LIG d   1       8.101  -6.118  -5.032  0.00  0.00    -0.058 A 
ATOM      3  C   LIG d   1       7.606  -5.124  -5.857  0.00  0.00    -0.054 A 
ATOM      4  C   LIG d   1       7.824  -3.800  -5.548  0.00  0.00     0.004 A 
ATOM      5  C   LIG d   1       8.542  -3.446  -4.411  0.00  0.00     0.042 A 
ATOM      6  C   LIG d   1       9.033  -4.454  -3.582  0.00  0.00    -0.026 A 
ATOM      7  N   LIG d   1       8.633  -2.057  -4.310  0.00  0.00    -0.283 N 
ATOM      8  C   LIG d   1       8.011  -1.432  -5.327  0.00  0.00     0.243 A 
ATOM      9  O   LIG d   1       7.929  -0.234  -5.497  0.00  0.00    -0.273 OA
ATOM     10  C   LIG d   1       7.435  -2.507  -6.215  0.00  0.00     0.138 A 
ATOM     11  C   LIG d   1       5.910  -2.378  -6.302  0.00  0.00     0.076 C 
ATOM     12  H   LIG d   1       5.432  -3.281  -5.922  0.00  0.00     0.042 H 
ATOM     13  C   LIG d   1       5.608  -2.203  -7.794  0.00  0.00     0.102 A 
ATOM     14  C   LIG d   1       4.562  -1.151  -8.029  0.00  0.00    -0.009 A 
ATOM     15  C   LIG d   1       4.481   0.190  -7.726  0.00  0.00    -0.056 A 
ATOM     16  C   LIG d   1       3.357   0.913  -8.082  0.00  0.00    -0.061 A 
ATOM     17  C   LIG d   1       2.315   0.287  -8.742  0.00  0.00    -0.060 A 
ATOM     18  C   LIG d   1       2.391  -1.056  -9.047  0.00  0.00    -0.040 A 
ATOM     19  C   LIG d   1       3.520  -1.793  -8.693  0.00  0.00     0.038 A 
ATOM     20  N   LIG d   1       3.829  -3.140  -8.889  0.00  0.00    -0.284 N 
ATOM     21  C   LIG d   1       5.038  -3.461  -8.391  0.00  0.00     0.230 A 
ATOM     22  O   LIG d   1       5.567  -4.553  -8.419  0.00  0.00    -0.274 OA
ATOM     23  C   LIG d   1       6.942  -1.826  -8.445  0.00  0.00     0.030 C 
ATOM     24  H   LIG d   1       7.057  -0.744  -8.525  0.00  0.00     0.048 H 
ATOM     25  N   LIG d   1       7.986  -2.423  -7.570  0.00  0.00    -0.280 N 
ATOM     26  C   LIG d   1       8.242  -3.778  -8.116  0.00  0.00     0.001 C 
ATOM     27  C   LIG d   1       8.191  -3.560  -9.650  0.00  0.00    -0.039 C 
ATOM     28  C   LIG d   1       7.049  -2.507  -9.822  0.00  0.00    -0.035 C 
ATOM     29  H   LIG d   1       7.931  -7.157  -5.273  0.00  0.00     0.062 H 
ATOM     30  H   LIG d   1       7.048  -5.387  -6.744  0.00  0.00     0.062 H 
ATOM     31  H   LIG d   1       9.090  -1.595  -3.590  0.00  0.00     0.155 HD
ATOM     32  H   LIG d   1       5.295   0.677  -7.210  0.00  0.00     0.062 H 
ATOM     33  H   LIG d   1       3.292   1.966  -7.844  0.00  0.00     0.062 H 
ATOM     34  H   LIG d   1       1.438   0.852  -9.020  0.00  0.00     0.062 H 
ATOM     35  H   LIG d   1       1.574  -1.539  -9.562  0.00  0.00     0.064 H 
ATOM     36  H   LIG d   1       3.240  -3.771  -9.332  0.00  0.00     0.155 HD
ATOM     37  H   LIG d   1       9.224  -4.137  -7.811  0.00  0.00     0.043 H 
ATOM     38  H   LIG d   1       7.462  -4.473  -7.801  0.00  0.00     0.043 H 
ATOM     39  H   LIG d   1       9.136  -3.157 -10.013  0.00  0.00     0.028 H 
ATOM     40  H   LIG d   1       7.942  -4.488 -10.164  0.00  0.00     0.028 H 
ATOM     41  H   LIG d   1       6.109  -3.000 -10.073  0.00  0.00     0.028 H 
ATOM     42  H   LIG d   1       7.309  -1.776 -10.587  0.00  0.00     0.028 H 
ENDROOT
BRANCH  11  43
ATOM     43  C   LIG d   1       5.441  -1.173  -5.527  0.00  0.00     0.205 C 
ATOM     44  O   LIG d   1       5.779  -0.059  -5.873  0.00  0.00    -0.288 OA
BRANCH  43  45
ATOM     45  C   LIG d   1       4.609  -1.340  -4.397  0.00  0.00     0.170 A 
ATOM     46  O   LIG d   1       3.465  -0.668  -4.146  0.00  0.00    -0.460 OA
ATOM     47  C   LIG d   1       2.945  -1.092  -2.987  0.00  0.00     0.093 A 
ATOM     48  C   LIG d   1       3.752  -2.043  -2.463  0.00  0.00    -0.023 A 
ATOM     49  H   LIG d   1       2.031  -0.730  -2.541  0.00  0.00     0.103 H 
ATOM     50  C   LIG d   1       4.822  -2.216  -3.351  0.00  0.00    -0.013 A 
ATOM     51  H   LIG d   1       3.600  -2.570  -1.533  0.00  0.00     0.065 H 
ATOM     52  H   LIG d   1       5.650  -2.899  -3.239  0.00  0.00     0.066 H 
ENDBRANCH  43  45
ENDBRANCH  11  43
BRANCH   6  53
ATOM     53  C   LIG d   1       9.808  -4.094  -2.341  0.00  0.00    -0.038 C 
ATOM     54  H   LIG d   1       9.207  -4.318  -1.460  0.00  0.00     0.028 H 
ATOM     55  H   LIG d   1      10.730  -4.673  -2.307  0.00  0.00     0.028 H 
ATOM     56  H   LIG d   1      10.046  -3.030  -2.357  0.00  0.00     0.028 H 
ENDBRANCH   6  53
BRANCH   1  57
ATOM     57  C   LIG d   1       9.357  -6.862  -3.001  0.00  0.00    -0.039 C 
ATOM     58  H   LIG d   1       9.887  -7.600  -3.601  0.00  0.00     0.028 H 
ATOM     59  H   LIG d   1      10.041  -6.424  -2.273  0.00  0.00     0.028 H 
ATOM     60  H   LIG d   1       8.530  -7.344  -2.477  0.00  0.00     0.028 H 
ENDBRANCH   1  57
TORSDOF 4
ENDMDL
MODEL 2
REMARK VINA RESULT:      -7.3      2.336      4.598
REMARK  4 active torsions:
REMARK  status: ('A' for Active; 'I' for Inactive)
REMARK    1  A    between atoms: C_1  and  C_2 
REMARK    2  A    between atoms: C_7  and  C_8 
REMARK    3  A    between atoms: C_13  and  C_31 
REMARK    4  A    between atoms: C_31  and  C_33 
ROOT
ATOM      1  C   LIG d   1       4.808  -0.932  -2.793  0.00  0.00    -0.046 A 
ATOM      2  C   LIG d   1       4.197  -2.138  -3.087  0.00  0.00    -0.058 A 
ATOM      3  C   LIG d   1       4.472  -2.774  -4.285  0.00  0.00    -0.054 A 
ATOM      4  C   LIG d   1       5.351  -2.207  -5.180  0.00  0.00     0.004 A 
ATOM      5  C   LIG d   1       5.971  -0.995  -4.895  0.00  0.00     0.042 A 
ATOM      6  C   LIG d   1       5.685  -0.358  -3.688  0.00  0.00    -0.026 A 
ATOM      7  N   LIG d   1       6.813  -0.624  -5.945  0.00  0.00    -0.283 N 
ATOM      8  C   LIG d   1       6.804  -1.524  -6.945  0.00  0.00     0.243 A 
ATOM      9  O   LIG d   1       7.437  -1.463  -7.978  0.00  0.00    -0.273 OA
ATOM     10  C   LIG d   1       5.858  -2.625  -6.535  0.00  0.00     0.138 A 
ATOM     11  C   LIG d   1       4.701  -2.745  -7.535  0.00  0.00     0.076 C 
ATOM     12  H   LIG d   1       3.750  -2.566  -7.036  0.00  0.00     0.042 H 
ATOM     13  C   LIG d   1       4.768  -4.186  -8.053  0.00  0.00     0.102 A 
ATOM     14  C   LIG d   1       4.543  -4.254  -9.537  0.00  0.00    -0.009 A 
ATOM     15  C   LIG d   1       5.189  -3.700 -10.620  0.00  0.00    -0.056 A 
ATOM     16  C   LIG d   1       4.733  -3.953 -11.900  0.00  0.00    -0.061 A 
ATOM     17  C   LIG d   1       3.626  -4.762 -12.090  0.00  0.00    -0.060 A 
ATOM     18  C   LIG d   1       2.976  -5.318 -11.008  0.00  0.00    -0.040 A 
ATOM     19  C   LIG d   1       3.430  -5.069  -9.714  0.00  0.00     0.038 A 
ATOM     20  N   LIG d   1       2.951  -5.510  -8.480  0.00  0.00    -0.284 N 
ATOM     21  C   LIG d   1       3.682  -5.037  -7.453  0.00  0.00     0.230 A 
ATOM     22  O   LIG d   1       3.502  -5.255  -6.273  0.00  0.00    -0.274 OA
ATOM     23  C   LIG d   1       6.160  -4.699  -7.670  0.00  0.00     0.030 C 
ATOM     24  H   LIG d   1       6.874  -4.564  -8.483  0.00  0.00     0.048 H 
ATOM     25  N   LIG d   1       6.548  -3.916  -6.466  0.00  0.00    -0.280 N 
ATOM     26  C   LIG d   1       6.071  -4.704  -5.304  0.00  0.00     0.001 C 
ATOM     27  C   LIG d   1       6.373  -6.166  -5.716  0.00  0.00    -0.039 C 
ATOM     28  C   LIG d   1       6.061  -6.176  -7.247  0.00  0.00    -0.035 C 
ATOM     29  H   LIG d   1       3.508  -2.582  -2.384  0.00  0.00     0.062 H 
ATOM     30  H   LIG d   1       3.997  -3.716  -4.518  0.00  0.00     0.062 H 
ATOM     31  H   LIG d   1       7.341   0.189  -5.953  0.00  0.00     0.155 HD
ATOM     32  H   LIG d   1       6.052  -3.069 -10.469  0.00  0.00     0.062 H 
ATOM     33  H   LIG d   1       5.238  -3.520 -12.751  0.00  0.00     0.062 H 
ATOM     34  H   LIG d   1       3.271  -4.960 -13.091  0.00  0.00     0.062 H 
ATOM     35  H   LIG d   1       2.114  -5.948 -11.164  0.00  0.00     0.064 H 
ATOM     36  H   LIG d   1       2.179  -6.089  -8.374  0.00  0.00     0.155 HD
ATOM     37  H   LIG d   1       6.625  -4.435  -4.405  0.00  0.00     0.043 H 
ATOM     38  H   LIG d   1       5.001  -4.559  -5.155  0.00  0.00     0.043 H 
ATOM     39  H   LIG d   1       7.421  -6.408  -5.540  0.00  0.00     0.028 H 
ATOM     40  H   LIG d   1       5.722  -6.860  -5.184  0.00  0.00     0.028 H 
ATOM     41  H   LIG d   1       5.055  -6.554  -7.430  0.00  0.00     0.028 H 
ATOM     42  H   LIG d   1       6.794  -6.775  -7.788  0.00  0.00     0.028 H 
ENDROOT
BRANCH  11  43
ATOM     43  C   LIG d   1       4.888  -1.771  -8.670  0.00  0.00     0.205 C 
ATOM     44  O   LIG d   1       5.884  -1.828  -9.362  0.00  0.00    -0.288 OA
BRANCH  43  45
ATOM     45  C   LIG d   1       3.903  -0.791  -8.928  0.00  0.00     0.170 A 
ATOM     46  O   LIG d   1       3.983   0.520  -8.615  0.00  0.00    -0.460 OA
ATOM     47  C   LIG d   1       2.868   1.142  -9.015  0.00  0.00     0.093 A 
ATOM     48  C   LIG d   1       2.039   0.239  -9.588  0.00  0.00    -0.023 A 
ATOM     49  H   LIG d   1       2.661   2.196  -8.896  0.00  0.00     0.103 H 
ATOM     50  C   LIG d   1       2.684  -1.004  -9.542  0.00  0.00    -0.013 A 
ATOM     51  H   LIG d   1       1.062   0.439 -10.003  0.00  0.00     0.065 H 
ATOM     52  H   LIG d   1       2.303  -1.943  -9.913  0.00  0.00     0.066 H 
ENDBRANCH  43  45
ENDBRANCH  11  43
BRANCH   6  53
ATOM     53  C   LIG d   1       6.340   0.959  -3.360  0.00  0.00    -0.038 C 
ATOM     54  H   LIG d   1       7.142   0.797  -2.641  0.00  0.00     0.028 H 
ATOM     55  H   LIG d   1       6.751   1.396  -4.269  0.00  0.00     0.028 H 
ATOM     56  H   LIG d   1       5.599   1.636  -2.933  0.00  0.00     0.028 H 
ENDBRANCH   6  53
BRANCH   1  57
ATOM     57  C   LIG d   1       4.509  -0.241  -1.488  0.00  0.00    -0.039 C 
ATOM     58  H   LIG d   1       5.073   0.690  -1.432  0.00  0.00     0.028 H 
ATOM     59  H   LIG d   1       3.442  -0.024  -1.427  0.00  0.00     0.028 H 
ATOM     60  H   LIG d   1       4.795  -0.889  -0.659  0.00  0.00     0.028 H 
ENDBRANCH   1  57
TORSDOF 4
ENDMDL
MODEL 3
REMARK VINA RESULT:      -7.3      1.849      5.646
REMARK  4 active torsions:
REMARK  status: ('A' for Active; 'I' for Inactive)
REMARK    1  A    between atoms: C_1  and  C_2 
REMARK    2  A    between atoms: C_7  and  C_8 
REMARK    3  A    between atoms: C_13  and  C_31 
REMARK    4  A    between atoms: C_31  and  C_33 
ROOT
ATOM      1  C   LIG d   1       9.060  -1.511 -10.531  0.00  0.00    -0.046 A 
ATOM      2  C   LIG d   1       9.577  -1.078  -9.323  0.00  0.00    -0.058 A 
ATOM      3  C   LIG d   1       8.818  -1.188  -8.171  0.00  0.00    -0.054 A 
ATOM      4  C   LIG d   1       7.552  -1.725  -8.228  0.00  0.00     0.004 A 
ATOM      5  C   LIG d   1       7.022  -2.164  -9.437  0.00  0.00     0.042 A 
ATOM      6  C   LIG d   1       7.791  -2.045 -10.594  0.00  0.00    -0.026 A 
ATOM      7  N   LIG d   1       5.733  -2.666  -9.245  0.00  0.00    -0.283 N 
ATOM      8  C   LIG d   1       5.348  -2.596  -7.958  0.00  0.00     0.243 A 
ATOM      9  O   LIG d   1       4.284  -2.959  -7.502  0.00  0.00    -0.273 OA
ATOM     10  C   LIG d   1       6.492  -1.982  -7.190  0.00  0.00     0.138 A 
ATOM     11  C   LIG d   1       6.055  -0.672  -6.524  0.00  0.00     0.076 C 
ATOM     12  H   LIG d   1       6.653   0.159  -6.896  0.00  0.00     0.042 H 
ATOM     13  C   LIG d   1       6.309  -0.881  -5.027  0.00  0.00     0.102 A 
ATOM     14  C   LIG d   1       5.180  -0.345  -4.193  0.00  0.00    -0.009 A 
ATOM     15  C   LIG d   1       3.832  -0.619  -4.132  0.00  0.00    -0.056 A 
ATOM     16  C   LIG d   1       3.028   0.060  -3.234  0.00  0.00    -0.061 A 
ATOM     17  C   LIG d   1       3.581   1.015  -2.399  0.00  0.00    -0.060 A 
ATOM     18  C   LIG d   1       4.930   1.293  -2.458  0.00  0.00    -0.040 A 
ATOM     19  C   LIG d   1       5.749   0.614  -3.358  0.00  0.00     0.038 A 
ATOM     20  N   LIG d   1       7.119   0.715  -3.601  0.00  0.00    -0.284 N 
ATOM     21  C   LIG d   1       7.528  -0.131  -4.566  0.00  0.00     0.230 A 
ATOM     22  O   LIG d   1       8.660  -0.262  -4.982  0.00  0.00    -0.274 OA
ATOM     23  C   LIG d   1       6.476  -2.393  -4.842  0.00  0.00     0.030 C 
ATOM     24  H   LIG d   1       5.535  -2.869  -4.566  0.00  0.00     0.048 H 
ATOM     25  N   LIG d   1       6.979  -2.893  -6.150  0.00  0.00    -0.280 N 
ATOM     26  C   LIG d   1       8.458  -2.840  -6.059  0.00  0.00     0.001 C 
ATOM     27  C   LIG d   1       8.743  -3.302  -4.608  0.00  0.00    -0.039 C 
ATOM     28  C   LIG d   1       7.572  -2.661  -3.795  0.00  0.00    -0.035 C 
ATOM     29  H   LIG d   1      10.571  -0.658  -9.279  0.00  0.00     0.062 H 
ATOM     30  H   LIG d   1       9.220  -0.852  -7.226  0.00  0.00     0.062 H 
ATOM     31  H   LIG d   1       5.180  -3.023  -9.957  0.00  0.00     0.155 HD
ATOM     32  H   LIG d   1       3.403  -1.365  -4.784  0.00  0.00     0.062 H 
ATOM     33  H   LIG d   1       1.970  -0.155  -3.185  0.00  0.00     0.062 H 
ATOM     34  H   LIG d   1       2.952   1.544  -1.699  0.00  0.00     0.062 H 
ATOM     35  H   LIG d   1       5.355   2.040  -1.803  0.00  0.00     0.064 H 
ATOM     36  H   LIG d   1       7.709   1.324  -3.129  0.00  0.00     0.155 HD
ATOM     37  H   LIG d   1       8.912  -3.523  -6.776  0.00  0.00     0.043 H 
ATOM     38  H   LIG d   1       8.817  -1.823  -6.216  0.00  0.00     0.043 H 
ATOM     39  H   LIG d   1       8.705  -4.389  -4.535  0.00  0.00     0.028 H 
ATOM     40  H   LIG d   1       9.705  -2.924  -4.263  0.00  0.00     0.028 H 
ATOM     41  H   LIG d   1       7.892  -1.725  -3.336  0.00  0.00     0.028 H 
ATOM     42  H   LIG d   1       7.207  -3.350  -3.033  0.00  0.00     0.028 H 
ENDROOT
BRANCH  11  43
ATOM     43  C   LIG d   1       4.591  -0.419  -6.777  0.00  0.00     0.205 C 
ATOM     44  O   LIG d   1       3.752  -1.105  -6.230  0.00  0.00    -0.288 OA
BRANCH  43  45
ATOM     45  C   LIG d   1       4.195   0.618  -7.652  0.00  0.00     0.170 A 
ATOM     46  O   LIG d   1       5.019   1.417  -8.364  0.00  0.00    -0.460 OA
ATOM     47  C   LIG d   1       4.290   2.279  -9.084  0.00  0.00     0.093 A 
ATOM     48  C   LIG d   1       2.978   2.057  -8.842  0.00  0.00    -0.023 A 
ATOM     49  H   LIG d   1       4.687   3.032  -9.748  0.00  0.00     0.103 H 
ATOM     50  C   LIG d   1       2.896   0.999  -7.928  0.00  0.00    -0.013 A 
ATOM     51  H   LIG d   1       2.147   2.597  -9.272  0.00  0.00     0.065 H 
ATOM     52  H   LIG d   1       1.996   0.565  -7.520  0.00  0.00     0.066 H 
ENDBRANCH  43  45
ENDBRANCH  11  43
BRANCH   6  53
ATOM     53  C   LIG d   1       7.234  -2.507 -11.916  0.00  0.00    -0.038 C 
ATOM     54  H   LIG d   1       8.012  -2.452 -12.677  0.00  0.00     0.028 H 
ATOM     55  H   LIG d   1       6.888  -3.536 -11.825  0.00  0.00     0.028 H 
ATOM     56  H   LIG d   1       6.400  -1.866 -12.202  0.00  0.00     0.028 H 
ENDBRANCH   6  53
BRANCH   1  57
ATOM     57  C   LIG d   1       9.887  -1.392 -11.785  0.00  0.00    -0.039 C 
ATOM     58  H   LIG d   1      10.306  -0.388 -11.850  0.00  0.00     0.028 H 
ATOM     59  H   LIG d   1      10.696  -2.123 -11.758  0.00  0.00     0.028 H 
ATOM     60  H   LIG d   1       9.257  -1.580 -12.654  0.00  0.00     0.028 H 
ENDBRANCH   1  57
TORSDOF 4
ENDMDL
MODEL 4
REMARK VINA RESULT:      -7.1      1.792      5.360
REMARK  4 active torsions:
REMARK  status: ('A' for Active; 'I' for Inactive)
REMARK    1  A    between atoms: C_1  and  C_2 
REMARK    2  A    between atoms: C_7  and  C_8 
REMARK    3  A    between atoms: C_13  and  C_31 
REMARK    4  A    between atoms: C_31  and  C_33 
ROOT
ATOM      1  C   LIG d   1       8.728  -3.400 -10.477  0.00  0.00    -0.046 A 
ATOM      2  C   LIG d   1       9.316  -2.621  -9.497  0.00  0.00    -0.058 A 
ATOM      3  C   LIG d   1       8.801  -2.628  -8.212  0.00  0.00    -0.054 A 
ATOM      4  C   LIG d   1       7.707  -3.408  -7.913  0.00  0.00     0.004 A 
ATOM      5  C   LIG d   1       7.108  -4.195  -8.890  0.00  0.00     0.042 A 
ATOM      6  C   LIG d   1       7.630  -4.179 -10.183  0.00  0.00    -0.026 A 
ATOM      7  N   LIG d   1       6.025  -4.892  -8.352  0.00  0.00    -0.283 N 
ATOM      8  C   LIG d   1       5.847  -4.624  -7.046  0.00  0.00     0.243 A 
ATOM      9  O   LIG d   1       4.988  -5.084  -6.324  0.00  0.00    -0.273 OA
ATOM     10  C   LIG d   1       6.920  -3.640  -6.650  0.00  0.00     0.138 A 
ATOM     11  C   LIG d   1       6.298  -2.332  -6.149  0.00  0.00     0.076 C 
ATOM     12  H   LIG d   1       6.612  -1.499  -6.776  0.00  0.00     0.042 H 
ATOM     13  C   LIG d   1       6.832  -2.156  -4.723  0.00  0.00     0.102 A 
ATOM     14  C   LIG d   1       5.759  -1.689  -3.781  0.00  0.00    -0.009 A 
ATOM     15  C   LIG d   1       4.542  -2.208  -3.397  0.00  0.00    -0.056 A 
ATOM     16  C   LIG d   1       3.756  -1.526  -2.487  0.00  0.00    -0.061 A 
ATOM     17  C   LIG d   1       4.193  -0.322  -1.964  0.00  0.00    -0.060 A 
ATOM     18  C   LIG d   1       5.409   0.202  -2.348  0.00  0.00    -0.040 A 
ATOM     19  C   LIG d   1       6.209  -0.478  -3.263  0.00  0.00     0.038 A 
ATOM     20  N   LIG d   1       7.459  -0.159  -3.797  0.00  0.00    -0.284 N 
ATOM     21  C   LIG d   1       7.896  -1.094  -4.662  0.00  0.00     0.230 A 
ATOM     22  O   LIG d   1       8.944  -1.083  -5.273  0.00  0.00    -0.274 OA
ATOM     23  C   LIG d   1       7.382  -3.526  -4.315  0.00  0.00     0.030 C 
ATOM     24  H   LIG d   1       6.638  -4.110  -3.771  0.00  0.00     0.048 H 
ATOM     25  N   LIG d   1       7.771  -4.187  -5.589  0.00  0.00    -0.280 N 
ATOM     26  C   LIG d   1       9.190  -3.820  -5.815  0.00  0.00     0.001 C 
ATOM     27  C   LIG d   1       9.807  -3.889  -4.396  0.00  0.00    -0.039 C 
ATOM     28  C   LIG d   1       8.664  -3.335  -3.484  0.00  0.00    -0.035 C 
ATOM     29  H   LIG d   1      10.174  -2.010  -9.733  0.00  0.00     0.062 H 
ATOM     30  H   LIG d   1       9.258  -2.021  -7.445  0.00  0.00     0.062 H 
ATOM     31  H   LIG d   1       5.465  -5.499  -8.861  0.00  0.00     0.155 HD
ATOM     32  H   LIG d   1       4.204  -3.149  -3.806  0.00  0.00     0.062 H 
ATOM     33  H   LIG d   1       2.801  -1.933  -2.184  0.00  0.00     0.062 H 
ATOM     34  H   LIG d   1       3.578   0.210  -1.253  0.00  0.00     0.062 H 
ATOM     35  H   LIG d   1       5.744   1.143  -1.936  0.00  0.00     0.064 H 
ATOM     36  H   LIG d   1       7.955   0.644  -3.571  0.00  0.00     0.155 HD
ATOM     37  H   LIG d   1       9.672  -4.537  -6.479  0.00  0.00     0.043 H 
ATOM     38  H   LIG d   1       9.266  -2.810  -6.219  0.00  0.00     0.043 H 
ATOM     39  H   LIG d   1      10.041  -4.919  -4.127  0.00  0.00     0.028 H 
ATOM     40  H   LIG d   1      10.694  -3.260  -4.329  0.00  0.00     0.028 H 
ATOM     41  H   LIG d   1       8.822  -2.277  -3.273  0.00  0.00     0.028 H 
ATOM     42  H   LIG d   1       8.602  -3.901  -2.555  0.00  0.00     0.028 H 
ENDROOT
BRANCH  11  43
ATOM     43  C   LIG d   1       4.795  -2.439  -6.135  0.00  0.00     0.205 C 
ATOM     44  O   LIG d   1       4.250  -3.269  -5.436  0.00  0.00    -0.288 OA
BRANCH  43  45
ATOM     45  C   LIG d   1       4.018  -1.572  -6.937  0.00  0.00     0.170 A 
ATOM     46  O   LIG d   1       3.580  -1.826  -8.189  0.00  0.00    -0.460 OA
ATOM     47  C   LIG d   1       2.872  -0.780  -8.633  0.00  0.00     0.093 A 
ATOM     48  C   LIG d   1       2.847   0.175  -7.675  0.00  0.00    -0.023 A 
ATOM     49  H   LIG d   1       2.400  -0.709  -9.602  0.00  0.00     0.103 H 
ATOM     50  C   LIG d   1       3.575  -0.313  -6.583  0.00  0.00    -0.013 A 
ATOM     51  H   LIG d   1       2.358   1.136  -7.742  0.00  0.00     0.065 H 
ATOM     52  H   LIG d   1       3.754   0.195  -5.647  0.00  0.00     0.066 H 
ENDBRANCH  43  45
ENDBRANCH  11  43
BRANCH   6  53
ATOM     53  C   LIG d   1       6.993  -5.019 -11.260  0.00  0.00    -0.038 C 
ATOM     54  H   LIG d   1       6.043  -4.573 -11.554  0.00  0.00     0.028 H 
ATOM     55  H   LIG d   1       7.655  -5.064 -12.125  0.00  0.00     0.028 H 
ATOM     56  H   LIG d   1       6.820  -6.026 -10.880  0.00  0.00     0.028 H 
ENDBRANCH   6  53
BRANCH   1  57
ATOM     57  C   LIG d   1       9.290  -3.393 -11.876  0.00  0.00    -0.039 C 
ATOM     58  H   LIG d   1       9.890  -2.495 -12.022  0.00  0.00     0.028 H 
ATOM     59  H   LIG d   1       9.912  -4.275 -12.023  0.00  0.00     0.028 H 
ATOM     60  H   LIG d   1       8.470  -3.403 -12.596  0.00  0.00     0.028 H 
ENDBRANCH   1  57
TORSDOF 4
ENDMDL
MODEL 5
REMARK VINA RESULT:      -6.9      3.125      5.392
REMARK  4 active torsions:
REMARK  status: ('A' for Active; 'I' for Inactive)
REMARK    1  A    between atoms: C_1  and  C_2 
REMARK    2  A    between atoms: C_7  and  C_8 
REMARK    3  A    between atoms: C_13  and  C_31 
REMARK    4  A    between atoms: C_31  and  C_33 
ROOT
ATOM      1  C   LIG d   1       4.565  -1.559  -3.861  0.00  0.00    -0.046 A 
ATOM      2  C   LIG d   1       5.674  -1.895  -4.615  0.00  0.00    -0.058 A 
ATOM      3  C   LIG d   1       5.796  -1.418  -5.909  0.00  0.00    -0.054 A 
ATOM      4  C   LIG d   1       4.815  -0.613  -6.442  0.00  0.00     0.004 A 
ATOM      5  C   LIG d   1       3.695  -0.270  -5.692  0.00  0.00     0.042 A 
ATOM      6  C   LIG d   1       3.577  -0.758  -4.392  0.00  0.00    -0.026 A 
ATOM      7  N   LIG d   1       2.846   0.549  -6.440  0.00  0.00    -0.283 N 
ATOM      8  C   LIG d   1       3.328   0.788  -7.674  0.00  0.00     0.243 A 
ATOM      9  O   LIG d   1       2.806   1.463  -8.535  0.00  0.00    -0.273 OA
ATOM     10  C   LIG d   1       4.643   0.056  -7.779  0.00  0.00     0.138 A 
ATOM     11  C   LIG d   1       4.595  -0.983  -8.906  0.00  0.00     0.076 C 
ATOM     12  H   LIG d   1       4.763  -1.982  -8.506  0.00  0.00     0.042 H 
ATOM     13  C   LIG d   1       5.732  -0.593  -9.857  0.00  0.00     0.102 A 
ATOM     14  C   LIG d   1       5.313  -0.700 -11.296  0.00  0.00    -0.009 A 
ATOM     15  C   LIG d   1       4.316  -0.108 -12.040  0.00  0.00    -0.056 A 
ATOM     16  C   LIG d   1       4.178  -0.418 -13.381  0.00  0.00    -0.061 A 
ATOM     17  C   LIG d   1       5.040  -1.324 -13.972  0.00  0.00    -0.060 A 
ATOM     18  C   LIG d   1       6.038  -1.920 -13.230  0.00  0.00    -0.040 A 
ATOM     19  C   LIG d   1       6.187  -1.613 -11.879  0.00  0.00     0.038 A 
ATOM     20  N   LIG d   1       7.104  -2.076 -10.934  0.00  0.00    -0.284 N 
ATOM     21  C   LIG d   1       6.906  -1.524  -9.722  0.00  0.00     0.230 A 
ATOM     22  O   LIG d   1       7.550  -1.736  -8.715  0.00  0.00    -0.274 OA
ATOM     23  C   LIG d   1       6.109   0.844  -9.486  0.00  0.00     0.030 C 
ATOM     24  H   LIG d   1       5.582   1.570 -10.107  0.00  0.00     0.048 H 
ATOM     25  N   LIG d   1       5.744   0.986  -8.051  0.00  0.00    -0.280 N 
ATOM     26  C   LIG d   1       6.955   0.600  -7.288  0.00  0.00     0.001 C 
ATOM     27  C   LIG d   1       8.110   1.216  -8.117  0.00  0.00    -0.039 C 
ATOM     28  C   LIG d   1       7.635   1.016  -9.593  0.00  0.00    -0.035 C 
ATOM     29  H   LIG d   1       6.444  -2.526  -4.196  0.00  0.00     0.062 H 
ATOM     30  H   LIG d   1       6.662  -1.678  -6.500  0.00  0.00     0.062 H 
ATOM     31  H   LIG d   1       2.006   0.903  -6.109  0.00  0.00     0.155 HD
ATOM     32  H   LIG d   1       3.644   0.599 -11.577  0.00  0.00     0.062 H 
ATOM     33  H   LIG d   1       3.397   0.046 -13.966  0.00  0.00     0.062 H 
ATOM     34  H   LIG d   1       4.931  -1.565 -15.019  0.00  0.00     0.062 H 
ATOM     35  H   LIG d   1       6.708  -2.626 -13.698  0.00  0.00     0.064 H 
ATOM     36  H   LIG d   1       7.803  -2.720 -11.128  0.00  0.00     0.155 HD
ATOM     37  H   LIG d   1       6.931   1.027  -6.286  0.00  0.00     0.043 H 
ATOM     38  H   LIG d   1       7.051  -0.485  -7.242  0.00  0.00     0.043 H 
ATOM     39  H   LIG d   1       8.220   2.278  -7.895  0.00  0.00     0.028 H 
ATOM     40  H   LIG d   1       9.043   0.684  -7.936  0.00  0.00     0.028 H 
ATOM     41  H   LIG d   1       8.086   0.121 -10.021  0.00  0.00     0.028 H 
ATOM     42  H   LIG d   1       7.877   1.888 -10.199  0.00  0.00     0.028 H 
ENDROOT
BRANCH  11  43
ATOM     43  C   LIG d   1       3.270  -0.920  -9.620  0.00  0.00     0.205 C 
ATOM     44  O   LIG d   1       2.817   0.151  -9.969  0.00  0.00    -0.288 OA
BRANCH  43  45
ATOM     45  C   LIG d   1       2.552  -2.110  -9.882  0.00  0.00     0.170 A 
ATOM     46  O   LIG d   1       1.263  -2.191 -10.276  0.00  0.00    -0.460 OA
ATOM     47  C   LIG d   1       0.926  -3.477 -10.432  0.00  0.00     0.093 A 
ATOM     48  C   LIG d   1       1.992  -4.253 -10.130  0.00  0.00    -0.023 A 
ATOM     49  H   LIG d   1      -0.044  -3.837 -10.744  0.00  0.00     0.103 H 
ATOM     50  C   LIG d   1       3.042  -3.396  -9.776  0.00  0.00    -0.013 A 
ATOM     51  H   LIG d   1       2.026  -5.332 -10.157  0.00  0.00     0.065 H 
ATOM     52  H   LIG d   1       4.039  -3.685  -9.479  0.00  0.00     0.066 H 
ENDBRANCH  43  45
ENDBRANCH  11  43
BRANCH   6  53
ATOM     53  C   LIG d   1       2.369  -0.404  -3.564  0.00  0.00    -0.038 C 
ATOM     54  H   LIG d   1       2.277   0.680  -3.499  0.00  0.00     0.028 H 
ATOM     55  H   LIG d   1       1.475  -0.816  -4.031  0.00  0.00     0.028 H 
ATOM     56  H   LIG d   1       2.481  -0.820  -2.562  0.00  0.00     0.028 H 
ENDBRANCH   6  53
BRANCH   1  57
ATOM     57  C   LIG d   1       4.433  -2.078  -2.452  0.00  0.00    -0.039 C 
ATOM     58  H   LIG d   1       4.143  -3.128  -2.477  0.00  0.00     0.028 H 
ATOM     59  H   LIG d   1       5.388  -1.976  -1.936  0.00  0.00     0.028 H 
ATOM     60  H   LIG d   1       3.672  -1.503  -1.923  0.00  0.00     0.028 H 
ENDBRANCH   1  57
TORSDOF 4
ENDMDL
MODEL 6
REMARK VINA RESULT:      -6.7      1.899      6.331
REMARK  4 active torsions:
REMARK  status: ('A' for Active; 'I' for Inactive)
REMARK    1  A    between atoms: C_1  and  C_2 
REMARK    2  A    between atoms: C_7  and  C_8 
REMARK    3  A    between atoms: C_13  and  C_31 
REMARK    4  A    between atoms: C_31  and  C_33 
ROOT
ATOM      1  C   LIG d   1       3.996   0.139  -9.745  0.00  0.00    -0.046 A 
ATOM      2  C   LIG d   1       4.659  -1.064  -9.911  0.00  0.00    -0.058 A 
ATOM      3  C   LIG d   1       5.075  -1.779  -8.802  0.00  0.00    -0.054 A 
ATOM      4  C   LIG d   1       4.830  -1.293  -7.538  0.00  0.00     0.004 A 
ATOM      5  C   LIG d   1       4.165  -0.085  -7.359  0.00  0.00     0.042 A 
ATOM      6  C   LIG d   1       3.753   0.632  -8.481  0.00  0.00    -0.026 A 
ATOM      7  N   LIG d   1       4.034   0.197  -5.998  0.00  0.00    -0.283 N 
ATOM      8  C   LIG d   1       4.578  -0.761  -5.226  0.00  0.00     0.243 A 
ATOM      9  O   LIG d   1       4.610  -0.781  -4.014  0.00  0.00    -0.273 OA
ATOM     10  C   LIG d   1       5.139  -1.807  -6.157  0.00  0.00     0.138 A 
ATOM     11  C   LIG d   1       6.652  -1.953  -5.957  0.00  0.00     0.076 C 
ATOM     12  H   LIG d   1       7.180  -1.717  -6.880  0.00  0.00     0.042 H 
ATOM     13  C   LIG d   1       6.866  -3.424  -5.583  0.00  0.00     0.102 A 
ATOM     14  C   LIG d   1       7.862  -3.575  -4.468  0.00  0.00    -0.009 A 
ATOM     15  C   LIG d   1       7.915  -3.107  -3.174  0.00  0.00    -0.056 A 
ATOM     16  C   LIG d   1       8.993  -3.424  -2.368  0.00  0.00    -0.061 A 
ATOM     17  C   LIG d   1      10.017  -4.210  -2.864  0.00  0.00    -0.060 A 
ATOM     18  C   LIG d   1       9.969  -4.680  -4.160  0.00  0.00    -0.040 A 
ATOM     19  C   LIG d   1       8.886  -4.367  -4.980  0.00  0.00     0.038 A 
ATOM     20  N   LIG d   1       8.612  -4.718  -6.302  0.00  0.00    -0.284 N 
ATOM     21  C   LIG d   1       7.443  -4.206  -6.732  0.00  0.00     0.230 A 
ATOM     22  O   LIG d   1       6.951  -4.346  -7.832  0.00  0.00    -0.274 OA
ATOM     23  C   LIG d   1       5.486  -3.954  -5.181  0.00  0.00     0.030 C 
ATOM     24  H   LIG d   1       5.331  -3.890  -4.103  0.00  0.00     0.048 H 
ATOM     25  N   LIG d   1       4.512  -3.112  -5.925  0.00  0.00    -0.280 N 
ATOM     26  C   LIG d   1       4.272  -3.813  -7.209  0.00  0.00     0.001 C 
ATOM     27  C   LIG d   1       4.231  -5.306  -6.798  0.00  0.00    -0.039 C 
ATOM     28  C   LIG d   1       5.327  -5.399  -5.687  0.00  0.00    -0.035 C 
ATOM     29  H   LIG d   1       4.851  -1.444 -10.904  0.00  0.00     0.062 H 
ATOM     30  H   LIG d   1       5.593  -2.719  -8.928  0.00  0.00     0.062 H 
ATOM     31  H   LIG d   1       3.602   0.992  -5.649  0.00  0.00     0.155 HD
ATOM     32  H   LIG d   1       7.114  -2.494  -2.789  0.00  0.00     0.062 H 
ATOM     33  H   LIG d   1       9.035  -3.058  -1.352  0.00  0.00     0.062 H 
ATOM     34  H   LIG d   1      10.859  -4.457  -2.234  0.00  0.00     0.062 H 
ATOM     35  H   LIG d   1      10.772  -5.293  -4.541  0.00  0.00     0.064 H 
ATOM     36  H   LIG d   1       9.197  -5.267  -6.849  0.00  0.00     0.155 HD
ATOM     37  H   LIG d   1       3.321  -3.507  -7.643  0.00  0.00     0.043 H 
ATOM     38  H   LIG d   1       5.090  -3.629  -7.906  0.00  0.00     0.043 H 
ATOM     39  H   LIG d   1       3.255  -5.567  -6.391  0.00  0.00     0.028 H 
ATOM     40  H   LIG d   1       4.482  -5.947  -7.643  0.00  0.00     0.028 H 
ATOM     41  H   LIG d   1       6.267  -5.758  -6.106  0.00  0.00     0.028 H 
ATOM     42  H   LIG d   1       5.001  -6.051  -4.876  0.00  0.00     0.028 H 
ENDROOT
BRANCH  11  43
ATOM     43  C   LIG d   1       7.122  -1.056  -4.841  0.00  0.00     0.205 C 
ATOM     44  O   LIG d   1       6.796  -1.289  -3.695  0.00  0.00    -0.288 OA
BRANCH  43  45
ATOM     45  C   LIG d   1       7.942   0.059  -5.129  0.00  0.00     0.170 A 
ATOM     46  O   LIG d   1       7.527   1.335  -5.280  0.00  0.00    -0.460 OA
ATOM     47  C   LIG d   1       8.581   2.118  -5.541  0.00  0.00     0.093 A 
ATOM     48  C   LIG d   1       9.699   1.357  -5.573  0.00  0.00    -0.023 A 
ATOM     49  H   LIG d   1       8.543   3.185  -5.704  0.00  0.00     0.103 H 
ATOM     50  C   LIG d   1       9.311   0.037  -5.311  0.00  0.00    -0.013 A 
ATOM     51  H   LIG d   1      10.704   1.704  -5.764  0.00  0.00     0.065 H 
ATOM     52  H   LIG d   1       9.955  -0.828  -5.262  0.00  0.00     0.066 H 
ENDBRANCH  43  45
ENDBRANCH  11  43
BRANCH   6  53
ATOM     53  C   LIG d   1       3.037   1.947  -8.312  0.00  0.00    -0.038 C 
ATOM     54  H   LIG d   1       2.330   1.871  -7.485  0.00  0.00     0.028 H 
ATOM     55  H   LIG d   1       3.762   2.731  -8.098  0.00  0.00     0.028 H 
ATOM     56  H   LIG d   1       2.499   2.188  -9.229  0.00  0.00     0.028 H 
ENDBRANCH   6  53
BRANCH   1  57
ATOM     57  C   LIG d   1       3.543   0.916 -10.954  0.00  0.00    -0.039 C 
ATOM     58  H   LIG d   1       3.015   1.814 -10.632  0.00  0.00     0.028 H 
ATOM     59  H   LIG d   1       4.410   1.199 -11.552  0.00  0.00     0.028 H 
ATOM     60  H   LIG d   1       2.875   0.298 -11.554  0.00  0.00     0.028 H 
ENDBRANCH   1  57
TORSDOF 4
ENDMDL
MODEL 7
REMARK VINA RESULT:      -6.6      2.309      5.521
REMARK  4 active torsions:
REMARK  status: ('A' for Active; 'I' for Inactive)
REMARK    1  A    between atoms: C_1  and  C_2 
REMARK    2  A    between atoms: C_7  and  C_8 
REMARK    3  A    between atoms: C_13  and  C_31 
REMARK    4  A    between atoms: C_31  and  C_33 
ROOT
ATOM      1  C   LIG d   1       8.166  -1.864 -11.469  0.00  0.00    -0.046 A 
ATOM      2  C   LIG d   1       7.063  -2.548 -10.990  0.00  0.00    -0.058 A 
ATOM      3  C   LIG d   1       6.397  -2.082  -9.870  0.00  0.00    -0.054 A 
ATOM      4  C   LIG d   1       6.833  -0.941  -9.235  0.00  0.00     0.004 A 
ATOM      5  C   LIG d   1       7.940  -0.245  -9.707  0.00  0.00     0.042 A 
ATOM      6  C   LIG d   1       8.609  -0.724 -10.833  0.00  0.00    -0.026 A 
ATOM      7  N   LIG d   1       8.188   0.870  -8.904  0.00  0.00    -0.283 N 
ATOM      8  C   LIG d   1       7.302   0.979  -7.898  0.00  0.00     0.243 A 
ATOM      9  O   LIG d   1       7.273   1.845  -7.051  0.00  0.00    -0.273 OA
ATOM     10  C   LIG d   1       6.349  -0.184  -8.026  0.00  0.00     0.138 A 
ATOM     11  C   LIG d   1       6.402  -1.067  -6.774  0.00  0.00     0.076 C 
ATOM     12  H   LIG d   1       6.716  -2.077  -7.037  0.00  0.00     0.042 H 
ATOM     13  C   LIG d   1       4.968  -1.080  -6.233  0.00  0.00     0.102 A 
ATOM     14  C   LIG d   1       4.938  -0.944  -4.737  0.00  0.00    -0.009 A 
ATOM     15  C   LIG d   1       5.395   0.016  -3.862  0.00  0.00    -0.056 A 
ATOM     16  C   LIG d   1       5.214  -0.146  -2.501  0.00  0.00    -0.061 A 
ATOM     17  C   LIG d   1       4.576  -1.275  -2.020  0.00  0.00    -0.060 A 
ATOM     18  C   LIG d   1       4.118  -2.240  -2.892  0.00  0.00    -0.040 A 
ATOM     19  C   LIG d   1       4.294  -2.085  -4.266  0.00  0.00     0.038 A 
ATOM     20  N   LIG d   1       3.924  -2.906  -5.332  0.00  0.00    -0.284 N 
ATOM     21  C   LIG d   1       4.282  -2.387  -6.521  0.00  0.00     0.230 A 
ATOM     22  O   LIG d   1       4.090  -2.878  -7.614  0.00  0.00    -0.274 OA
ATOM     23  C   LIG d   1       4.257   0.091  -6.919  0.00  0.00     0.030 C 
ATOM     24  H   LIG d   1       4.288   0.993  -6.306  0.00  0.00     0.048 H 
ATOM     25  N   LIG d   1       4.971   0.281  -8.210  0.00  0.00    -0.280 N 
ATOM     26  C   LIG d   1       4.258  -0.570  -9.193  0.00  0.00     0.001 C 
ATOM     27  C   LIG d   1       2.768  -0.386  -8.810  0.00  0.00    -0.039 C 
ATOM     28  C   LIG d   1       2.808  -0.315  -7.249  0.00  0.00    -0.035 C 
ATOM     29  H   LIG d   1       6.722  -3.442 -11.490  0.00  0.00     0.062 H 
ATOM     30  H   LIG d   1       5.535  -2.613  -9.494  0.00  0.00     0.062 H 
ATOM     31  H   LIG d   1       8.916   1.494  -9.054  0.00  0.00     0.155 HD
ATOM     32  H   LIG d   1       5.893   0.897  -4.240  0.00  0.00     0.062 H 
ATOM     33  H   LIG d   1       5.572   0.608  -1.814  0.00  0.00     0.062 H 
ATOM     34  H   LIG d   1       4.435  -1.400  -0.957  0.00  0.00     0.062 H 
ATOM     35  H   LIG d   1       3.620  -3.118  -2.510  0.00  0.00     0.064 H 
ATOM     36  H   LIG d   1       3.463  -3.754  -5.227  0.00  0.00     0.155 HD
ATOM     37  H   LIG d   1       4.440  -0.220 -10.208  0.00  0.00     0.043 H 
ATOM     38  H   LIG d   1       4.556  -1.614  -9.085  0.00  0.00     0.043 H 
ATOM     39  H   LIG d   1       2.376   0.543  -9.222  0.00  0.00     0.028 H 
ATOM     40  H   LIG d   1       2.176  -1.238  -9.142  0.00  0.00     0.028 H 
ATOM     41  H   LIG d   1       2.581  -1.289  -6.815  0.00  0.00     0.028 H 
ATOM     42  H   LIG d   1       2.111   0.436  -6.878  0.00  0.00     0.028 H 
ENDROOT
BRANCH  11  43
ATOM     43  C   LIG d   1       7.342  -0.476  -5.755  0.00  0.00     0.205 C 
ATOM     44  O   LIG d   1       7.126   0.628  -5.298  0.00  0.00    -0.288 OA
BRANCH  43  45
ATOM     45  C   LIG d   1       8.475  -1.207  -5.332  0.00  0.00     0.170 A 
ATOM     46  O   LIG d   1       9.765  -0.875  -5.555  0.00  0.00    -0.460 OA
ATOM     47  C   LIG d   1      10.563  -1.798  -5.004  0.00  0.00     0.093 A 
ATOM     48  C   LIG d   1       9.800  -2.750  -4.421  0.00  0.00    -0.023 A 
ATOM     49  H   LIG d   1      11.643  -1.785  -5.026  0.00  0.00     0.103 H 
ATOM     50  C   LIG d   1       8.461  -2.390  -4.620  0.00  0.00    -0.013 A 
ATOM     51  H   LIG d   1      10.157  -3.626  -3.900  0.00  0.00     0.065 H 
ATOM     52  H   LIG d   1       7.590  -2.931  -4.283  0.00  0.00     0.066 H 
ENDBRANCH  43  45
ENDBRANCH  11  43
BRANCH   6  53
ATOM     53  C   LIG d   1       9.816   0.010 -11.358  0.00  0.00    -0.038 C 
ATOM     54  H   LIG d   1       9.574   1.065 -11.482  0.00  0.00     0.028 H 
ATOM     55  H   LIG d   1      10.639  -0.093 -10.652  0.00  0.00     0.028 H 
ATOM     56  H   LIG d   1      10.106  -0.412 -12.321  0.00  0.00     0.028 H 
ENDBRANCH   6  53
BRANCH   1  57
ATOM     57  C   LIG d   1       8.890  -2.372 -12.689  0.00  0.00    -0.039 C 
ATOM     58  H   LIG d   1       8.386  -3.261 -13.067  0.00  0.00     0.028 H 
ATOM     59  H   LIG d   1       8.892  -1.599 -13.459  0.00  0.00     0.028 H 
ATOM     60  H   LIG d   1       9.917  -2.621 -12.423  0.00  0.00     0.028 H 
ENDBRANCH   1  57
TORSDOF 4
ENDMDL
MODEL 8
REMARK VINA RESULT:      -6.5      1.880      4.627
REMARK  4 active torsions:
REMARK  status: ('A' for Active; 'I' for Inactive)
REMARK    1  A    between atoms: C_1  and  C_2 
REMARK    2  A    between atoms: C_7  and  C_8 
REMARK    3  A    between atoms: C_13  and  C_31 
REMARK    4  A    between atoms: C_31  and  C_33 
ROOT
ATOM      1  C   LIG d   1       9.033  -5.627  -4.544  0.00  0.00    -0.046 A 
ATOM      2  C   LIG d   1       9.098  -4.247  -4.487  0.00  0.00    -0.058 A 
ATOM      3  C   LIG d   1       7.993  -3.491  -4.842  0.00  0.00    -0.054 A 
ATOM      4  C   LIG d   1       6.836  -4.113  -5.251  0.00  0.00     0.004 A 
ATOM      5  C   LIG d   1       6.759  -5.500  -5.312  0.00  0.00     0.042 A 
ATOM      6  C   LIG d   1       7.877  -6.254  -4.958  0.00  0.00    -0.026 A 
ATOM      7  N   LIG d   1       5.494  -5.895  -5.751  0.00  0.00    -0.283 N 
ATOM      8  C   LIG d   1       4.690  -4.844  -5.996  0.00  0.00     0.243 A 
ATOM      9  O   LIG d   1       3.543  -4.887  -6.385  0.00  0.00    -0.273 OA
ATOM     10  C   LIG d   1       5.490  -3.601  -5.693  0.00  0.00     0.138 A 
ATOM     11  C   LIG d   1       5.626  -2.726  -6.944  0.00  0.00     0.076 C 
ATOM     12  H   LIG d   1       6.675  -2.605  -7.210  0.00  0.00     0.042 H 
ATOM     13  C   LIG d   1       5.017  -1.374  -6.555  0.00  0.00     0.102 A 
ATOM     14  C   LIG d   1       4.161  -0.813  -7.654  0.00  0.00    -0.009 A 
ATOM     15  C   LIG d   1       3.041  -1.271  -8.312  0.00  0.00    -0.056 A 
ATOM     16  C   LIG d   1       2.463  -0.506  -9.308  0.00  0.00    -0.061 A 
ATOM     17  C   LIG d   1       3.012   0.718  -9.644  0.00  0.00    -0.060 A 
ATOM     18  C   LIG d   1       4.135   1.180  -8.989  0.00  0.00    -0.040 A 
ATOM     19  C   LIG d   1       4.723   0.417  -7.982  0.00  0.00     0.038 A 
ATOM     20  N   LIG d   1       5.843   0.665  -7.186  0.00  0.00    -0.284 N 
ATOM     21  C   LIG d   1       6.082  -0.338  -6.320  0.00  0.00     0.230 A 
ATOM     22  O   LIG d   1       6.982  -0.396  -5.508  0.00  0.00    -0.274 OA
ATOM     23  C   LIG d   1       4.201  -1.638  -5.285  0.00  0.00     0.030 C 
ATOM     24  H   LIG d   1       3.154  -1.840  -5.516  0.00  0.00     0.048 H 
ATOM     25  N   LIG d   1       4.853  -2.808  -4.637  0.00  0.00    -0.280 N 
ATOM     26  C   LIG d   1       5.872  -2.243  -3.720  0.00  0.00     0.001 C 
ATOM     27  C   LIG d   1       5.163  -1.003  -3.120  0.00  0.00    -0.039 C 
ATOM     28  C   LIG d   1       4.346  -0.441  -4.328  0.00  0.00    -0.035 C 
ATOM     29  H   LIG d   1      10.006  -3.760  -4.166  0.00  0.00     0.062 H 
ATOM     30  H   LIG d   1       8.041  -2.413  -4.797  0.00  0.00     0.062 H 
ATOM     31  H   LIG d   1       5.226  -6.820  -5.867  0.00  0.00     0.155 HD
ATOM     32  H   LIG d   1       2.614  -2.228  -8.049  0.00  0.00     0.062 H 
ATOM     33  H   LIG d   1       1.584  -0.865  -9.825  0.00  0.00     0.062 H 
ATOM     34  H   LIG d   1       2.560   1.315 -10.422  0.00  0.00     0.062 H 
ATOM     35  H   LIG d   1       4.558   2.137  -9.255  0.00  0.00     0.064 H 
ATOM     36  H   LIG d   1       6.386   1.467  -7.250  0.00  0.00     0.155 HD
ATOM     37  H   LIG d   1       6.123  -2.958  -2.938  0.00  0.00     0.043 H 
ATOM     38  H   LIG d   1       6.764  -1.946  -4.271  0.00  0.00     0.043 H 
ATOM     39  H   LIG d   1       4.493  -1.296  -2.311  0.00  0.00     0.028 H 
ATOM     40  H   LIG d   1       5.892  -0.272  -2.772  0.00  0.00     0.028 H 
ATOM     41  H   LIG d   1       4.890   0.368  -4.815  0.00  0.00     0.028 H 
ATOM     42  H   LIG d   1       3.364  -0.095  -4.003  0.00  0.00     0.028 H 
ENDROOT
BRANCH  11  43
ATOM     43  C   LIG d   1       4.862  -3.333  -8.093  0.00  0.00     0.205 C 
ATOM     44  O   LIG d   1       3.668  -3.529  -7.993  0.00  0.00    -0.288 OA
BRANCH  43  45
ATOM     45  C   LIG d   1       5.536  -3.675  -9.287  0.00  0.00     0.170 A 
ATOM     46  O   LIG d   1       6.128  -4.859  -9.555  0.00  0.00    -0.460 OA
ATOM     47  C   LIG d   1       6.662  -4.821 -10.782  0.00  0.00     0.093 A 
ATOM     48  C   LIG d   1       6.430  -3.605 -11.328  0.00  0.00    -0.023 A 
ATOM     49  H   LIG d   1       7.194  -5.631 -11.259  0.00  0.00     0.103 H 
ATOM     50  C   LIG d   1       5.712  -2.858 -10.386  0.00  0.00    -0.013 A 
ATOM     51  H   LIG d   1       6.743  -3.273 -12.307  0.00  0.00     0.065 H 
ATOM     52  H   LIG d   1       5.363  -1.842 -10.497  0.00  0.00     0.066 H 
ENDBRANCH  43  45
ENDBRANCH  11  43
BRANCH   6  53
ATOM     53  C   LIG d   1       7.820  -7.759  -5.024  0.00  0.00    -0.038 C 
ATOM     54  H   LIG d   1       6.782  -8.086  -4.954  0.00  0.00     0.028 H 
ATOM     55  H   LIG d   1       8.244  -8.098  -5.968  0.00  0.00     0.028 H 
ATOM     56  H   LIG d   1       8.390  -8.180  -4.196  0.00  0.00     0.028 H 
ENDBRANCH   6  53
BRANCH   1  57
ATOM     57  C   LIG d   1      10.235  -6.450  -4.157  0.00  0.00    -0.039 C 
ATOM     58  H   LIG d   1       9.991  -7.066  -3.293  0.00  0.00     0.028 H 
ATOM     59  H   LIG d   1      10.522  -7.090  -4.992  0.00  0.00     0.028 H 
ATOM     60  H   LIG d   1      11.064  -5.786  -3.908  0.00  0.00     0.028 H 
ENDBRANCH   1  57
TORSDOF 4
ENDMDL
MODEL 9
REMARK VINA RESULT:      -6.4      2.551      4.807
REMARK  4 active torsions:
REMARK  status: ('A' for Active; 'I' for Inactive)
REMARK    1  A    between atoms: C_1  and  C_2 
REMARK    2  A    between atoms: C_7  and  C_8 
REMARK    3  A    between atoms: C_13  and  C_31 
REMARK    4  A    between atoms: C_31  and  C_33 
ROOT
ATOM      1  C   LIG d   1      10.181  -2.768  -9.653  0.00  0.00    -0.046 A 
ATOM      2  C   LIG d   1       9.286  -1.713  -9.653  0.00  0.00    -0.058 A 
ATOM      3  C   LIG d   1       8.662  -1.340  -8.476  0.00  0.00    -0.054 A 
ATOM      4  C   LIG d   1       8.931  -2.019  -7.309  0.00  0.00     0.004 A 
ATOM      5  C   LIG d   1       9.828  -3.080  -7.296  0.00  0.00     0.042 A 
ATOM      6  C   LIG d   1      10.450  -3.453  -8.487  0.00  0.00    -0.026 A 
ATOM      7  N   LIG d   1       9.937  -3.606  -6.007  0.00  0.00    -0.283 N 
ATOM      8  C   LIG d   1       9.155  -2.956  -5.126  0.00  0.00     0.243 A 
ATOM      9  O   LIG d   1       9.048  -3.194  -3.942  0.00  0.00    -0.273 OA
ATOM     10  C   LIG d   1       8.438  -1.873  -5.893  0.00  0.00     0.138 A 
ATOM     11  C   LIG d   1       6.920  -2.075  -5.823  0.00  0.00     0.076 C 
ATOM     12  H   LIG d   1       6.510  -2.215  -6.822  0.00  0.00     0.042 H 
ATOM     13  C   LIG d   1       6.373  -0.786  -5.200  0.00  0.00     0.102 A 
ATOM     14  C   LIG d   1       5.304  -1.069  -4.183  0.00  0.00    -0.009 A 
ATOM     15  C   LIG d   1       5.277  -1.796  -3.013  0.00  0.00    -0.056 A 
ATOM     16  C   LIG d   1       4.111  -1.873  -2.274  0.00  0.00    -0.061 A 
ATOM     17  C   LIG d   1       2.973  -1.221  -2.713  0.00  0.00    -0.060 A 
ATOM     18  C   LIG d   1       2.995  -0.493  -3.884  0.00  0.00    -0.040 A 
ATOM     19  C   LIG d   1       4.166  -0.408  -4.635  0.00  0.00     0.038 A 
ATOM     20  N   LIG d   1       4.435   0.255  -5.833  0.00  0.00    -0.284 N 
ATOM     21  C   LIG d   1       5.710   0.086  -6.232  0.00  0.00     0.230 A 
ATOM     22  O   LIG d   1       6.225   0.546  -7.230  0.00  0.00    -0.274 OA
ATOM     23  C   LIG d   1       7.581  -0.087  -4.567  0.00  0.00     0.030 C 
ATOM     24  H   LIG d   1       7.683  -0.341  -3.512  0.00  0.00     0.048 H 
ATOM     25  N   LIG d   1       8.756  -0.546  -5.356  0.00  0.00    -0.280 N 
ATOM     26  C   LIG d   1       8.914   0.439  -6.453  0.00  0.00     0.001 C 
ATOM     27  C   LIG d   1       8.609   1.792  -5.764  0.00  0.00    -0.039 C 
ATOM     28  C   LIG d   1       7.455   1.434  -4.771  0.00  0.00    -0.035 C 
ATOM     29  H   LIG d   1       9.076  -1.182 -10.569  0.00  0.00     0.062 H 
ATOM     30  H   LIG d   1       7.963  -0.516  -8.473  0.00  0.00     0.062 H 
ATOM     31  H   LIG d   1      10.509  -4.354  -5.774  0.00  0.00     0.155 HD
ATOM     32  H   LIG d   1       6.168  -2.304  -2.673  0.00  0.00     0.062 H 
ATOM     33  H   LIG d   1       4.089  -2.443  -1.356  0.00  0.00     0.062 H 
ATOM     34  H   LIG d   1       2.062  -1.282  -2.135  0.00  0.00     0.062 H 
ATOM     35  H   LIG d   1       2.103   0.013  -4.220  0.00  0.00     0.064 H 
ATOM     36  H   LIG d   1       3.779   0.778  -6.321  0.00  0.00     0.155 HD
ATOM     37  H   LIG d   1       9.932   0.424  -6.839  0.00  0.00     0.043 H 
ATOM     38  H   LIG d   1       8.197   0.244  -7.251  0.00  0.00     0.043 H 
ATOM     39  H   LIG d   1       9.481   2.152  -5.218  0.00  0.00     0.028 H 
ATOM     40  H   LIG d   1       8.276   2.531  -6.493  0.00  0.00     0.028 H 
ATOM     41  H   LIG d   1       6.486   1.678  -5.207  0.00  0.00     0.028 H 
ATOM     42  H   LIG d   1       7.585   1.956  -3.823  0.00  0.00     0.028 H 
ENDROOT
BRANCH  11  43
ATOM     43  C   LIG d   1       6.589  -3.259  -4.951  0.00  0.00     0.205 C 
ATOM     44  O   LIG d   1       7.032  -3.325  -3.822  0.00  0.00    -0.288 OA
BRANCH  43  45
ATOM     45  C   LIG d   1       5.763  -4.293  -5.447  0.00  0.00     0.170 A 
ATOM     46  O   LIG d   1       4.457  -4.181  -5.773  0.00  0.00    -0.460 OA
ATOM     47  C   LIG d   1       4.006  -5.363  -6.211  0.00  0.00     0.093 A 
ATOM     48  C   LIG d   1       5.014  -6.264  -6.168  0.00  0.00    -0.023 A 
ATOM     49  H   LIG d   1       2.998  -5.565  -6.543  0.00  0.00     0.103 H 
ATOM     50  C   LIG d   1       6.146  -5.599  -5.682  0.00  0.00    -0.013 A 
ATOM     51  H   LIG d   1       4.955  -7.304  -6.455  0.00  0.00     0.065 H 
ATOM     52  H   LIG d   1       7.126  -6.023  -5.523  0.00  0.00     0.066 H 
ENDBRANCH  43  45
ENDBRANCH  11  43
BRANCH   6  53
ATOM     53  C   LIG d   1      11.421  -4.605  -8.499  0.00  0.00    -0.038 C 
ATOM     54  H   LIG d   1      12.440  -4.221  -8.467  0.00  0.00     0.028 H 
ATOM     55  H   LIG d   1      11.245  -5.238  -7.630  0.00  0.00     0.028 H 
ATOM     56  H   LIG d   1      11.280  -5.189  -9.409  0.00  0.00     0.028 H 
ENDBRANCH   6  53
BRANCH   1  57
ATOM     57  C   LIG d   1      10.861  -3.173 -10.935  0.00  0.00    -0.039 C 
ATOM     58  H   LIG d   1      11.790  -2.614 -11.046  0.00  0.00     0.028 H 
ATOM     59  H   LIG d   1      11.080  -4.241 -10.910  0.00  0.00     0.028 H 
ATOM     60  H   LIG d   1      10.204  -2.957 -11.778  0.00  0.00     0.028 H 
ENDBRANCH   1  57
TORSDOF 4
ENDMDL
