MODEL 1
REMARK VINA RESULT:      -7.4      0.000      0.000
REMARK  5 active torsions:
REMARK  status: ('A' for Active; 'I' for Inactive)
REMARK    1  A    between atoms: C_1  and  C_2 
REMARK    2  A    between atoms: C_18  and  C_20 
REMARK    3  A    between atoms: C_20  and  N_53 
REMARK    4  A    between atoms: C_21  and  C_22 
REMARK    5  A    between atoms: C_21  and  N_53 
ROOT
ATOM      1  C   LIG d   1       5.076  -1.074  -3.373  0.00  0.00    -0.023 C 
ATOM      2  C   LIG d   1       5.260  -0.223  -2.117  0.00  0.00    -0.047 C 
ATOM      3  C   LIG d   1       3.961   0.516  -1.797  0.00  0.00    -0.050 C 
ATOM      4  C   LIG d   1       3.627   1.482  -2.939  0.00  0.00    -0.021 C 
ATOM      5  C   LIG d   1       3.552   0.693  -4.249  0.00  0.00     0.096 A 
ATOM      6  C   LIG d   1       4.781  -0.159  -4.569  0.00  0.00    -0.004 C 
ATOM      7  H   LIG d   1       5.633   0.489  -4.775  0.00  0.00     0.034 H 
ATOM      8  C   LIG d   1       4.498  -1.039  -5.784  0.00  0.00    -0.040 C 
ATOM      9  C   LIG d   1       5.727  -1.875  -6.146  0.00  0.00     0.014 C 
ATOM     10  H   LIG d   1       6.505  -1.286  -6.631  0.00  0.00     0.035 H 
ATOM     11  C   LIG d   1       6.245  -2.654  -4.921  0.00  0.00     0.107 C 
ATOM     12  H   LIG d   1       7.222  -3.077  -5.159  0.00  0.00     0.074 H 
ATOM     13  C   LIG d   1       6.386  -1.807  -3.681  0.00  0.00    -0.010 C 
ATOM     14  O   LIG d   1       5.267  -3.752  -4.799  0.00  0.00    -0.461 OA
ATOM     15  C   LIG d   1       4.988  -4.185  -6.050  0.00  0.00     0.316 C 
ATOM     16  O   LIG d   1       4.615  -5.297  -6.339  0.00  0.00    -0.250 OA
ATOM     17  C   LIG d   1       5.216  -3.051  -7.032  0.00  0.00     0.102 C 
ATOM     18  H   LIG d   1       5.968  -3.330  -7.768  0.00  0.00     0.047 H 
ATOM     19  C   LIG d   1       2.185   0.177  -4.693  0.00  0.00     0.078 A 
ATOM     20  O   LIG d   1       2.836   1.274  -5.338  0.00  0.00    -0.368 OA
ATOM     21  H   LIG d   1       6.058   0.501  -2.283  0.00  0.00     0.027 H 
ATOM     22  H   LIG d   1       5.527  -0.868  -1.279  0.00  0.00     0.027 H 
ATOM     23  H   LIG d   1       3.151  -0.205  -1.682  0.00  0.00     0.027 H 
ATOM     24  H   LIG d   1       4.080   1.077  -0.870  0.00  0.00     0.027 H 
ATOM     25  H   LIG d   1       2.667   1.960  -2.745  0.00  0.00     0.029 H 
ATOM     26  H   LIG d   1       4.407   2.240  -3.014  0.00  0.00     0.029 H 
ATOM     27  H   LIG d   1       3.664  -1.705  -5.558  0.00  0.00     0.027 H 
ATOM     28  H   LIG d   1       4.233  -0.408  -6.632  0.00  0.00     0.027 H 
ATOM     29  H   LIG d   1       6.625  -2.452  -2.834  0.00  0.00     0.031 H 
ATOM     30  H   LIG d   1       7.196  -1.093  -3.826  0.00  0.00     0.031 H 
ATOM     31  H   LIG d   1       2.150  -0.776  -5.224  0.00  0.00     0.059 H 
ATOM     32  H   LIG d   1       1.327   0.395  -4.057  0.00  0.00     0.059 H 
ENDROOT
BRANCH  17  33
ATOM     33  C   LIG d   1       3.906  -2.668  -7.726  0.00  0.00    -0.020 C 
ATOM     34  H   LIG d   1       3.207  -3.503  -7.668  0.00  0.00     0.082 H 
ATOM     35  H   LIG d   1       3.475  -1.797  -7.232  0.00  0.00     0.082 H 
BRANCH  33  36
ATOM     36  N   LIG d   1       4.183  -2.351  -9.140  0.00  0.00     0.231 N 
ATOM     37  H   LIG d   1       4.251  -3.224  -9.675  0.00  0.00     0.202 HD
ATOM     38  H   LIG d   1       5.072  -1.841  -9.204  0.00  0.00     0.202 HD
BRANCH  36  39
ATOM     39  C   LIG d   1       3.102  -1.520  -9.700  0.00  0.00    -0.006 C 
ATOM     40  H   LIG d   1       2.972  -1.750 -10.757  0.00  0.00     0.087 H 
ATOM     41  H   LIG d   1       2.172  -1.721  -9.168  0.00  0.00     0.087 H 
BRANCH  39  42
ATOM     42  C   LIG d   1       3.464  -0.066  -9.544  0.00  0.00     0.015 A 
ATOM     43  C   LIG d   1       4.593   0.444 -10.158  0.00  0.00     0.036 A 
ATOM     44  N   LIG d   1       4.916   1.715 -10.027  0.00  0.00    -0.263 NA
ATOM     45  H   LIG d   1       5.216  -0.207 -10.753  0.00  0.00     0.083 H 
ATOM     46  C   LIG d   1       4.185   2.546  -9.310  0.00  0.00     0.028 A 
ATOM     47  C   LIG d   1       3.043   2.108  -8.666  0.00  0.00    -0.043 A 
ATOM     48  H   LIG d   1       4.482   3.581  -9.226  0.00  0.00     0.083 H 
ATOM     49  C   LIG d   1       2.668   0.780  -8.786  0.00  0.00    -0.051 A 
ATOM     50  H   LIG d   1       2.449   2.794  -8.081  0.00  0.00     0.063 H 
ATOM     51  H   LIG d   1       1.779   0.410  -8.297  0.00  0.00     0.062 H 
ENDBRANCH  39  42
ENDBRANCH  36  39
ENDBRANCH  33  36
ENDBRANCH  17  33
BRANCH   1  52
ATOM     52  C   LIG d   1       3.915  -2.049  -3.171  0.00  0.00    -0.059 C 
ATOM     53  H   LIG d   1       3.560  -2.397  -4.142  0.00  0.00     0.024 H 
ATOM     54  H   LIG d   1       4.254  -2.900  -2.581  0.00  0.00     0.024 H 
ATOM     55  H   LIG d   1       3.104  -1.543  -2.648  0.00  0.00     0.024 H 
ENDBRANCH   1  52
TORSDOF 5
ENDMDL
MODEL 2
REMARK VINA RESULT:      -6.8      1.870      4.353
REMARK  5 active torsions:
REMARK  status: ('A' for Active; 'I' for Inactive)
REMARK    1  A    between atoms: C_1  and  C_2 
REMARK    2  A    between atoms: C_18  and  C_20 
REMARK    3  A    between atoms: C_20  and  N_53 
REMARK    4  A    between atoms: C_21  and  C_22 
REMARK    5  A    between atoms: C_21  and  N_53 
ROOT
ATOM      1  C   LIG d   1       6.765  -2.750  -4.412  0.00  0.00    -0.023 C 
ATOM      2  C   LIG d   1       7.837  -3.792  -4.732  0.00  0.00    -0.047 C 
ATOM      3  C   LIG d   1       7.654  -4.299  -6.164  0.00  0.00    -0.050 C 
ATOM      4  C   LIG d   1       6.300  -5.005  -6.287  0.00  0.00    -0.021 C 
ATOM      5  C   LIG d   1       5.195  -4.037  -5.857  0.00  0.00     0.096 A 
ATOM      6  C   LIG d   1       5.380  -3.407  -4.476  0.00  0.00    -0.004 C 
ATOM      7  H   LIG d   1       5.284  -4.173  -3.707  0.00  0.00     0.034 H 
ATOM      8  C   LIG d   1       4.328  -2.323  -4.257  0.00  0.00    -0.040 C 
ATOM      9  C   LIG d   1       4.471  -1.702  -2.865  0.00  0.00     0.014 C 
ATOM     10  H   LIG d   1       4.103  -2.357  -2.076  0.00  0.00     0.035 H 
ATOM     11  C   LIG d   1       5.915  -1.225  -2.620  0.00  0.00     0.107 C 
ATOM     12  H   LIG d   1       6.029  -0.973  -1.565  0.00  0.00     0.074 H 
ATOM     13  C   LIG d   1       6.961  -2.252  -2.976  0.00  0.00    -0.010 C 
ATOM     14  O   LIG d   1       5.986   0.015  -3.416  0.00  0.00    -0.461 OA
ATOM     15  C   LIG d   1       4.815   0.670  -3.249  0.00  0.00     0.316 C 
ATOM     16  O   LIG d   1       4.659   1.863  -3.351  0.00  0.00    -0.250 OA
ATOM     17  C   LIG d   1       3.727  -0.334  -2.914  0.00  0.00     0.102 C 
ATOM     18  H   LIG d   1       3.283  -0.105  -1.946  0.00  0.00     0.047 H 
ATOM     19  C   LIG d   1       4.516  -3.203  -6.942  0.00  0.00     0.078 A 
ATOM     20  O   LIG d   1       3.865  -4.303  -6.301  0.00  0.00    -0.368 OA
ATOM     21  H   LIG d   1       7.749  -4.627  -4.038  0.00  0.00     0.027 H 
ATOM     22  H   LIG d   1       8.824  -3.339  -4.631  0.00  0.00     0.027 H 
ATOM     23  H   LIG d   1       7.689  -3.457  -6.855  0.00  0.00     0.027 H 
ATOM     24  H   LIG d   1       8.453  -5.000  -6.405  0.00  0.00     0.027 H 
ATOM     25  H   LIG d   1       6.139  -5.308  -7.321  0.00  0.00     0.029 H 
ATOM     26  H   LIG d   1       6.287  -5.883  -5.641  0.00  0.00     0.029 H 
ATOM     27  H   LIG d   1       4.451  -1.546  -5.011  0.00  0.00     0.027 H 
ATOM     28  H   LIG d   1       3.334  -2.761  -4.352  0.00  0.00     0.027 H 
ATOM     29  H   LIG d   1       7.949  -1.796  -2.903  0.00  0.00     0.031 H 
ATOM     30  H   LIG d   1       6.899  -3.083  -2.275  0.00  0.00     0.031 H 
ATOM     31  H   LIG d   1       4.189  -2.196  -6.678  0.00  0.00     0.059 H 
ATOM     32  H   LIG d   1       4.849  -3.337  -7.970  0.00  0.00     0.059 H 
ENDROOT
BRANCH  17  33
ATOM     33  C   LIG d   1       2.652  -0.347  -4.005  0.00  0.00    -0.020 C 
ATOM     34  H   LIG d   1       2.550  -1.357  -4.401  0.00  0.00     0.082 H 
ATOM     35  H   LIG d   1       1.702  -0.024  -3.581  0.00  0.00     0.082 H 
BRANCH  33  36
ATOM     36  N   LIG d   1       3.051   0.573  -5.087  0.00  0.00     0.231 N 
ATOM     37  H   LIG d   1       4.072   0.684  -5.077  0.00  0.00     0.202 HD
ATOM     38  H   LIG d   1       2.606   1.486  -4.936  0.00  0.00     0.202 HD
BRANCH  36  39
ATOM     39  C   LIG d   1       2.633   0.037  -6.395  0.00  0.00    -0.006 C 
ATOM     40  H   LIG d   1       2.837  -1.033  -6.435  0.00  0.00     0.087 H 
ATOM     41  H   LIG d   1       1.566   0.207  -6.537  0.00  0.00     0.087 H 
BRANCH  39  42
ATOM     42  C   LIG d   1       3.402   0.736  -7.485  0.00  0.00     0.015 A 
ATOM     43  C   LIG d   1       4.676   0.319  -7.821  0.00  0.00     0.036 A 
ATOM     44  N   LIG d   1       5.355   0.925  -8.775  0.00  0.00    -0.263 NA
ATOM     45  H   LIG d   1       5.120  -0.515  -7.296  0.00  0.00     0.083 H 
ATOM     46  C   LIG d   1       4.853   1.946  -9.441  0.00  0.00     0.028 A 
ATOM     47  C   LIG d   1       3.585   2.420  -9.160  0.00  0.00    -0.043 A 
ATOM     48  H   LIG d   1       5.440   2.417 -10.216  0.00  0.00     0.083 H 
ATOM     49  C   LIG d   1       2.839   1.804  -8.169  0.00  0.00    -0.051 A 
ATOM     50  H   LIG d   1       3.180   3.256  -9.710  0.00  0.00     0.063 H 
ATOM     51  H   LIG d   1       1.844   2.149  -7.930  0.00  0.00     0.062 H 
ENDBRANCH  39  42
ENDBRANCH  36  39
ENDBRANCH  33  36
ENDBRANCH  17  33
BRANCH   1  52
ATOM     52  C   LIG d   1       6.840  -1.605  -5.423  0.00  0.00    -0.059 C 
ATOM     53  H   LIG d   1       6.191  -1.827  -6.271  0.00  0.00     0.024 H 
ATOM     54  H   LIG d   1       6.515  -0.679  -4.949  0.00  0.00     0.024 H 
ATOM     55  H   LIG d   1       7.867  -1.494  -5.771  0.00  0.00     0.024 H 
ENDBRANCH   1  52
TORSDOF 5
ENDMDL
MODEL 3
REMARK VINA RESULT:      -6.6      5.134      6.836
REMARK  5 active torsions:
REMARK  status: ('A' for Active; 'I' for Inactive)
REMARK    1  A    between atoms: C_1  and  C_2 
REMARK    2  A    between atoms: C_18  and  C_20 
REMARK    3  A    between atoms: C_20  and  N_53 
REMARK    4  A    between atoms: C_21  and  C_22 
REMARK    5  A    between atoms: C_21  and  N_53 
ROOT
ATOM      1  C   LIG d   1       5.820  -1.324  -4.324  0.00  0.00    -0.023 C 
ATOM      2  C   LIG d   1       4.934  -2.469  -3.832  0.00  0.00    -0.047 C 
ATOM      3  C   LIG d   1       3.658  -1.905  -3.206  0.00  0.00    -0.050 C 
ATOM      4  C   LIG d   1       4.020  -1.068  -1.975  0.00  0.00    -0.021 C 
ATOM      5  C   LIG d   1       5.007   0.026  -2.392  0.00  0.00     0.096 A 
ATOM      6  C   LIG d   1       6.254  -0.467  -3.127  0.00  0.00    -0.004 C 
ATOM      7  H   LIG d   1       6.876  -1.048  -2.446  0.00  0.00     0.034 H 
ATOM      8  C   LIG d   1       7.047   0.725  -3.658  0.00  0.00    -0.040 C 
ATOM      9  C   LIG d   1       8.320   0.258  -4.367  0.00  0.00     0.014 C 
ATOM     10  H   LIG d   1       9.090  -0.070  -3.670  0.00  0.00     0.035 H 
ATOM     11  C   LIG d   1       7.997  -0.801  -5.439  0.00  0.00     0.107 C 
ATOM     12  H   LIG d   1       8.929  -1.251  -5.783  0.00  0.00     0.074 H 
ATOM     13  C   LIG d   1       7.092  -1.904  -4.948  0.00  0.00    -0.010 C 
ATOM     14  O   LIG d   1       7.427   0.009  -6.533  0.00  0.00    -0.461 OA
ATOM     15  C   LIG d   1       8.163   1.140  -6.623  0.00  0.00     0.316 C 
ATOM     16  O   LIG d   1       8.304   1.806  -7.620  0.00  0.00    -0.250 OA
ATOM     17  C   LIG d   1       8.782   1.440  -5.270  0.00  0.00     0.102 C 
ATOM     18  H   LIG d   1       9.868   1.463  -5.344  0.00  0.00     0.047 H 
ATOM     19  C   LIG d   1       4.440   1.391  -2.776  0.00  0.00     0.078 A 
ATOM     20  O   LIG d   1       5.134   1.168  -1.546  0.00  0.00    -0.368 OA
ATOM     21  H   LIG d   1       5.476  -3.053  -3.089  0.00  0.00     0.027 H 
ATOM     22  H   LIG d   1       4.672  -3.110  -4.675  0.00  0.00     0.027 H 
ATOM     23  H   LIG d   1       3.142  -1.278  -3.933  0.00  0.00     0.027 H 
ATOM     24  H   LIG d   1       3.006  -2.726  -2.907  0.00  0.00     0.027 H 
ATOM     25  H   LIG d   1       3.120  -0.610  -1.566  0.00  0.00     0.029 H 
ATOM     26  H   LIG d   1       4.481  -1.707  -1.222  0.00  0.00     0.029 H 
ATOM     27  H   LIG d   1       6.428   1.283  -4.361  0.00  0.00     0.027 H 
ATOM     28  H   LIG d   1       7.319   1.375  -2.827  0.00  0.00     0.027 H 
ATOM     29  H   LIG d   1       6.805  -2.532  -5.792  0.00  0.00     0.031 H 
ATOM     30  H   LIG d   1       7.630  -2.509  -4.219  0.00  0.00     0.031 H 
ATOM     31  H   LIG d   1       4.955   1.954  -3.556  0.00  0.00     0.059 H 
ATOM     32  H   LIG d   1       3.359   1.522  -2.734  0.00  0.00     0.059 H 
ENDROOT
BRANCH  17  33
ATOM     33  C   LIG d   1       8.257   2.770  -4.721  0.00  0.00    -0.020 C 
ATOM     34  H   LIG d   1       7.262   2.961  -5.124  0.00  0.00     0.082 H 
ATOM     35  H   LIG d   1       8.206   2.718  -3.634  0.00  0.00     0.082 H 
BRANCH  33  36
ATOM     36  N   LIG d   1       9.172   3.854  -5.125  0.00  0.00     0.231 N 
ATOM     37  H   LIG d   1       8.711   4.759  -4.975  0.00  0.00     0.202 HD
ATOM     38  H   LIG d   1       9.404   3.749  -6.119  0.00  0.00     0.202 HD
BRANCH  36  39
ATOM     39  C   LIG d   1      10.411   3.802  -4.327  0.00  0.00    -0.006 C 
ATOM     40  H   LIG d   1      10.543   2.799  -3.921  0.00  0.00     0.087 H 
ATOM     41  H   LIG d   1      11.264   4.053  -4.958  0.00  0.00     0.087 H 
BRANCH  39  42
ATOM     42  C   LIG d   1      10.314   4.793  -3.197  0.00  0.00     0.015 A 
ATOM     43  C   LIG d   1      10.951   4.548  -1.994  0.00  0.00     0.036 A 
ATOM     44  N   LIG d   1      10.871   5.411  -1.001  0.00  0.00    -0.263 NA
ATOM     45  H   LIG d   1      11.522   3.640  -1.869  0.00  0.00     0.083 H 
ATOM     46  C   LIG d   1      10.185   6.532  -1.109  0.00  0.00     0.028 A 
ATOM     47  C   LIG d   1       9.521   6.844  -2.281  0.00  0.00    -0.043 A 
ATOM     48  H   LIG d   1      10.143   7.214  -0.274  0.00  0.00     0.083 H 
ATOM     49  C   LIG d   1       9.587   5.964  -3.349  0.00  0.00    -0.051 A 
ATOM     50  H   LIG d   1       8.962   7.764  -2.364  0.00  0.00     0.063 H 
ATOM     51  H   LIG d   1       9.082   6.183  -4.279  0.00  0.00     0.062 H 
ENDBRANCH  39  42
ENDBRANCH  36  39
ENDBRANCH  33  36
ENDBRANCH  17  33
BRANCH   1  52
ATOM     52  C   LIG d   1       5.043  -0.461  -5.320  0.00  0.00    -0.059 C 
ATOM     53  H   LIG d   1       4.182  -0.015  -4.820  0.00  0.00     0.024 H 
ATOM     54  H   LIG d   1       5.691   0.327  -5.701  0.00  0.00     0.024 H 
ATOM     55  H   LIG d   1       4.699  -1.082  -6.147  0.00  0.00     0.024 H 
ENDBRANCH   1  52
TORSDOF 5
ENDMDL
MODEL 4
REMARK VINA RESULT:      -6.2      4.848      6.051
REMARK  5 active torsions:
REMARK  status: ('A' for Active; 'I' for Inactive)
REMARK    1  A    between atoms: C_1  and  C_2 
REMARK    2  A    between atoms: C_18  and  C_20 
REMARK    3  A    between atoms: C_20  and  N_53 
REMARK    4  A    between atoms: C_21  and  C_22 
REMARK    5  A    between atoms: C_21  and  N_53 
ROOT
ATOM      1  C   LIG d   1       5.901  -1.346  -4.319  0.00  0.00    -0.023 C 
ATOM      2  C   LIG d   1       5.063  -2.509  -3.789  0.00  0.00    -0.047 C 
ATOM      3  C   LIG d   1       3.782  -1.974  -3.148  0.00  0.00    -0.050 C 
ATOM      4  C   LIG d   1       4.140  -1.101  -1.941  0.00  0.00    -0.021 C 
ATOM      5  C   LIG d   1       5.083   0.014  -2.397  0.00  0.00     0.096 A 
ATOM      6  C   LIG d   1       6.331  -0.453  -3.148  0.00  0.00    -0.004 C 
ATOM      7  H   LIG d   1       6.984  -1.000  -2.469  0.00  0.00     0.034 H 
ATOM      8  C   LIG d   1       7.075   0.754  -3.717  0.00  0.00    -0.040 C 
ATOM      9  C   LIG d   1       8.348   0.313  -4.442  0.00  0.00     0.014 C 
ATOM     10  H   LIG d   1       9.142   0.024  -3.754  0.00  0.00     0.035 H 
ATOM     11  C   LIG d   1       8.039  -0.777  -5.487  0.00  0.00     0.107 C 
ATOM     12  H   LIG d   1       8.978  -1.203  -5.841  0.00  0.00     0.074 H 
ATOM     13  C   LIG d   1       7.180  -1.898  -4.957  0.00  0.00    -0.010 C 
ATOM     14  O   LIG d   1       7.423  -0.006  -6.585  0.00  0.00    -0.461 OA
ATOM     15  C   LIG d   1       8.120   1.146  -6.710  0.00  0.00     0.316 C 
ATOM     16  O   LIG d   1       8.221   1.796  -7.723  0.00  0.00    -0.250 OA
ATOM     17  C   LIG d   1       8.754   1.492  -5.376  0.00  0.00     0.102 C 
ATOM     18  H   LIG d   1       9.838   1.548  -5.472  0.00  0.00     0.047 H 
ATOM     19  C   LIG d   1       4.464   1.353  -2.797  0.00  0.00     0.078 A 
ATOM     20  O   LIG d   1       5.189   1.177  -1.577  0.00  0.00    -0.368 OA
ATOM     21  H   LIG d   1       5.637  -3.061  -3.045  0.00  0.00     0.027 H 
ATOM     22  H   LIG d   1       4.805  -3.175  -4.613  0.00  0.00     0.027 H 
ATOM     23  H   LIG d   1       3.232  -1.378  -3.877  0.00  0.00     0.027 H 
ATOM     24  H   LIG d   1       3.162  -2.809  -2.821  0.00  0.00     0.027 H 
ATOM     25  H   LIG d   1       3.233  -0.665  -1.523  0.00  0.00     0.029 H 
ATOM     26  H   LIG d   1       4.636  -1.711  -1.185  0.00  0.00     0.029 H 
ATOM     27  H   LIG d   1       6.425   1.277  -4.418  0.00  0.00     0.027 H 
ATOM     28  H   LIG d   1       7.342   1.428  -2.904  0.00  0.00     0.027 H 
ATOM     29  H   LIG d   1       6.897  -2.551  -5.783  0.00  0.00     0.031 H 
ATOM     30  H   LIG d   1       7.751  -2.471  -4.228  0.00  0.00     0.031 H 
ATOM     31  H   LIG d   1       4.946   1.916  -3.597  0.00  0.00     0.059 H 
ATOM     32  H   LIG d   1       3.381   1.451  -2.736  0.00  0.00     0.059 H 
ENDROOT
BRANCH  17  33
ATOM     33  C   LIG d   1       8.197   2.814  -4.842  0.00  0.00    -0.020 C 
ATOM     34  H   LIG d   1       7.604   3.298  -5.618  0.00  0.00     0.082 H 
ATOM     35  H   LIG d   1       7.570   2.619  -3.973  0.00  0.00     0.082 H 
BRANCH  33  36
ATOM     36  N   LIG d   1       9.320   3.692  -4.458  0.00  0.00     0.231 N 
ATOM     37  H   LIG d   1       9.913   3.203  -3.777  0.00  0.00     0.202 HD
ATOM     38  H   LIG d   1       8.949   4.550  -4.035  0.00  0.00     0.202 HD
BRANCH  36  39
ATOM     39  C   LIG d   1      10.126   4.041  -5.642  0.00  0.00    -0.006 C 
ATOM     40  H   LIG d   1      11.185   3.939  -5.408  0.00  0.00     0.087 H 
ATOM     41  H   LIG d   1       9.871   3.375  -6.468  0.00  0.00     0.087 H 
BRANCH  39  42
ATOM     42  C   LIG d   1       9.833   5.465  -6.037  0.00  0.00     0.015 A 
ATOM     43  C   LIG d   1       9.915   5.855  -7.360  0.00  0.00     0.036 A 
ATOM     44  N   LIG d   1       9.660   7.100  -7.713  0.00  0.00    -0.263 NA
ATOM     45  H   LIG d   1      10.190   5.132  -8.114  0.00  0.00     0.083 H 
ATOM     46  C   LIG d   1       9.320   8.016  -6.828  0.00  0.00     0.028 A 
ATOM     47  C   LIG d   1       9.219   7.700  -5.486  0.00  0.00    -0.043 A 
ATOM     48  H   LIG d   1       9.118   9.025  -7.155  0.00  0.00     0.083 H 
ATOM     49  C   LIG d   1       9.474   6.400  -5.078  0.00  0.00    -0.051 A 
ATOM     50  H   LIG d   1       8.940   8.454  -4.766  0.00  0.00     0.063 H 
ATOM     51  H   LIG d   1       9.399   6.122  -4.037  0.00  0.00     0.062 H 
ENDBRANCH  39  42
ENDBRANCH  36  39
ENDBRANCH  33  36
ENDBRANCH  17  33
BRANCH   1  52
ATOM     52  C   LIG d   1       5.078  -0.529  -5.316  0.00  0.00    -0.059 C 
ATOM     53  H   LIG d   1       4.659   0.343  -4.812  0.00  0.00     0.024 H 
ATOM     54  H   LIG d   1       5.718  -0.202  -6.135  0.00  0.00     0.024 H 
ATOM     55  H   LIG d   1       4.269  -1.144  -5.710  0.00  0.00     0.024 H 
ENDBRANCH   1  52
TORSDOF 5
ENDMDL
MODEL 5
REMARK VINA RESULT:      -6.1      7.500      9.259
REMARK  5 active torsions:
REMARK  status: ('A' for Active; 'I' for Inactive)
REMARK    1  A    between atoms: C_1  and  C_2 
REMARK    2  A    between atoms: C_18  and  C_20 
REMARK    3  A    between atoms: C_20  and  N_53 
REMARK    4  A    between atoms: C_21  and  C_22 
REMARK    5  A    between atoms: C_21  and  N_53 
ROOT
ATOM      1  C   LIG d   1      11.018   7.183  -3.575  0.00  0.00    -0.023 C 
ATOM      2  C   LIG d   1      11.389   8.622  -3.218  0.00  0.00    -0.047 C 
ATOM      3  C   LIG d   1      12.161   8.646  -1.898  0.00  0.00    -0.050 C 
ATOM      4  C   LIG d   1      11.261   8.129  -0.771  0.00  0.00    -0.021 C 
ATOM      5  C   LIG d   1      10.760   6.730  -1.138  0.00  0.00     0.096 A 
ATOM      6  C   LIG d   1      10.078   6.618  -2.502  0.00  0.00    -0.004 C 
ATOM      7  H   LIG d   1       9.138   7.169  -2.488  0.00  0.00     0.034 H 
ATOM      8  C   LIG d   1       9.811   5.150  -2.828  0.00  0.00    -0.040 C 
ATOM      9  C   LIG d   1       9.095   5.015  -4.174  0.00  0.00     0.014 C 
ATOM     10  H   LIG d   1       8.044   5.297  -4.118  0.00  0.00     0.035 H 
ATOM     11  C   LIG d   1       9.856   5.770  -5.281  0.00  0.00     0.107 C 
ATOM     12  H   LIG d   1       9.227   5.819  -6.171  0.00  0.00     0.074 H 
ATOM     13  C   LIG d   1      10.246   7.176  -4.898  0.00  0.00    -0.010 C 
ATOM     14  O   LIG d   1      10.998   4.876  -5.555  0.00  0.00    -0.461 OA
ATOM     15  C   LIG d   1      10.532   3.606  -5.531  0.00  0.00     0.316 C 
ATOM     16  O   LIG d   1      11.016   2.671  -6.122  0.00  0.00    -0.250 OA
ATOM     17  C   LIG d   1       9.305   3.544  -4.640  0.00  0.00     0.102 C 
ATOM     18  H   LIG d   1       8.442   3.194  -5.205  0.00  0.00     0.047 H 
ATOM     19  C   LIG d   1      11.562   5.530  -0.636  0.00  0.00     0.078 A 
ATOM     20  O   LIG d   1      10.293   5.889  -0.083  0.00  0.00    -0.368 OA
ATOM     21  H   LIG d   1      10.481   9.216  -3.118  0.00  0.00     0.027 H 
ATOM     22  H   LIG d   1      12.011   9.043  -4.009  0.00  0.00     0.027 H 
ATOM     23  H   LIG d   1      13.042   8.010  -1.981  0.00  0.00     0.027 H 
ATOM     24  H   LIG d   1      12.470   9.667  -1.676  0.00  0.00     0.027 H 
ATOM     25  H   LIG d   1      11.829   8.082   0.158  0.00  0.00     0.029 H 
ATOM     26  H   LIG d   1      10.410   8.799  -0.647  0.00  0.00     0.029 H 
ATOM     27  H   LIG d   1      10.759   4.614  -2.870  0.00  0.00     0.027 H 
ATOM     28  H   LIG d   1       9.187   4.716  -2.047  0.00  0.00     0.027 H 
ATOM     29  H   LIG d   1      10.891   7.591  -5.674  0.00  0.00     0.031 H 
ATOM     30  H   LIG d   1       9.348   7.786  -4.817  0.00  0.00     0.031 H 
ATOM     31  H   LIG d   1      11.607   4.646  -1.273  0.00  0.00     0.059 H 
ATOM     32  H   LIG d   1      12.452   5.728  -0.039  0.00  0.00     0.059 H 
ENDROOT
BRANCH  17  33
ATOM     33  C   LIG d   1       9.560   2.632  -3.436  0.00  0.00    -0.020 C 
ATOM     34  H   LIG d   1      10.618   2.376  -3.393  0.00  0.00     0.082 H 
ATOM     35  H   LIG d   1       9.272   3.150  -2.522  0.00  0.00     0.082 H 
BRANCH  33  36
ATOM     36  N   LIG d   1       8.758   1.402  -3.584  0.00  0.00     0.231 N 
ATOM     37  H   LIG d   1       8.720   0.914  -2.682  0.00  0.00     0.202 HD
ATOM     38  H   LIG d   1       9.197   0.793  -4.284  0.00  0.00     0.202 HD
BRANCH  36  39
ATOM     39  C   LIG d   1       7.388   1.733  -4.016  0.00  0.00    -0.006 C 
ATOM     40  H   LIG d   1       7.155   2.762  -3.742  0.00  0.00     0.087 H 
ATOM     41  H   LIG d   1       7.307   1.619  -5.097  0.00  0.00     0.087 H 
BRANCH  39  42
ATOM     42  C   LIG d   1       6.417   0.801  -3.339  0.00  0.00     0.015 A 
ATOM     43  C   LIG d   1       6.566  -0.568  -3.452  0.00  0.00     0.036 A 
ATOM     44  N   LIG d   1       5.721  -1.390  -2.861  0.00  0.00    -0.263 NA
ATOM     45  H   LIG d   1       7.385  -0.970  -4.030  0.00  0.00     0.083 H 
ATOM     46  C   LIG d   1       4.706  -0.945  -2.146  0.00  0.00     0.028 A 
ATOM     47  C   LIG d   1       4.493   0.412  -1.989  0.00  0.00    -0.043 A 
ATOM     48  H   LIG d   1       4.035  -1.648  -1.677  0.00  0.00     0.083 H 
ATOM     49  C   LIG d   1       5.364   1.306  -2.590  0.00  0.00    -0.051 A 
ATOM     50  H   LIG d   1       3.661   0.770  -1.402  0.00  0.00     0.063 H 
ATOM     51  H   LIG d   1       5.225   2.372  -2.482  0.00  0.00     0.062 H 
ENDBRANCH  39  42
ENDBRANCH  36  39
ENDBRANCH  33  36
ENDBRANCH  17  33
BRANCH   1  52
ATOM     52  C   LIG d   1      12.284   6.328  -3.653  0.00  0.00    -0.059 C 
ATOM     53  H   LIG d   1      12.472   6.051  -4.691  0.00  0.00     0.024 H 
ATOM     54  H   LIG d   1      13.131   6.896  -3.270  0.00  0.00     0.024 H 
ATOM     55  H   LIG d   1      12.151   5.426  -3.056  0.00  0.00     0.024 H 
ENDBRANCH   1  52
TORSDOF 5
ENDMDL
MODEL 6
REMARK VINA RESULT:      -5.7      2.204      5.558
REMARK  5 active torsions:
REMARK  status: ('A' for Active; 'I' for Inactive)
REMARK    1  A    between atoms: C_1  and  C_2 
REMARK    2  A    between atoms: C_18  and  C_20 
REMARK    3  A    between atoms: C_20  and  N_53 
REMARK    4  A    between atoms: C_21  and  C_22 
REMARK    5  A    between atoms: C_21  and  N_53 
ROOT
ATOM      1  C   LIG d   1       4.248  -0.163  -9.895  0.00  0.00    -0.023 C 
ATOM      2  C   LIG d   1       3.950   1.200 -10.521  0.00  0.00    -0.047 C 
ATOM      3  C   LIG d   1       3.939   2.277  -9.436  0.00  0.00    -0.050 C 
ATOM      4  C   LIG d   1       2.807   1.991  -8.443  0.00  0.00    -0.021 C 
ATOM      5  C   LIG d   1       2.991   0.581  -7.875  0.00  0.00     0.096 A 
ATOM      6  C   LIG d   1       3.123  -0.530  -8.917  0.00  0.00    -0.004 C 
ATOM      7  H   LIG d   1       2.179  -0.650  -9.447  0.00  0.00     0.034 H 
ATOM      8  C   LIG d   1       3.499  -1.841  -8.230  0.00  0.00    -0.040 C 
ATOM      9  C   LIG d   1       3.602  -2.977  -9.250  0.00  0.00     0.014 C 
ATOM     10  H   LIG d   1       2.627  -3.321  -9.592  0.00  0.00     0.035 H 
ATOM     11  C   LIG d   1       4.539  -2.593 -10.412  0.00  0.00     0.107 C 
ATOM     12  H   LIG d   1       4.438  -3.332 -11.207  0.00  0.00     0.074 H 
ATOM     13  C   LIG d   1       4.255  -1.230 -10.993  0.00  0.00    -0.010 C 
ATOM     14  O   LIG d   1       5.878  -2.727  -9.805  0.00  0.00    -0.461 OA
ATOM     15  C   LIG d   1       5.862  -3.837  -9.033  0.00  0.00     0.316 C 
ATOM     16  O   LIG d   1       6.825  -4.509  -8.752  0.00  0.00    -0.250 OA
ATOM     17  C   LIG d   1       4.440  -4.103  -8.573  0.00  0.00     0.102 C 
ATOM     18  H   LIG d   1       4.108  -5.083  -8.912  0.00  0.00     0.047 H 
ATOM     19  C   LIG d   1       3.766   0.435  -6.566  0.00  0.00     0.078 A 
ATOM     20  O   LIG d   1       2.347   0.270  -6.640  0.00  0.00    -0.368 OA
ATOM     21  H   LIG d   1       2.977   1.169 -11.011  0.00  0.00     0.027 H 
ATOM     22  H   LIG d   1       4.719   1.435 -11.257  0.00  0.00     0.027 H 
ATOM     23  H   LIG d   1       4.893   2.273  -8.910  0.00  0.00     0.027 H 
ATOM     24  H   LIG d   1       3.781   3.253  -9.894  0.00  0.00     0.027 H 
ATOM     25  H   LIG d   1       2.839   2.718  -7.632  0.00  0.00     0.029 H 
ATOM     26  H   LIG d   1       1.848   2.055  -8.956  0.00  0.00     0.029 H 
ATOM     27  H   LIG d   1       4.460  -1.721  -7.728  0.00  0.00     0.027 H 
ATOM     28  H   LIG d   1       2.738  -2.092  -7.492  0.00  0.00     0.027 H 
ATOM     29  H   LIG d   1       5.037  -0.978 -11.711  0.00  0.00     0.031 H 
ATOM     30  H   LIG d   1       3.295  -1.254 -11.506  0.00  0.00     0.031 H 
ATOM     31  H   LIG d   1       4.375  -0.461  -6.434  0.00  0.00     0.059 H 
ATOM     32  H   LIG d   1       4.150   1.341  -6.098  0.00  0.00     0.059 H 
ENDROOT
BRANCH  17  33
ATOM     33  C   LIG d   1       4.339  -4.003  -7.049  0.00  0.00    -0.020 C 
ATOM     34  H   LIG d   1       3.469  -3.403  -6.781  0.00  0.00     0.082 H 
ATOM     35  H   LIG d   1       4.237  -5.002  -6.626  0.00  0.00     0.082 H 
BRANCH  33  36
ATOM     36  N   LIG d   1       5.562  -3.365  -6.525  0.00  0.00     0.231 N 
ATOM     37  H   LIG d   1       5.438  -2.346  -6.524  0.00  0.00     0.202 HD
ATOM     38  H   LIG d   1       6.357  -3.612  -7.126  0.00  0.00     0.202 HD
BRANCH  36  39
ATOM     39  C   LIG d   1       5.830  -3.824  -5.149  0.00  0.00    -0.006 C 
ATOM     40  H   LIG d   1       5.242  -4.718  -4.940  0.00  0.00     0.087 H 
ATOM     41  H   LIG d   1       6.890  -4.053  -5.039  0.00  0.00     0.087 H 
BRANCH  39  42
ATOM     42  C   LIG d   1       5.448  -2.735  -4.182  0.00  0.00     0.015 A 
ATOM     43  C   LIG d   1       6.246  -1.615  -4.038  0.00  0.00     0.036 A 
ATOM     44  N   LIG d   1       5.917  -0.656  -3.194  0.00  0.00    -0.263 NA
ATOM     45  H   LIG d   1       7.147  -1.523  -4.626  0.00  0.00     0.083 H 
ATOM     46  C   LIG d   1       4.827  -0.726  -2.457  0.00  0.00     0.028 A 
ATOM     47  C   LIG d   1       3.981  -1.816  -2.545  0.00  0.00    -0.043 A 
ATOM     48  H   LIG d   1       4.591   0.079  -1.776  0.00  0.00     0.083 H 
ATOM     49  C   LIG d   1       4.290  -2.840  -3.426  0.00  0.00    -0.051 A 
ATOM     50  H   LIG d   1       3.089  -1.866  -1.939  0.00  0.00     0.063 H 
ATOM     51  H   LIG d   1       3.646  -3.702  -3.520  0.00  0.00     0.062 H 
ENDBRANCH  39  42
ENDBRANCH  36  39
ENDBRANCH  33  36
ENDBRANCH  17  33
BRANCH   1  52
ATOM     52  C   LIG d   1       5.582  -0.107  -9.149  0.00  0.00    -0.059 C 
ATOM     53  H   LIG d   1       6.317  -0.720  -9.673  0.00  0.00     0.024 H 
ATOM     54  H   LIG d   1       5.932   0.923  -9.106  0.00  0.00     0.024 H 
ATOM     55  H   LIG d   1       5.448  -0.488  -8.137  0.00  0.00     0.024 H 
ENDBRANCH   1  52
TORSDOF 5
ENDMDL
MODEL 7
REMARK VINA RESULT:      -5.7      2.605      6.083
REMARK  5 active torsions:
REMARK  status: ('A' for Active; 'I' for Inactive)
REMARK    1  A    between atoms: C_1  and  C_2 
REMARK    2  A    between atoms: C_18  and  C_20 
REMARK    3  A    between atoms: C_20  and  N_53 
REMARK    4  A    between atoms: C_21  and  C_22 
REMARK    5  A    between atoms: C_21  and  N_53 
ROOT
ATOM      1  C   LIG d   1       5.052   0.612  -9.393  0.00  0.00    -0.023 C 
ATOM      2  C   LIG d   1       4.260   1.174 -10.574  0.00  0.00    -0.047 C 
ATOM      3  C   LIG d   1       2.950   0.402 -10.734  0.00  0.00    -0.050 C 
ATOM      4  C   LIG d   1       3.258  -1.062 -11.065  0.00  0.00    -0.021 C 
ATOM      5  C   LIG d   1       4.156  -1.641  -9.969  0.00  0.00     0.096 A 
ATOM      6  C   LIG d   1       5.431  -0.847  -9.683  0.00  0.00    -0.004 C 
ATOM      7  H   LIG d   1       6.100  -0.905 -10.540  0.00  0.00     0.034 H 
ATOM      8  C   LIG d   1       6.126  -1.413  -8.446  0.00  0.00    -0.040 C 
ATOM      9  C   LIG d   1       7.425  -0.656  -8.161  0.00  0.00     0.014 C 
ATOM     10  H   LIG d   1       8.224  -0.921  -8.853  0.00  0.00     0.035 H 
ATOM     11  C   LIG d   1       7.175   0.863  -8.093  0.00  0.00     0.107 C 
ATOM     12  H   LIG d   1       8.135   1.379  -8.086  0.00  0.00     0.074 H 
ATOM     13  C   LIG d   1       6.360   1.395  -9.246  0.00  0.00    -0.010 C 
ATOM     14  O   LIG d   1       6.537   1.027  -6.773  0.00  0.00    -0.461 OA
ATOM     15  C   LIG d   1       7.183   0.213  -5.908  0.00  0.00     0.316 C 
ATOM     16  O   LIG d   1       7.266   0.383  -4.715  0.00  0.00    -0.250 OA
ATOM     17  C   LIG d   1       7.789  -0.948  -6.674  0.00  0.00     0.102 C 
ATOM     18  H   LIG d   1       8.869  -0.970  -6.542  0.00  0.00     0.047 H 
ATOM     19  C   LIG d   1       3.483  -2.364  -8.803  0.00  0.00     0.078 A 
ATOM     20  O   LIG d   1       4.202  -3.060  -9.824  0.00  0.00    -0.368 OA
ATOM     21  H   LIG d   1       4.851   1.080 -11.485  0.00  0.00     0.027 H 
ATOM     22  H   LIG d   1       4.041   2.227 -10.393  0.00  0.00     0.027 H 
ATOM     23  H   LIG d   1       2.383   0.452  -9.804  0.00  0.00     0.027 H 
ATOM     24  H   LIG d   1       2.365   0.842 -11.541  0.00  0.00     0.027 H 
ATOM     25  H   LIG d   1       2.328  -1.629 -11.113  0.00  0.00     0.029 H 
ATOM     26  H   LIG d   1       3.772  -1.118 -12.025  0.00  0.00     0.029 H 
ATOM     27  H   LIG d   1       5.461  -1.321  -7.588  0.00  0.00     0.027 H 
ATOM     28  H   LIG d   1       6.355  -2.465  -8.613  0.00  0.00     0.027 H 
ATOM     29  H   LIG d   1       6.115   2.441  -9.057  0.00  0.00     0.031 H 
ATOM     30  H   LIG d   1       6.949   1.327 -10.160  0.00  0.00     0.031 H 
ATOM     31  H   LIG d   1       3.947  -2.283  -7.820  0.00  0.00     0.059 H 
ATOM     32  H   LIG d   1       2.395  -2.434  -8.808  0.00  0.00     0.059 H 
ENDROOT
BRANCH  17  33
ATOM     33  C   LIG d   1       7.169  -2.273  -6.222  0.00  0.00    -0.020 C 
ATOM     34  H   LIG d   1       6.161  -2.360  -6.630  0.00  0.00     0.082 H 
ATOM     35  H   LIG d   1       7.780  -3.100  -6.581  0.00  0.00     0.082 H 
BRANCH  33  36
ATOM     36  N   LIG d   1       7.111  -2.301  -4.748  0.00  0.00     0.231 N 
ATOM     37  H   LIG d   1       7.160  -1.340  -4.389  0.00  0.00     0.202 HD
ATOM     38  H   LIG d   1       7.906  -2.842  -4.388  0.00  0.00     0.202 HD
BRANCH  36  39
ATOM     39  C   LIG d   1       5.853  -2.925  -4.297  0.00  0.00    -0.006 C 
ATOM     40  H   LIG d   1       5.381  -3.442  -5.132  0.00  0.00     0.087 H 
ATOM     41  H   LIG d   1       6.063  -3.638  -3.500  0.00  0.00     0.087 H 
BRANCH  39  42
ATOM     42  C   LIG d   1       4.928  -1.854  -3.780  0.00  0.00     0.015 A 
ATOM     43  C   LIG d   1       4.050  -1.216  -4.636  0.00  0.00     0.036 A 
ATOM     44  N   LIG d   1       3.236  -0.278  -4.191  0.00  0.00    -0.263 NA
ATOM     45  H   LIG d   1       4.029  -1.489  -5.681  0.00  0.00     0.083 H 
ATOM     46  C   LIG d   1       3.226   0.088  -2.925  0.00  0.00     0.028 A 
ATOM     47  C   LIG d   1       4.077  -0.505  -2.011  0.00  0.00    -0.043 A 
ATOM     48  H   LIG d   1       2.545   0.859  -2.597  0.00  0.00     0.083 H 
ATOM     49  C   LIG d   1       4.943  -1.499  -2.440  0.00  0.00    -0.051 A 
ATOM     50  H   LIG d   1       4.064  -0.202  -0.975  0.00  0.00     0.063 H 
ATOM     51  H   LIG d   1       5.616  -1.983  -1.748  0.00  0.00     0.062 H 
ENDBRANCH  39  42
ENDBRANCH  36  39
ENDBRANCH  33  36
ENDBRANCH  17  33
BRANCH   1  52
ATOM     52  C   LIG d   1       4.204   0.682  -8.122  0.00  0.00    -0.059 C 
ATOM     53  H   LIG d   1       4.805   1.087  -7.307  0.00  0.00     0.024 H 
ATOM     54  H   LIG d   1       3.343   1.327  -8.295  0.00  0.00     0.024 H 
ATOM     55  H   LIG d   1       3.861  -0.318  -7.859  0.00  0.00     0.024 H 
ENDBRANCH   1  52
TORSDOF 5
ENDMDL
MODEL 8
REMARK VINA RESULT:      -5.6      4.339      7.329
REMARK  5 active torsions:
REMARK  status: ('A' for Active; 'I' for Inactive)
REMARK    1  A    between atoms: C_1  and  C_2 
REMARK    2  A    between atoms: C_18  and  C_20 
REMARK    3  A    between atoms: C_20  and  N_53 
REMARK    4  A    between atoms: C_21  and  C_22 
REMARK    5  A    between atoms: C_21  and  N_53 
ROOT
ATOM      1  C   LIG d   1       4.674  -0.702  -5.380  0.00  0.00    -0.023 C 
ATOM      2  C   LIG d   1       3.337  -0.019  -5.671  0.00  0.00    -0.047 C 
ATOM      3  C   LIG d   1       2.708   0.468  -4.365  0.00  0.00    -0.050 C 
ATOM      4  C   LIG d   1       2.403  -0.735  -3.466  0.00  0.00    -0.021 C 
ATOM      5  C   LIG d   1       3.693  -1.527  -3.241  0.00  0.00     0.096 A 
ATOM      6  C   LIG d   1       4.432  -1.946  -4.513  0.00  0.00    -0.004 C 
ATOM      7  H   LIG d   1       3.839  -2.681  -5.057  0.00  0.00     0.034 H 
ATOM      8  C   LIG d   1       5.789  -2.545  -4.151  0.00  0.00    -0.040 C 
ATOM      9  C   LIG d   1       6.532  -3.005  -5.407  0.00  0.00     0.014 C 
ATOM     10  H   LIG d   1       6.124  -3.927  -5.819  0.00  0.00     0.035 H 
ATOM     11  C   LIG d   1       6.611  -1.870  -6.447  0.00  0.00     0.107 C 
ATOM     12  H   LIG d   1       6.965  -2.283  -7.393  0.00  0.00     0.074 H 
ATOM     13  C   LIG d   1       5.291  -1.183  -6.696  0.00  0.00    -0.010 C 
ATOM     14  O   LIG d   1       7.657  -0.992  -5.889  0.00  0.00    -0.461 OA
ATOM     15  C   LIG d   1       8.632  -1.788  -5.396  0.00  0.00     0.316 C 
ATOM     16  O   LIG d   1       9.794  -1.482  -5.280  0.00  0.00    -0.250 OA
ATOM     17  C   LIG d   1       8.033  -3.129  -5.011  0.00  0.00     0.102 C 
ATOM     18  H   LIG d   1       8.510  -3.933  -5.568  0.00  0.00     0.047 H 
ATOM     19  C   LIG d   1       4.525  -1.198  -2.003  0.00  0.00     0.078 A 
ATOM     20  O   LIG d   1       3.755  -2.398  -2.113  0.00  0.00    -0.368 OA
ATOM     21  H   LIG d   1       2.666  -0.728  -6.155  0.00  0.00     0.027 H 
ATOM     22  H   LIG d   1       3.503   0.832  -6.333  0.00  0.00     0.027 H 
ATOM     23  H   LIG d   1       3.401   1.136  -3.855  0.00  0.00     0.027 H 
ATOM     24  H   LIG d   1       1.784   1.001  -4.584  0.00  0.00     0.027 H 
ATOM     25  H   LIG d   1       2.017  -0.386  -2.508  0.00  0.00     0.029 H 
ATOM     26  H   LIG d   1       1.663  -1.373  -3.950  0.00  0.00     0.029 H 
ATOM     27  H   LIG d   1       6.386  -1.793  -3.635  0.00  0.00     0.027 H 
ATOM     28  H   LIG d   1       5.640  -3.399  -3.491  0.00  0.00     0.027 H 
ATOM     29  H   LIG d   1       5.455  -0.316  -7.336  0.00  0.00     0.031 H 
ATOM     30  H   LIG d   1       4.617  -1.876  -7.200  0.00  0.00     0.031 H 
ATOM     31  H   LIG d   1       5.610  -1.283  -2.083  0.00  0.00     0.059 H 
ATOM     32  H   LIG d   1       4.161  -0.417  -1.337  0.00  0.00     0.059 H 
ENDROOT
BRANCH  17  33
ATOM     33  C   LIG d   1       8.172  -3.367  -3.505  0.00  0.00    -0.020 C 
ATOM     34  H   LIG d   1       7.738  -2.527  -2.963  0.00  0.00     0.082 H 
ATOM     35  H   LIG d   1       7.650  -4.285  -3.234  0.00  0.00     0.082 H 
BRANCH  33  36
ATOM     36  N   LIG d   1       9.603  -3.491  -3.165  0.00  0.00     0.231 N 
ATOM     37  H   LIG d   1       9.973  -2.565  -2.919  0.00  0.00     0.202 HD
ATOM     38  H   LIG d   1      10.113  -3.858  -3.977  0.00  0.00     0.202 HD
BRANCH  36  39
ATOM     39  C   LIG d   1       9.780  -4.405  -2.022  0.00  0.00    -0.006 C 
ATOM     40  H   LIG d   1      10.523  -3.996  -1.337  0.00  0.00     0.087 H 
ATOM     41  H   LIG d   1       8.832  -4.526  -1.499  0.00  0.00     0.087 H 
BRANCH  39  42
ATOM     42  C   LIG d   1      10.248  -5.744  -2.529  0.00  0.00     0.015 A 
ATOM     43  C   LIG d   1       9.500  -6.882  -2.294  0.00  0.00     0.036 A 
ATOM     44  N   LIG d   1       9.903  -8.058  -2.735  0.00  0.00    -0.263 NA
ATOM     45  H   LIG d   1       8.574  -6.807  -1.743  0.00  0.00     0.083 H 
ATOM     46  C   LIG d   1      11.026  -8.197  -3.411  0.00  0.00     0.028 A 
ATOM     47  C   LIG d   1      11.827  -7.104  -3.684  0.00  0.00    -0.043 A 
ATOM     48  H   LIG d   1      11.323  -9.176  -3.757  0.00  0.00     0.083 H 
ATOM     49  C   LIG d   1      11.434  -5.851  -3.242  0.00  0.00    -0.051 A 
ATOM     50  H   LIG d   1      12.745  -7.224  -4.239  0.00  0.00     0.063 H 
ATOM     51  H   LIG d   1      12.037  -4.978  -3.443  0.00  0.00     0.062 H 
ENDBRANCH  39  42
ENDBRANCH  36  39
ENDBRANCH  33  36
ENDBRANCH  17  33
BRANCH   1  52
ATOM     52  C   LIG d   1       5.598   0.268  -4.642  0.00  0.00    -0.059 C 
ATOM     53  H   LIG d   1       5.026   0.817  -3.893  0.00  0.00     0.024 H 
ATOM     54  H   LIG d   1       6.395  -0.291  -4.152  0.00  0.00     0.024 H 
ATOM     55  H   LIG d   1       6.031   0.970  -5.354  0.00  0.00     0.024 H 
ENDBRANCH   1  52
TORSDOF 5
ENDMDL
MODEL 9
REMARK VINA RESULT:      -5.6      3.078      7.244
REMARK  5 active torsions:
REMARK  status: ('A' for Active; 'I' for Inactive)
REMARK    1  A    between atoms: C_1  and  C_2 
REMARK    2  A    between atoms: C_18  and  C_20 
REMARK    3  A    between atoms: C_20  and  N_53 
REMARK    4  A    between atoms: C_21  and  C_22 
REMARK    5  A    between atoms: C_21  and  N_53 
ROOT
ATOM      1  C   LIG d   1       4.398  -1.577 -11.891  0.00  0.00    -0.023 C 
ATOM      2  C   LIG d   1       4.350  -2.322 -13.225  0.00  0.00    -0.047 C 
ATOM      3  C   LIG d   1       2.953  -2.202 -13.836  0.00  0.00    -0.050 C 
ATOM      4  C   LIG d   1       1.933  -2.879 -12.915  0.00  0.00    -0.021 C 
ATOM      5  C   LIG d   1       2.025  -2.249 -11.524  0.00  0.00     0.096 A 
ATOM      6  C   LIG d   1       3.424  -2.237 -10.905  0.00  0.00    -0.004 C 
ATOM      7  H   LIG d   1       3.737  -3.257 -10.683  0.00  0.00     0.034 H 
ATOM      8  C   LIG d   1       3.414  -1.410  -9.621  0.00  0.00    -0.040 C 
ATOM      9  C   LIG d   1       4.797  -1.413  -8.964  0.00  0.00     0.014 C 
ATOM     10  H   LIG d   1       5.023  -2.359  -8.471  0.00  0.00     0.035 H 
ATOM     11  C   LIG d   1       5.886  -0.989  -9.968  0.00  0.00     0.107 C 
ATOM     12  H   LIG d   1       6.865  -1.189  -9.532  0.00  0.00     0.074 H 
ATOM     13  C   LIG d   1       5.801  -1.707 -11.292  0.00  0.00    -0.010 C 
ATOM     14  O   LIG d   1       5.693   0.471 -10.056  0.00  0.00    -0.461 OA
ATOM     15  C   LIG d   1       5.441   0.921  -8.806  0.00  0.00     0.316 C 
ATOM     16  O   LIG d   1       5.669   2.037  -8.404  0.00  0.00    -0.250 OA
ATOM     17  C   LIG d   1       4.824  -0.199  -7.989  0.00  0.00     0.102 C 
ATOM     18  H   LIG d   1       5.442  -0.420  -7.119  0.00  0.00     0.047 H 
ATOM     19  C   LIG d   1       1.088  -1.087 -11.203  0.00  0.00     0.078 A 
ATOM     20  O   LIG d   1       0.907  -2.393 -10.650  0.00  0.00    -0.368 OA
ATOM     21  H   LIG d   1       4.585  -3.373 -13.062  0.00  0.00     0.027 H 
ATOM     22  H   LIG d   1       5.083  -1.889 -13.908  0.00  0.00     0.027 H 
ATOM     23  H   LIG d   1       2.696  -1.149 -13.951  0.00  0.00     0.027 H 
ATOM     24  H   LIG d   1       2.940  -2.687 -14.812  0.00  0.00     0.027 H 
ATOM     25  H   LIG d   1       0.929  -2.736 -13.315  0.00  0.00     0.029 H 
ATOM     26  H   LIG d   1       2.154  -3.944 -12.849  0.00  0.00     0.029 H 
ATOM     27  H   LIG d   1       3.131  -0.385  -9.857  0.00  0.00     0.027 H 
ATOM     28  H   LIG d   1       2.688  -1.833  -8.927  0.00  0.00     0.027 H 
ATOM     29  H   LIG d   1       6.513  -1.260 -11.987  0.00  0.00     0.031 H 
ATOM     30  H   LIG d   1       6.057  -2.756 -11.147  0.00  0.00     0.031 H 
ATOM     31  H   LIG d   1       1.460  -0.302 -10.541  0.00  0.00     0.059 H 
ATOM     32  H   LIG d   1       0.396  -0.761 -11.979  0.00  0.00     0.059 H 
ENDROOT
BRANCH  17  33
ATOM     33  C   LIG d   1       3.404   0.172  -7.554  0.00  0.00    -0.020 C 
ATOM     34  H   LIG d   1       3.341   1.249  -7.398  0.00  0.00     0.082 H 
ATOM     35  H   LIG d   1       2.698  -0.126  -8.330  0.00  0.00     0.082 H 
BRANCH  33  36
ATOM     36  N   LIG d   1       3.085  -0.531  -6.296  0.00  0.00     0.231 N 
ATOM     37  H   LIG d   1       3.921  -1.024  -5.963  0.00  0.00     0.202 HD
ATOM     38  H   LIG d   1       2.333  -1.210  -6.469  0.00  0.00     0.202 HD
BRANCH  36  39
ATOM     39  C   LIG d   1       2.646   0.432  -5.269  0.00  0.00    -0.006 C 
ATOM     40  H   LIG d   1       2.926   1.441  -5.570  0.00  0.00     0.087 H 
ATOM     41  H   LIG d   1       1.563   0.375  -5.153  0.00  0.00     0.087 H 
BRANCH  39  42
ATOM     42  C   LIG d   1       3.309   0.094  -3.960  0.00  0.00     0.015 A 
ATOM     43  C   LIG d   1       3.464  -1.224  -3.572  0.00  0.00     0.036 A 
ATOM     44  N   LIG d   1       4.045  -1.526  -2.428  0.00  0.00    -0.263 NA
ATOM     45  H   LIG d   1       3.106  -2.014  -4.215  0.00  0.00     0.083 H 
ATOM     46  C   LIG d   1       4.497  -0.595  -1.612  0.00  0.00     0.028 A 
ATOM     47  C   LIG d   1       4.376   0.745  -1.932  0.00  0.00    -0.043 A 
ATOM     48  H   LIG d   1       4.967  -0.881  -0.683  0.00  0.00     0.083 H 
ATOM     49  C   LIG d   1       3.777   1.102  -3.129  0.00  0.00    -0.051 A 
ATOM     50  H   LIG d   1       4.749   1.503  -1.259  0.00  0.00     0.063 H 
ATOM     51  H   LIG d   1       3.673   2.140  -3.408  0.00  0.00     0.062 H 
ENDBRANCH  39  42
ENDBRANCH  36  39
ENDBRANCH  33  36
ENDBRANCH  17  33
BRANCH   1  52
ATOM     52  C   LIG d   1       4.005  -0.114 -12.102  0.00  0.00    -0.059 C 
ATOM     53  H   LIG d   1       3.291   0.185 -11.334  0.00  0.00     0.024 H 
ATOM     54  H   LIG d   1       4.893   0.514 -12.037  0.00  0.00     0.024 H 
ATOM     55  H   LIG d   1       3.550   0.001 -13.086  0.00  0.00     0.024 H 
ENDBRANCH   1  52
TORSDOF 5
ENDMDL
