MODEL 1
REMARK VINA RESULT:      -5.8      0.000      0.000
REMARK  3 active torsions:
REMARK  status: ('A' for Active; 'I' for Inactive)
REMARK    1  A    between atoms: CB_1  and  CA_2 
REMARK       I    between atoms: N_9  and  C_16 
REMARK    2  A    between atoms: C_16  and  C_18 
REMARK       I    between atoms: N_21  and  C_24 
REMARK    3  A    between atoms: C_24  and  C_26 
ROOT
ATOM      1  CA  ALA d   2      11.530   8.730   0.711  0.00  0.00     0.097 C 
ATOM      2  HA  ALA d   2      12.404   9.052   0.145  0.00  0.00     0.059 H 
ATOM      3  C   ALA d   2      11.273   7.271   0.445  0.00  0.00     0.236 C 
ATOM      4  O   ALA d   2      11.739   6.438   1.193  0.00  0.00    -0.274 OA
ATOM      5  N   ALA d   2      10.374   9.527   0.313  0.00  0.00    -0.303 N 
ATOM      6  H   ALA d   2      10.226  10.387   0.736  0.00  0.00     0.149 HD
ATOM      7  N   UNK d   1      10.543   6.880  -0.604  0.00  0.00    -0.285 N 
ATOM      8  C   UNK d   1      10.668   5.507  -1.133  0.00  0.00     0.031 C 
ATOM      9  C   UNK d   1      11.177   5.623  -2.574  0.00  0.00     0.031 C 
ATOM     10  N   UNK d   1      10.355   6.596  -3.305  0.00  0.00    -0.297 N 
ATOM     11  C   UNK d   1      10.160   7.946  -2.749  0.00  0.00     0.042 C 
ATOM     12  C   UNK d   1       9.646   7.790  -1.316  0.00  0.00     0.118 C 
ATOM     13  H   UNK d   1       8.662   7.323  -1.355  0.00  0.00     0.061 H 
ATOM     14  C   UNK d   1       9.512   9.104  -0.622  0.00  0.00     0.236 C 
ATOM     15  O   UNK d   1       8.580   9.821  -0.918  0.00  0.00    -0.274 OA
ATOM     16  C   UNK d   1       9.779   6.255  -4.475  0.00  0.00     0.219 C 
ATOM     17  O   UNK d   1       9.168   7.083  -5.116  0.00  0.00    -0.275 OA
ATOM     18  H   UNK d   1      11.377   4.941  -0.530  0.00  0.00     0.048 H 
ATOM     19  H   UNK d   1       9.695   5.015  -1.122  0.00  0.00     0.048 H 
ATOM     20  H   UNK d   1      11.110   4.650  -3.061  0.00  0.00     0.048 H 
ATOM     21  H   UNK d   1      12.214   5.956  -2.565  0.00  0.00     0.048 H 
ATOM     22  H   UNK d   1      11.107   8.484  -2.746  0.00  0.00     0.049 H 
ATOM     23  H   UNK d   1       9.428   8.489  -3.348  0.00  0.00     0.049 H 
ENDROOT
BRANCH  16  24
ATOM     24  C   UNK d   1       9.896   4.842  -4.988  0.00  0.00     0.039 C 
ATOM     25  C   UNK d   1       9.751   4.839  -6.512  0.00  0.00    -0.026 C 
ATOM     26  C   UNK d   1       9.908   3.402  -7.033  0.00  0.00     0.015 C 
ATOM     27  H   UNK d   1       8.767   5.223  -6.784  0.00  0.00     0.029 H 
ATOM     28  H   UNK d   1      10.522   5.471  -6.952  0.00  0.00     0.029 H 
ATOM     29  N   UNK d   1       8.942   2.543  -6.333  0.00  0.00    -0.302 N 
ATOM     30  H   UNK d   1      10.920   3.048  -6.837  0.00  0.00     0.046 H 
ATOM     31  H   UNK d   1       9.709   3.377  -8.104  0.00  0.00     0.046 H 
ATOM     32  C   UNK d   1       8.935   2.539  -4.864  0.00  0.00     0.015 C 
ATOM     33  C   UNK d   1       8.083   1.771  -7.026  0.00  0.00     0.212 C 
ATOM     34  C   UNK d   1       8.793   3.982  -4.368  0.00  0.00    -0.026 C 
ATOM     35  H   UNK d   1       8.095   1.946  -4.504  0.00  0.00     0.046 H 
ATOM     36  H   UNK d   1       9.870   2.117  -4.495  0.00  0.00     0.046 H 
ATOM     37  H   UNK d   1       7.818   4.373  -4.660  0.00  0.00     0.029 H 
ATOM     38  H   UNK d   1       8.883   4.003  -3.281  0.00  0.00     0.029 H 
ATOM     39  O   UNK d   1       7.297   1.059  -6.437  0.00  0.00    -0.276 OA
ATOM     40  H   UNK d   1      10.870   4.436  -4.716  0.00  0.00     0.040 H 
BRANCH  33  41
ATOM     41  C   UNK d   1       8.102   1.786  -8.533  0.00  0.00     0.012 C 
ATOM     42  H   UNK d   1       9.134   1.792  -8.884  0.00  0.00     0.032 H 
ATOM     43  H   UNK d   1       7.595   0.897  -8.911  0.00  0.00     0.032 H 
ATOM     44  H   UNK d   1       7.589   2.677  -8.893  0.00  0.00     0.032 H 
ENDBRANCH  33  41
ENDBRANCH  16  24
BRANCH   1  45
ATOM     45  CB  ALA d   2      11.793   8.930   2.205  0.00  0.00    -0.038 C 
ATOM     46  HB1 ALA d   2      12.857   8.806   2.407  0.00  0.00     0.025 H 
ATOM     47  HB2 ALA d   2      11.481   9.933   2.498  0.00  0.00     0.025 H 
ATOM     48  HB3 ALA d   2      11.227   8.193   2.775  0.00  0.00     0.025 H 
ENDBRANCH   1  45
TORSDOF 3
ENDMDL
MODEL 2
REMARK VINA RESULT:      -5.6      3.527      5.577
REMARK  3 active torsions:
REMARK  status: ('A' for Active; 'I' for Inactive)
REMARK    1  A    between atoms: CB_1  and  CA_2 
REMARK       I    between atoms: N_9  and  C_16 
REMARK    2  A    between atoms: C_16  and  C_18 
REMARK       I    between atoms: N_21  and  C_24 
REMARK    3  A    between atoms: C_24  and  C_26 
ROOT
ATOM      1  CA  ALA d   2      12.609   5.785  -4.721  0.00  0.00     0.097 C 
ATOM      2  HA  ALA d   2      13.240   4.952  -5.030  0.00  0.00     0.059 H 
ATOM      3  C   ALA d   2      11.720   5.345  -3.589  0.00  0.00     0.236 C 
ATOM      4  O   ALA d   2      12.076   5.533  -2.444  0.00  0.00    -0.274 OA
ATOM      5  N   ALA d   2      11.801   6.227  -5.854  0.00  0.00    -0.303 N 
ATOM      6  H   ALA d   2      12.179   6.858  -6.485  0.00  0.00     0.149 HD
ATOM      7  N   UNK d   1      10.548   4.749  -3.824  0.00  0.00    -0.285 N 
ATOM      8  C   UNK d   1       9.908   3.919  -2.784  0.00  0.00     0.031 C 
ATOM      9  C   UNK d   1       9.811   2.493  -3.339  0.00  0.00     0.031 C 
ATOM     10  N   UNK d   1       9.221   2.532  -4.683  0.00  0.00    -0.297 N 
ATOM     11  C   UNK d   1       9.803   3.414  -5.708  0.00  0.00     0.042 C 
ATOM     12  C   UNK d   1       9.877   4.826  -5.122  0.00  0.00     0.118 C 
ATOM     13  H   UNK d   1       8.860   5.177  -4.949  0.00  0.00     0.061 H 
ATOM     14  C   UNK d   1      10.550   5.783  -6.046  0.00  0.00     0.236 C 
ATOM     15  O   UNK d   1       9.939   6.178  -7.016  0.00  0.00    -0.274 OA
ATOM     16  C   UNK d   1       8.148   1.769  -4.975  0.00  0.00     0.219 C 
ATOM     17  O   UNK d   1       7.711   1.742  -6.106  0.00  0.00    -0.275 OA
ATOM     18  H   UNK d   1      10.514   3.927  -1.879  0.00  0.00     0.048 H 
ATOM     19  H   UNK d   1       8.910   4.300  -2.566  0.00  0.00     0.048 H 
ATOM     20  H   UNK d   1       9.185   1.890  -2.682  0.00  0.00     0.048 H 
ATOM     21  H   UNK d   1      10.809   2.058  -3.393  0.00  0.00     0.048 H 
ATOM     22  H   UNK d   1      10.804   3.069  -5.967  0.00  0.00     0.049 H 
ATOM     23  H   UNK d   1       9.171   3.415  -6.597  0.00  0.00     0.049 H 
ENDROOT
BRANCH  16  24
ATOM     24  C   UNK d   1       7.493   0.947  -3.895  0.00  0.00     0.039 C 
ATOM     25  C   UNK d   1       7.319  -0.493  -4.384  0.00  0.00    -0.026 C 
ATOM     26  C   UNK d   1       6.685  -1.335  -3.267  0.00  0.00     0.015 C 
ATOM     27  H   UNK d   1       6.674  -0.503  -5.263  0.00  0.00     0.029 H 
ATOM     28  H   UNK d   1       8.293  -0.909  -4.644  0.00  0.00     0.029 H 
ATOM     29  N   UNK d   1       5.435  -0.687  -2.845  0.00  0.00    -0.302 N 
ATOM     30  H   UNK d   1       7.367  -1.397  -2.419  0.00  0.00     0.046 H 
ATOM     31  H   UNK d   1       6.469  -2.336  -3.639  0.00  0.00     0.046 H 
ATOM     32  C   UNK d   1       5.473   0.725  -2.440  0.00  0.00     0.015 C 
ATOM     33  C   UNK d   1       4.277  -1.375  -2.826  0.00  0.00     0.212 C 
ATOM     34  C   UNK d   1       6.122   1.542  -3.562  0.00  0.00    -0.026 C 
ATOM     35  H   UNK d   1       4.458   1.083  -2.269  0.00  0.00     0.046 H 
ATOM     36  H   UNK d   1       6.059   0.828  -1.527  0.00  0.00     0.046 H 
ATOM     37  H   UNK d   1       5.487   1.512  -4.448  0.00  0.00     0.029 H 
ATOM     38  H   UNK d   1       6.244   2.575  -3.236  0.00  0.00     0.029 H 
ATOM     39  O   UNK d   1       3.254  -0.832  -2.467  0.00  0.00    -0.276 OA
ATOM     40  H   UNK d   1       8.118   0.954  -3.002  0.00  0.00     0.040 H 
BRANCH  33  41
ATOM     41  C   UNK d   1       4.254  -2.824  -3.244  0.00  0.00     0.012 C 
ATOM     42  H   UNK d   1       3.348  -3.023  -3.815  0.00  0.00     0.032 H 
ATOM     43  H   UNK d   1       5.128  -3.037  -3.861  0.00  0.00     0.032 H 
ATOM     44  H   UNK d   1       4.272  -3.457  -2.357  0.00  0.00     0.032 H 
ENDBRANCH  33  41
ENDBRANCH  16  24
BRANCH   1  45
ATOM     45  CB  ALA d   2      13.492   6.941  -4.247  0.00  0.00    -0.038 C 
ATOM     46  HB1 ALA d   2      14.463   6.554  -3.938  0.00  0.00     0.025 H 
ATOM     47  HB2 ALA d   2      13.627   7.653  -5.062  0.00  0.00     0.025 H 
ATOM     48  HB3 ALA d   2      13.015   7.441  -3.404  0.00  0.00     0.025 H 
ENDBRANCH   1  45
TORSDOF 3
ENDMDL
MODEL 3
REMARK VINA RESULT:      -5.5      3.053      4.480
REMARK  3 active torsions:
REMARK  status: ('A' for Active; 'I' for Inactive)
REMARK    1  A    between atoms: CB_1  and  CA_2 
REMARK       I    between atoms: N_9  and  C_16 
REMARK    2  A    between atoms: C_16  and  C_18 
REMARK       I    between atoms: N_21  and  C_24 
REMARK    3  A    between atoms: C_24  and  C_26 
ROOT
ATOM      1  CA  ALA d   2      11.060   5.451  -0.047  0.00  0.00     0.097 C 
ATOM      2  HA  ALA d   2      10.477   4.530  -0.074  0.00  0.00     0.059 H 
ATOM      3  C   ALA d   2      10.450   6.454  -0.989  0.00  0.00     0.236 C 
ATOM      4  O   ALA d   2       9.648   7.259  -0.564  0.00  0.00    -0.274 OA
ATOM      5  N   ALA d   2      12.437   5.165  -0.437  0.00  0.00    -0.303 N 
ATOM      6  H   ALA d   2      13.062   4.850   0.235  0.00  0.00     0.149 HD
ATOM      7  N   UNK d   1      10.776   6.471  -2.285  0.00  0.00    -0.285 N 
ATOM      8  C   UNK d   1       9.881   7.102  -3.274  0.00  0.00     0.031 C 
ATOM      9  C   UNK d   1       9.433   6.003  -4.245  0.00  0.00     0.031 C 
ATOM     10  N   UNK d   1      10.610   5.262  -4.719  0.00  0.00    -0.297 N 
ATOM     11  C   UNK d   1      11.553   4.693  -3.741  0.00  0.00     0.042 C 
ATOM     12  C   UNK d   1      11.981   5.818  -2.796  0.00  0.00     0.118 C 
ATOM     13  H   UNK d   1      12.538   6.555  -3.374  0.00  0.00     0.061 H 
ATOM     14  C   UNK d   1      12.862   5.324  -1.699  0.00  0.00     0.236 C 
ATOM     15  O   UNK d   1      14.015   5.053  -1.960  0.00  0.00    -0.274 OA
ATOM     16  C   UNK d   1      10.828   5.109  -6.040  0.00  0.00     0.219 C 
ATOM     17  O   UNK d   1      11.755   4.430  -6.428  0.00  0.00    -0.275 OA
ATOM     18  H   UNK d   1       9.015   7.530  -2.770  0.00  0.00     0.048 H 
ATOM     19  H   UNK d   1      10.417   7.880  -3.817  0.00  0.00     0.048 H 
ATOM     20  H   UNK d   1       8.921   6.456  -5.094  0.00  0.00     0.048 H 
ATOM     21  H   UNK d   1       8.756   5.320  -3.731  0.00  0.00     0.048 H 
ATOM     22  H   UNK d   1      11.064   3.901  -3.175  0.00  0.00     0.049 H 
ATOM     23  H   UNK d   1      12.425   4.293  -4.260  0.00  0.00     0.049 H 
ENDROOT
BRANCH  16  24
ATOM     24  C   UNK d   1       9.918   5.781  -7.036  0.00  0.00     0.039 C 
ATOM     25  C   UNK d   1       9.818   4.920  -8.298  0.00  0.00    -0.026 C 
ATOM     26  C   UNK d   1       8.861   5.590  -9.295  0.00  0.00     0.015 C 
ATOM     27  H   UNK d   1      10.806   4.819  -8.748  0.00  0.00     0.029 H 
ATOM     28  H   UNK d   1       9.436   3.933  -8.035  0.00  0.00     0.029 H 
ATOM     29  N   UNK d   1       9.325   6.963  -9.538  0.00  0.00    -0.302 N 
ATOM     30  H   UNK d   1       7.853   5.614  -8.879  0.00  0.00     0.046 H 
ATOM     31  H   UNK d   1       8.859   5.034 -10.232  0.00  0.00     0.046 H 
ATOM     32  C   UNK d   1       9.542   7.850  -8.386  0.00  0.00     0.015 C 
ATOM     33  C   UNK d   1       9.544   7.402 -10.792  0.00  0.00     0.212 C 
ATOM     34  C   UNK d   1      10.486   7.155  -7.400  0.00  0.00    -0.026 C 
ATOM     35  H   UNK d   1       9.990   8.784  -8.724  0.00  0.00     0.046 H 
ATOM     36  H   UNK d   1       8.589   8.054  -7.898  0.00  0.00     0.046 H 
ATOM     37  H   UNK d   1      11.468   7.033  -7.860  0.00  0.00     0.029 H 
ATOM     38  H   UNK d   1      10.579   7.760  -6.498  0.00  0.00     0.029 H 
ATOM     39  O   UNK d   1       9.918   8.540 -10.980  0.00  0.00    -0.276 OA
ATOM     40  H   UNK d   1       8.927   5.901  -6.600  0.00  0.00     0.040 H 
BRANCH  33  41
ATOM     41  C   UNK d   1       9.317   6.480 -11.964  0.00  0.00     0.012 C 
ATOM     42  H   UNK d   1       8.374   6.732 -12.448  0.00  0.00     0.032 H 
ATOM     43  H   UNK d   1      10.134   6.594 -12.678  0.00  0.00     0.032 H 
ATOM     44  H   UNK d   1       9.283   5.449 -11.613  0.00  0.00     0.032 H 
ENDBRANCH  33  41
ENDBRANCH  16  24
BRANCH   1  45
ATOM     45  CB  ALA d   2      11.043   6.020   1.373  0.00  0.00    -0.038 C 
ATOM     46  HB1 ALA d   2      10.484   6.956   1.384  0.00  0.00     0.025 H 
ATOM     47  HB2 ALA d   2      10.568   5.305   2.046  0.00  0.00     0.025 H 
ATOM     48  HB3 ALA d   2      12.066   6.204   1.703  0.00  0.00     0.025 H 
ENDBRANCH   1  45
TORSDOF 3
ENDMDL
MODEL 4
REMARK VINA RESULT:      -5.5     14.957     16.276
REMARK  3 active torsions:
REMARK  status: ('A' for Active; 'I' for Inactive)
REMARK    1  A    between atoms: CB_1  and  CA_2 
REMARK       I    between atoms: N_9  and  C_16 
REMARK    2  A    between atoms: C_16  and  C_18 
REMARK       I    between atoms: N_21  and  C_24 
REMARK    3  A    between atoms: C_24  and  C_26 
ROOT
ATOM      1  CA  ALA d   2      12.743 -11.131   2.752  0.00  0.00     0.097 C 
ATOM      2  HA  ALA d   2      13.537 -11.150   2.005  0.00  0.00     0.059 H 
ATOM      3  C   ALA d   2      11.489 -11.716   2.161  0.00  0.00     0.236 C 
ATOM      4  O   ALA d   2      11.249 -12.895   2.319  0.00  0.00    -0.274 OA
ATOM      5  N   ALA d   2      12.508  -9.753   3.175  0.00  0.00    -0.303 N 
ATOM      6  H   ALA d   2      13.060  -9.374   3.875  0.00  0.00     0.149 HD
ATOM      7  N   UNK d   1      10.636 -10.958   1.465  0.00  0.00    -0.285 N 
ATOM      8  C   UNK d   1       9.687 -11.576   0.518  0.00  0.00     0.031 C 
ATOM      9  C   UNK d   1      10.023 -11.034  -0.877  0.00  0.00     0.031 C 
ATOM     10  N   UNK d   1      10.123  -9.570  -0.821  0.00  0.00    -0.297 N 
ATOM     11  C   UNK d   1      11.009  -8.939   0.172  0.00  0.00     0.042 C 
ATOM     12  C   UNK d   1      10.639  -9.498   1.549  0.00  0.00     0.118 C 
ATOM     13  H   UNK d   1       9.625  -9.177   1.786  0.00  0.00     0.061 H 
ATOM     14  C   UNK d   1      11.549  -8.998   2.620  0.00  0.00     0.236 C 
ATOM     15  O   UNK d   1      11.416  -7.856   3.006  0.00  0.00    -0.274 OA
ATOM     16  C   UNK d   1       9.404  -8.809  -1.669  0.00  0.00     0.219 C 
ATOM     17  O   UNK d   1       9.547  -7.605  -1.675  0.00  0.00    -0.275 OA
ATOM     18  H   UNK d   1       9.800 -12.659   0.534  0.00  0.00     0.048 H 
ATOM     19  H   UNK d   1       8.666 -11.304   0.784  0.00  0.00     0.048 H 
ATOM     20  H   UNK d   1       9.238 -11.320  -1.576  0.00  0.00     0.048 H 
ATOM     21  H   UNK d   1      10.975 -11.451  -1.206  0.00  0.00     0.048 H 
ATOM     22  H   UNK d   1      12.047  -9.176  -0.056  0.00  0.00     0.049 H 
ATOM     23  H   UNK d   1      10.864  -7.858   0.161  0.00  0.00     0.049 H 
ENDROOT
BRANCH  16  24
ATOM     24  C   UNK d   1       8.422  -9.455  -2.613  0.00  0.00     0.039 C 
ATOM     25  C   UNK d   1       8.271  -8.586  -3.864  0.00  0.00    -0.026 C 
ATOM     26  C   UNK d   1       7.297  -9.267  -4.839  0.00  0.00     0.015 C 
ATOM     27  H   UNK d   1       7.883  -7.607  -3.583  0.00  0.00     0.029 H 
ATOM     28  H   UNK d   1       9.242  -8.468  -4.345  0.00  0.00     0.029 H 
ATOM     29  N   UNK d   1       6.036  -9.531  -4.132  0.00  0.00    -0.302 N 
ATOM     30  H   UNK d   1       7.724 -10.208  -5.188  0.00  0.00     0.046 H 
ATOM     31  H   UNK d   1       7.110  -8.610  -5.688  0.00  0.00     0.046 H 
ATOM     32  C   UNK d   1       6.078 -10.280  -2.869  0.00  0.00     0.015 C 
ATOM     33  C   UNK d   1       4.864  -9.098  -4.635  0.00  0.00     0.212 C 
ATOM     34  C   UNK d   1       7.064  -9.593  -1.920  0.00  0.00    -0.026 C 
ATOM     35  H   UNK d   1       5.086 -10.291  -2.418  0.00  0.00     0.046 H 
ATOM     36  H   UNK d   1       6.407 -11.302  -3.061  0.00  0.00     0.046 H 
ATOM     37  H   UNK d   1       6.687  -8.604  -1.657  0.00  0.00     0.029 H 
ATOM     38  H   UNK d   1       7.177 -10.192  -1.016  0.00  0.00     0.029 H 
ATOM     39  O   UNK d   1       3.829  -9.330  -4.047  0.00  0.00    -0.276 OA
ATOM     40  H   UNK d   1       8.787 -10.441  -2.898  0.00  0.00     0.040 H 
BRANCH  33  41
ATOM     41  C   UNK d   1       4.838  -8.330  -5.932  0.00  0.00     0.012 C 
ATOM     42  H   UNK d   1       3.829  -8.347  -6.344  0.00  0.00     0.032 H 
ATOM     43  H   UNK d   1       5.138  -7.297  -5.749  0.00  0.00     0.032 H 
ATOM     44  H   UNK d   1       5.528  -8.789  -6.639  0.00  0.00     0.032 H 
ENDBRANCH  33  41
ENDBRANCH  16  24
BRANCH   1  45
ATOM     45  CB  ALA d   2      13.167 -11.967   3.962  0.00  0.00    -0.038 C 
ATOM     46  HB1 ALA d   2      12.963 -11.411   4.877  0.00  0.00     0.025 H 
ATOM     47  HB2 ALA d   2      12.606 -12.902   3.971  0.00  0.00     0.025 H 
ATOM     48  HB3 ALA d   2      14.233 -12.184   3.898  0.00  0.00     0.025 H 
ENDBRANCH   1  45
TORSDOF 3
ENDMDL
MODEL 5
REMARK VINA RESULT:      -5.5      8.428     13.532
REMARK  3 active torsions:
REMARK  status: ('A' for Active; 'I' for Inactive)
REMARK    1  A    between atoms: CB_1  and  CA_2 
REMARK       I    between atoms: N_9  and  C_16 
REMARK    2  A    between atoms: C_16  and  C_18 
REMARK       I    between atoms: N_21  and  C_24 
REMARK    3  A    between atoms: C_24  and  C_26 
ROOT
ATOM      1  CA  ALA d   2       2.021  -2.561 -13.531  0.00  0.00     0.097 C 
ATOM      2  HA  ALA d   2       1.062  -2.059 -13.398  0.00  0.00     0.059 H 
ATOM      3  C   ALA d   2       2.423  -3.218 -12.238  0.00  0.00     0.236 C 
ATOM      4  O   ALA d   2       2.137  -4.382 -12.047  0.00  0.00    -0.274 OA
ATOM      5  N   ALA d   2       3.028  -1.585 -13.936  0.00  0.00    -0.303 N 
ATOM      6  H   ALA d   2       3.113  -1.358 -14.875  0.00  0.00     0.149 HD
ATOM      7  N   UNK d   1       3.088  -2.541 -11.298  0.00  0.00    -0.285 N 
ATOM      8  C   UNK d   1       3.077  -3.000  -9.895  0.00  0.00     0.031 C 
ATOM      9  C   UNK d   1       2.418  -1.895  -9.062  0.00  0.00     0.031 C 
ATOM     10  N   UNK d   1       3.041  -0.604  -9.384  0.00  0.00    -0.297 N 
ATOM     11  C   UNK d   1       3.126  -0.169 -10.789  0.00  0.00     0.042 C 
ATOM     12  C   UNK d   1       3.794  -1.292 -11.586  0.00  0.00     0.118 C 
ATOM     13  H   UNK d   1       4.818  -1.401 -11.229  0.00  0.00     0.061 H 
ATOM     14  C   UNK d   1       3.838  -0.995 -13.046  0.00  0.00     0.236 C 
ATOM     15  O   UNK d   1       4.643  -0.181 -13.447  0.00  0.00    -0.274 OA
ATOM     16  C   UNK d   1       3.535   0.175  -8.402  0.00  0.00     0.219 C 
ATOM     17  O   UNK d   1       3.976   1.274  -8.662  0.00  0.00    -0.275 OA
ATOM     18  H   UNK d   1       2.504  -3.923  -9.812  0.00  0.00     0.048 H 
ATOM     19  H   UNK d   1       4.098  -3.165  -9.550  0.00  0.00     0.048 H 
ATOM     20  H   UNK d   1       2.553  -2.110  -8.002  0.00  0.00     0.048 H 
ATOM     21  H   UNK d   1       1.354  -1.853  -9.294  0.00  0.00     0.048 H 
ATOM     22  H   UNK d   1       2.126   0.017 -11.179  0.00  0.00     0.049 H 
ATOM     23  H   UNK d   1       3.725   0.740 -10.857  0.00  0.00     0.049 H 
ENDROOT
BRANCH  16  24
ATOM     24  C   UNK d   1       3.538  -0.321  -6.978  0.00  0.00     0.039 C 
ATOM     25  C   UNK d   1       2.793   0.678  -6.089  0.00  0.00    -0.026 C 
ATOM     26  C   UNK d   1       2.767   0.150  -4.646  0.00  0.00     0.015 C 
ATOM     27  H   UNK d   1       3.302   1.641  -6.118  0.00  0.00     0.029 H 
ATOM     28  H   UNK d   1       1.771   0.795  -6.451  0.00  0.00     0.029 H 
ATOM     29  N   UNK d   1       4.148  -0.120  -4.222  0.00  0.00    -0.302 N 
ATOM     30  H   UNK d   1       2.184  -0.770  -4.601  0.00  0.00     0.046 H 
ATOM     31  H   UNK d   1       2.324   0.899  -3.990  0.00  0.00     0.046 H 
ATOM     32  C   UNK d   1       4.984  -0.997  -5.055  0.00  0.00     0.015 C 
ATOM     33  C   UNK d   1       4.637   0.421  -3.090  0.00  0.00     0.212 C 
ATOM     34  C   UNK d   1       4.982  -0.460  -6.490  0.00  0.00    -0.026 C 
ATOM     35  H   UNK d   1       6.003  -1.004  -4.669  0.00  0.00     0.046 H 
ATOM     36  H   UNK d   1       4.578  -2.008  -5.043  0.00  0.00     0.046 H 
ATOM     37  H   UNK d   1       5.471   0.514  -6.515  0.00  0.00     0.029 H 
ATOM     38  H   UNK d   1       5.520  -1.154  -7.138  0.00  0.00     0.029 H 
ATOM     39  O   UNK d   1       5.775   0.182  -2.746  0.00  0.00    -0.276 OA
ATOM     40  H   UNK d   1       3.043  -1.290  -6.929  0.00  0.00     0.040 H 
BRANCH  33  41
ATOM     41  C   UNK d   1       3.767   1.318  -2.246  0.00  0.00     0.012 C 
ATOM     42  H   UNK d   1       2.873   1.590  -2.806  0.00  0.00     0.032 H 
ATOM     43  H   UNK d   1       3.479   0.791  -1.335  0.00  0.00     0.032 H 
ATOM     44  H   UNK d   1       4.322   2.218  -1.984  0.00  0.00     0.032 H 
ENDBRANCH  33  41
ENDBRANCH  16  24
BRANCH   1  45
ATOM     45  CB  ALA d   2       1.884  -3.630 -14.617  0.00  0.00    -0.038 C 
ATOM     46  HB1 ALA d   2       2.874  -3.981 -14.909  0.00  0.00     0.025 H 
ATOM     47  HB2 ALA d   2       1.300  -4.467 -14.233  0.00  0.00     0.025 H 
ATOM     48  HB3 ALA d   2       1.380  -3.204 -15.485  0.00  0.00     0.025 H 
ENDBRANCH   1  45
TORSDOF 3
ENDMDL
MODEL 6
REMARK VINA RESULT:      -5.5      4.198      4.919
REMARK  3 active torsions:
REMARK  status: ('A' for Active; 'I' for Inactive)
REMARK    1  A    between atoms: CB_1  and  CA_2 
REMARK       I    between atoms: N_9  and  C_16 
REMARK    2  A    between atoms: C_16  and  C_18 
REMARK       I    between atoms: N_21  and  C_24 
REMARK    3  A    between atoms: C_24  and  C_26 
ROOT
ATOM      1  CA  ALA d   2      10.476  11.015  -1.419  0.00  0.00     0.097 C 
ATOM      2  HA  ALA d   2      11.470  11.403  -1.640  0.00  0.00     0.059 H 
ATOM      3  C   ALA d   2      10.298   9.685  -2.101  0.00  0.00     0.236 C 
ATOM      4  O   ALA d   2      10.544   8.665  -1.491  0.00  0.00    -0.274 OA
ATOM      5  N   ALA d   2       9.470  11.963  -1.890  0.00  0.00    -0.303 N 
ATOM      6  H   ALA d   2       9.215  12.703  -1.318  0.00  0.00     0.149 HD
ATOM      7  N   UNK d   1       9.875   9.610  -3.366  0.00  0.00    -0.285 N 
ATOM      8  C   UNK d   1      10.135   8.400  -4.171  0.00  0.00     0.031 C 
ATOM      9  C   UNK d   1      11.012   8.825  -5.355  0.00  0.00     0.031 C 
ATOM     10  N   UNK d   1      10.418  10.000  -6.005  0.00  0.00    -0.297 N 
ATOM     11  C   UNK d   1      10.083  11.186  -5.198  0.00  0.00     0.042 C 
ATOM     12  C   UNK d   1       9.203  10.725  -4.034  0.00  0.00     0.118 C 
ATOM     13  H   UNK d   1       8.265  10.350  -4.443  0.00  0.00     0.061 H 
ATOM     14  C   UNK d   1       8.890  11.838  -3.092  0.00  0.00     0.236 C 
ATOM     15  O   UNK d   1       8.073  12.668  -3.430  0.00  0.00    -0.274 OA
ATOM     16  C   UNK d   1      10.177   9.992  -7.332  0.00  0.00     0.219 C 
ATOM     17  O   UNK d   1       9.761  10.991  -7.879  0.00  0.00    -0.275 OA
ATOM     18  H   UNK d   1      10.656   7.658  -3.568  0.00  0.00     0.048 H 
ATOM     19  H   UNK d   1       9.194   7.988  -4.537  0.00  0.00     0.048 H 
ATOM     20  H   UNK d   1      11.077   8.006  -6.071  0.00  0.00     0.048 H 
ATOM     21  H   UNK d   1      12.010   9.075  -4.994  0.00  0.00     0.048 H 
ATOM     22  H   UNK d   1      10.995  11.641  -4.814  0.00  0.00     0.049 H 
ATOM     23  H   UNK d   1       9.539  11.907  -5.810  0.00  0.00     0.049 H 
ENDROOT
BRANCH  16  24
ATOM     24  C   UNK d   1      10.425   8.741  -8.134  0.00  0.00     0.039 C 
ATOM     25  C   UNK d   1      11.039   9.115  -9.485  0.00  0.00    -0.026 C 
ATOM     26  C   UNK d   1      11.324   7.834 -10.284  0.00  0.00     0.015 C 
ATOM     27  H   UNK d   1      10.343   9.745 -10.039  0.00  0.00     0.029 H 
ATOM     28  H   UNK d   1      11.971   9.657  -9.323  0.00  0.00     0.029 H 
ATOM     29  N   UNK d   1      10.081   7.057 -10.382  0.00  0.00    -0.302 N 
ATOM     30  H   UNK d   1      12.084   7.243  -9.773  0.00  0.00     0.046 H 
ATOM     31  H   UNK d   1      11.671   8.095 -11.284  0.00  0.00     0.046 H 
ATOM     32  C   UNK d   1       9.359   6.720  -9.147  0.00  0.00     0.015 C 
ATOM     33  C   UNK d   1       9.613   6.658 -11.580  0.00  0.00     0.212 C 
ATOM     34  C   UNK d   1       9.100   8.009  -8.361  0.00  0.00    -0.026 C 
ATOM     35  H   UNK d   1       8.410   6.247  -9.396  0.00  0.00     0.046 H 
ATOM     36  H   UNK d   1       9.963   6.041  -8.545  0.00  0.00     0.046 H 
ATOM     37  H   UNK d   1       8.422   8.650  -8.926  0.00  0.00     0.029 H 
ATOM     38  H   UNK d   1       8.651   7.763  -7.397  0.00  0.00     0.029 H 
ATOM     39  O   UNK d   1       8.591   6.009 -11.647  0.00  0.00    -0.276 OA
ATOM     40  H   UNK d   1      11.111   8.091  -7.591  0.00  0.00     0.040 H 
BRANCH  33  41
ATOM     41  C   UNK d   1      10.364   7.011 -12.839  0.00  0.00     0.012 C 
ATOM     42  H   UNK d   1       9.946   6.458 -13.679  0.00  0.00     0.032 H 
ATOM     43  H   UNK d   1      10.274   8.082 -13.027  0.00  0.00     0.032 H 
ATOM     44  H   UNK d   1      11.416   6.751 -12.719  0.00  0.00     0.032 H 
ENDBRANCH  33  41
ENDBRANCH  16  24
BRANCH   1  45
ATOM     45  CB  ALA d   2      10.329  10.829   0.093  0.00  0.00    -0.038 C 
ATOM     46  HB1 ALA d   2      10.012   9.808   0.304  0.00  0.00     0.025 H 
ATOM     47  HB2 ALA d   2      11.286  11.022   0.577  0.00  0.00     0.025 H 
ATOM     48  HB3 ALA d   2       9.583  11.527   0.473  0.00  0.00     0.025 H 
ENDBRANCH   1  45
TORSDOF 3
ENDMDL
MODEL 7
REMARK VINA RESULT:      -5.4      3.446      8.084
REMARK  3 active torsions:
REMARK  status: ('A' for Active; 'I' for Inactive)
REMARK    1  A    between atoms: CB_1  and  CA_2 
REMARK       I    between atoms: N_9  and  C_16 
REMARK    2  A    between atoms: C_16  and  C_18 
REMARK       I    between atoms: N_21  and  C_24 
REMARK    3  A    between atoms: C_24  and  C_26 
ROOT
ATOM      1  CA  ALA d   2       9.131   6.617 -10.839  0.00  0.00     0.097 C 
ATOM      2  HA  ALA d   2       8.084   6.560 -10.538  0.00  0.00     0.059 H 
ATOM      3  C   ALA d   2       9.956   5.736  -9.940  0.00  0.00     0.236 C 
ATOM      4  O   ALA d   2      10.195   4.596 -10.279  0.00  0.00    -0.274 OA
ATOM      5  N   ALA d   2       9.586   8.001 -10.746  0.00  0.00    -0.303 N 
ATOM      6  H   ALA d   2       9.427   8.601 -11.491  0.00  0.00     0.149 HD
ATOM      7  N   UNK d   1      10.429   6.189  -8.775  0.00  0.00    -0.285 N 
ATOM      8  C   UNK d   1      10.819   5.246  -7.708  0.00  0.00     0.031 C 
ATOM      9  C   UNK d   1       9.908   5.521  -6.506  0.00  0.00     0.031 C 
ATOM     10  N   UNK d   1       9.902   6.961  -6.218  0.00  0.00    -0.297 N 
ATOM     11  C   UNK d   1       9.589   7.917  -7.294  0.00  0.00     0.042 C 
ATOM     12  C   UNK d   1      10.521   7.617  -8.470  0.00  0.00     0.118 C 
ATOM     13  H   UNK d   1      11.544   7.823  -8.157  0.00  0.00     0.061 H 
ATOM     14  C   UNK d   1      10.217   8.466  -9.658  0.00  0.00     0.236 C 
ATOM     15  O   UNK d   1      10.555   9.631  -9.638  0.00  0.00    -0.274 OA
ATOM     16  C   UNK d   1      10.186   7.406  -4.977  0.00  0.00     0.219 C 
ATOM     17  O   UNK d   1      10.103   8.588  -4.722  0.00  0.00    -0.275 OA
ATOM     18  H   UNK d   1      10.684   4.221  -8.052  0.00  0.00     0.048 H 
ATOM     19  H   UNK d   1      11.860   5.411  -7.429  0.00  0.00     0.048 H 
ATOM     20  H   UNK d   1      10.278   4.977  -5.638  0.00  0.00     0.048 H 
ATOM     21  H   UNK d   1       8.894   5.193  -6.739  0.00  0.00     0.048 H 
ATOM     22  H   UNK d   1       8.552   7.797  -7.604  0.00  0.00     0.049 H 
ATOM     23  H   UNK d   1       9.754   8.936  -6.941  0.00  0.00     0.049 H 
ENDROOT
BRANCH  16  24
ATOM     24  C   UNK d   1      10.607   6.431  -3.907  0.00  0.00     0.039 C 
ATOM     25  C   UNK d   1       9.741   6.637  -2.661  0.00  0.00    -0.026 C 
ATOM     26  C   UNK d   1      10.148   5.618  -1.587  0.00  0.00     0.015 C 
ATOM     27  H   UNK d   1       9.886   7.649  -2.281  0.00  0.00     0.029 H 
ATOM     28  H   UNK d   1       8.692   6.493  -2.920  0.00  0.00     0.029 H 
ATOM     29  N   UNK d   1      11.592   5.745  -1.345  0.00  0.00    -0.302 N 
ATOM     30  H   UNK d   1       9.924   4.609  -1.933  0.00  0.00     0.046 H 
ATOM     31  H   UNK d   1       9.604   5.820  -0.664  0.00  0.00     0.046 H 
ATOM     32  C   UNK d   1      12.511   5.653  -2.488  0.00  0.00     0.015 C 
ATOM     33  C   UNK d   1      12.065   5.938  -0.098  0.00  0.00     0.212 C 
ATOM     34  C   UNK d   1      12.077   6.667  -3.551  0.00  0.00    -0.026 C 
ATOM     35  H   UNK d   1      13.525   5.880  -2.161  0.00  0.00     0.046 H 
ATOM     36  H   UNK d   1      12.475   4.648  -2.906  0.00  0.00     0.046 H 
ATOM     37  H   UNK d   1      12.200   7.678  -3.162  0.00  0.00     0.029 H 
ATOM     38  H   UNK d   1      12.691   6.543  -4.444  0.00  0.00     0.029 H 
ATOM     39  O   UNK d   1      13.259   6.032   0.090  0.00  0.00    -0.276 OA
ATOM     40  H   UNK d   1      10.480   5.413  -4.272  0.00  0.00     0.040 H 
BRANCH  33  41
ATOM     41  C   UNK d   1      11.110   6.030   1.065  0.00  0.00     0.012 C 
ATOM     42  H   UNK d   1      11.394   6.865   1.704  0.00  0.00     0.032 H 
ATOM     43  H   UNK d   1      10.097   6.186   0.691  0.00  0.00     0.032 H 
ATOM     44  H   UNK d   1      11.146   5.103   1.638  0.00  0.00     0.032 H 
ENDBRANCH  33  41
ENDBRANCH  16  24
BRANCH   1  45
ATOM     45  CB  ALA d   2       9.270   6.134 -12.284  0.00  0.00    -0.038 C 
ATOM     46  HB1 ALA d   2       8.714   5.206 -12.412  0.00  0.00     0.025 H 
ATOM     47  HB2 ALA d   2       8.875   6.892 -12.960  0.00  0.00     0.025 H 
ATOM     48  HB3 ALA d   2      10.323   5.961 -12.509  0.00  0.00     0.025 H 
ENDBRANCH   1  45
TORSDOF 3
ENDMDL
MODEL 8
REMARK VINA RESULT:      -5.4      9.226     11.336
REMARK  3 active torsions:
REMARK  status: ('A' for Active; 'I' for Inactive)
REMARK    1  A    between atoms: CB_1  and  CA_2 
REMARK       I    between atoms: N_9  and  C_16 
REMARK    2  A    between atoms: C_16  and  C_18 
REMARK       I    between atoms: N_21  and  C_24 
REMARK    3  A    between atoms: C_24  and  C_26 
ROOT
ATOM      1  CA  ALA d   2       4.144  -1.425  -3.361  0.00  0.00     0.097 C 
ATOM      2  HA  ALA d   2       3.206  -1.982  -3.355  0.00  0.00     0.059 H 
ATOM      3  C   ALA d   2       4.110  -0.405  -4.467  0.00  0.00     0.236 C 
ATOM      4  O   ALA d   2       3.744   0.726  -4.225  0.00  0.00    -0.274 OA
ATOM      5  N   ALA d   2       5.256  -2.349  -3.559  0.00  0.00    -0.303 N 
ATOM      6  H   ALA d   2       5.631  -2.807  -2.791  0.00  0.00     0.149 HD
ATOM      7  N   UNK d   1       4.476  -0.726  -5.712  0.00  0.00    -0.285 N 
ATOM      8  C   UNK d   1       4.021   0.086  -6.858  0.00  0.00     0.031 C 
ATOM      9  C   UNK d   1       3.173  -0.827  -7.751  0.00  0.00     0.031 C 
ATOM     10  N   UNK d   1       3.903  -2.075  -8.006  0.00  0.00    -0.297 N 
ATOM     11  C   UNK d   1       4.428  -2.856  -6.873  0.00  0.00     0.042 C 
ATOM     12  C   UNK d   1       5.274  -1.915  -6.011  0.00  0.00     0.118 C 
ATOM     13  H   UNK d   1       6.136  -1.597  -6.597  0.00  0.00     0.061 H 
ATOM     14  C   UNK d   1       5.772  -2.583  -4.774  0.00  0.00     0.236 C 
ATOM     15  O   UNK d   1       6.685  -3.375  -4.872  0.00  0.00    -0.274 OA
ATOM     16  C   UNK d   1       4.096  -2.502  -9.271  0.00  0.00     0.219 C 
ATOM     17  O   UNK d   1       4.629  -3.571  -9.476  0.00  0.00    -0.275 OA
ATOM     18  H   UNK d   1       3.422   0.924  -6.504  0.00  0.00     0.048 H 
ATOM     19  H   UNK d   1       4.882   0.454  -7.417  0.00  0.00     0.048 H 
ATOM     20  H   UNK d   1       2.970  -0.323  -8.695  0.00  0.00     0.048 H 
ATOM     21  H   UNK d   1       2.233  -1.053  -7.247  0.00  0.00     0.048 H 
ATOM     22  H   UNK d   1       3.602  -3.254  -6.285  0.00  0.00     0.049 H 
ATOM     23  H   UNK d   1       5.047  -3.674  -7.244  0.00  0.00     0.049 H 
ENDROOT
BRANCH  16  24
ATOM     24  C   UNK d   1       3.648  -1.648 -10.429  0.00  0.00     0.039 C 
ATOM     25  C   UNK d   1       2.882  -2.513 -11.433  0.00  0.00    -0.026 C 
ATOM     26  C   UNK d   1       2.396  -1.632 -12.594  0.00  0.00     0.015 C 
ATOM     27  H   UNK d   1       3.539  -3.295 -11.816  0.00  0.00     0.029 H 
ATOM     28  H   UNK d   1       2.024  -2.970 -10.940  0.00  0.00     0.029 H 
ATOM     29  N   UNK d   1       3.553  -0.929 -13.164  0.00  0.00    -0.302 N 
ATOM     30  H   UNK d   1       1.672  -0.905 -12.226  0.00  0.00     0.046 H 
ATOM     31  H   UNK d   1       1.934  -2.256 -13.360  0.00  0.00     0.046 H 
ATOM     32  C   UNK d   1       4.411  -0.140 -12.269  0.00  0.00     0.015 C 
ATOM     33  C   UNK d   1       3.819  -1.002 -14.482  0.00  0.00     0.212 C 
ATOM     34  C   UNK d   1       4.871  -1.034 -11.114  0.00  0.00    -0.026 C 
ATOM     35  H   UNK d   1       5.280   0.220 -12.820  0.00  0.00     0.046 H 
ATOM     36  H   UNK d   1       3.849   0.706 -11.875  0.00  0.00     0.046 H 
ATOM     37  H   UNK d   1       5.510  -1.829 -11.500  0.00  0.00     0.029 H 
ATOM     38  H   UNK d   1       5.430  -0.437 -10.392  0.00  0.00     0.029 H 
ATOM     39  O   UNK d   1       4.772  -0.410 -14.942  0.00  0.00    -0.276 OA
ATOM     40  H   UNK d   1       2.998  -0.853 -10.065  0.00  0.00     0.040 H 
BRANCH  33  41
ATOM     41  C   UNK d   1       2.930  -1.816 -15.388  0.00  0.00     0.012 C 
ATOM     42  H   UNK d   1       3.199  -2.869 -15.312  0.00  0.00     0.032 H 
ATOM     43  H   UNK d   1       1.889  -1.684 -15.088  0.00  0.00     0.032 H 
ATOM     44  H   UNK d   1       3.056  -1.480 -16.417  0.00  0.00     0.032 H 
ENDBRANCH  33  41
ENDBRANCH  16  24
BRANCH   1  45
ATOM     45  CB  ALA d   2       4.314  -0.707  -2.020  0.00  0.00    -0.038 C 
ATOM     46  HB1 ALA d   2       5.022   0.114  -2.135  0.00  0.00     0.025 H 
ATOM     47  HB2 ALA d   2       3.351  -0.315  -1.692  0.00  0.00     0.025 H 
ATOM     48  HB3 ALA d   2       4.691  -1.410  -1.277  0.00  0.00     0.025 H 
ENDBRANCH   1  45
TORSDOF 3
ENDMDL
MODEL 9
REMARK VINA RESULT:      -5.3      3.691      8.252
REMARK  3 active torsions:
REMARK  status: ('A' for Active; 'I' for Inactive)
REMARK    1  A    between atoms: CB_1  and  CA_2 
REMARK       I    between atoms: N_9  and  C_16 
REMARK    2  A    between atoms: C_16  and  C_18 
REMARK       I    between atoms: N_21  and  C_24 
REMARK    3  A    between atoms: C_24  and  C_26 
ROOT
ATOM      1  CA  ALA d   2      10.229   7.499 -11.293  0.00  0.00     0.097 C 
ATOM      2  HA  ALA d   2      11.163   6.958 -11.451  0.00  0.00     0.059 H 
ATOM      3  C   ALA d   2      10.342   8.335 -10.046  0.00  0.00     0.236 C 
ATOM      4  O   ALA d   2      10.692   9.493 -10.135  0.00  0.00    -0.274 OA
ATOM      5  N   ALA d   2       9.132   6.545 -11.164  0.00  0.00    -0.303 N 
ATOM      6  H   ALA d   2       8.703   6.208 -11.965  0.00  0.00     0.149 HD
ATOM      7  N   UNK d   1      10.064   7.822  -8.844  0.00  0.00    -0.285 N 
ATOM      8  C   UNK d   1      10.599   8.449  -7.620  0.00  0.00     0.031 C 
ATOM      9  C   UNK d   1      11.507   7.417  -6.941  0.00  0.00     0.031 C 
ATOM     10  N   UNK d   1      10.794   6.137  -6.833  0.00  0.00    -0.297 N 
ATOM     11  C   UNK d   1      10.189   5.538  -8.035  0.00  0.00     0.042 C 
ATOM     12  C   UNK d   1       9.287   6.593  -8.679  0.00  0.00     0.118 C 
ATOM     13  H   UNK d   1       8.469   6.809  -7.992  0.00  0.00     0.061 H 
ATOM     14  C   UNK d   1       8.702   6.120  -9.967  0.00  0.00     0.236 C 
ATOM     15  O   UNK d   1       7.796   5.315  -9.930  0.00  0.00    -0.274 OA
ATOM     16  C   UNK d   1      10.689   5.518  -5.640  0.00  0.00     0.219 C 
ATOM     17  O   UNK d   1      10.170   4.425  -5.567  0.00  0.00    -0.275 OA
ATOM     18  H   UNK d   1      11.174   9.338  -7.880  0.00  0.00     0.048 H 
ATOM     19  H   UNK d   1       9.780   8.719  -6.953  0.00  0.00     0.048 H 
ATOM     20  H   UNK d   1      11.776   7.770  -5.947  0.00  0.00     0.048 H 
ATOM     21  H   UNK d   1      12.409   7.281  -7.538  0.00  0.00     0.048 H 
ATOM     22  H   UNK d   1      10.971   5.244  -8.734  0.00  0.00     0.049 H 
ATOM     23  H   UNK d   1       9.597   4.666  -7.753  0.00  0.00     0.049 H 
ENDROOT
BRANCH  16  24
ATOM     24  C   UNK d   1      11.219   6.185  -4.397  0.00  0.00     0.039 C 
ATOM     25  C   UNK d   1      11.691   5.118  -3.407  0.00  0.00    -0.026 C 
ATOM     26  C   UNK d   1      12.264   5.803  -2.157  0.00  0.00     0.015 C 
ATOM     27  H   UNK d   1      10.849   4.485  -3.125  0.00  0.00     0.029 H 
ATOM     28  H   UNK d   1      12.464   4.507  -3.872  0.00  0.00     0.029 H 
ATOM     29  N   UNK d   1      11.248   6.718  -1.618  0.00  0.00    -0.302 N 
ATOM     30  H   UNK d   1      13.158   6.367  -2.424  0.00  0.00     0.046 H 
ATOM     31  H   UNK d   1      12.513   5.052  -1.408  0.00  0.00     0.046 H 
ATOM     32  C   UNK d   1      10.660   7.726  -2.511  0.00  0.00     0.015 C 
ATOM     33  C   UNK d   1      10.866   6.636  -0.329  0.00  0.00     0.212 C 
ATOM     34  C   UNK d   1      10.110   7.022  -3.755  0.00  0.00    -0.026 C 
ATOM     35  H   UNK d   1       9.851   8.243  -1.996  0.00  0.00     0.046 H 
ATOM     36  H   UNK d   1      11.426   8.443  -2.806  0.00  0.00     0.046 H 
ATOM     37  H   UNK d   1       9.282   6.372  -3.469  0.00  0.00     0.029 H 
ATOM     38  H   UNK d   1       9.757   7.768  -4.469  0.00  0.00     0.029 H 
ATOM     39  O   UNK d   1      10.033   7.403   0.106  0.00  0.00    -0.276 OA
ATOM     40  H   UNK d   1      12.056   6.832  -4.659  0.00  0.00     0.040 H 
BRANCH  33  41
ATOM     41  C   UNK d   1      11.477   5.596   0.575  0.00  0.00     0.012 C 
ATOM     42  H   UNK d   1      12.137   6.081   1.293  0.00  0.00     0.032 H 
ATOM     43  H   UNK d   1      10.686   5.067   1.108  0.00  0.00     0.032 H 
ATOM     44  H   UNK d   1      12.048   4.886  -0.023  0.00  0.00     0.032 H 
ENDBRANCH  33  41
ENDBRANCH  16  24
BRANCH   1  45
ATOM     45  CB  ALA d   2       9.966   8.415 -12.490  0.00  0.00    -0.038 C 
ATOM     46  HB1 ALA d   2       8.908   8.673 -12.525  0.00  0.00     0.025 H 
ATOM     47  HB2 ALA d   2      10.560   9.324 -12.390  0.00  0.00     0.025 H 
ATOM     48  HB3 ALA d   2      10.245   7.900 -13.410  0.00  0.00     0.025 H 
ENDBRANCH   1  45
TORSDOF 3
ENDMDL
MODEL 10
REMARK VINA RESULT:      -5.3      7.976     10.462
REMARK  3 active torsions:
REMARK  status: ('A' for Active; 'I' for Inactive)
REMARK    1  A    between atoms: CB_1  and  CA_2 
REMARK       I    between atoms: N_9  and  C_16 
REMARK    2  A    between atoms: C_16  and  C_18 
REMARK       I    between atoms: N_21  and  C_24 
REMARK    3  A    between atoms: C_24  and  C_26 
ROOT
ATOM      1  CA  ALA d   2      12.499  -5.864  -4.265  0.00  0.00     0.097 C 
ATOM      2  HA  ALA d   2      12.020  -6.296  -5.144  0.00  0.00     0.059 H 
ATOM      3  C   ALA d   2      11.446  -5.497  -3.254  0.00  0.00     0.236 C 
ATOM      4  O   ALA d   2      11.155  -6.288  -2.382  0.00  0.00    -0.274 OA
ATOM      5  N   ALA d   2      13.256  -4.680  -4.659  0.00  0.00    -0.303 N 
ATOM      6  H   ALA d   2      14.160  -4.788  -4.993  0.00  0.00     0.149 HD
ATOM      7  N   UNK d   1      10.826  -4.314  -3.303  0.00  0.00    -0.285 N 
ATOM      8  C   UNK d   1       9.518  -4.127  -2.645  0.00  0.00     0.031 C 
ATOM      9  C   UNK d   1       8.505  -3.778  -3.742  0.00  0.00     0.031 C 
ATOM     10  N   UNK d   1       9.044  -2.697  -4.577  0.00  0.00    -0.297 N 
ATOM     11  C   UNK d   1      10.381  -2.839  -5.178  0.00  0.00     0.042 C 
ATOM     12  C   UNK d   1      11.364  -3.179  -4.054  0.00  0.00     0.118 C 
ATOM     13  H   UNK d   1      11.415  -2.328  -3.376  0.00  0.00     0.061 H 
ATOM     14  C   UNK d   1      12.737  -3.447  -4.571  0.00  0.00     0.236 C 
ATOM     15  O   UNK d   1      13.413  -2.507  -4.929  0.00  0.00    -0.274 OA
ATOM     16  C   UNK d   1       8.321  -1.578  -4.789  0.00  0.00     0.219 C 
ATOM     17  O   UNK d   1       8.734  -0.722  -5.543  0.00  0.00    -0.275 OA
ATOM     18  H   UNK d   1       9.221  -5.046  -2.142  0.00  0.00     0.048 H 
ATOM     19  H   UNK d   1       9.578  -3.311  -1.924  0.00  0.00     0.048 H 
ATOM     20  H   UNK d   1       7.571  -3.454  -3.284  0.00  0.00     0.048 H 
ATOM     21  H   UNK d   1       8.323  -4.658  -4.359  0.00  0.00     0.048 H 
ATOM     22  H   UNK d   1      10.371  -3.641  -5.915  0.00  0.00     0.049 H 
ATOM     23  H   UNK d   1      10.673  -1.903  -5.654  0.00  0.00     0.049 H 
ENDROOT
BRANCH  16  24
ATOM     24  C   UNK d   1       6.999  -1.393  -4.090  0.00  0.00     0.039 C 
ATOM     25  C   UNK d   1       5.860  -1.567  -5.097  0.00  0.00    -0.026 C 
ATOM     26  C   UNK d   1       4.515  -1.414  -4.372  0.00  0.00     0.015 C 
ATOM     27  H   UNK d   1       5.945  -0.809  -5.877  0.00  0.00     0.029 H 
ATOM     28  H   UNK d   1       5.920  -2.558  -5.546  0.00  0.00     0.029 H 
ATOM     29  N   UNK d   1       4.506  -0.123  -3.670  0.00  0.00    -0.302 N 
ATOM     30  H   UNK d   1       4.391  -2.222  -3.652  0.00  0.00     0.046 H 
ATOM     31  H   UNK d   1       3.702  -1.440  -5.098  0.00  0.00     0.046 H 
ATOM     32  C   UNK d   1       5.605   0.185  -2.744  0.00  0.00     0.015 C 
ATOM     33  C   UNK d   1       3.507   0.759  -3.867  0.00  0.00     0.212 C 
ATOM     34  C   UNK d   1       6.935   0.011  -3.484  0.00  0.00    -0.026 C 
ATOM     35  H   UNK d   1       5.513   1.214  -2.397  0.00  0.00     0.046 H 
ATOM     36  H   UNK d   1       5.568  -0.496  -1.894  0.00  0.00     0.046 H 
ATOM     37  H   UNK d   1       7.010   0.755  -4.279  0.00  0.00     0.029 H 
ATOM     38  H   UNK d   1       7.761   0.143  -2.783  0.00  0.00     0.029 H 
ATOM     39  O   UNK d   1       3.507   1.817  -3.274  0.00  0.00    -0.276 OA
ATOM     40  H   UNK d   1       6.900  -2.135  -3.298  0.00  0.00     0.040 H 
BRANCH  33  41
ATOM     41  C   UNK d   1       2.387   0.429  -4.820  0.00  0.00     0.012 C 
ATOM     42  H   UNK d   1       2.390  -0.640  -5.030  0.00  0.00     0.032 H 
ATOM     43  H   UNK d   1       1.433   0.708  -4.369  0.00  0.00     0.032 H 
ATOM     44  H   UNK d   1       2.525   0.984  -5.748  0.00  0.00     0.032 H 
ENDBRANCH  33  41
ENDBRANCH  16  24
BRANCH   1  45
ATOM     45  CB  ALA d   2      13.450  -6.893  -3.650  0.00  0.00    -0.038 C 
ATOM     46  HB1 ALA d   2      13.063  -7.897  -3.826  0.00  0.00     0.025 H 
ATOM     47  HB2 ALA d   2      14.435  -6.797  -4.107  0.00  0.00     0.025 H 
ATOM     48  HB3 ALA d   2      13.530  -6.717  -2.577  0.00  0.00     0.025 H 
ENDBRANCH   1  45
TORSDOF 3
ENDMDL
