MODEL 1
REMARK VINA RESULT:      -4.5      0.000      0.000
REMARK  9 active torsions:
REMARK  status: ('A' for Active; 'I' for Inactive)
REMARK    1  A    between atoms: C_1  and  C_2 
REMARK    2  A    between atoms: C_3  and  C_4 
REMARK    3  A    between atoms: C_4  and  C_5 
REMARK    4  A    between atoms: C_5  and  C_6 
REMARK    5  A    between atoms: C_6  and  C_7 
REMARK    6  A    between atoms: C_7  and  C_8 
REMARK    7  A    between atoms: C_8  and  C_9 
REMARK    8  A    between atoms: C_9  and  C_10 
REMARK    9  A    between atoms: C_10  and  C_11 
ROOT
ATOM      1  C   LIG d   1       4.806  -2.878  -3.786  0.00  0.00    -0.052 C 
ATOM      2  H   LIG d   1       5.843  -2.674  -3.518  0.00  0.00     0.027 H 
ATOM      3  H   LIG d   1       4.655  -3.956  -3.854  0.00  0.00     0.027 H 
ENDROOT
BRANCH   1   4
ATOM      4  C   LIG d   1       4.493  -2.234  -5.138  0.00  0.00    -0.042 C 
ATOM      5  H   LIG d   1       4.003  -2.963  -5.784  0.00  0.00     0.027 H 
ATOM      6  H   LIG d   1       3.833  -1.379  -4.989  0.00  0.00     0.027 H 
BRANCH   4   7
ATOM      7  C   LIG d   1       5.794  -1.764  -5.793  0.00  0.00     0.009 C 
ATOM      8  H   LIG d   1       6.519  -2.577  -5.787  0.00  0.00     0.040 H 
ATOM      9  H   LIG d   1       5.594  -1.461  -6.821  0.00  0.00     0.040 H 
BRANCH   7  10
ATOM     10  C   LIG d   1       6.336  -0.620  -5.042  0.00  0.00    -0.102 C 
ATOM     11  C   LIG d   1       6.768   0.292  -4.442  0.00  0.00    -0.106 C 
BRANCH  11  12
ATOM     12  C   LIG d   1       7.310   1.436  -3.690  0.00  0.00    -0.003 C 
ATOM     13  H   LIG d   1       8.204   1.808  -4.190  0.00  0.00     0.036 H 
ATOM     14  H   LIG d   1       6.564   2.229  -3.645  0.00  0.00     0.036 H 
ATOM     15  H   LIG d   1       7.564   1.119  -2.679  0.00  0.00     0.036 H 
ENDBRANCH  11  12
ENDBRANCH   7  10
ENDBRANCH   4   7
ENDBRANCH   1   4
BRANCH   1  16
ATOM     16  C   LIG d   1       3.879  -2.298  -2.718  0.00  0.00    -0.053 C 
ATOM     17  H   LIG d   1       3.373  -3.110  -2.195  0.00  0.00     0.026 H 
ATOM     18  H   LIG d   1       3.139  -1.653  -3.190  0.00  0.00     0.026 H 
BRANCH  16  19
ATOM     19  C   LIG d   1       4.701  -1.483  -1.717  0.00  0.00    -0.053 C 
ATOM     20  H   LIG d   1       5.762  -1.599  -1.940  0.00  0.00     0.026 H 
ATOM     21  H   LIG d   1       4.500  -1.839  -0.707  0.00  0.00     0.026 H 
BRANCH  19  22
ATOM     22  C   LIG d   1       4.316  -0.006  -1.823  0.00  0.00    -0.048 C 
ATOM     23  H   LIG d   1       5.129   0.550  -2.290  0.00  0.00     0.027 H 
ATOM     24  H   LIG d   1       4.129   0.394  -0.827  0.00  0.00     0.027 H 
BRANCH  22  25
ATOM     25  C   LIG d   1       3.052   0.131  -2.673  0.00  0.00    -0.013 C 
ATOM     26  H   LIG d   1       2.215   0.419  -2.037  0.00  0.00     0.033 H 
ATOM     27  H   LIG d   1       2.831  -0.823  -3.153  0.00  0.00     0.033 H 
BRANCH  25  28
ATOM     28  C   LIG d   1       3.267   1.187  -3.727  0.00  0.00     0.042 C 
ATOM     29  O   LIG d   1       3.757   2.250  -3.427  0.00  0.00    -0.550 OA
ATOM     30  O   LIG d   1       2.914   0.946  -5.000  0.00  0.00    -0.550 OA
ENDBRANCH  25  28
ENDBRANCH  22  25
ENDBRANCH  19  22
ENDBRANCH  16  19
ENDBRANCH   1  16
TORSDOF 9
ENDMDL
MODEL 2
REMARK VINA RESULT:      -4.4      2.646      3.839
REMARK  9 active torsions:
REMARK  status: ('A' for Active; 'I' for Inactive)
REMARK    1  A    between atoms: C_1  and  C_2 
REMARK    2  A    between atoms: C_3  and  C_4 
REMARK    3  A    between atoms: C_4  and  C_5 
REMARK    4  A    between atoms: C_5  and  C_6 
REMARK    5  A    between atoms: C_6  and  C_7 
REMARK    6  A    between atoms: C_7  and  C_8 
REMARK    7  A    between atoms: C_8  and  C_9 
REMARK    8  A    between atoms: C_9  and  C_10 
REMARK    9  A    between atoms: C_10  and  C_11 
ROOT
ATOM      1  C   LIG d   1       2.416  -0.414  -3.535  0.00  0.00    -0.052 C 
ATOM      2  H   LIG d   1       1.401  -0.743  -3.312  0.00  0.00     0.027 H 
ATOM      3  H   LIG d   1       2.802   0.167  -2.697  0.00  0.00     0.027 H 
ENDROOT
BRANCH   1   4
ATOM      4  C   LIG d   1       2.406   0.454  -4.795  0.00  0.00    -0.042 C 
ATOM      5  H   LIG d   1       1.429   0.386  -5.275  0.00  0.00     0.027 H 
ATOM      6  H   LIG d   1       2.606   1.490  -4.523  0.00  0.00     0.027 H 
BRANCH   4   7
ATOM      7  C   LIG d   1       3.485  -0.037  -5.762  0.00  0.00     0.009 C 
ATOM      8  H   LIG d   1       4.334   0.646  -5.738  0.00  0.00     0.040 H 
ATOM      9  H   LIG d   1       3.812  -1.034  -5.466  0.00  0.00     0.040 H 
BRANCH   7  10
ATOM     10  C   LIG d   1       2.936  -0.088  -7.127  0.00  0.00    -0.102 C 
ATOM     11  C   LIG d   1       2.498  -0.127  -8.215  0.00  0.00    -0.106 C 
BRANCH  11  12
ATOM     12  C   LIG d   1       1.948  -0.177  -9.580  0.00  0.00    -0.003 C 
ATOM     13  H   LIG d   1       2.647   0.294 -10.270  0.00  0.00     0.036 H 
ATOM     14  H   LIG d   1       1.794  -1.215  -9.873  0.00  0.00     0.036 H 
ATOM     15  H   LIG d   1       0.996   0.353  -9.608  0.00  0.00     0.036 H 
ENDBRANCH  11  12
ENDBRANCH   7  10
ENDBRANCH   4   7
ENDBRANCH   1   4
BRANCH   1  16
ATOM     16  C   LIG d   1       3.308  -1.635  -3.765  0.00  0.00    -0.053 C 
ATOM     17  H   LIG d   1       4.118  -1.370  -4.446  0.00  0.00     0.026 H 
ATOM     18  H   LIG d   1       2.718  -2.442  -4.197  0.00  0.00     0.026 H 
BRANCH  16  19
ATOM     19  C   LIG d   1       3.897  -2.094  -2.428  0.00  0.00    -0.053 C 
ATOM     20  H   LIG d   1       4.465  -3.012  -2.579  0.00  0.00     0.026 H 
ATOM     21  H   LIG d   1       3.090  -2.278  -1.720  0.00  0.00     0.026 H 
BRANCH  19  22
ATOM     22  C   LIG d   1       4.822  -1.006  -1.878  0.00  0.00    -0.048 C 
ATOM     23  H   LIG d   1       5.272  -1.349  -0.946  0.00  0.00     0.027 H 
ATOM     24  H   LIG d   1       4.246  -0.100  -1.691  0.00  0.00     0.027 H 
BRANCH  22  25
ATOM     25  C   LIG d   1       5.924  -0.710  -2.897  0.00  0.00    -0.013 C 
ATOM     26  H   LIG d   1       5.698  -1.219  -3.834  0.00  0.00     0.033 H 
ATOM     27  H   LIG d   1       6.880  -1.065  -2.512  0.00  0.00     0.033 H 
BRANCH  25  28
ATOM     28  C   LIG d   1       5.999   0.776  -3.138  0.00  0.00     0.042 C 
ATOM     29  O   LIG d   1       6.671   1.208  -4.044  0.00  0.00    -0.550 OA
ATOM     30  O   LIG d   1       5.317   1.619  -2.345  0.00  0.00    -0.550 OA
ENDBRANCH  25  28
ENDBRANCH  22  25
ENDBRANCH  19  22
ENDBRANCH  16  19
ENDBRANCH   1  16
TORSDOF 9
ENDMDL
MODEL 3
REMARK VINA RESULT:      -4.4      2.785      4.272
REMARK  9 active torsions:
REMARK  status: ('A' for Active; 'I' for Inactive)
REMARK    1  A    between atoms: C_1  and  C_2 
REMARK    2  A    between atoms: C_3  and  C_4 
REMARK    3  A    between atoms: C_4  and  C_5 
REMARK    4  A    between atoms: C_5  and  C_6 
REMARK    5  A    between atoms: C_6  and  C_7 
REMARK    6  A    between atoms: C_7  and  C_8 
REMARK    7  A    between atoms: C_8  and  C_9 
REMARK    8  A    between atoms: C_9  and  C_10 
REMARK    9  A    between atoms: C_10  and  C_11 
ROOT
ATOM      1  C   LIG d   1       3.265  -0.315  -3.506  0.00  0.00    -0.052 C 
ATOM      2  H   LIG d   1       4.159  -0.325  -4.129  0.00  0.00     0.027 H 
ATOM      3  H   LIG d   1       2.380  -0.265  -4.141  0.00  0.00     0.027 H 
ENDROOT
BRANCH   1   4
ATOM      4  C   LIG d   1       3.299   0.906  -2.584  0.00  0.00    -0.042 C 
ATOM      5  H   LIG d   1       3.229   1.815  -3.182  0.00  0.00     0.027 H 
ATOM      6  H   LIG d   1       2.459   0.861  -1.891  0.00  0.00     0.027 H 
BRANCH   4   7
ATOM      7  C   LIG d   1       4.611   0.913  -1.796  0.00  0.00     0.009 C 
ATOM      8  H   LIG d   1       4.619   1.760  -1.110  0.00  0.00     0.040 H 
ATOM      9  H   LIG d   1       4.699  -0.015  -1.230  0.00  0.00     0.040 H 
BRANCH   7  10
ATOM     10  C   LIG d   1       5.744   1.027  -2.729  0.00  0.00    -0.102 C 
ATOM     11  C   LIG d   1       6.647   1.118  -3.473  0.00  0.00    -0.106 C 
BRANCH  11  12
ATOM     12  C   LIG d   1       7.780   1.232  -4.405  0.00  0.00    -0.003 C 
ATOM     13  H   LIG d   1       8.238   2.216  -4.302  0.00  0.00     0.036 H 
ATOM     14  H   LIG d   1       8.518   0.464  -4.177  0.00  0.00     0.036 H 
ATOM     15  H   LIG d   1       7.425   1.102  -5.427  0.00  0.00     0.036 H 
ENDBRANCH  11  12
ENDBRANCH   7  10
ENDBRANCH   4   7
ENDBRANCH   1   4
BRANCH   1  16
ATOM     16  C   LIG d   1       3.217  -1.589  -2.662  0.00  0.00    -0.053 C 
ATOM     17  H   LIG d   1       2.275  -2.109  -2.841  0.00  0.00     0.026 H 
ATOM     18  H   LIG d   1       3.295  -1.331  -1.606  0.00  0.00     0.026 H 
BRANCH  16  19
ATOM     19  C   LIG d   1       4.383  -2.502  -3.050  0.00  0.00    -0.053 C 
ATOM     20  H   LIG d   1       4.182  -3.515  -2.700  0.00  0.00     0.026 H 
ATOM     21  H   LIG d   1       5.300  -2.134  -2.593  0.00  0.00     0.026 H 
BRANCH  19  22
ATOM     22  C   LIG d   1       4.538  -2.511  -4.572  0.00  0.00    -0.048 C 
ATOM     23  H   LIG d   1       5.247  -1.738  -4.869  0.00  0.00     0.027 H 
ATOM     24  H   LIG d   1       3.573  -2.315  -5.038  0.00  0.00     0.027 H 
BRANCH  22  25
ATOM     25  C   LIG d   1       5.056  -3.878  -5.025  0.00  0.00    -0.013 C 
ATOM     26  H   LIG d   1       4.984  -4.585  -4.198  0.00  0.00     0.033 H 
ATOM     27  H   LIG d   1       6.097  -3.787  -5.336  0.00  0.00     0.033 H 
BRANCH  25  28
ATOM     28  C   LIG d   1       4.225  -4.371  -6.181  0.00  0.00     0.042 C 
ATOM     29  O   LIG d   1       3.480  -5.311  -6.032  0.00  0.00    -0.550 OA
ATOM     30  O   LIG d   1       4.312  -3.766  -7.376  0.00  0.00    -0.550 OA
ENDBRANCH  25  28
ENDBRANCH  22  25
ENDBRANCH  19  22
ENDBRANCH  16  19
ENDBRANCH   1  16
TORSDOF 9
ENDMDL
MODEL 4
REMARK VINA RESULT:      -4.4      2.511      4.409
REMARK  9 active torsions:
REMARK  status: ('A' for Active; 'I' for Inactive)
REMARK    1  A    between atoms: C_1  and  C_2 
REMARK    2  A    between atoms: C_3  and  C_4 
REMARK    3  A    between atoms: C_4  and  C_5 
REMARK    4  A    between atoms: C_5  and  C_6 
REMARK    5  A    between atoms: C_6  and  C_7 
REMARK    6  A    between atoms: C_7  and  C_8 
REMARK    7  A    between atoms: C_8  and  C_9 
REMARK    8  A    between atoms: C_9  and  C_10 
REMARK    9  A    between atoms: C_10  and  C_11 
ROOT
ATOM      1  C   LIG d   1       4.993   0.513  -2.023  0.00  0.00    -0.052 C 
ATOM      2  H   LIG d   1       4.986  -0.571  -2.133  0.00  0.00     0.027 H 
ATOM      3  H   LIG d   1       5.314   0.773  -1.013  0.00  0.00     0.027 H 
ENDROOT
BRANCH   1   4
ATOM      4  C   LIG d   1       3.585   1.060  -2.266  0.00  0.00    -0.042 C 
ATOM      5  H   LIG d   1       3.142   1.361  -1.316  0.00  0.00     0.027 H 
ATOM      6  H   LIG d   1       3.640   1.922  -2.931  0.00  0.00     0.027 H 
BRANCH   4   7
ATOM      7  C   LIG d   1       2.721  -0.026  -2.911  0.00  0.00     0.009 C 
ATOM      8  H   LIG d   1       3.068  -1.007  -2.588  0.00  0.00     0.040 H 
ATOM      9  H   LIG d   1       1.682   0.111  -2.611  0.00  0.00     0.040 H 
BRANCH   7  10
ATOM     10  C   LIG d   1       2.824   0.072  -4.377  0.00  0.00    -0.102 C 
ATOM     11  C   LIG d   1       2.906   0.150  -5.545  0.00  0.00    -0.106 C 
BRANCH  11  12
ATOM     12  C   LIG d   1       3.008   0.248  -7.010  0.00  0.00    -0.003 C 
ATOM     13  H   LIG d   1       3.663  -0.539  -7.382  0.00  0.00     0.036 H 
ATOM     14  H   LIG d   1       2.019   0.136  -7.453  0.00  0.00     0.036 H 
ATOM     15  H   LIG d   1       3.418   1.220  -7.282  0.00  0.00     0.036 H 
ENDBRANCH  11  12
ENDBRANCH   7  10
ENDBRANCH   4   7
ENDBRANCH   1   4
BRANCH   1  16
ATOM     16  C   LIG d   1       5.959   1.123  -3.039  0.00  0.00    -0.053 C 
ATOM     17  H   LIG d   1       6.646   1.799  -2.527  0.00  0.00     0.026 H 
ATOM     18  H   LIG d   1       5.397   1.676  -3.790  0.00  0.00     0.026 H 
BRANCH  16  19
ATOM     19  C   LIG d   1       6.756   0.007  -3.718  0.00  0.00    -0.053 C 
ATOM     20  H   LIG d   1       7.793   0.048  -3.385  0.00  0.00     0.026 H 
ATOM     21  H   LIG d   1       6.715   0.138  -4.799  0.00  0.00     0.026 H 
BRANCH  19  22
ATOM     22  C   LIG d   1       6.154  -1.350  -3.345  0.00  0.00    -0.048 C 
ATOM     23  H   LIG d   1       5.172  -1.200  -2.895  0.00  0.00     0.027 H 
ATOM     24  H   LIG d   1       6.806  -1.854  -2.633  0.00  0.00     0.027 H 
BRANCH  22  25
ATOM     25  C   LIG d   1       6.012  -2.208  -4.604  0.00  0.00    -0.013 C 
ATOM     26  H   LIG d   1       6.969  -2.677  -4.833  0.00  0.00     0.033 H 
ATOM     27  H   LIG d   1       5.707  -1.578  -5.441  0.00  0.00     0.033 H 
BRANCH  25  28
ATOM     28  C   LIG d   1       4.972  -3.274  -4.370  0.00  0.00     0.042 C 
ATOM     29  O   LIG d   1       4.138  -3.126  -3.509  0.00  0.00    -0.550 OA
ATOM     30  O   LIG d   1       4.974  -4.387  -5.120  0.00  0.00    -0.550 OA
ENDBRANCH  25  28
ENDBRANCH  22  25
ENDBRANCH  19  22
ENDBRANCH  16  19
ENDBRANCH   1  16
TORSDOF 9
ENDMDL
MODEL 5
REMARK VINA RESULT:      -4.4      1.698      3.181
REMARK  9 active torsions:
REMARK  status: ('A' for Active; 'I' for Inactive)
REMARK    1  A    between atoms: C_1  and  C_2 
REMARK    2  A    between atoms: C_3  and  C_4 
REMARK    3  A    between atoms: C_4  and  C_5 
REMARK    4  A    between atoms: C_5  and  C_6 
REMARK    5  A    between atoms: C_6  and  C_7 
REMARK    6  A    between atoms: C_7  and  C_8 
REMARK    7  A    between atoms: C_8  and  C_9 
REMARK    8  A    between atoms: C_9  and  C_10 
REMARK    9  A    between atoms: C_10  and  C_11 
ROOT
ATOM      1  C   LIG d   1       4.290  -1.475  -2.032  0.00  0.00    -0.052 C 
ATOM      2  H   LIG d   1       3.808  -1.990  -1.201  0.00  0.00     0.027 H 
ATOM      3  H   LIG d   1       5.279  -1.135  -1.723  0.00  0.00     0.027 H 
ENDROOT
BRANCH   1   4
ATOM      4  C   LIG d   1       3.444  -0.270  -2.446  0.00  0.00    -0.042 C 
ATOM      5  H   LIG d   1       3.334  -0.258  -3.530  0.00  0.00     0.027 H 
ATOM      6  H   LIG d   1       2.460  -0.340  -1.981  0.00  0.00     0.027 H 
BRANCH   4   7
ATOM      7  C   LIG d   1       4.133   1.018  -1.988  0.00  0.00     0.009 C 
ATOM      8  H   LIG d   1       3.496   1.872  -2.216  0.00  0.00     0.040 H 
ATOM      9  H   LIG d   1       4.311   0.972  -0.914  0.00  0.00     0.040 H 
BRANCH   7  10
ATOM     10  C   LIG d   1       5.418   1.164  -2.692  0.00  0.00    -0.102 C 
ATOM     11  C   LIG d   1       6.442   1.280  -3.253  0.00  0.00    -0.106 C 
BRANCH  11  12
ATOM     12  C   LIG d   1       7.728   1.426  -3.955  0.00  0.00    -0.003 C 
ATOM     13  H   LIG d   1       7.565   1.347  -5.030  0.00  0.00     0.036 H 
ATOM     14  H   LIG d   1       8.160   2.400  -3.725  0.00  0.00     0.036 H 
ATOM     15  H   LIG d   1       8.410   0.641  -3.632  0.00  0.00     0.036 H 
ENDBRANCH  11  12
ENDBRANCH   7  10
ENDBRANCH   4   7
ENDBRANCH   1   4
BRANCH   1  16
ATOM     16  C   LIG d   1       4.426  -2.433  -3.216  0.00  0.00    -0.053 C 
ATOM     17  H   LIG d   1       3.674  -2.191  -3.968  0.00  0.00     0.026 H 
ATOM     18  H   LIG d   1       4.282  -3.458  -2.874  0.00  0.00     0.026 H 
BRANCH  16  19
ATOM     19  C   LIG d   1       5.822  -2.293  -3.828  0.00  0.00    -0.053 C 
ATOM     20  H   LIG d   1       6.410  -3.181  -3.599  0.00  0.00     0.026 H 
ATOM     21  H   LIG d   1       6.314  -1.413  -3.413  0.00  0.00     0.026 H 
BRANCH  19  22
ATOM     22  C   LIG d   1       5.700  -2.140  -5.346  0.00  0.00    -0.048 C 
ATOM     23  H   LIG d   1       5.624  -3.125  -5.806  0.00  0.00     0.027 H 
ATOM     24  H   LIG d   1       6.580  -1.627  -5.732  0.00  0.00     0.027 H 
BRANCH  22  25
ATOM     25  C   LIG d   1       4.448  -1.326  -5.677  0.00  0.00    -0.013 C 
ATOM     26  H   LIG d   1       3.999  -0.958  -4.754  0.00  0.00     0.033 H 
ATOM     27  H   LIG d   1       3.731  -1.959  -6.202  0.00  0.00     0.033 H 
BRANCH  25  28
ATOM     28  C   LIG d   1       4.825  -0.158  -6.553  0.00  0.00     0.042 C 
ATOM     29  O   LIG d   1       5.980   0.184  -6.639  0.00  0.00    -0.550 OA
ATOM     30  O   LIG d   1       3.876   0.500  -7.237  0.00  0.00    -0.550 OA
ENDBRANCH  25  28
ENDBRANCH  22  25
ENDBRANCH  19  22
ENDBRANCH  16  19
ENDBRANCH   1  16
TORSDOF 9
ENDMDL
MODEL 6
REMARK VINA RESULT:      -4.4      2.926      4.229
REMARK  9 active torsions:
REMARK  status: ('A' for Active; 'I' for Inactive)
REMARK    1  A    between atoms: C_1  and  C_2 
REMARK    2  A    between atoms: C_3  and  C_4 
REMARK    3  A    between atoms: C_4  and  C_5 
REMARK    4  A    between atoms: C_5  and  C_6 
REMARK    5  A    between atoms: C_6  and  C_7 
REMARK    6  A    between atoms: C_7  and  C_8 
REMARK    7  A    between atoms: C_8  and  C_9 
REMARK    8  A    between atoms: C_9  and  C_10 
REMARK    9  A    between atoms: C_10  and  C_11 
ROOT
ATOM      1  C   LIG d   1       2.449  -0.466  -3.034  0.00  0.00    -0.052 C 
ATOM      2  H   LIG d   1       2.953  -1.431  -2.971  0.00  0.00     0.027 H 
ATOM      3  H   LIG d   1       1.558  -0.481  -2.406  0.00  0.00     0.027 H 
ENDROOT
BRANCH   1   4
ATOM      4  C   LIG d   1       2.046  -0.195  -4.485  0.00  0.00    -0.042 C 
ATOM      5  H   LIG d   1       1.572  -1.084  -4.902  0.00  0.00     0.027 H 
ATOM      6  H   LIG d   1       1.345   0.639  -4.517  0.00  0.00     0.027 H 
BRANCH   4   7
ATOM      7  C   LIG d   1       3.291   0.153  -5.304  0.00  0.00     0.009 C 
ATOM      8  H   LIG d   1       3.656   1.136  -5.011  0.00  0.00     0.040 H 
ATOM      9  H   LIG d   1       4.065  -0.593  -5.122  0.00  0.00     0.040 H 
BRANCH   7  10
ATOM     10  C   LIG d   1       2.948   0.164  -6.736  0.00  0.00    -0.102 C 
ATOM     11  C   LIG d   1       2.675   0.174  -7.877  0.00  0.00    -0.106 C 
BRANCH  11  12
ATOM     12  C   LIG d   1       2.332   0.185  -9.309  0.00  0.00    -0.003 C 
ATOM     13  H   LIG d   1       3.035  -0.444  -9.855  0.00  0.00     0.036 H 
ATOM     14  H   LIG d   1       1.321  -0.200  -9.444  0.00  0.00     0.036 H 
ATOM     15  H   LIG d   1       2.386   1.205  -9.688  0.00  0.00     0.036 H 
ENDBRANCH  11  12
ENDBRANCH   7  10
ENDBRANCH   4   7
ENDBRANCH   1   4
BRANCH   1  16
ATOM     16  C   LIG d   1       3.395   0.635  -2.554  0.00  0.00    -0.053 C 
ATOM     17  H   LIG d   1       2.857   1.312  -1.889  0.00  0.00     0.026 H 
ATOM     18  H   LIG d   1       3.772   1.191  -3.411  0.00  0.00     0.026 H 
BRANCH  16  19
ATOM     19  C   LIG d   1       4.568   0.007  -1.798  0.00  0.00    -0.053 C 
ATOM     20  H   LIG d   1       4.433   0.158  -0.727  0.00  0.00     0.026 H 
ATOM     21  H   LIG d   1       5.499   0.476  -2.117  0.00  0.00     0.026 H 
BRANCH  19  22
ATOM     22  C   LIG d   1       4.623  -1.493  -2.098  0.00  0.00    -0.048 C 
ATOM     23  H   LIG d   1       3.696  -1.801  -2.581  0.00  0.00     0.027 H 
ATOM     24  H   LIG d   1       4.748  -2.045  -1.168  0.00  0.00     0.027 H 
BRANCH  22  25
ATOM     25  C   LIG d   1       5.803  -1.784  -3.027  0.00  0.00    -0.013 C 
ATOM     26  H   LIG d   1       6.587  -2.296  -2.469  0.00  0.00     0.033 H 
ATOM     27  H   LIG d   1       6.194  -0.846  -3.424  0.00  0.00     0.033 H 
BRANCH  25  28
ATOM     28  C   LIG d   1       5.343  -2.659  -4.165  0.00  0.00     0.042 C 
ATOM     29  O   LIG d   1       5.899  -2.601  -5.235  0.00  0.00    -0.550 OA
ATOM     30  O   LIG d   1       4.314  -3.503  -3.987  0.00  0.00    -0.550 OA
ENDBRANCH  25  28
ENDBRANCH  22  25
ENDBRANCH  19  22
ENDBRANCH  16  19
ENDBRANCH   1  16
TORSDOF 9
ENDMDL
MODEL 7
REMARK VINA RESULT:      -4.4      2.339      3.611
REMARK  9 active torsions:
REMARK  status: ('A' for Active; 'I' for Inactive)
REMARK    1  A    between atoms: C_1  and  C_2 
REMARK    2  A    between atoms: C_3  and  C_4 
REMARK    3  A    between atoms: C_4  and  C_5 
REMARK    4  A    between atoms: C_5  and  C_6 
REMARK    5  A    between atoms: C_6  and  C_7 
REMARK    6  A    between atoms: C_7  and  C_8 
REMARK    7  A    between atoms: C_8  and  C_9 
REMARK    8  A    between atoms: C_9  and  C_10 
REMARK    9  A    between atoms: C_10  and  C_11 
ROOT
ATOM      1  C   LIG d   1       3.646  -1.324  -3.338  0.00  0.00    -0.052 C 
ATOM      2  H   LIG d   1       3.439  -2.388  -3.457  0.00  0.00     0.027 H 
ATOM      3  H   LIG d   1       4.343  -1.002  -4.113  0.00  0.00     0.027 H 
ENDROOT
BRANCH   1   4
ATOM      4  C   LIG d   1       4.266  -1.076  -1.962  0.00  0.00    -0.042 C 
ATOM      5  H   LIG d   1       3.581  -1.421  -1.187  0.00  0.00     0.027 H 
ATOM      6  H   LIG d   1       5.207  -1.620  -1.883  0.00  0.00     0.027 H 
BRANCH   4   7
ATOM      7  C   LIG d   1       4.527   0.421  -1.783  0.00  0.00     0.009 C 
ATOM      8  H   LIG d   1       3.633   0.982  -2.056  0.00  0.00     0.040 H 
ATOM      9  H   LIG d   1       4.780   0.624  -0.742  0.00  0.00     0.040 H 
BRANCH   7  10
ATOM     10  C   LIG d   1       5.646   0.832  -2.648  0.00  0.00    -0.102 C 
ATOM     11  C   LIG d   1       6.537   1.159  -3.337  0.00  0.00    -0.106 C 
BRANCH  11  12
ATOM     12  C   LIG d   1       7.655   1.570  -4.202  0.00  0.00    -0.003 C 
ATOM     13  H   LIG d   1       7.498   1.181  -5.208  0.00  0.00     0.036 H 
ATOM     14  H   LIG d   1       7.707   2.658  -4.239  0.00  0.00     0.036 H 
ATOM     15  H   LIG d   1       8.589   1.175  -3.802  0.00  0.00     0.036 H 
ENDBRANCH  11  12
ENDBRANCH   7  10
ENDBRANCH   4   7
ENDBRANCH   1   4
BRANCH   1  16
ATOM     16  C   LIG d   1       2.343  -0.534  -3.461  0.00  0.00    -0.053 C 
ATOM     17  H   LIG d   1       2.199   0.070  -2.564  0.00  0.00     0.026 H 
ATOM     18  H   LIG d   1       1.508  -1.223  -3.573  0.00  0.00     0.026 H 
BRANCH  16  19
ATOM     19  C   LIG d   1       2.416   0.383  -4.685  0.00  0.00    -0.053 C 
ATOM     20  H   LIG d   1       2.712   1.383  -4.371  0.00  0.00     0.026 H 
ATOM     21  H   LIG d   1       1.438   0.426  -5.165  0.00  0.00     0.026 H 
BRANCH  19  22
ATOM     22  C   LIG d   1       3.446  -0.168  -5.674  0.00  0.00    -0.048 C 
ATOM     23  H   LIG d   1       3.574  -1.238  -5.507  0.00  0.00     0.027 H 
ATOM     24  H   LIG d   1       4.399   0.338  -5.525  0.00  0.00     0.027 H 
BRANCH  22  25
ATOM     25  C   LIG d   1       2.958   0.070  -7.104  0.00  0.00    -0.013 C 
ATOM     26  H   LIG d   1       2.249   0.898  -7.113  0.00  0.00     0.033 H 
ATOM     27  H   LIG d   1       2.468  -0.831  -7.476  0.00  0.00     0.033 H 
BRANCH  25  28
ATOM     28  C   LIG d   1       4.133   0.405  -7.986  0.00  0.00     0.042 C 
ATOM     29  O   LIG d   1       4.366   1.556  -8.270  0.00  0.00    -0.550 OA
ATOM     30  O   LIG d   1       4.920  -0.575  -8.455  0.00  0.00    -0.550 OA
ENDBRANCH  25  28
ENDBRANCH  22  25
ENDBRANCH  19  22
ENDBRANCH  16  19
ENDBRANCH   1  16
TORSDOF 9
ENDMDL
MODEL 8
REMARK VINA RESULT:      -4.3      1.626      2.482
REMARK  9 active torsions:
REMARK  status: ('A' for Active; 'I' for Inactive)
REMARK    1  A    between atoms: C_1  and  C_2 
REMARK    2  A    between atoms: C_3  and  C_4 
REMARK    3  A    between atoms: C_4  and  C_5 
REMARK    4  A    between atoms: C_5  and  C_6 
REMARK    5  A    between atoms: C_6  and  C_7 
REMARK    6  A    between atoms: C_7  and  C_8 
REMARK    7  A    between atoms: C_8  and  C_9 
REMARK    8  A    between atoms: C_9  and  C_10 
REMARK    9  A    between atoms: C_10  and  C_11 
ROOT
ATOM      1  C   LIG d   1       5.169  -3.009  -4.267  0.00  0.00    -0.052 C 
ATOM      2  H   LIG d   1       5.413  -4.046  -4.035  0.00  0.00     0.027 H 
ATOM      3  H   LIG d   1       4.196  -2.967  -4.758  0.00  0.00     0.027 H 
ENDROOT
BRANCH   1   4
ATOM      4  C   LIG d   1       6.235  -2.430  -5.199  0.00  0.00    -0.042 C 
ATOM      5  H   LIG d   1       7.225  -2.675  -4.815  0.00  0.00     0.027 H 
ATOM      6  H   LIG d   1       6.116  -2.856  -6.195  0.00  0.00     0.027 H 
BRANCH   4   7
ATOM      7  C   LIG d   1       6.077  -0.910  -5.272  0.00  0.00     0.009 C 
ATOM      8  H   LIG d   1       5.971  -0.506  -4.266  0.00  0.00     0.040 H 
ATOM      9  H   LIG d   1       6.956  -0.476  -5.749  0.00  0.00     0.040 H 
BRANCH   7  10
ATOM     10  C   LIG d   1       4.878  -0.579  -6.061  0.00  0.00    -0.102 C 
ATOM     11  C   LIG d   1       3.923  -0.315  -6.689  0.00  0.00    -0.106 C 
BRANCH  11  12
ATOM     12  C   LIG d   1       2.724   0.016  -7.477  0.00  0.00    -0.003 C 
ATOM     13  H   LIG d   1       2.897  -0.233  -8.524  0.00  0.00     0.036 H 
ATOM     14  H   LIG d   1       1.874  -0.555  -7.104  0.00  0.00     0.036 H 
ATOM     15  H   LIG d   1       2.513   1.081  -7.388  0.00  0.00     0.036 H 
ENDBRANCH  11  12
ENDBRANCH   7  10
ENDBRANCH   4   7
ENDBRANCH   1   4
BRANCH   1  16
ATOM     16  C   LIG d   1       5.125  -2.194  -2.974  0.00  0.00    -0.053 C 
ATOM     17  H   LIG d   1       5.565  -1.212  -3.148  0.00  0.00     0.026 H 
ATOM     18  H   LIG d   1       5.686  -2.712  -2.197  0.00  0.00     0.026 H 
BRANCH  16  19
ATOM     19  C   LIG d   1       3.670  -2.027  -2.526  0.00  0.00    -0.053 C 
ATOM     20  H   LIG d   1       3.549  -2.441  -1.526  0.00  0.00     0.026 H 
ATOM     21  H   LIG d   1       3.014  -2.552  -3.220  0.00  0.00     0.026 H 
BRANCH  19  22
ATOM     22  C   LIG d   1       3.310  -0.540  -2.509  0.00  0.00    -0.048 C 
ATOM     23  H   LIG d   1       2.410  -0.390  -1.913  0.00  0.00     0.027 H 
ATOM     24  H   LIG d   1       3.131  -0.197  -3.528  0.00  0.00     0.027 H 
BRANCH  22  25
ATOM     25  C   LIG d   1       4.464   0.258  -1.898  0.00  0.00    -0.013 C 
ATOM     26  H   LIG d   1       5.343  -0.381  -1.816  0.00  0.00     0.033 H 
ATOM     27  H   LIG d   1       4.177   0.610  -0.906  0.00  0.00     0.033 H 
BRANCH  25  28
ATOM     28  C   LIG d   1       4.781   1.438  -2.779  0.00  0.00     0.042 C 
ATOM     29  O   LIG d   1       5.931   1.738  -2.998  0.00  0.00    -0.550 OA
ATOM     30  O   LIG d   1       3.785   2.157  -3.322  0.00  0.00    -0.550 OA
ENDBRANCH  25  28
ENDBRANCH  22  25
ENDBRANCH  19  22
ENDBRANCH  16  19
ENDBRANCH   1  16
TORSDOF 9
ENDMDL
MODEL 9
REMARK VINA RESULT:      -4.1      4.168      5.172
REMARK  9 active torsions:
REMARK  status: ('A' for Active; 'I' for Inactive)
REMARK    1  A    between atoms: C_1  and  C_2 
REMARK    2  A    between atoms: C_3  and  C_4 
REMARK    3  A    between atoms: C_4  and  C_5 
REMARK    4  A    between atoms: C_5  and  C_6 
REMARK    5  A    between atoms: C_6  and  C_7 
REMARK    6  A    between atoms: C_7  and  C_8 
REMARK    7  A    between atoms: C_8  and  C_9 
REMARK    8  A    between atoms: C_9  and  C_10 
REMARK    9  A    between atoms: C_10  and  C_11 
ROOT
ATOM      1  C   LIG d   1       3.494   0.701  -7.611  0.00  0.00    -0.052 C 
ATOM      2  H   LIG d   1       4.506   0.950  -7.291  0.00  0.00     0.027 H 
ATOM      3  H   LIG d   1       3.529  -0.146  -8.297  0.00  0.00     0.027 H 
ENDROOT
BRANCH   1   4
ATOM      4  C   LIG d   1       2.872   1.905  -8.319  0.00  0.00    -0.042 C 
ATOM      5  H   LIG d   1       1.950   1.600  -8.814  0.00  0.00     0.027 H 
ATOM      6  H   LIG d   1       2.651   2.683  -7.587  0.00  0.00     0.027 H 
BRANCH   4   7
ATOM      7  C   LIG d   1       3.854   2.449  -9.359  0.00  0.00     0.009 C 
ATOM      8  H   LIG d   1       3.485   3.399  -9.746  0.00  0.00     0.040 H 
ATOM      9  H   LIG d   1       4.828   2.599  -8.894  0.00  0.00     0.040 H 
BRANCH   7  10
ATOM     10  C   LIG d   1       3.981   1.486 -10.465  0.00  0.00    -0.102 C 
ATOM     11  C   LIG d   1       4.083   0.718 -11.347  0.00  0.00    -0.106 C 
BRANCH  11  12
ATOM     12  C   LIG d   1       4.209  -0.245 -12.453  0.00  0.00    -0.003 C 
ATOM     13  H   LIG d   1       4.815   0.192 -13.247  0.00  0.00     0.036 H 
ATOM     14  H   LIG d   1       4.688  -1.154 -12.091  0.00  0.00     0.036 H 
ATOM     15  H   LIG d   1       3.220  -0.485 -12.842  0.00  0.00     0.036 H 
ENDBRANCH  11  12
ENDBRANCH   7  10
ENDBRANCH   4   7
ENDBRANCH   1   4
BRANCH   1  16
ATOM     16  C   LIG d   1       2.649   0.335  -6.390  0.00  0.00    -0.053 C 
ATOM     17  H   LIG d   1       1.994  -0.501  -6.639  0.00  0.00     0.026 H 
ATOM     18  H   LIG d   1       2.048   1.193  -6.092  0.00  0.00     0.026 H 
BRANCH  16  19
ATOM     19  C   LIG d   1       3.570  -0.068  -5.235  0.00  0.00    -0.053 C 
ATOM     20  H   LIG d   1       4.440   0.588  -5.220  0.00  0.00     0.026 H 
ATOM     21  H   LIG d   1       3.894  -1.100  -5.372  0.00  0.00     0.026 H 
BRANCH  19  22
ATOM     22  C   LIG d   1       2.812   0.058  -3.912  0.00  0.00    -0.048 C 
ATOM     23  H   LIG d   1       2.929  -0.862  -3.337  0.00  0.00     0.027 H 
ATOM     24  H   LIG d   1       1.755   0.228  -4.113  0.00  0.00     0.027 H 
BRANCH  22  25
ATOM     25  C   LIG d   1       3.376   1.233  -3.111  0.00  0.00    -0.013 C 
ATOM     26  H   LIG d   1       2.610   1.613  -2.435  0.00  0.00     0.033 H 
ATOM     27  H   LIG d   1       3.681   2.026  -3.795  0.00  0.00     0.033 H 
BRANCH  25  28
ATOM     28  C   LIG d   1       4.567   0.771  -2.312  0.00  0.00     0.042 C 
ATOM     29  O   LIG d   1       5.592   1.411  -2.331  0.00  0.00    -0.550 OA
ATOM     30  O   LIG d   1       4.488  -0.350  -1.578  0.00  0.00    -0.550 OA
ENDBRANCH  25  28
ENDBRANCH  22  25
ENDBRANCH  19  22
ENDBRANCH  16  19
ENDBRANCH   1  16
TORSDOF 9
ENDMDL
MODEL 10
REMARK VINA RESULT:      -3.8      1.581      3.301
REMARK  9 active torsions:
REMARK  status: ('A' for Active; 'I' for Inactive)
REMARK    1  A    between atoms: C_1  and  C_2 
REMARK    2  A    between atoms: C_3  and  C_4 
REMARK    3  A    between atoms: C_4  and  C_5 
REMARK    4  A    between atoms: C_5  and  C_6 
REMARK    5  A    between atoms: C_6  and  C_7 
REMARK    6  A    between atoms: C_7  and  C_8 
REMARK    7  A    between atoms: C_8  and  C_9 
REMARK    8  A    between atoms: C_9  and  C_10 
REMARK    9  A    between atoms: C_10  and  C_11 
ROOT
ATOM      1  C   LIG d   1       4.861  -2.660  -5.377  0.00  0.00    -0.052 C 
ATOM      2  H   LIG d   1       3.878  -2.190  -5.390  0.00  0.00     0.027 H 
ATOM      3  H   LIG d   1       4.826  -3.590  -5.946  0.00  0.00     0.027 H 
ENDROOT
BRANCH   1   4
ATOM      4  C   LIG d   1       5.265  -2.961  -3.933  0.00  0.00    -0.042 C 
ATOM      5  H   LIG d   1       5.518  -4.017  -3.839  0.00  0.00     0.027 H 
ATOM      6  H   LIG d   1       6.130  -2.355  -3.663  0.00  0.00     0.027 H 
BRANCH   4   7
ATOM      7  C   LIG d   1       4.100  -2.630  -2.998  0.00  0.00     0.009 C 
ATOM      8  H   LIG d   1       3.160  -2.714  -3.543  0.00  0.00     0.040 H 
ATOM      9  H   LIG d   1       4.098  -3.327  -2.160  0.00  0.00     0.040 H 
BRANCH   7  10
ATOM     10  C   LIG d   1       4.252  -1.256  -2.492  0.00  0.00    -0.102 C 
ATOM     11  C   LIG d   1       4.373  -0.160  -2.088  0.00  0.00    -0.106 C 
BRANCH  11  12
ATOM     12  C   LIG d   1       4.524   1.214  -1.582  0.00  0.00    -0.003 C 
ATOM     13  H   LIG d   1       3.602   1.522  -1.089  0.00  0.00     0.036 H 
ATOM     14  H   LIG d   1       5.346   1.250  -0.869  0.00  0.00     0.036 H 
ATOM     15  H   LIG d   1       4.734   1.886  -2.413  0.00  0.00     0.036 H 
ENDBRANCH  11  12
ENDBRANCH   7  10
ENDBRANCH   4   7
ENDBRANCH   1   4
BRANCH   1  16
ATOM     16  C   LIG d   1       5.886  -1.715  -6.007  0.00  0.00    -0.053 C 
ATOM     17  H   LIG d   1       6.370  -2.213  -6.848  0.00  0.00     0.026 H 
ATOM     18  H   LIG d   1       6.635  -1.444  -5.264  0.00  0.00     0.026 H 
BRANCH  16  19
ATOM     19  C   LIG d   1       5.178  -0.452  -6.502  0.00  0.00    -0.053 C 
ATOM     20  H   LIG d   1       5.665  -0.096  -7.410  0.00  0.00     0.026 H 
ATOM     21  H   LIG d   1       5.231   0.319  -5.734  0.00  0.00     0.026 H 
BRANCH  19  22
ATOM     22  C   LIG d   1       3.712  -0.773  -6.802  0.00  0.00    -0.048 C 
ATOM     23  H   LIG d   1       3.349  -1.513  -6.088  0.00  0.00     0.027 H 
ATOM     24  H   LIG d   1       3.627  -1.172  -7.812  0.00  0.00     0.027 H 
BRANCH  22  25
ATOM     25  C   LIG d   1       2.876   0.502  -6.684  0.00  0.00    -0.013 C 
ATOM     26  H   LIG d   1       1.977   0.405  -7.293  0.00  0.00     0.033 H 
ATOM     27  H   LIG d   1       3.460   1.354  -7.035  0.00  0.00     0.033 H 
BRANCH  25  28
ATOM     28  C   LIG d   1       2.487   0.717  -5.244  0.00  0.00     0.042 C 
ATOM     29  O   LIG d   1       2.808   1.733  -4.676  0.00  0.00    -0.550 OA
ATOM     30  O   LIG d   1       1.782  -0.222  -4.593  0.00  0.00    -0.550 OA
ENDBRANCH  25  28
ENDBRANCH  22  25
ENDBRANCH  19  22
ENDBRANCH  16  19
ENDBRANCH   1  16
TORSDOF 9
ENDMDL
