MODEL 1
REMARK VINA RESULT:      -5.7      0.000      0.000
REMARK  9 active torsions:
REMARK  status: ('A' for Active; 'I' for Inactive)
REMARK    1  A    between atoms: C_1  and  C_2 
REMARK    2  A    between atoms: C_7  and  N_9 
REMARK    3  A    between atoms: N_9  and  C_10 
REMARK    4  A    between atoms: C_12  and  C_31 
REMARK    5  A    between atoms: C_15  and  O_30 
REMARK    6  A    between atoms: C_17  and  C_21 
REMARK    7  A    between atoms: C_21  and  C_23 
REMARK    8  A    between atoms: C_21  and  C_24 
REMARK       I    between atoms: C_24  and  N_26 
REMARK    9  A    between atoms: N_26  and  C_27 
ROOT
ATOM      1  C   LIG d   1      11.562   6.216  -0.744  0.00  0.00     0.005 C 
ATOM      2  H   LIG d   1      12.511   6.184  -1.279  0.00  0.00     0.036 H 
ATOM      3  C   LIG d   1      11.373   7.595  -0.131  0.00  0.00     0.057 A 
ATOM      4  C   LIG d   1      10.555   8.499  -0.728  0.00  0.00     0.015 A 
ATOM      5  S   LIG d   1      10.678   9.904   0.346  0.00  0.00    -0.057 SA
ATOM      6  C   LIG d   1      11.785   9.203   1.489  0.00  0.00     0.158 A 
ATOM      7  N   LIG d   1      11.972   7.999   0.988  0.00  0.00    -0.229 NA
ATOM      8  C   LIG d   1       9.763   8.324  -1.975  0.00  0.00    -0.014 C 
ATOM      9  C   LIG d   1      10.270   7.074  -2.721  0.00  0.00    -0.022 C 
ATOM     10  C   LIG d   1      10.415   5.924  -1.722  0.00  0.00    -0.001 C 
ATOM     11  H   LIG d   1       9.485   5.802  -1.167  0.00  0.00     0.034 H 
ATOM     12  C   LIG d   1      10.759   4.626  -2.458  0.00  0.00     0.063 C 
ATOM     13  H   LIG d   1      11.717   4.740  -2.963  0.00  0.00     0.060 H 
ATOM     14  C   LIG d   1       9.681   4.299  -3.489  0.00  0.00    -0.004 C 
ATOM     15  H   LIG d   1       8.716   4.194  -2.991  0.00  0.00     0.033 H 
ATOM     16  C   LIG d   1       9.611   5.438  -4.509  0.00  0.00    -0.047 C 
ATOM     17  C   LIG d   1       9.221   6.724  -3.781  0.00  0.00    -0.047 C 
ATOM     18  H   LIG d   1       9.884   9.202  -2.610  0.00  0.00     0.032 H 
ATOM     19  H   LIG d   1       8.710   8.198  -1.723  0.00  0.00     0.032 H 
ATOM     20  H   LIG d   1      10.585   5.567  -4.981  0.00  0.00     0.027 H 
ATOM     21  H   LIG d   1       8.862   5.206  -5.267  0.00  0.00     0.027 H 
ATOM     22  H   LIG d   1       9.150   7.539  -4.502  0.00  0.00     0.027 H 
ATOM     23  H   LIG d   1       8.253   6.587  -3.300  0.00  0.00     0.027 H 
ENDROOT
BRANCH  14  24
ATOM     24  C   LIG d   1      10.033   2.992  -4.203  0.00  0.00     0.038 C 
ATOM     25  H   LIG d   1      10.651   2.376  -3.549  0.00  0.00     0.040 H 
BRANCH  24  26
ATOM     26  C   LIG d   1      10.806   3.305  -5.486  0.00  0.00    -0.054 C 
ATOM     27  H   LIG d   1      11.821   3.613  -5.234  0.00  0.00     0.024 H 
ATOM     28  H   LIG d   1      10.843   2.415  -6.115  0.00  0.00     0.024 H 
ATOM     29  H   LIG d   1      10.306   4.110  -6.024  0.00  0.00     0.024 H 
ENDBRANCH  24  26
BRANCH  24  30
ATOM     30  C   LIG d   1       8.768   2.250  -4.546  0.00  0.00     0.216 C 
ATOM     31  O   LIG d   1       8.204   2.467  -5.598  0.00  0.00    -0.276 OA
ATOM     32  N   LIG d   1       8.264   1.342  -3.687  0.00  0.00    -0.312 N 
ATOM     33  H   LIG d   1       8.716   1.168  -2.846  0.00  0.00     0.149 HD
BRANCH  32  34
ATOM     34  C   LIG d   1       7.035   0.620  -4.021  0.00  0.00     0.023 A 
ATOM     35  C   LIG d   1       6.740  -0.668  -3.250  0.00  0.00    -0.033 A 
ATOM     36  C   LIG d   1       5.923   0.595  -2.971  0.00  0.00    -0.033 A 
ATOM     37  H   LIG d   1       7.461  -0.978  -2.494  0.00  0.00     0.028 H 
ATOM     38  H   LIG d   1       6.249  -1.477  -3.790  0.00  0.00     0.028 H 
ATOM     39  H   LIG d   1       4.892   0.616  -3.327  0.00  0.00     0.028 H 
ATOM     40  H   LIG d   1       6.106   1.115  -2.030  0.00  0.00     0.028 H 
ATOM     41  H   LIG d   1       6.736   0.659  -5.068  0.00  0.00     0.050 H 
ENDBRANCH  32  34
ENDBRANCH  24  30
ENDBRANCH  14  24
BRANCH  12  42
ATOM     42  O   LIG d   1      10.850   3.557  -1.514  0.00  0.00    -0.391 OA
ATOM     43  H   LIG d   1      10.028   3.385  -1.033  0.00  0.00     0.210 HD
ENDBRANCH  12  42
BRANCH   1  44
ATOM     44  C   LIG d   1      11.566   5.162   0.365  0.00  0.00    -0.057 C 
ATOM     45  H   LIG d   1      12.592   4.965   0.675  0.00  0.00     0.024 H 
ATOM     46  H   LIG d   1      10.994   5.528   1.217  0.00  0.00     0.024 H 
ATOM     47  H   LIG d   1      11.116   4.241  -0.007  0.00  0.00     0.024 H 
ENDBRANCH   1  44
BRANCH   9  48
ATOM     48  C   LIG d   1      11.616   7.359  -3.391  0.00  0.00    -0.059 C 
ATOM     49  H   LIG d   1      12.423   7.008  -2.748  0.00  0.00     0.024 H 
ATOM     50  H   LIG d   1      11.662   6.841  -4.348  0.00  0.00     0.024 H 
ATOM     51  H   LIG d   1      11.720   8.432  -3.552  0.00  0.00     0.024 H 
ENDBRANCH   9  48
BRANCH   6  52
ATOM     52  N   LIG d   1      12.330   9.766   2.632  0.00  0.00    -0.327 N 
ATOM     53  H   LIG d   1      12.487   9.217   3.416  0.00  0.00     0.148 HD
BRANCH  52  54
ATOM     54  C   LIG d   1      12.669  11.191   2.656  0.00  0.00    -0.001 C 
ATOM     55  H   LIG d   1      12.631  11.556   3.683  0.00  0.00     0.043 H 
ATOM     56  H   LIG d   1      13.672  11.332   2.257  0.00  0.00     0.043 H 
ATOM     57  H   LIG d   1      11.953  11.744   2.048  0.00  0.00     0.043 H 
ENDBRANCH  52  54
ENDBRANCH   6  52
TORSDOF 9
ENDMDL
MODEL 2
REMARK VINA RESULT:      -5.4      3.917      5.873
REMARK  9 active torsions:
REMARK  status: ('A' for Active; 'I' for Inactive)
REMARK    1  A    between atoms: C_1  and  C_2 
REMARK    2  A    between atoms: C_7  and  N_9 
REMARK    3  A    between atoms: N_9  and  C_10 
REMARK    4  A    between atoms: C_12  and  C_31 
REMARK    5  A    between atoms: C_15  and  O_30 
REMARK    6  A    between atoms: C_17  and  C_21 
REMARK    7  A    between atoms: C_21  and  C_23 
REMARK    8  A    between atoms: C_21  and  C_24 
REMARK       I    between atoms: C_24  and  N_26 
REMARK    9  A    between atoms: N_26  and  C_27 
ROOT
ATOM      1  C   LIG d   1       9.407   2.419  -4.686  0.00  0.00     0.005 C 
ATOM      2  H   LIG d   1      10.102   1.594  -4.840  0.00  0.00     0.036 H 
ATOM      3  C   LIG d   1      10.111   3.542  -3.940  0.00  0.00     0.057 A 
ATOM      4  C   LIG d   1      10.557   4.632  -4.615  0.00  0.00     0.015 A 
ATOM      5  S   LIG d   1      11.283   5.615  -3.329  0.00  0.00    -0.057 SA
ATOM      6  C   LIG d   1      10.948   4.528  -2.015  0.00  0.00     0.158 A 
ATOM      7  N   LIG d   1      10.333   3.536  -2.627  0.00  0.00    -0.229 NA
ATOM      8  C   LIG d   1      10.447   4.908  -6.072  0.00  0.00    -0.014 C 
ATOM      9  C   LIG d   1      10.063   3.606  -6.802  0.00  0.00    -0.022 C 
ATOM     10  C   LIG d   1       8.915   2.933  -6.046  0.00  0.00    -0.001 C 
ATOM     11  H   LIG d   1       8.107   3.649  -5.896  0.00  0.00     0.034 H 
ATOM     12  C   LIG d   1       8.401   1.724  -6.834  0.00  0.00     0.063 C 
ATOM     13  H   LIG d   1       9.201   0.990  -6.931  0.00  0.00     0.060 H 
ATOM     14  C   LIG d   1       7.940   2.154  -8.226  0.00  0.00    -0.004 C 
ATOM     15  H   LIG d   1       7.147   2.898  -8.137  0.00  0.00     0.033 H 
ATOM     16  C   LIG d   1       9.130   2.760  -8.974  0.00  0.00    -0.047 C 
ATOM     17  C   LIG d   1       9.612   3.993  -8.213  0.00  0.00    -0.047 C 
ATOM     18  H   LIG d   1      11.404   5.268  -6.448  0.00  0.00     0.032 H 
ATOM     19  H   LIG d   1       9.679   5.663  -6.243  0.00  0.00     0.032 H 
ATOM     20  H   LIG d   1       9.937   2.029  -9.033  0.00  0.00     0.027 H 
ATOM     21  H   LIG d   1       8.821   3.048  -9.980  0.00  0.00     0.027 H 
ATOM     22  H   LIG d   1      10.448   4.444  -8.748  0.00  0.00     0.027 H 
ATOM     23  H   LIG d   1       8.799   4.717  -8.146  0.00  0.00     0.027 H 
ENDROOT
BRANCH  14  24
ATOM     24  C   LIG d   1       7.417   0.937  -8.992  0.00  0.00     0.038 C 
ATOM     25  H   LIG d   1       7.400   0.071  -8.330  0.00  0.00     0.040 H 
BRANCH  24  26
ATOM     26  C   LIG d   1       8.336   0.651 -10.182  0.00  0.00    -0.054 C 
ATOM     27  H   LIG d   1       9.024  -0.155  -9.924  0.00  0.00     0.024 H 
ATOM     28  H   LIG d   1       7.736   0.355 -11.042  0.00  0.00     0.024 H 
ATOM     29  H   LIG d   1       8.904   1.549 -10.425  0.00  0.00     0.024 H 
ENDBRANCH  24  26
BRANCH  24  30
ATOM     30  C   LIG d   1       6.023   1.217  -9.489  0.00  0.00     0.216 C 
ATOM     31  O   LIG d   1       5.702   0.887 -10.612  0.00  0.00    -0.276 OA
ATOM     32  N   LIG d   1       5.132   1.832  -8.687  0.00  0.00    -0.312 N 
ATOM     33  H   LIG d   1       5.389   2.095  -7.790  0.00  0.00     0.149 HD
BRANCH  32  34
ATOM     34  C   LIG d   1       3.776   2.103  -9.171  0.00  0.00     0.023 A 
ATOM     35  C   LIG d   1       2.735   0.995  -9.013  0.00  0.00    -0.033 A 
ATOM     36  C   LIG d   1       2.667   2.239  -8.125  0.00  0.00    -0.033 A 
ATOM     37  H   LIG d   1       3.058   0.063  -8.550  0.00  0.00     0.028 H 
ATOM     38  H   LIG d   1       1.984   0.894  -9.797  0.00  0.00     0.028 H 
ATOM     39  H   LIG d   1       1.871   2.957  -8.325  0.00  0.00     0.028 H 
ATOM     40  H   LIG d   1       2.946   2.125  -7.078  0.00  0.00     0.028 H 
ATOM     41  H   LIG d   1       3.711   2.734 -10.057  0.00  0.00     0.050 H 
ENDBRANCH  32  34
ENDBRANCH  24  30
ENDBRANCH  14  24
BRANCH  12  42
ATOM     42  O   LIG d   1       7.304   1.135  -6.134  0.00  0.00    -0.391 OA
ATOM     43  H   LIG d   1       7.330   1.268  -5.177  0.00  0.00     0.210 HD
ENDBRANCH  12  42
BRANCH   1  44
ATOM     44  C   LIG d   1       8.212   1.932  -3.863  0.00  0.00    -0.057 C 
ATOM     45  H   LIG d   1       8.447   2.006  -2.802  0.00  0.00     0.024 H 
ATOM     46  H   LIG d   1       7.341   2.549  -4.086  0.00  0.00     0.024 H 
ATOM     47  H   LIG d   1       7.996   0.894  -4.116  0.00  0.00     0.024 H 
ENDBRANCH   1  44
BRANCH   9  48
ATOM     48  C   LIG d   1      11.264   2.661  -6.878  0.00  0.00    -0.059 C 
ATOM     49  H   LIG d   1      11.469   2.253  -5.888  0.00  0.00     0.024 H 
ATOM     50  H   LIG d   1      11.043   1.847  -7.568  0.00  0.00     0.024 H 
ATOM     51  H   LIG d   1      12.136   3.211  -7.232  0.00  0.00     0.024 H 
ENDBRANCH   9  48
BRANCH   6  52
ATOM     52  N   LIG d   1      11.251   4.668  -0.670  0.00  0.00    -0.327 N 
ATOM     53  H   LIG d   1      11.617   3.919  -0.174  0.00  0.00     0.148 HD
BRANCH  52  54
ATOM     54  C   LIG d   1      11.018   5.948   0.003  0.00  0.00    -0.001 C 
ATOM     55  H   LIG d   1      11.074   6.757  -0.726  0.00  0.00     0.043 H 
ATOM     56  H   LIG d   1      10.031   5.942   0.465  0.00  0.00     0.043 H 
ATOM     57  H   LIG d   1      11.778   6.098   0.770  0.00  0.00     0.043 H 
ENDBRANCH  52  54
ENDBRANCH   6  52
TORSDOF 9
ENDMDL
MODEL 3
REMARK VINA RESULT:      -5.4     10.105     13.580
REMARK  9 active torsions:
REMARK  status: ('A' for Active; 'I' for Inactive)
REMARK    1  A    between atoms: C_1  and  C_2 
REMARK    2  A    between atoms: C_7  and  N_9 
REMARK    3  A    between atoms: N_9  and  C_10 
REMARK    4  A    between atoms: C_12  and  C_31 
REMARK    5  A    between atoms: C_15  and  O_30 
REMARK    6  A    between atoms: C_17  and  C_21 
REMARK    7  A    between atoms: C_21  and  C_23 
REMARK    8  A    between atoms: C_21  and  C_24 
REMARK       I    between atoms: C_24  and  N_26 
REMARK    9  A    between atoms: N_26  and  C_27 
ROOT
ATOM      1  C   LIG d   1       3.475  -2.344 -10.195  0.00  0.00     0.005 C 
ATOM      2  H   LIG d   1       2.401  -2.526 -10.148  0.00  0.00     0.036 H 
ATOM      3  C   LIG d   1       3.922  -2.324 -11.648  0.00  0.00     0.057 A 
ATOM      4  C   LIG d   1       4.148  -1.142 -12.275  0.00  0.00     0.015 A 
ATOM      5  S   LIG d   1       4.632  -1.650 -13.903  0.00  0.00    -0.057 SA
ATOM      6  C   LIG d   1       4.503  -3.363 -13.639  0.00  0.00     0.158 A 
ATOM      7  N   LIG d   1       4.115  -3.420 -12.381  0.00  0.00    -0.229 NA
ATOM      8  C   LIG d   1       4.016   0.228 -11.708  0.00  0.00    -0.014 C 
ATOM      9  C   LIG d   1       3.229   0.149 -10.385  0.00  0.00    -0.022 C 
ATOM     10  C   LIG d   1       3.793  -0.994  -9.538  0.00  0.00    -0.001 C 
ATOM     11  H   LIG d   1       4.873  -0.880  -9.443  0.00  0.00     0.034 H 
ATOM     12  C   LIG d   1       3.144  -0.994  -8.151  0.00  0.00     0.063 C 
ATOM     13  H   LIG d   1       2.072  -1.164  -8.254  0.00  0.00     0.060 H 
ATOM     14  C   LIG d   1       3.377   0.346  -7.456  0.00  0.00    -0.004 C 
ATOM     15  H   LIG d   1       4.448   0.528  -7.359  0.00  0.00     0.033 H 
ATOM     16  C   LIG d   1       2.741   1.456  -8.297  0.00  0.00    -0.047 C 
ATOM     17  C   LIG d   1       3.423   1.487  -9.664  0.00  0.00    -0.047 C 
ATOM     18  H   LIG d   1       3.481   0.864 -12.413  0.00  0.00     0.032 H 
ATOM     19  H   LIG d   1       5.006   0.641 -11.520  0.00  0.00     0.032 H 
ATOM     20  H   LIG d   1       1.677   1.256  -8.423  0.00  0.00     0.027 H 
ATOM     21  H   LIG d   1       2.878   2.416  -7.799  0.00  0.00     0.027 H 
ATOM     22  H   LIG d   1       2.990   2.287 -10.265  0.00  0.00     0.027 H 
ATOM     23  H   LIG d   1       4.488   1.675  -9.532  0.00  0.00     0.027 H 
ENDROOT
BRANCH  14  24
ATOM     24  C   LIG d   1       2.734   0.322  -6.067  0.00  0.00     0.038 C 
ATOM     25  H   LIG d   1       1.852  -0.317  -6.086  0.00  0.00     0.040 H 
BRANCH  24  26
ATOM     26  C   LIG d   1       2.326   1.743  -5.671  0.00  0.00    -0.054 C 
ATOM     27  H   LIG d   1       2.185   1.793  -4.591  0.00  0.00     0.024 H 
ATOM     28  H   LIG d   1       3.107   2.443  -5.968  0.00  0.00     0.024 H 
ATOM     29  H   LIG d   1       1.393   2.005  -6.171  0.00  0.00     0.024 H 
ENDBRANCH  24  26
BRANCH  24  30
ATOM     30  C   LIG d   1       3.722  -0.214  -5.065  0.00  0.00     0.216 C 
ATOM     31  O   LIG d   1       4.808   0.313  -4.941  0.00  0.00    -0.276 OA
ATOM     32  N   LIG d   1       3.401  -1.279  -4.304  0.00  0.00    -0.312 N 
ATOM     33  H   LIG d   1       2.533  -1.700  -4.403  0.00  0.00     0.149 HD
BRANCH  32  34
ATOM     34  C   LIG d   1       4.361  -1.801  -3.329  0.00  0.00     0.023 A 
ATOM     35  C   LIG d   1       4.436  -1.105  -1.970  0.00  0.00    -0.033 A 
ATOM     36  C   LIG d   1       3.800  -2.491  -2.085  0.00  0.00    -0.033 A 
ATOM     37  H   LIG d   1       3.771  -0.259  -1.800  0.00  0.00     0.028 H 
ATOM     38  H   LIG d   1       5.414  -1.037  -1.491  0.00  0.00     0.028 H 
ATOM     39  H   LIG d   1       4.360  -3.337  -1.683  0.00  0.00     0.028 H 
ATOM     40  H   LIG d   1       2.716  -2.558  -1.991  0.00  0.00     0.028 H 
ATOM     41  H   LIG d   1       5.289  -2.192  -3.747  0.00  0.00     0.050 H 
ENDBRANCH  32  34
ENDBRANCH  24  30
ENDBRANCH  14  24
BRANCH  12  42
ATOM     42  O   LIG d   1       3.712  -2.041  -7.363  0.00  0.00    -0.391 OA
ATOM     43  H   LIG d   1       3.866  -1.799  -6.439  0.00  0.00     0.210 HD
ENDBRANCH  12  42
BRANCH   1  44
ATOM     44  C   LIG d   1       4.212  -3.459  -9.450  0.00  0.00    -0.057 C 
ATOM     45  H   LIG d   1       4.779  -4.059 -10.162  0.00  0.00     0.024 H 
ATOM     46  H   LIG d   1       4.893  -3.021  -8.721  0.00  0.00     0.024 H 
ATOM     47  H   LIG d   1       3.489  -4.093  -8.936  0.00  0.00     0.024 H 
ENDBRANCH   1  44
BRANCH   9  48
ATOM     48  C   LIG d   1       1.742  -0.087 -10.659  0.00  0.00    -0.059 C 
ATOM     49  H   LIG d   1       1.590  -1.119 -10.972  0.00  0.00     0.024 H 
ATOM     50  H   LIG d   1       1.171   0.106  -9.752  0.00  0.00     0.024 H 
ATOM     51  H   LIG d   1       1.408   0.586 -11.449  0.00  0.00     0.024 H 
ENDBRANCH   9  48
BRANCH   6  52
ATOM     52  N   LIG d   1       4.744  -4.402 -14.524  0.00  0.00    -0.327 N 
ATOM     53  H   LIG d   1       4.242  -4.462 -15.352  0.00  0.00     0.148 HD
BRANCH  52  54
ATOM     54  C   LIG d   1       5.760  -5.410 -14.210  0.00  0.00    -0.001 C 
ATOM     55  H   LIG d   1       6.728  -4.924 -14.087  0.00  0.00     0.043 H 
ATOM     56  H   LIG d   1       5.490  -5.922 -13.287  0.00  0.00     0.043 H 
ATOM     57  H   LIG d   1       5.818  -6.133 -15.024  0.00  0.00     0.043 H 
ENDBRANCH  52  54
ENDBRANCH   6  52
TORSDOF 9
ENDMDL
MODEL 4
REMARK VINA RESULT:      -5.3      3.137      4.577
REMARK  9 active torsions:
REMARK  status: ('A' for Active; 'I' for Inactive)
REMARK    1  A    between atoms: C_1  and  C_2 
REMARK    2  A    between atoms: C_7  and  N_9 
REMARK    3  A    between atoms: N_9  and  C_10 
REMARK    4  A    between atoms: C_12  and  C_31 
REMARK    5  A    between atoms: C_15  and  O_30 
REMARK    6  A    between atoms: C_17  and  C_21 
REMARK    7  A    between atoms: C_21  and  C_23 
REMARK    8  A    between atoms: C_21  and  C_24 
REMARK       I    between atoms: C_24  and  N_26 
REMARK    9  A    between atoms: N_26  and  C_27 
ROOT
ATOM      1  C   LIG d   1      10.469   4.509  -4.232  0.00  0.00     0.005 C 
ATOM      2  H   LIG d   1      11.356   3.876  -4.197  0.00  0.00     0.036 H 
ATOM      3  C   LIG d   1      10.847   5.878  -4.777  0.00  0.00     0.057 A 
ATOM      4  C   LIG d   1      10.576   6.195  -6.069  0.00  0.00     0.015 A 
ATOM      5  S   LIG d   1      11.197   7.850  -6.201  0.00  0.00    -0.057 SA
ATOM      6  C   LIG d   1      11.760   8.000  -4.564  0.00  0.00     0.158 A 
ATOM      7  N   LIG d   1      11.447   6.825  -4.056  0.00  0.00    -0.229 NA
ATOM      8  C   LIG d   1       9.918   5.343  -7.095  0.00  0.00    -0.014 C 
ATOM      9  C   LIG d   1       9.894   3.885  -6.597  0.00  0.00    -0.022 C 
ATOM     10  C   LIG d   1       9.417   3.864  -5.143  0.00  0.00    -0.001 C 
ATOM     11  H   LIG d   1       8.477   4.410  -5.059  0.00  0.00     0.034 H 
ATOM     12  C   LIG d   1       9.224   2.420  -4.671  0.00  0.00     0.063 C 
ATOM     13  H   LIG d   1      10.180   1.898  -4.707  0.00  0.00     0.060 H 
ATOM     14  C   LIG d   1       8.223   1.696  -5.569  0.00  0.00    -0.004 C 
ATOM     15  H   LIG d   1       7.266   2.219  -5.547  0.00  0.00     0.033 H 
ATOM     16  C   LIG d   1       8.765   1.678  -7.000  0.00  0.00    -0.047 C 
ATOM     17  C   LIG d   1       8.911   3.118  -7.487  0.00  0.00    -0.047 C 
ATOM     18  H   LIG d   1      10.477   5.400  -8.029  0.00  0.00     0.032 H 
ATOM     19  H   LIG d   1       8.898   5.691  -7.258  0.00  0.00     0.032 H 
ATOM     20  H   LIG d   1       9.738   1.186  -7.016  0.00  0.00     0.027 H 
ATOM     21  H   LIG d   1       8.071   1.141  -7.648  0.00  0.00     0.027 H 
ATOM     22  H   LIG d   1       9.280   3.116  -8.514  0.00  0.00     0.027 H 
ATOM     23  H   LIG d   1       7.939   3.610  -7.458  0.00  0.00     0.027 H 
ENDROOT
BRANCH  14  24
ATOM     24  C   LIG d   1       8.032   0.261  -5.074  0.00  0.00     0.038 C 
ATOM     25  H   LIG d   1       8.711   0.071  -4.242  0.00  0.00     0.040 H 
BRANCH  24  26
ATOM     26  C   LIG d   1       8.336  -0.715  -6.212  0.00  0.00    -0.054 C 
ATOM     27  H   LIG d   1       9.341  -1.120  -6.086  0.00  0.00     0.024 H 
ATOM     28  H   LIG d   1       7.612  -1.530  -6.196  0.00  0.00     0.024 H 
ATOM     29  H   LIG d   1       8.274  -0.191  -7.166  0.00  0.00     0.024 H 
ENDBRANCH  24  26
BRANCH  24  30
ATOM     30  C   LIG d   1       6.610   0.071  -4.615  0.00  0.00     0.216 C 
ATOM     31  O   LIG d   1       5.900  -0.745  -5.164  0.00  0.00    -0.276 OA
ATOM     32  N   LIG d   1       6.127   0.806  -3.593  0.00  0.00    -0.312 N 
ATOM     33  H   LIG d   1       6.696   1.458  -3.155  0.00  0.00     0.149 HD
BRANCH  32  34
ATOM     34  C   LIG d   1       4.745   0.621  -3.147  0.00  0.00     0.023 A 
ATOM     35  C   LIG d   1       4.495  -0.380  -2.018  0.00  0.00    -0.033 A 
ATOM     36  C   LIG d   1       4.382   1.121  -1.747  0.00  0.00    -0.033 A 
ATOM     37  H   LIG d   1       5.359  -0.902  -1.608  0.00  0.00     0.028 H 
ATOM     38  H   LIG d   1       3.570  -0.958  -2.053  0.00  0.00     0.028 H 
ATOM     39  H   LIG d   1       3.382   1.532  -1.603  0.00  0.00     0.028 H 
ATOM     40  H   LIG d   1       5.171   1.587  -1.158  0.00  0.00     0.028 H 
ATOM     41  H   LIG d   1       3.985   0.705  -3.924  0.00  0.00     0.050 H 
ENDBRANCH  32  34
ENDBRANCH  24  30
ENDBRANCH  14  24
BRANCH  12  42
ATOM     42  O   LIG d   1       8.739   2.422  -3.328  0.00  0.00    -0.391 OA
ATOM     43  H   LIG d   1       9.437   2.416  -2.657  0.00  0.00     0.210 HD
ENDBRANCH  12  42
BRANCH   1  44
ATOM     44  C   LIG d   1       9.897   4.663  -2.822  0.00  0.00    -0.057 C 
ATOM     45  H   LIG d   1      10.522   4.118  -2.114  0.00  0.00     0.024 H 
ATOM     46  H   LIG d   1       9.876   5.718  -2.550  0.00  0.00     0.024 H 
ATOM     47  H   LIG d   1       8.884   4.261  -2.794  0.00  0.00     0.024 H 
ENDBRANCH   1  44
BRANCH   9  48
ATOM     48  C   LIG d   1      11.288   3.261  -6.699  0.00  0.00    -0.059 C 
ATOM     49  H   LIG d   1      11.705   3.140  -5.700  0.00  0.00     0.024 H 
ATOM     50  H   LIG d   1      11.215   2.288  -7.183  0.00  0.00     0.024 H 
ATOM     51  H   LIG d   1      11.934   3.913  -7.287  0.00  0.00     0.024 H 
ENDBRANCH   9  48
BRANCH   6  52
ATOM     52  N   LIG d   1      12.380   9.077  -3.950  0.00  0.00    -0.327 N 
ATOM     53  H   LIG d   1      13.064   9.577  -4.422  0.00  0.00     0.148 HD
BRANCH  52  54
ATOM     54  C   LIG d   1      12.000   9.461  -2.589  0.00  0.00    -0.001 C 
ATOM     55  H   LIG d   1      10.951   9.212  -2.420  0.00  0.00     0.043 H 
ATOM     56  H   LIG d   1      12.621   8.923  -1.873  0.00  0.00     0.043 H 
ATOM     57  H   LIG d   1      12.143  10.533  -2.461  0.00  0.00     0.043 H 
ENDBRANCH  52  54
ENDBRANCH   6  52
TORSDOF 9
ENDMDL
MODEL 5
REMARK VINA RESULT:      -5.2      5.123      6.855
REMARK  9 active torsions:
REMARK  status: ('A' for Active; 'I' for Inactive)
REMARK    1  A    between atoms: C_1  and  C_2 
REMARK    2  A    between atoms: C_7  and  N_9 
REMARK    3  A    between atoms: N_9  and  C_10 
REMARK    4  A    between atoms: C_12  and  C_31 
REMARK    5  A    between atoms: C_15  and  O_30 
REMARK    6  A    between atoms: C_17  and  C_21 
REMARK    7  A    between atoms: C_21  and  C_23 
REMARK    8  A    between atoms: C_21  and  C_24 
REMARK       I    between atoms: C_24  and  N_26 
REMARK    9  A    between atoms: N_26  and  C_27 
ROOT
ATOM      1  C   LIG d   1       9.931   4.121  -6.100  0.00  0.00     0.005 C 
ATOM      2  H   LIG d   1      10.860   3.563  -5.984  0.00  0.00     0.036 H 
ATOM      3  C   LIG d   1      10.035   5.031  -7.314  0.00  0.00     0.057 A 
ATOM      4  C   LIG d   1       9.444   4.676  -8.483  0.00  0.00     0.015 A 
ATOM      5  S   LIG d   1       9.849   6.032  -9.552  0.00  0.00    -0.057 SA
ATOM      6  C   LIG d   1      10.756   6.954  -8.391  0.00  0.00     0.158 A 
ATOM      7  N   LIG d   1      10.687   6.193  -7.318  0.00  0.00    -0.229 NA
ATOM      8  C   LIG d   1       8.655   3.447  -8.767  0.00  0.00    -0.014 C 
ATOM      9  C   LIG d   1       8.892   2.426  -7.637  0.00  0.00    -0.022 C 
ATOM     10  C   LIG d   1       8.766   3.140  -6.289  0.00  0.00    -0.001 C 
ATOM     11  H   LIG d   1       7.822   3.682  -6.249  0.00  0.00     0.034 H 
ATOM     12  C   LIG d   1       8.833   2.123  -5.145  0.00  0.00     0.063 C 
ATOM     13  H   LIG d   1       9.803   1.626  -5.161  0.00  0.00     0.060 H 
ATOM     14  C   LIG d   1       7.729   1.079  -5.297  0.00  0.00    -0.004 C 
ATOM     15  H   LIG d   1       6.755   1.571  -5.294  0.00  0.00     0.033 H 
ATOM     16  C   LIG d   1       7.927   0.341  -6.624  0.00  0.00    -0.047 C 
ATOM     17  C   LIG d   1       7.812   1.348  -7.767  0.00  0.00    -0.047 C 
ATOM     18  H   LIG d   1       8.975   3.020  -9.717  0.00  0.00     0.032 H 
ATOM     19  H   LIG d   1       7.595   3.698  -8.817  0.00  0.00     0.032 H 
ATOM     20  H   LIG d   1       8.913  -0.121  -6.642  0.00  0.00     0.027 H 
ATOM     21  H   LIG d   1       7.159  -0.426  -6.734  0.00  0.00     0.027 H 
ATOM     22  H   LIG d   1       7.933   0.829  -8.718  0.00  0.00     0.027 H 
ATOM     23  H   LIG d   1       6.828   1.817  -7.738  0.00  0.00     0.027 H 
ENDROOT
BRANCH  14  24
ATOM     24  C   LIG d   1       7.802   0.082  -4.139  0.00  0.00     0.038 C 
ATOM     25  H   LIG d   1       8.656   0.323  -3.506  0.00  0.00     0.040 H 
BRANCH  24  26
ATOM     26  C   LIG d   1       7.965  -1.334  -4.696  0.00  0.00    -0.054 C 
ATOM     27  H   LIG d   1       7.038  -1.890  -4.553  0.00  0.00     0.024 H 
ATOM     28  H   LIG d   1       8.196  -1.282  -5.760  0.00  0.00     0.024 H 
ATOM     29  H   LIG d   1       8.775  -1.839  -4.171  0.00  0.00     0.024 H 
ENDBRANCH  24  26
BRANCH  24  30
ATOM     30  C   LIG d   1       6.536   0.160  -3.327  0.00  0.00     0.216 C 
ATOM     31  O   LIG d   1       6.164   1.227  -2.885  0.00  0.00    -0.276 OA
ATOM     32  N   LIG d   1       5.815  -0.954  -3.093  0.00  0.00    -0.312 N 
ATOM     33  H   LIG d   1       6.112  -1.806  -3.446  0.00  0.00     0.149 HD
BRANCH  32  34
ATOM     34  C   LIG d   1       4.583  -0.877  -2.303  0.00  0.00     0.023 A 
ATOM     35  C   LIG d   1       3.255  -0.918  -3.061  0.00  0.00    -0.033 A 
ATOM     36  C   LIG d   1       3.705  -2.129  -2.241  0.00  0.00    -0.033 A 
ATOM     37  H   LIG d   1       3.297  -1.003  -4.146  0.00  0.00     0.028 H 
ATOM     38  H   LIG d   1       2.432  -0.321  -2.668  0.00  0.00     0.028 H 
ATOM     39  H   LIG d   1       3.179  -2.328  -1.307  0.00  0.00     0.028 H 
ATOM     40  H   LIG d   1       4.043  -3.009  -2.787  0.00  0.00     0.028 H 
ATOM     41  H   LIG d   1       4.635  -0.254  -1.411  0.00  0.00     0.050 H 
ENDBRANCH  32  34
ENDBRANCH  24  30
ENDBRANCH  14  24
BRANCH  12  42
ATOM     42  O   LIG d   1       8.673   2.802  -3.899  0.00  0.00    -0.391 OA
ATOM     43  H   LIG d   1       8.220   2.281  -3.221  0.00  0.00     0.210 HD
ENDBRANCH  12  42
BRANCH   1  44
ATOM     44  C   LIG d   1       9.686   4.967  -4.849  0.00  0.00    -0.057 C 
ATOM     45  H   LIG d   1      10.022   5.989  -5.029  0.00  0.00     0.024 H 
ATOM     46  H   LIG d   1       8.622   4.972  -4.615  0.00  0.00     0.024 H 
ATOM     47  H   LIG d   1      10.241   4.546  -4.010  0.00  0.00     0.024 H 
ENDBRANCH   1  44
BRANCH   9  48
ATOM     48  C   LIG d   1      10.279   1.795  -7.767  0.00  0.00    -0.059 C 
ATOM     49  H   LIG d   1      10.718   2.077  -8.724  0.00  0.00     0.024 H 
ATOM     50  H   LIG d   1      10.917   2.149  -6.957  0.00  0.00     0.024 H 
ATOM     51  H   LIG d   1      10.191   0.710  -7.713  0.00  0.00     0.024 H 
ENDBRANCH   9  48
BRANCH   6  52
ATOM     52  N   LIG d   1      11.390   8.176  -8.553  0.00  0.00    -0.327 N 
ATOM     53  H   LIG d   1      11.107   8.943  -8.029  0.00  0.00     0.148 HD
BRANCH  52  54
ATOM     54  C   LIG d   1      12.486   8.311  -9.515  0.00  0.00    -0.001 C 
ATOM     55  H   LIG d   1      12.780   9.359  -9.587  0.00  0.00     0.043 H 
ATOM     56  H   LIG d   1      13.336   7.717  -9.183  0.00  0.00     0.043 H 
ATOM     57  H   LIG d   1      12.156   7.960 -10.493  0.00  0.00     0.043 H 
ENDBRANCH  52  54
ENDBRANCH   6  52
TORSDOF 9
ENDMDL
MODEL 6
REMARK VINA RESULT:      -5.1      4.268      8.372
REMARK  9 active torsions:
REMARK  status: ('A' for Active; 'I' for Inactive)
REMARK    1  A    between atoms: C_1  and  C_2 
REMARK    2  A    between atoms: C_7  and  N_9 
REMARK    3  A    between atoms: N_9  and  C_10 
REMARK    4  A    between atoms: C_12  and  C_31 
REMARK    5  A    between atoms: C_15  and  O_30 
REMARK    6  A    between atoms: C_17  and  C_21 
REMARK    7  A    between atoms: C_21  and  C_23 
REMARK    8  A    between atoms: C_21  and  C_24 
REMARK       I    between atoms: C_24  and  N_26 
REMARK    9  A    between atoms: N_26  and  C_27 
ROOT
ATOM      1  C   LIG d   1      10.107   7.017  -6.289  0.00  0.00     0.005 C 
ATOM      2  H   LIG d   1      11.179   7.214  -6.306  0.00  0.00     0.036 H 
ATOM      3  C   LIG d   1       9.705   6.289  -7.563  0.00  0.00     0.057 A 
ATOM      4  C   LIG d   1       9.499   4.948  -7.544  0.00  0.00     0.015 A 
ATOM      5  S   LIG d   1       9.066   4.598  -9.227  0.00  0.00    -0.057 SA
ATOM      6  C   LIG d   1       9.188   6.226  -9.823  0.00  0.00     0.158 A 
ATOM      7  N   LIG d   1       9.536   6.891  -8.739  0.00  0.00    -0.229 NA
ATOM      8  C   LIG d   1       9.612   4.026  -6.382  0.00  0.00    -0.014 C 
ATOM      9  C   LIG d   1      10.357   4.747  -5.240  0.00  0.00    -0.022 C 
ATOM     10  C   LIG d   1       9.767   6.149  -5.070  0.00  0.00    -0.001 C 
ATOM     11  H   LIG d   1       8.685   6.080  -4.962  0.00  0.00     0.034 H 
ATOM     12  C   LIG d   1      10.372   6.830  -3.839  0.00  0.00     0.063 C 
ATOM     13  H   LIG d   1      11.447   6.945  -3.981  0.00  0.00     0.060 H 
ATOM     14  C   LIG d   1      10.117   5.991  -2.588  0.00  0.00    -0.004 C 
ATOM     15  H   LIG d   1       9.043   5.863  -2.445  0.00  0.00     0.033 H 
ATOM     16  C   LIG d   1      10.778   4.622  -2.768  0.00  0.00    -0.047 C 
ATOM     17  C   LIG d   1      10.140   3.924  -3.967  0.00  0.00    -0.047 C 
ATOM     18  H   LIG d   1      10.169   3.136  -6.675  0.00  0.00     0.032 H 
ATOM     19  H   LIG d   1       8.616   3.741  -6.044  0.00  0.00     0.032 H 
ATOM     20  H   LIG d   1      11.846   4.752  -2.946  0.00  0.00     0.027 H 
ATOM     21  H   LIG d   1      10.625   4.021  -1.871  0.00  0.00     0.027 H 
ATOM     22  H   LIG d   1      10.591   2.939  -4.093  0.00  0.00     0.027 H 
ATOM     23  H   LIG d   1       9.071   3.807  -3.791  0.00  0.00     0.027 H 
ENDROOT
BRANCH  14  24
ATOM     24  C   LIG d   1      10.715   6.694  -1.367  0.00  0.00     0.038 C 
ATOM     25  H   LIG d   1      11.729   7.023  -1.599  0.00  0.00     0.040 H 
BRANCH  24  26
ATOM     26  C   LIG d   1      10.753   5.721  -0.188  0.00  0.00    -0.054 C 
ATOM     27  H   LIG d   1       9.735   5.442   0.086  0.00  0.00     0.024 H 
ATOM     28  H   LIG d   1      11.310   4.827  -0.470  0.00  0.00     0.024 H 
ATOM     29  H   LIG d   1      11.239   6.199   0.662  0.00  0.00     0.024 H 
ENDBRANCH  24  26
BRANCH  24  30
ATOM     30  C   LIG d   1       9.869   7.887  -1.009  0.00  0.00     0.216 C 
ATOM     31  O   LIG d   1       8.666   7.767  -0.904  0.00  0.00    -0.276 OA
ATOM     32  N   LIG d   1      10.447   9.086  -0.801  0.00  0.00    -0.312 N 
ATOM     33  H   LIG d   1      11.408   9.181  -0.884  0.00  0.00     0.149 HD
BRANCH  32  34
ATOM     34  C   LIG d   1       9.624  10.246  -0.452  0.00  0.00     0.023 A 
ATOM     35  C   LIG d   1      10.219  11.269   0.518  0.00  0.00    -0.033 A 
ATOM     36  C   LIG d   1      10.076  11.614  -0.966  0.00  0.00    -0.033 A 
ATOM     37  H   LIG d   1      11.223  11.079   0.896  0.00  0.00     0.028 H 
ATOM     38  H   LIG d   1       9.538  11.756   1.216  0.00  0.00     0.028 H 
ATOM     39  H   LIG d   1       9.301  12.330  -1.244  0.00  0.00     0.028 H 
ATOM     40  H   LIG d   1      10.986  11.652  -1.564  0.00  0.00     0.028 H 
ATOM     41  H   LIG d   1       8.551  10.061  -0.392  0.00  0.00     0.050 H 
ENDBRANCH  32  34
ENDBRANCH  24  30
ENDBRANCH  14  24
BRANCH  12  42
ATOM     42  O   LIG d   1       9.780   8.119  -3.672  0.00  0.00    -0.391 OA
ATOM     43  H   LIG d   1       9.780   8.438  -2.759  0.00  0.00     0.210 HD
ENDBRANCH  12  42
BRANCH   1  44
ATOM     44  C   LIG d   1       9.347   8.342  -6.198  0.00  0.00    -0.057 C 
ATOM     45  H   LIG d   1       9.856   9.095  -6.800  0.00  0.00     0.024 H 
ATOM     46  H   LIG d   1       8.332   8.206  -6.570  0.00  0.00     0.024 H 
ATOM     47  H   LIG d   1       9.312   8.671  -5.159  0.00  0.00     0.024 H 
ENDBRANCH   1  44
BRANCH   9  48
ATOM     48  C   LIG d   1      11.852   4.843  -5.553  0.00  0.00    -0.059 C 
ATOM     49  H   LIG d   1      12.004   4.754  -6.628  0.00  0.00     0.024 H 
ATOM     50  H   LIG d   1      12.233   5.804  -5.210  0.00  0.00     0.024 H 
ATOM     51  H   LIG d   1      12.381   4.038  -5.043  0.00  0.00     0.024 H 
ENDBRANCH   9  48
BRANCH   6  52
ATOM     52  N   LIG d   1       8.975   6.702 -11.107  0.00  0.00    -0.327 N 
ATOM     53  H   LIG d   1       8.574   7.576 -11.240  0.00  0.00     0.148 HD
BRANCH  52  54
ATOM     54  C   LIG d   1       9.356   5.887 -12.262  0.00  0.00    -0.001 C 
ATOM     55  H   LIG d   1      10.436   5.946 -12.408  0.00  0.00     0.043 H 
ATOM     56  H   LIG d   1       9.069   4.851 -12.087  0.00  0.00     0.043 H 
ATOM     57  H   LIG d   1       8.850   6.260 -13.152  0.00  0.00     0.043 H 
ENDBRANCH  52  54
ENDBRANCH   6  52
TORSDOF 9
ENDMDL
MODEL 7
REMARK VINA RESULT:      -5.1      2.622      3.151
REMARK  9 active torsions:
REMARK  status: ('A' for Active; 'I' for Inactive)
REMARK    1  A    between atoms: C_1  and  C_2 
REMARK    2  A    between atoms: C_7  and  N_9 
REMARK    3  A    between atoms: N_9  and  C_10 
REMARK    4  A    between atoms: C_12  and  C_31 
REMARK    5  A    between atoms: C_15  and  O_30 
REMARK    6  A    between atoms: C_17  and  C_21 
REMARK    7  A    between atoms: C_21  and  C_23 
REMARK    8  A    between atoms: C_21  and  C_24 
REMARK       I    between atoms: C_24  and  N_26 
REMARK    9  A    between atoms: N_26  and  C_27 
ROOT
ATOM      1  C   LIG d   1      10.399   6.930  -2.939  0.00  0.00     0.005 C 
ATOM      2  H   LIG d   1      11.456   6.665  -2.905  0.00  0.00     0.036 H 
ATOM      3  C   LIG d   1      10.256   8.390  -3.342  0.00  0.00     0.057 A 
ATOM      4  C   LIG d   1       9.918   8.714  -4.616  0.00  0.00     0.015 A 
ATOM      5  S   LIG d   1       9.885  10.486  -4.571  0.00  0.00    -0.057 SA
ATOM      6  C   LIG d   1      10.314  10.665  -2.897  0.00  0.00     0.158 A 
ATOM      7  N   LIG d   1      10.446   9.412  -2.510  0.00  0.00    -0.229 NA
ATOM      8  C   LIG d   1       9.646   7.788  -5.749  0.00  0.00    -0.014 C 
ATOM      9  C   LIG d   1      10.151   6.380  -5.378  0.00  0.00    -0.022 C 
ATOM     10  C   LIG d   1       9.681   6.040  -3.962  0.00  0.00    -0.001 C 
ATOM     11  H   LIG d   1       8.605   6.193  -3.888  0.00  0.00     0.034 H 
ATOM     12  C   LIG d   1      10.026   4.586  -3.626  0.00  0.00     0.063 C 
ATOM     13  H   LIG d   1      11.108   4.457  -3.649  0.00  0.00     0.060 H 
ATOM     14  C   LIG d   1       9.384   3.640  -4.640  0.00  0.00    -0.004 C 
ATOM     15  H   LIG d   1       8.301   3.772  -4.631  0.00  0.00     0.033 H 
ATOM     16  C   LIG d   1       9.929   3.966  -6.033  0.00  0.00    -0.047 C 
ATOM     17  C   LIG d   1       9.543   5.401  -6.387  0.00  0.00    -0.047 C 
ATOM     18  H   LIG d   1      10.166   8.139  -6.640  0.00  0.00     0.032 H 
ATOM     19  H   LIG d   1       8.574   7.753  -5.941  0.00  0.00     0.032 H 
ATOM     20  H   LIG d   1      11.015   3.868  -6.033  0.00  0.00     0.027 H 
ATOM     21  H   LIG d   1       9.498   3.280  -6.764  0.00  0.00     0.027 H 
ATOM     22  H   LIG d   1       9.910   5.637  -7.386  0.00  0.00     0.027 H 
ATOM     23  H   LIG d   1       8.457   5.497  -6.374  0.00  0.00     0.027 H 
ENDROOT
BRANCH  14  24
ATOM     24  C   LIG d   1       9.727   2.193  -4.280  0.00  0.00     0.038 C 
ATOM     25  H   LIG d   1      10.401   2.181  -3.423  0.00  0.00     0.040 H 
BRANCH  24  26
ATOM     26  C   LIG d   1      10.409   1.520  -5.473  0.00  0.00    -0.054 C 
ATOM     27  H   LIG d   1      11.491   1.571  -5.350  0.00  0.00     0.024 H 
ATOM     28  H   LIG d   1      10.100   0.476  -5.528  0.00  0.00     0.024 H 
ATOM     29  H   LIG d   1      10.124   2.033  -6.391  0.00  0.00     0.024 H 
ENDBRANCH  24  26
BRANCH  24  30
ATOM     30  C   LIG d   1       8.464   1.447  -3.937  0.00  0.00     0.216 C 
ATOM     31  O   LIG d   1       7.529   2.037  -3.437  0.00  0.00    -0.276 OA
ATOM     32  N   LIG d   1       8.371   0.126  -4.187  0.00  0.00    -0.312 N 
ATOM     33  H   LIG d   1       9.119  -0.345  -4.587  0.00  0.00     0.149 HD
BRANCH  32  34
ATOM     34  C   LIG d   1       7.143  -0.599  -3.854  0.00  0.00     0.023 A 
ATOM     35  C   LIG d   1       6.697  -1.709  -4.807  0.00  0.00    -0.033 A 
ATOM     36  C   LIG d   1       7.279  -2.064  -3.437  0.00  0.00    -0.033 A 
ATOM     37  H   LIG d   1       7.317  -1.900  -5.682  0.00  0.00     0.028 H 
ATOM     38  H   LIG d   1       5.625  -1.849  -4.951  0.00  0.00     0.028 H 
ATOM     39  H   LIG d   1       6.589  -2.439  -2.679  0.00  0.00     0.028 H 
ATOM     40  H   LIG d   1       8.282  -2.490  -3.412  0.00  0.00     0.028 H 
ATOM     41  H   LIG d   1       6.366  -0.008  -3.369  0.00  0.00     0.050 H 
ENDBRANCH  32  34
ENDBRANCH  24  30
ENDBRANCH  14  24
BRANCH  12  42
ATOM     42  O   LIG d   1       9.543   4.275  -2.318  0.00  0.00    -0.391 OA
ATOM     43  H   LIG d   1       8.579   4.296  -2.239  0.00  0.00     0.210 HD
ENDBRANCH  12  42
BRANCH   1  44
ATOM     44  C   LIG d   1       9.777   6.721  -1.557  0.00  0.00    -0.057 C 
ATOM     45  H   LIG d   1      10.514   6.272  -0.891  0.00  0.00     0.024 H 
ATOM     46  H   LIG d   1       9.460   7.681  -1.151  0.00  0.00     0.024 H 
ATOM     47  H   LIG d   1       8.914   6.060  -1.642  0.00  0.00     0.024 H 
ENDBRANCH   1  44
BRANCH   9  48
ATOM     48  C   LIG d   1      11.679   6.323  -5.450  0.00  0.00    -0.059 C 
ATOM     49  H   LIG d   1      12.031   7.001  -6.227  0.00  0.00     0.024 H 
ATOM     50  H   LIG d   1      12.098   6.621  -4.490  0.00  0.00     0.024 H 
ATOM     51  H   LIG d   1      11.993   5.306  -5.685  0.00  0.00     0.024 H 
ENDBRANCH   9  48
BRANCH   6  52
ATOM     52  N   LIG d   1      10.476  11.827  -2.158  0.00  0.00    -0.327 N 
ATOM     53  H   LIG d   1      10.808  11.781  -1.247  0.00  0.00     0.148 HD
BRANCH  52  54
ATOM     54  C   LIG d   1      10.147  13.124  -2.753  0.00  0.00    -0.001 C 
ATOM     55  H   LIG d   1       9.153  13.431  -2.427  0.00  0.00     0.043 H 
ATOM     56  H   LIG d   1      10.879  13.866  -2.434  0.00  0.00     0.043 H 
ATOM     57  H   LIG d   1      10.164  13.040  -3.839  0.00  0.00     0.043 H 
ENDBRANCH  52  54
ENDBRANCH   6  52
TORSDOF 9
ENDMDL
MODEL 8
REMARK VINA RESULT:      -5.1      4.318      6.623
REMARK  9 active torsions:
REMARK  status: ('A' for Active; 'I' for Inactive)
REMARK    1  A    between atoms: C_1  and  C_2 
REMARK    2  A    between atoms: C_7  and  N_9 
REMARK    3  A    between atoms: N_9  and  C_10 
REMARK    4  A    between atoms: C_12  and  C_31 
REMARK    5  A    between atoms: C_15  and  O_30 
REMARK    6  A    between atoms: C_17  and  C_21 
REMARK    7  A    between atoms: C_21  and  C_23 
REMARK    8  A    between atoms: C_21  and  C_24 
REMARK       I    between atoms: C_24  and  N_26 
REMARK    9  A    between atoms: N_26  and  C_27 
ROOT
ATOM      1  C   LIG d   1       8.850   1.715  -4.665  0.00  0.00     0.005 C 
ATOM      2  H   LIG d   1       9.494   0.846  -4.796  0.00  0.00     0.036 H 
ATOM      3  C   LIG d   1       9.675   2.883  -4.149  0.00  0.00     0.057 A 
ATOM      4  C   LIG d   1      10.071   3.865  -4.999  0.00  0.00     0.015 A 
ATOM      5  S   LIG d   1      10.979   4.956  -3.937  0.00  0.00    -0.057 SA
ATOM      6  C   LIG d   1      10.771   4.049  -2.469  0.00  0.00     0.158 A 
ATOM      7  N   LIG d   1      10.054   3.022  -2.879  0.00  0.00    -0.229 NA
ATOM      8  C   LIG d   1       9.794   3.972  -6.457  0.00  0.00    -0.014 C 
ATOM      9  C   LIG d   1       9.283   2.612  -6.972  0.00  0.00    -0.022 C 
ATOM     10  C   LIG d   1       8.214   2.087  -6.011  0.00  0.00    -0.001 C 
ATOM     11  H   LIG d   1       7.454   2.853  -5.856  0.00  0.00     0.034 H 
ATOM     12  C   LIG d   1       7.569   0.819  -6.580  0.00  0.00     0.063 C 
ATOM     13  H   LIG d   1       8.327   0.043  -6.679  0.00  0.00     0.060 H 
ATOM     14  C   LIG d   1       6.958   1.104  -7.950  0.00  0.00    -0.004 C 
ATOM     15  H   LIG d   1       6.206   1.889  -7.861  0.00  0.00     0.033 H 
ATOM     16  C   LIG d   1       8.067   1.561  -8.901  0.00  0.00    -0.047 C 
ATOM     17  C   LIG d   1       8.677   2.852  -8.358  0.00  0.00    -0.047 C 
ATOM     18  H   LIG d   1      10.711   4.240  -6.983  0.00  0.00     0.032 H 
ATOM     19  H   LIG d   1       9.036   4.736  -6.629  0.00  0.00     0.032 H 
ATOM     20  H   LIG d   1       8.836   0.791  -8.963  0.00  0.00     0.027 H 
ATOM     21  H   LIG d   1       7.648   1.743  -9.891  0.00  0.00     0.027 H 
ATOM     22  H   LIG d   1       9.456   3.197  -9.038  0.00  0.00     0.027 H 
ATOM     23  H   LIG d   1       7.902   3.615  -8.286  0.00  0.00     0.027 H 
ENDROOT
BRANCH  14  24
ATOM     24  C   LIG d   1       6.306  -0.169  -8.496  0.00  0.00     0.038 C 
ATOM     25  H   LIG d   1       6.653  -1.029  -7.922  0.00  0.00     0.040 H 
BRANCH  24  26
ATOM     26  C   LIG d   1       6.692  -0.349  -9.965  0.00  0.00    -0.054 C 
ATOM     27  H   LIG d   1       7.776  -0.437 -10.049  0.00  0.00     0.024 H 
ATOM     28  H   LIG d   1       6.224  -1.252 -10.357  0.00  0.00     0.024 H 
ATOM     29  H   LIG d   1       6.354   0.515 -10.538  0.00  0.00     0.024 H 
ENDBRANCH  24  26
BRANCH  24  30
ATOM     30  C   LIG d   1       4.809  -0.057  -8.379  0.00  0.00     0.216 C 
ATOM     31  O   LIG d   1       4.317   0.819  -7.700  0.00  0.00    -0.276 OA
ATOM     32  N   LIG d   1       4.014  -0.930  -9.031  0.00  0.00    -0.312 N 
ATOM     33  H   LIG d   1       4.408  -1.630  -9.574  0.00  0.00     0.149 HD
BRANCH  32  34
ATOM     34  C   LIG d   1       2.558  -0.821  -8.918  0.00  0.00     0.023 A 
ATOM     35  C   LIG d   1       1.803  -0.201 -10.095  0.00  0.00    -0.033 A 
ATOM     36  C   LIG d   1       1.710  -1.705  -9.834  0.00  0.00    -0.033 A 
ATOM     37  H   LIG d   1       2.389   0.126 -10.953  0.00  0.00     0.028 H 
ATOM     38  H   LIG d   1       0.925   0.405  -9.867  0.00  0.00     0.028 H 
ATOM     39  H   LIG d   1       0.771  -2.090  -9.435  0.00  0.00     0.028 H 
ATOM     40  H   LIG d   1       2.236  -2.368 -10.521  0.00  0.00     0.028 H 
ATOM     41  H   LIG d   1       2.178  -0.624  -7.916  0.00  0.00     0.050 H 
ENDBRANCH  32  34
ENDBRANCH  24  30
ENDBRANCH  14  24
BRANCH  12  42
ATOM     42  O   LIG d   1       6.547   0.368  -5.690  0.00  0.00    -0.391 OA
ATOM     43  H   LIG d   1       6.570   0.787  -4.819  0.00  0.00     0.210 HD
ENDBRANCH  12  42
BRANCH   1  44
ATOM     44  C   LIG d   1       7.748   1.384  -3.655  0.00  0.00    -0.057 C 
ATOM     45  H   LIG d   1       7.530   0.317  -3.692  0.00  0.00     0.024 H 
ATOM     46  H   LIG d   1       8.081   1.652  -2.653  0.00  0.00     0.024 H 
ATOM     47  H   LIG d   1       6.848   1.948  -3.901  0.00  0.00     0.024 H 
ENDBRANCH   1  44
BRANCH   9  48
ATOM     48  C   LIG d   1      10.435   1.610  -7.071  0.00  0.00    -0.059 C 
ATOM     49  H   LIG d   1      10.201   0.727  -6.476  0.00  0.00     0.024 H 
ATOM     50  H   LIG d   1      10.575   1.319  -8.112  0.00  0.00     0.024 H 
ATOM     51  H   LIG d   1      11.349   2.070  -6.695  0.00  0.00     0.024 H 
ENDBRANCH   9  48
BRANCH   6  52
ATOM     52  N   LIG d   1      11.239   4.332  -1.196  0.00  0.00    -0.327 N 
ATOM     53  H   LIG d   1      11.713   3.653  -0.691  0.00  0.00     0.148 HD
BRANCH  52  54
ATOM     54  C   LIG d   1      11.019   5.657  -0.613  0.00  0.00    -0.001 C 
ATOM     55  H   LIG d   1      10.207   5.605   0.113  0.00  0.00     0.043 H 
ATOM     56  H   LIG d   1      11.929   5.992  -0.117  0.00  0.00     0.043 H 
ATOM     57  H   LIG d   1      10.754   6.361  -1.402  0.00  0.00     0.043 H 
ENDBRANCH  52  54
ENDBRANCH   6  52
TORSDOF 9
ENDMDL
MODEL 9
REMARK VINA RESULT:      -5.1      8.542     10.211
REMARK  9 active torsions:
REMARK  status: ('A' for Active; 'I' for Inactive)
REMARK    1  A    between atoms: C_1  and  C_2 
REMARK    2  A    between atoms: C_7  and  N_9 
REMARK    3  A    between atoms: N_9  and  C_10 
REMARK    4  A    between atoms: C_12  and  C_31 
REMARK    5  A    between atoms: C_15  and  O_30 
REMARK    6  A    between atoms: C_17  and  C_21 
REMARK    7  A    between atoms: C_21  and  C_23 
REMARK    8  A    between atoms: C_21  and  C_24 
REMARK       I    between atoms: C_24  and  N_26 
REMARK    9  A    between atoms: N_26  and  C_27 
ROOT
ATOM      1  C   LIG d   1       8.493  -1.000  -5.148  0.00  0.00     0.005 C 
ATOM      2  H   LIG d   1       8.458  -0.374  -4.256  0.00  0.00     0.036 H 
ATOM      3  C   LIG d   1       9.500  -2.121  -4.942  0.00  0.00     0.057 A 
ATOM      4  C   LIG d   1       9.072  -3.370  -4.628  0.00  0.00     0.015 A 
ATOM      5  S   LIG d   1      10.589  -4.278  -4.496  0.00  0.00    -0.057 SA
ATOM      6  C   LIG d   1      11.661  -2.959  -4.861  0.00  0.00     0.158 A 
ATOM      7  N   LIG d   1      10.818  -1.964  -5.048  0.00  0.00    -0.229 NA
ATOM      8  C   LIG d   1       7.670  -3.834  -4.448  0.00  0.00    -0.014 C 
ATOM      9  C   LIG d   1       6.749  -2.605  -4.314  0.00  0.00    -0.022 C 
ATOM     10  C   LIG d   1       7.103  -1.596  -5.409  0.00  0.00    -0.001 C 
ATOM     11  H   LIG d   1       7.095  -2.092  -6.379  0.00  0.00     0.034 H 
ATOM     12  C   LIG d   1       6.099  -0.439  -5.405  0.00  0.00     0.063 C 
ATOM     13  H   LIG d   1       6.155   0.084  -4.451  0.00  0.00     0.060 H 
ATOM     14  C   LIG d   1       4.680  -0.966  -5.608  0.00  0.00    -0.004 C 
ATOM     15  H   LIG d   1       4.620  -1.501  -6.557  0.00  0.00     0.033 H 
ATOM     16  C   LIG d   1       4.338  -1.918  -4.459  0.00  0.00    -0.047 C 
ATOM     17  C   LIG d   1       5.309  -3.096  -4.493  0.00  0.00    -0.047 C 
ATOM     18  H   LIG d   1       7.600  -4.442  -3.547  0.00  0.00     0.032 H 
ATOM     19  H   LIG d   1       7.368  -4.424  -5.313  0.00  0.00     0.032 H 
ATOM     20  H   LIG d   1       4.433  -1.393  -3.508  0.00  0.00     0.027 H 
ATOM     21  H   LIG d   1       3.317  -2.283  -4.578  0.00  0.00     0.027 H 
ATOM     22  H   LIG d   1       5.063  -3.791  -3.689  0.00  0.00     0.027 H 
ATOM     23  H   LIG d   1       5.220  -3.611  -5.449  0.00  0.00     0.027 H 
ENDROOT
BRANCH  14  24
ATOM     24  C   LIG d   1       3.694   0.204  -5.616  0.00  0.00     0.038 C 
ATOM     25  H   LIG d   1       4.211   1.117  -5.320  0.00  0.00     0.040 H 
BRANCH  24  26
ATOM     26  C   LIG d   1       2.558  -0.081  -4.632  0.00  0.00    -0.054 C 
ATOM     27  H   LIG d   1       1.687  -0.445  -5.177  0.00  0.00     0.024 H 
ATOM     28  H   LIG d   1       2.879  -0.836  -3.914  0.00  0.00     0.024 H 
ATOM     29  H   LIG d   1       2.298   0.836  -4.104  0.00  0.00     0.024 H 
ENDBRANCH  24  26
BRANCH  24  30
ATOM     30  C   LIG d   1       3.128   0.374  -7.002  0.00  0.00     0.216 C 
ATOM     31  O   LIG d   1       2.043  -0.095  -7.275  0.00  0.00    -0.276 OA
ATOM     32  N   LIG d   1       3.825   1.050  -7.937  0.00  0.00    -0.312 N 
ATOM     33  H   LIG d   1       4.691   1.425  -7.718  0.00  0.00     0.149 HD
BRANCH  32  34
ATOM     34  C   LIG d   1       3.273   1.216  -9.284  0.00  0.00     0.023 A 
ATOM     35  C   LIG d   1       3.543   2.541  -9.999  0.00  0.00    -0.033 A 
ATOM     36  C   LIG d   1       4.262   1.268 -10.450  0.00  0.00    -0.033 A 
ATOM     37  H   LIG d   1       4.131   3.289  -9.468  0.00  0.00     0.028 H 
ATOM     38  H   LIG d   1       2.759   2.933 -10.646  0.00  0.00     0.028 H 
ATOM     39  H   LIG d   1       3.950   0.822 -11.395  0.00  0.00     0.028 H 
ATOM     40  H   LIG d   1       5.323   1.179 -10.216  0.00  0.00     0.028 H 
ATOM     41  H   LIG d   1       2.312   0.735  -9.461  0.00  0.00     0.050 H 
ENDBRANCH  32  34
ENDBRANCH  24  30
ENDBRANCH  14  24
BRANCH  12  42
ATOM     42  O   LIG d   1       6.421   0.470  -6.459  0.00  0.00    -0.391 OA
ATOM     43  H   LIG d   1       6.741   0.041  -7.265  0.00  0.00     0.210 HD
ENDBRANCH  12  42
BRANCH   1  44
ATOM     44  C   LIG d   1       8.916  -0.150  -6.349  0.00  0.00    -0.057 C 
ATOM     45  H   LIG d   1       9.978   0.082  -6.274  0.00  0.00     0.024 H 
ATOM     46  H   LIG d   1       8.729  -0.703  -7.269  0.00  0.00     0.024 H 
ATOM     47  H   LIG d   1       8.341   0.777  -6.359  0.00  0.00     0.024 H 
ENDBRANCH   1  44
BRANCH   9  48
ATOM     48  C   LIG d   1       6.914  -1.960  -2.936  0.00  0.00    -0.059 C 
ATOM     49  H   LIG d   1       7.639  -1.150  -2.998  0.00  0.00     0.024 H 
ATOM     50  H   LIG d   1       5.955  -1.565  -2.603  0.00  0.00     0.024 H 
ATOM     51  H   LIG d   1       7.265  -2.709  -2.225  0.00  0.00     0.024 H 
ENDBRANCH   9  48
BRANCH   6  52
ATOM     52  N   LIG d   1      13.045  -2.956  -4.935  0.00  0.00    -0.327 N 
ATOM     53  H   LIG d   1      13.569  -3.393  -4.245  0.00  0.00     0.148 HD
BRANCH  52  54
ATOM     54  C   LIG d   1      13.716  -2.292  -6.054  0.00  0.00    -0.001 C 
ATOM     55  H   LIG d   1      14.614  -2.850  -6.323  0.00  0.00     0.043 H 
ATOM     56  H   LIG d   1      13.043  -2.253  -6.910  0.00  0.00     0.043 H 
ATOM     57  H   LIG d   1      13.992  -1.279  -5.762  0.00  0.00     0.043 H 
ENDBRANCH  52  54
ENDBRANCH   6  52
TORSDOF 9
ENDMDL
MODEL 10
REMARK VINA RESULT:      -4.9      4.138      5.153
REMARK  9 active torsions:
REMARK  status: ('A' for Active; 'I' for Inactive)
REMARK    1  A    between atoms: C_1  and  C_2 
REMARK    2  A    between atoms: C_7  and  N_9 
REMARK    3  A    between atoms: N_9  and  C_10 
REMARK    4  A    between atoms: C_12  and  C_31 
REMARK    5  A    between atoms: C_15  and  O_30 
REMARK    6  A    between atoms: C_17  and  C_21 
REMARK    7  A    between atoms: C_21  and  C_23 
REMARK    8  A    between atoms: C_21  and  C_24 
REMARK       I    between atoms: C_24  and  N_26 
REMARK    9  A    between atoms: N_26  and  C_27 
ROOT
ATOM      1  C   LIG d   1      12.923   2.193  -4.121  0.00  0.00     0.005 C 
ATOM      2  H   LIG d   1      12.951   2.315  -5.204  0.00  0.00     0.036 H 
ATOM      3  C   LIG d   1      13.814   3.239  -3.470  0.00  0.00     0.057 A 
ATOM      4  C   LIG d   1      13.264   4.347  -2.910  0.00  0.00     0.015 A 
ATOM      5  S   LIG d   1      14.684   5.223  -2.309  0.00  0.00    -0.057 SA
ATOM      6  C   LIG d   1      15.881   4.078  -2.834  0.00  0.00     0.158 A 
ATOM      7  N   LIG d   1      15.141   3.149  -3.406  0.00  0.00    -0.229 NA
ATOM      8  C   LIG d   1      11.823   4.709  -2.833  0.00  0.00    -0.014 C 
ATOM      9  C   LIG d   1      11.029   3.814  -3.806  0.00  0.00    -0.022 C 
ATOM     10  C   LIG d   1      11.480   2.362  -3.626  0.00  0.00    -0.001 C 
ATOM     11  H   LIG d   1      11.421   2.089  -2.573  0.00  0.00     0.034 H 
ATOM     12  C   LIG d   1      10.597   1.428  -4.458  0.00  0.00     0.063 C 
ATOM     13  H   LIG d   1      10.706   1.674  -5.514  0.00  0.00     0.060 H 
ATOM     14  C   LIG d   1       9.132   1.582  -4.054  0.00  0.00    -0.004 C 
ATOM     15  H   LIG d   1       9.017   1.349  -2.994  0.00  0.00     0.033 H 
ATOM     16  C   LIG d   1       8.698   3.028  -4.310  0.00  0.00    -0.047 C 
ATOM     17  C   LIG d   1       9.548   3.956  -3.444  0.00  0.00    -0.047 C 
ATOM     18  H   LIG d   1      11.694   5.754  -3.113  0.00  0.00     0.032 H 
ATOM     19  H   LIG d   1      11.462   4.554  -1.817  0.00  0.00     0.032 H 
ATOM     20  H   LIG d   1       8.846   3.273  -5.362  0.00  0.00     0.027 H 
ATOM     21  H   LIG d   1       7.646   3.146  -4.049  0.00  0.00     0.027 H 
ATOM     22  H   LIG d   1       9.234   4.988  -3.605  0.00  0.00     0.027 H 
ATOM     23  H   LIG d   1       9.406   3.700  -2.393  0.00  0.00     0.027 H 
ENDROOT
BRANCH  14  24
ATOM     24  C   LIG d   1       8.267   0.632  -4.884  0.00  0.00     0.038 C 
ATOM     25  H   LIG d   1       8.868  -0.220  -5.204  0.00  0.00     0.040 H 
BRANCH  24  26
ATOM     26  C   LIG d   1       7.736   1.371  -6.114  0.00  0.00    -0.054 C 
ATOM     27  H   LIG d   1       6.646   1.388  -6.086  0.00  0.00     0.024 H 
ATOM     28  H   LIG d   1       8.114   2.393  -6.117  0.00  0.00     0.024 H 
ATOM     29  H   LIG d   1       8.067   0.857  -7.017  0.00  0.00     0.024 H 
ENDBRANCH  24  26
BRANCH  24  30
ATOM     30  C   LIG d   1       7.110   0.147  -4.051  0.00  0.00     0.216 C 
ATOM     31  O   LIG d   1       7.198  -0.899  -3.442  0.00  0.00    -0.276 OA
ATOM     32  N   LIG d   1       5.978   0.875  -3.979  0.00  0.00    -0.312 N 
ATOM     33  H   LIG d   1       5.908   1.711  -4.466  0.00  0.00     0.149 HD
BRANCH  32  34
ATOM     34  C   LIG d   1       4.853   0.403  -3.168  0.00  0.00     0.023 A 
ATOM     35  C   LIG d   1       4.723   0.959  -1.749  0.00  0.00    -0.033 A 
ATOM     36  C   LIG d   1       3.749   1.409  -2.839  0.00  0.00    -0.033 A 
ATOM     37  H   LIG d   1       5.475   1.675  -1.419  0.00  0.00     0.028 H 
ATOM     38  H   LIG d   1       4.343   0.288  -0.978  0.00  0.00     0.028 H 
ATOM     39  H   LIG d   1       2.726   1.035  -2.785  0.00  0.00     0.028 H 
ATOM     40  H   LIG d   1       3.859   2.422  -3.225  0.00  0.00     0.028 H 
ATOM     41  H   LIG d   1       4.557  -0.633  -3.332  0.00  0.00     0.050 H 
ENDBRANCH  32  34
ENDBRANCH  24  30
ENDBRANCH  14  24
BRANCH  12  42
ATOM     42  O   LIG d   1      11.006   0.076  -4.246  0.00  0.00    -0.391 OA
ATOM     43  H   LIG d   1      11.845  -0.152  -4.669  0.00  0.00     0.210 HD
ENDBRANCH  12  42
BRANCH   1  44
ATOM     44  C   LIG d   1      13.426   0.795  -3.753  0.00  0.00    -0.057 C 
ATOM     45  H   LIG d   1      12.688   0.296  -3.126  0.00  0.00     0.024 H 
ATOM     46  H   LIG d   1      13.583   0.214  -4.662  0.00  0.00     0.024 H 
ATOM     47  H   LIG d   1      14.367   0.879  -3.209  0.00  0.00     0.024 H 
ENDBRANCH   1  44
BRANCH   9  48
ATOM     48  C   LIG d   1      11.259   4.258  -5.251  0.00  0.00    -0.059 C 
ATOM     49  H   LIG d   1      11.893   5.144  -5.263  0.00  0.00     0.024 H 
ATOM     50  H   LIG d   1      11.747   3.456  -5.804  0.00  0.00     0.024 H 
ATOM     51  H   LIG d   1      10.301   4.490  -5.716  0.00  0.00     0.024 H 
ENDBRANCH   9  48
BRANCH   6  52
ATOM     52  N   LIG d   1      17.258   4.128  -2.688  0.00  0.00    -0.327 N 
ATOM     53  H   LIG d   1      17.729   4.966  -2.816  0.00  0.00     0.148 HD
BRANCH  52  54
ATOM     54  C   LIG d   1      18.002   2.915  -2.341  0.00  0.00    -0.001 C 
ATOM     55  H   LIG d   1      17.848   2.683  -1.287  0.00  0.00     0.043 H 
ATOM     56  H   LIG d   1      17.647   2.084  -2.951  0.00  0.00     0.043 H 
ATOM     57  H   LIG d   1      19.064   3.075  -2.526  0.00  0.00     0.043 H 
ENDBRANCH  52  54
ENDBRANCH   6  52
TORSDOF 9
ENDMDL
