MODEL 1
REMARK VINA RESULT:      -6.1      0.000      0.000
REMARK  8 active torsions:
REMARK  status: ('A' for Active; 'I' for Inactive)
REMARK    1  A    between atoms: C_1  and  O_2 
REMARK    2  A    between atoms: O_2  and  C_3 
REMARK    3  A    between atoms: C_7  and  C_9 
REMARK       I    between atoms: N_19  and  C_20 
REMARK       I    between atoms: C_20  and  N_22 
REMARK    4  A    between atoms: N_22  and  C_23 
REMARK    5  A    between atoms: C_23  and  C_24 
REMARK    6  A    between atoms: C_24  and  C_25 
REMARK    7  A    between atoms: C_25  and  O_27 
REMARK    8  A    between atoms: O_27  and  C_28 
ROOT
ATOM      1  C   LIG d   1       4.302  -0.860  -7.803  0.00  0.00     0.118 C 
ATOM      2  H   LIG d   1       5.263  -1.371  -7.754  0.00  0.00     0.064 H 
ATOM      3  C   LIG d   1       4.454   0.453  -8.529  0.00  0.00     0.170 A 
ATOM      4  C   LIG d   1       3.652   0.859  -9.537  0.00  0.00     0.148 A 
ATOM      5  N   LIG d   1       4.075   2.063  -9.936  0.00  0.00    -0.247 N 
ATOM      6  C   LIG d   1       5.108   2.416  -9.217  0.00  0.00     0.243 A 
ATOM      7  N   LIG d   1       5.376   1.433  -8.327  0.00  0.00    -0.245 N 
ATOM      8  H   LIG d   1       6.088   1.428  -7.669  0.00  0.00     0.310 HD
ATOM      9  C   LIG d   1       2.499   0.055 -10.085  0.00  0.00     0.029 C 
ATOM     10  C   LIG d   1       2.117  -1.022  -9.062  0.00  0.00     0.025 C 
ATOM     11  N   LIG d   1       3.339  -1.675  -8.565  0.00  0.00    -0.271 N 
ATOM     12  C   LIG d   1       3.572  -2.980  -8.802  0.00  0.00     0.303 C 
ATOM     13  O   LIG d   1       2.817  -3.614  -9.512  0.00  0.00    -0.253 OA
ATOM     14  N   LIG d   1       4.643  -3.584  -8.249  0.00  0.00    -0.299 N 
ATOM     15  H   LIG d   1       5.657   3.341  -9.318  0.00  0.00     0.158 H 
ATOM     16  H   LIG d   1       1.648   0.712 -10.261  0.00  0.00     0.036 H 
ATOM     17  H   LIG d   1       2.797  -0.418 -11.021  0.00  0.00     0.036 H 
ATOM     18  H   LIG d   1       1.585  -0.560  -8.230  0.00  0.00     0.047 H 
ATOM     19  H   LIG d   1       1.476  -1.763  -9.538  0.00  0.00     0.047 H 
ATOM     20  H   LIG d   1       5.203  -3.101  -7.622  0.00  0.00     0.150 HD
ATOM     21  H   LIG d   1       3.677   2.591 -10.646  0.00  0.00     0.310 HD
ENDROOT
BRANCH   1  22
ATOM     22  C   LIG d   1       3.780  -0.617  -6.410  0.00  0.00    -0.015 A 
ATOM     23  C   LIG d   1       2.833   0.367  -6.190  0.00  0.00    -0.056 A 
ATOM     24  C   LIG d   1       2.351   0.592  -4.913  0.00  0.00    -0.058 A 
ATOM     25  H   LIG d   1       2.468   0.958  -7.016  0.00  0.00     0.062 H 
ATOM     26  C   LIG d   1       2.815  -0.164  -3.855  0.00  0.00    -0.020 A 
ATOM     27  H   LIG d   1       1.611   1.360  -4.744  0.00  0.00     0.062 H 
ATOM     28  C   LIG d   1       3.766  -1.150  -4.073  0.00  0.00     0.120 A 
ATOM     29  H   LIG d   1       2.440   0.012  -2.858  0.00  0.00     0.065 H 
ATOM     30  C   LIG d   1       4.252  -1.372  -5.354  0.00  0.00    -0.015 A 
ATOM     31  H   LIG d   1       4.995  -2.136  -5.526  0.00  0.00     0.066 H 
BRANCH  28  32
ATOM     32  O   LIG d   1       4.225  -1.896  -3.033  0.00  0.00    -0.495 OA
BRANCH  32  33
ATOM     33  C   LIG d   1       4.463  -1.213  -1.801  0.00  0.00     0.079 C 
ATOM     34  H   LIG d   1       4.825  -0.206  -2.009  0.00  0.00     0.066 H 
ATOM     35  H   LIG d   1       3.535  -1.155  -1.232  0.00  0.00     0.066 H 
ATOM     36  H   LIG d   1       5.211  -1.756  -1.223  0.00  0.00     0.066 H 
ENDBRANCH  32  33
ENDBRANCH  28  32
ENDBRANCH   1  22
BRANCH  14  37
ATOM     37  C   LIG d   1       4.961  -4.972  -8.595  0.00  0.00     0.023 C 
ATOM     38  H   LIG d   1       4.084  -5.446  -9.038  0.00  0.00     0.047 H 
ATOM     39  H   LIG d   1       5.783  -4.989  -9.310  0.00  0.00     0.047 H 
BRANCH  37  40
ATOM     40  C   LIG d   1       5.367  -5.733  -7.330  0.00  0.00     0.060 C 
ATOM     41  H   LIG d   1       5.173  -6.796  -7.470  0.00  0.00     0.039 H 
ATOM     42  H   LIG d   1       6.428  -5.578  -7.138  0.00  0.00     0.039 H 
BRANCH  40  43
ATOM     43  C   LIG d   1       4.564  -5.225  -6.160  0.00  0.00     0.308 C 
ATOM     44  O   LIG d   1       3.364  -5.365  -6.144  0.00  0.00    -0.251 OA
BRANCH  43  45
ATOM     45  O   LIG d   1       5.184  -4.617  -5.136  0.00  0.00    -0.468 OA
BRANCH  45  46
ATOM     46  C   LIG d   1       6.579  -4.350  -5.291  0.00  0.00     0.082 C 
ATOM     47  H   LIG d   1       7.138  -5.284  -5.220  0.00  0.00     0.066 H 
ATOM     48  H   LIG d   1       6.757  -3.893  -6.264  0.00  0.00     0.066 H 
ATOM     49  H   LIG d   1       6.909  -3.669  -4.506  0.00  0.00     0.066 H 
ENDBRANCH  45  46
ENDBRANCH  43  45
ENDBRANCH  40  43
ENDBRANCH  37  40
ENDBRANCH  14  37
TORSDOF 8
ENDMDL
MODEL 2
REMARK VINA RESULT:      -5.9      2.789      5.960
REMARK  8 active torsions:
REMARK  status: ('A' for Active; 'I' for Inactive)
REMARK    1  A    between atoms: C_1  and  O_2 
REMARK    2  A    between atoms: O_2  and  C_3 
REMARK    3  A    between atoms: C_7  and  C_9 
REMARK       I    between atoms: N_19  and  C_20 
REMARK       I    between atoms: C_20  and  N_22 
REMARK    4  A    between atoms: N_22  and  C_23 
REMARK    5  A    between atoms: C_23  and  C_24 
REMARK    6  A    between atoms: C_24  and  C_25 
REMARK    7  A    between atoms: C_25  and  O_27 
REMARK    8  A    between atoms: O_27  and  C_28 
ROOT
ATOM      1  C   LIG d   1       5.121  -1.296  -6.327  0.00  0.00     0.118 C 
ATOM      2  H   LIG d   1       5.384  -0.724  -7.216  0.00  0.00     0.064 H 
ATOM      3  C   LIG d   1       6.325  -1.431  -5.429  0.00  0.00     0.170 A 
ATOM      4  C   LIG d   1       6.317  -1.165  -4.104  0.00  0.00     0.148 A 
ATOM      5  N   LIG d   1       7.546  -1.397  -3.633  0.00  0.00    -0.247 N 
ATOM      6  C   LIG d   1       8.315  -1.792  -4.615  0.00  0.00     0.243 A 
ATOM      7  N   LIG d   1       7.586  -1.825  -5.754  0.00  0.00    -0.245 N 
ATOM      8  H   LIG d   1       7.902  -2.081  -6.634  0.00  0.00     0.310 HD
ATOM      9  C   LIG d   1       5.108  -0.687  -3.340  0.00  0.00     0.029 C 
ATOM     10  C   LIG d   1       3.850  -0.985  -4.164  0.00  0.00     0.025 C 
ATOM     11  N   LIG d   1       4.080  -0.586  -5.563  0.00  0.00    -0.271 N 
ATOM     12  C   LIG d   1       3.362   0.404  -6.128  0.00  0.00     0.303 C 
ATOM     13  O   LIG d   1       2.575   1.044  -5.457  0.00  0.00    -0.253 OA
ATOM     14  N   LIG d   1       3.514   0.684  -7.437  0.00  0.00    -0.299 N 
ATOM     15  H   LIG d   1       9.361  -2.050  -4.528  0.00  0.00     0.158 H 
ATOM     16  H   LIG d   1       5.052  -1.208  -2.384  0.00  0.00     0.036 H 
ATOM     17  H   LIG d   1       5.187   0.387  -3.168  0.00  0.00     0.036 H 
ATOM     18  H   LIG d   1       3.632  -2.053  -4.121  0.00  0.00     0.047 H 
ATOM     19  H   LIG d   1       3.009  -0.424  -3.759  0.00  0.00     0.047 H 
ATOM     20  H   LIG d   1       4.083   0.126  -7.989  0.00  0.00     0.150 HD
ATOM     21  H   LIG d   1       7.823  -1.288  -2.710  0.00  0.00     0.310 HD
ENDROOT
BRANCH   1  22
ATOM     22  C   LIG d   1       4.623  -2.662  -6.725  0.00  0.00    -0.015 A 
ATOM     23  C   LIG d   1       4.145  -2.877  -8.005  0.00  0.00    -0.056 A 
ATOM     24  C   LIG d   1       3.688  -4.129  -8.373  0.00  0.00    -0.058 A 
ATOM     25  H   LIG d   1       4.131  -2.066  -8.718  0.00  0.00     0.062 H 
ATOM     26  C   LIG d   1       3.706  -5.167  -7.463  0.00  0.00    -0.020 A 
ATOM     27  H   LIG d   1       3.317  -4.295  -9.373  0.00  0.00     0.062 H 
ATOM     28  C   LIG d   1       4.183  -4.954  -6.178  0.00  0.00     0.120 A 
ATOM     29  H   LIG d   1       3.349  -6.145  -7.751  0.00  0.00     0.065 H 
ATOM     30  C   LIG d   1       4.637  -3.696  -5.809  0.00  0.00    -0.015 A 
ATOM     31  H   LIG d   1       5.006  -3.526  -4.808  0.00  0.00     0.066 H 
BRANCH  28  32
ATOM     32  O   LIG d   1       4.202  -5.975  -5.280  0.00  0.00    -0.495 OA
BRANCH  32  33
ATOM     33  C   LIG d   1       4.903  -7.161  -5.661  0.00  0.00     0.079 C 
ATOM     34  H   LIG d   1       4.790  -7.914  -4.882  0.00  0.00     0.066 H 
ATOM     35  H   LIG d   1       4.492  -7.540  -6.596  0.00  0.00     0.066 H 
ATOM     36  H   LIG d   1       5.959  -6.931  -5.794  0.00  0.00     0.066 H 
ENDBRANCH  32  33
ENDBRANCH  28  32
ENDBRANCH   1  22
BRANCH  14  37
ATOM     37  C   LIG d   1       2.817   1.830  -8.027  0.00  0.00     0.023 C 
ATOM     38  H   LIG d   1       1.887   1.494  -8.486  0.00  0.00     0.047 H 
ATOM     39  H   LIG d   1       2.595   2.560  -7.248  0.00  0.00     0.047 H 
BRANCH  37  40
ATOM     40  C   LIG d   1       3.708   2.475  -9.092  0.00  0.00     0.060 C 
ATOM     41  H   LIG d   1       3.179   2.490 -10.045  0.00  0.00     0.039 H 
ATOM     42  H   LIG d   1       3.951   3.494  -8.794  0.00  0.00     0.039 H 
BRANCH  40  43
ATOM     43  C   LIG d   1       4.978   1.676  -9.235  0.00  0.00     0.308 C 
ATOM     44  O   LIG d   1       5.916   1.897  -8.507  0.00  0.00    -0.251 OA
BRANCH  43  45
ATOM     45  O   LIG d   1       5.066   0.720 -10.174  0.00  0.00    -0.468 OA
BRANCH  45  46
ATOM     46  C   LIG d   1       4.128   0.783 -11.251  0.00  0.00     0.082 C 
ATOM     47  H   LIG d   1       3.677  -0.199 -11.398  0.00  0.00     0.066 H 
ATOM     48  H   LIG d   1       3.350   1.508 -11.015  0.00  0.00     0.066 H 
ATOM     49  H   LIG d   1       4.642   1.086 -12.163  0.00  0.00     0.066 H 
ENDBRANCH  45  46
ENDBRANCH  43  45
ENDBRANCH  40  43
ENDBRANCH  37  40
ENDBRANCH  14  37
TORSDOF 8
ENDMDL
MODEL 3
REMARK VINA RESULT:      -5.7      2.547      5.559
REMARK  8 active torsions:
REMARK  status: ('A' for Active; 'I' for Inactive)
REMARK    1  A    between atoms: C_1  and  O_2 
REMARK    2  A    between atoms: O_2  and  C_3 
REMARK    3  A    between atoms: C_7  and  C_9 
REMARK       I    between atoms: N_19  and  C_20 
REMARK       I    between atoms: C_20  and  N_22 
REMARK    4  A    between atoms: N_22  and  C_23 
REMARK    5  A    between atoms: C_23  and  C_24 
REMARK    6  A    between atoms: C_24  and  C_25 
REMARK    7  A    between atoms: C_25  and  O_27 
REMARK    8  A    between atoms: O_27  and  C_28 
ROOT
ATOM      1  C   LIG d   1       4.860  -2.017  -6.087  0.00  0.00     0.118 C 
ATOM      2  H   LIG d   1       4.110  -1.579  -6.745  0.00  0.00     0.064 H 
ATOM      3  C   LIG d   1       4.826  -3.520  -6.198  0.00  0.00     0.170 A 
ATOM      4  C   LIG d   1       5.917  -4.292  -6.394  0.00  0.00     0.148 A 
ATOM      5  N   LIG d   1       5.516  -5.566  -6.437  0.00  0.00    -0.247 N 
ATOM      6  C   LIG d   1       4.218  -5.613  -6.277  0.00  0.00     0.243 A 
ATOM      7  N   LIG d   1       3.752  -4.352  -6.125  0.00  0.00    -0.245 N 
ATOM      8  H   LIG d   1       2.828  -4.091  -5.991  0.00  0.00     0.310 HD
ATOM      9  C   LIG d   1       7.321  -3.759  -6.541  0.00  0.00     0.029 C 
ATOM     10  C   LIG d   1       7.367  -2.327  -5.993  0.00  0.00     0.025 C 
ATOM     11  N   LIG d   1       6.206  -1.576  -6.498  0.00  0.00    -0.271 N 
ATOM     12  C   LIG d   1       6.367  -0.518  -7.316  0.00  0.00     0.303 C 
ATOM     13  O   LIG d   1       7.475  -0.227  -7.723  0.00  0.00    -0.253 OA
ATOM     14  N   LIG d   1       5.299   0.219  -7.683  0.00  0.00    -0.299 N 
ATOM     15  H   LIG d   1       3.619  -6.511  -6.268  0.00  0.00     0.158 H 
ATOM     16  H   LIG d   1       8.011  -4.388  -5.979  0.00  0.00     0.036 H 
ATOM     17  H   LIG d   1       7.602  -3.757  -7.595  0.00  0.00     0.036 H 
ATOM     18  H   LIG d   1       7.339  -2.354  -4.903  0.00  0.00     0.047 H 
ATOM     19  H   LIG d   1       8.285  -1.842  -6.323  0.00  0.00     0.047 H 
ATOM     20  H   LIG d   1       4.428   0.035  -7.299  0.00  0.00     0.150 HD
ATOM     21  H   LIG d   1       6.095  -6.333  -6.565  0.00  0.00     0.310 HD
ENDROOT
BRANCH   1  22
ATOM     22  C   LIG d   1       4.599  -1.602  -4.662  0.00  0.00    -0.015 A 
ATOM     23  C   LIG d   1       4.384  -2.564  -3.691  0.00  0.00    -0.056 A 
ATOM     24  C   LIG d   1       4.144  -2.186  -2.382  0.00  0.00    -0.058 A 
ATOM     25  H   LIG d   1       4.405  -3.610  -3.956  0.00  0.00     0.062 H 
ATOM     26  C   LIG d   1       4.117  -0.849  -2.042  0.00  0.00    -0.020 A 
ATOM     27  H   LIG d   1       3.978  -2.939  -1.626  0.00  0.00     0.062 H 
ATOM     28  C   LIG d   1       4.330   0.118  -3.014  0.00  0.00     0.120 A 
ATOM     29  H   LIG d   1       3.929  -0.554  -1.020  0.00  0.00     0.065 H 
ATOM     30  C   LIG d   1       4.566  -0.262  -4.328  0.00  0.00    -0.015 A 
ATOM     31  H   LIG d   1       4.729   0.488  -5.087  0.00  0.00     0.066 H 
BRANCH  28  32
ATOM     32  O   LIG d   1       4.304   1.436  -2.682  0.00  0.00    -0.495 OA
BRANCH  32  33
ATOM     33  C   LIG d   1       3.307   2.244  -3.310  0.00  0.00     0.079 C 
ATOM     34  H   LIG d   1       3.730   2.720  -4.194  0.00  0.00     0.066 H 
ATOM     35  H   LIG d   1       2.464   1.617  -3.604  0.00  0.00     0.066 H 
ATOM     36  H   LIG d   1       2.966   3.008  -2.612  0.00  0.00     0.066 H 
ENDBRANCH  32  33
ENDBRANCH  28  32
ENDBRANCH   1  22
BRANCH  14  37
ATOM     37  C   LIG d   1       5.457   1.300  -8.659  0.00  0.00     0.023 C 
ATOM     38  H   LIG d   1       5.988   2.132  -8.198  0.00  0.00     0.047 H 
ATOM     39  H   LIG d   1       6.024   0.936  -9.515  0.00  0.00     0.047 H 
BRANCH  37  40
ATOM     40  C   LIG d   1       4.077   1.771  -9.125  0.00  0.00     0.060 C 
ATOM     41  H   LIG d   1       4.061   2.860  -9.166  0.00  0.00     0.039 H 
ATOM     42  H   LIG d   1       3.868   1.365 -10.115  0.00  0.00     0.039 H 
BRANCH  40  43
ATOM     43  C   LIG d   1       3.029   1.291  -8.154  0.00  0.00     0.308 C 
ATOM     44  O   LIG d   1       2.739   1.966  -7.195  0.00  0.00    -0.251 OA
BRANCH  43  45
ATOM     45  O   LIG d   1       2.418   0.112  -8.355  0.00  0.00    -0.468 OA
BRANCH  45  46
ATOM     46  C   LIG d   1       2.038  -0.199  -9.698  0.00  0.00     0.082 C 
ATOM     47  H   LIG d   1       2.800   0.171 -10.386  0.00  0.00     0.066 H 
ATOM     48  H   LIG d   1       1.942  -1.279  -9.808  0.00  0.00     0.066 H 
ATOM     49  H   LIG d   1       1.084   0.276  -9.924  0.00  0.00     0.066 H 
ENDBRANCH  45  46
ENDBRANCH  43  45
ENDBRANCH  40  43
ENDBRANCH  37  40
ENDBRANCH  14  37
TORSDOF 8
ENDMDL
MODEL 4
REMARK VINA RESULT:      -5.6      3.208      6.383
REMARK  8 active torsions:
REMARK  status: ('A' for Active; 'I' for Inactive)
REMARK    1  A    between atoms: C_1  and  O_2 
REMARK    2  A    between atoms: O_2  and  C_3 
REMARK    3  A    between atoms: C_7  and  C_9 
REMARK       I    between atoms: N_19  and  C_20 
REMARK       I    between atoms: C_20  and  N_22 
REMARK    4  A    between atoms: N_22  and  C_23 
REMARK    5  A    between atoms: C_23  and  C_24 
REMARK    6  A    between atoms: C_24  and  C_25 
REMARK    7  A    between atoms: C_25  and  O_27 
REMARK    8  A    between atoms: O_27  and  C_28 
ROOT
ATOM      1  C   LIG d   1       5.821  -2.669  -4.942  0.00  0.00     0.118 C 
ATOM      2  H   LIG d   1       5.230  -2.473  -4.048  0.00  0.00     0.064 H 
ATOM      3  C   LIG d   1       4.983  -3.394  -5.964  0.00  0.00     0.170 A 
ATOM      4  C   LIG d   1       4.883  -3.029  -7.261  0.00  0.00     0.148 A 
ATOM      5  N   LIG d   1       4.065  -3.894  -7.868  0.00  0.00    -0.247 N 
ATOM      6  C   LIG d   1       3.653  -4.779  -6.998  0.00  0.00     0.243 A 
ATOM      7  N   LIG d   1       4.206  -4.498  -5.796  0.00  0.00    -0.245 N 
ATOM      8  H   LIG d   1       4.073  -4.990  -4.971  0.00  0.00     0.310 HD
ATOM      9  C   LIG d   1       5.586  -1.839  -7.866  0.00  0.00     0.029 C 
ATOM     10  C   LIG d   1       6.733  -1.417  -6.939  0.00  0.00     0.025 C 
ATOM     11  N   LIG d   1       6.250  -1.396  -5.548  0.00  0.00    -0.271 N 
ATOM     12  C   LIG d   1       6.199  -0.246  -4.850  0.00  0.00     0.303 C 
ATOM     13  O   LIG d   1       6.464   0.809  -5.394  0.00  0.00    -0.253 OA
ATOM     14  N   LIG d   1       5.855  -0.263  -3.546  0.00  0.00    -0.299 N 
ATOM     15  H   LIG d   1       2.982  -5.599  -7.207  0.00  0.00     0.158 H 
ATOM     16  H   LIG d   1       5.985  -2.110  -8.843  0.00  0.00     0.036 H 
ATOM     17  H   LIG d   1       4.880  -1.014  -7.973  0.00  0.00     0.036 H 
ATOM     18  H   LIG d   1       7.554  -2.128  -7.030  0.00  0.00     0.047 H 
ATOM     19  H   LIG d   1       7.078  -0.422  -7.219  0.00  0.00     0.047 H 
ATOM     20  H   LIG d   1       5.718  -1.109  -3.093  0.00  0.00     0.150 HD
ATOM     21  H   LIG d   1       3.817  -3.869  -8.805  0.00  0.00     0.310 HD
ENDROOT
BRANCH   1  22
ATOM     22  C   LIG d   1       7.027  -3.500  -4.586  0.00  0.00    -0.015 A 
ATOM     23  C   LIG d   1       7.922  -3.046  -3.634  0.00  0.00    -0.056 A 
ATOM     24  C   LIG d   1       9.030  -3.806  -3.304  0.00  0.00    -0.058 A 
ATOM     25  H   LIG d   1       7.754  -2.098  -3.145  0.00  0.00     0.062 H 
ATOM     26  C   LIG d   1       9.245  -5.019  -3.927  0.00  0.00    -0.020 A 
ATOM     27  H   LIG d   1       9.726  -3.451  -2.560  0.00  0.00     0.062 H 
ATOM     28  C   LIG d   1       8.351  -5.476  -4.884  0.00  0.00     0.120 A 
ATOM     29  H   LIG d   1      10.111  -5.613  -3.671  0.00  0.00     0.065 H 
ATOM     30  C   LIG d   1       7.243  -4.710  -5.217  0.00  0.00    -0.015 A 
ATOM     31  H   LIG d   1       6.547  -5.061  -5.963  0.00  0.00     0.066 H 
BRANCH  28  32
ATOM     32  O   LIG d   1       8.562  -6.670  -5.499  0.00  0.00    -0.495 OA
BRANCH  32  33
ATOM     33  C   LIG d   1       9.756  -6.799  -6.273  0.00  0.00     0.079 C 
ATOM     34  H   LIG d   1      10.382  -7.582  -5.846  0.00  0.00     0.066 H 
ATOM     35  H   LIG d   1       9.498  -7.060  -7.299  0.00  0.00     0.066 H 
ATOM     36  H   LIG d   1      10.298  -5.854  -6.263  0.00  0.00     0.066 H 
ENDBRANCH  32  33
ENDBRANCH  28  32
ENDBRANCH   1  22
BRANCH  14  37
ATOM     37  C   LIG d   1       5.690   0.995  -2.815  0.00  0.00     0.023 C 
ATOM     38  H   LIG d   1       6.474   1.084  -2.062  0.00  0.00     0.047 H 
ATOM     39  H   LIG d   1       5.759   1.831  -3.511  0.00  0.00     0.047 H 
BRANCH  37  40
ATOM     40  C   LIG d   1       4.321   1.012  -2.131  0.00  0.00     0.060 C 
ATOM     41  H   LIG d   1       4.352   0.377  -1.245  0.00  0.00     0.039 H 
ATOM     42  H   LIG d   1       4.073   2.032  -1.839  0.00  0.00     0.039 H 
BRANCH  40  43
ATOM     43  C   LIG d   1       3.277   0.493  -3.085  0.00  0.00     0.308 C 
ATOM     44  O   LIG d   1       2.685  -0.531  -2.834  0.00  0.00    -0.251 OA
BRANCH  43  45
ATOM     45  O   LIG d   1       3.005   1.167  -4.213  0.00  0.00    -0.468 OA
BRANCH  45  46
ATOM     46  C   LIG d   1       2.592   0.396  -5.344  0.00  0.00     0.082 C 
ATOM     47  H   LIG d   1       2.851   0.929  -6.260  0.00  0.00     0.066 H 
ATOM     48  H   LIG d   1       3.096  -0.570  -5.330  0.00  0.00     0.066 H 
ATOM     49  H   LIG d   1       1.514   0.244  -5.306  0.00  0.00     0.066 H 
ENDBRANCH  45  46
ENDBRANCH  43  45
ENDBRANCH  40  43
ENDBRANCH  37  40
ENDBRANCH  14  37
TORSDOF 8
ENDMDL
MODEL 5
REMARK VINA RESULT:      -5.5      2.565      5.005
REMARK  8 active torsions:
REMARK  status: ('A' for Active; 'I' for Inactive)
REMARK    1  A    between atoms: C_1  and  O_2 
REMARK    2  A    between atoms: O_2  and  C_3 
REMARK    3  A    between atoms: C_7  and  C_9 
REMARK       I    between atoms: N_19  and  C_20 
REMARK       I    between atoms: C_20  and  N_22 
REMARK    4  A    between atoms: N_22  and  C_23 
REMARK    5  A    between atoms: C_23  and  C_24 
REMARK    6  A    between atoms: C_24  and  C_25 
REMARK    7  A    between atoms: C_25  and  O_27 
REMARK    8  A    between atoms: O_27  and  C_28 
ROOT
ATOM      1  C   LIG d   1       4.693  -2.030  -5.330  0.00  0.00     0.118 C 
ATOM      2  H   LIG d   1       4.307  -3.045  -5.239  0.00  0.00     0.064 H 
ATOM      3  C   LIG d   1       4.176  -1.180  -4.198  0.00  0.00     0.170 A 
ATOM      4  C   LIG d   1       4.953  -0.393  -3.422  0.00  0.00     0.148 A 
ATOM      5  N   LIG d   1       4.163   0.213  -2.531  0.00  0.00    -0.247 N 
ATOM      6  C   LIG d   1       2.927  -0.170  -2.722  0.00  0.00     0.243 A 
ATOM      7  N   LIG d   1       2.896  -1.042  -3.756  0.00  0.00    -0.245 N 
ATOM      8  H   LIG d   1       2.111  -1.485  -4.114  0.00  0.00     0.310 HD
ATOM      9  C   LIG d   1       6.448  -0.262  -3.573  0.00  0.00     0.029 C 
ATOM     10  C   LIG d   1       6.853  -0.769  -4.962  0.00  0.00     0.025 C 
ATOM     11  N   LIG d   1       6.164  -2.042  -5.234  0.00  0.00    -0.271 N 
ATOM     12  C   LIG d   1       6.857  -3.187  -5.387  0.00  0.00     0.303 C 
ATOM     13  O   LIG d   1       8.060  -3.198  -5.209  0.00  0.00    -0.253 OA
ATOM     14  N   LIG d   1       6.218  -4.320  -5.739  0.00  0.00    -0.299 N 
ATOM     15  H   LIG d   1       2.072   0.157  -2.148  0.00  0.00     0.158 H 
ATOM     16  H   LIG d   1       6.735   0.784  -3.467  0.00  0.00     0.036 H 
ATOM     17  H   LIG d   1       6.945  -0.858  -2.807  0.00  0.00     0.036 H 
ATOM     18  H   LIG d   1       6.569  -0.033  -5.715  0.00  0.00     0.047 H 
ATOM     19  H   LIG d   1       7.931  -0.926  -4.992  0.00  0.00     0.047 H 
ATOM     20  H   LIG d   1       5.273  -4.297  -5.955  0.00  0.00     0.150 HD
ATOM     21  H   LIG d   1       4.459   0.837  -1.851  0.00  0.00     0.310 HD
ENDROOT
BRANCH   1  22
ATOM     22  C   LIG d   1       4.271  -1.438  -6.650  0.00  0.00    -0.015 A 
ATOM     23  C   LIG d   1       4.173  -2.244  -7.769  0.00  0.00    -0.056 A 
ATOM     24  C   LIG d   1       3.785  -1.704  -8.982  0.00  0.00    -0.058 A 
ATOM     25  H   LIG d   1       4.399  -3.298  -7.696  0.00  0.00     0.062 H 
ATOM     26  C   LIG d   1       3.495  -0.358  -9.078  0.00  0.00    -0.020 A 
ATOM     27  H   LIG d   1       3.709  -2.336  -9.854  0.00  0.00     0.062 H 
ATOM     28  C   LIG d   1       3.594   0.454  -7.958  0.00  0.00     0.120 A 
ATOM     29  H   LIG d   1       3.193   0.064 -10.025  0.00  0.00     0.065 H 
ATOM     30  C   LIG d   1       3.988  -0.089  -6.743  0.00  0.00    -0.015 A 
ATOM     31  H   LIG d   1       4.068   0.541  -5.870  0.00  0.00     0.066 H 
BRANCH  28  32
ATOM     32  O   LIG d   1       3.309   1.781  -8.050  0.00  0.00    -0.495 OA
BRANCH  32  33
ATOM     33  C   LIG d   1       3.847   2.483  -9.172  0.00  0.00     0.079 C 
ATOM     34  H   LIG d   1       3.459   3.501  -9.182  0.00  0.00     0.066 H 
ATOM     35  H   LIG d   1       4.934   2.508  -9.098  0.00  0.00     0.066 H 
ATOM     36  H   LIG d   1       3.557   1.974 -10.091  0.00  0.00     0.066 H 
ENDBRANCH  32  33
ENDBRANCH  28  32
ENDBRANCH   1  22
BRANCH  14  37
ATOM     37  C   LIG d   1       6.952  -5.587  -5.796  0.00  0.00     0.023 C 
ATOM     38  H   LIG d   1       7.526  -5.632  -6.722  0.00  0.00     0.047 H 
ATOM     39  H   LIG d   1       7.629  -5.653  -4.945  0.00  0.00     0.047 H 
BRANCH  37  40
ATOM     40  C   LIG d   1       5.961  -6.752  -5.753  0.00  0.00     0.060 C 
ATOM     41  H   LIG d   1       6.181  -7.445  -6.566  0.00  0.00     0.039 H 
ATOM     42  H   LIG d   1       6.049  -7.271  -4.799  0.00  0.00     0.039 H 
BRANCH  40  43
ATOM     43  C   LIG d   1       4.558  -6.225  -5.911  0.00  0.00     0.308 C 
ATOM     44  O   LIG d   1       3.962  -5.797  -4.951  0.00  0.00    -0.251 OA
BRANCH  43  45
ATOM     45  O   LIG d   1       3.971  -6.232  -7.118  0.00  0.00    -0.468 OA
BRANCH  45  46
ATOM     46  C   LIG d   1       4.231  -7.359  -7.958  0.00  0.00     0.082 C 
ATOM     47  H   LIG d   1       3.296  -7.878  -8.170  0.00  0.00     0.066 H 
ATOM     48  H   LIG d   1       4.680  -7.021  -8.892  0.00  0.00     0.066 H 
ATOM     49  H   LIG d   1       4.917  -8.039  -7.452  0.00  0.00     0.066 H 
ENDBRANCH  45  46
ENDBRANCH  43  45
ENDBRANCH  40  43
ENDBRANCH  37  40
ENDBRANCH  14  37
TORSDOF 8
ENDMDL
MODEL 6
REMARK VINA RESULT:      -5.5      2.029      4.962
REMARK  8 active torsions:
REMARK  status: ('A' for Active; 'I' for Inactive)
REMARK    1  A    between atoms: C_1  and  O_2 
REMARK    2  A    between atoms: O_2  and  C_3 
REMARK    3  A    between atoms: C_7  and  C_9 
REMARK       I    between atoms: N_19  and  C_20 
REMARK       I    between atoms: C_20  and  N_22 
REMARK    4  A    between atoms: N_22  and  C_23 
REMARK    5  A    between atoms: C_23  and  C_24 
REMARK    6  A    between atoms: C_24  and  C_25 
REMARK    7  A    between atoms: C_25  and  O_27 
REMARK    8  A    between atoms: O_27  and  C_28 
ROOT
ATOM      1  C   LIG d   1       3.787  -0.589  -7.512  0.00  0.00     0.118 C 
ATOM      2  H   LIG d   1       3.121  -0.456  -6.660  0.00  0.00     0.064 H 
ATOM      3  C   LIG d   1       4.046   0.742  -8.173  0.00  0.00     0.170 A 
ATOM      4  C   LIG d   1       5.274   1.205  -8.491  0.00  0.00     0.148 A 
ATOM      5  N   LIG d   1       5.125   2.404  -9.062  0.00  0.00    -0.247 N 
ATOM      6  C   LIG d   1       3.852   2.702  -9.108  0.00  0.00     0.243 A 
ATOM      7  N   LIG d   1       3.146   1.686  -8.560  0.00  0.00    -0.245 N 
ATOM      8  H   LIG d   1       2.183   1.640  -8.462  0.00  0.00     0.310 HD
ATOM      9  C   LIG d   1       6.560   0.463  -8.220  0.00  0.00     0.029 C 
ATOM     10  C   LIG d   1       6.235  -1.015  -7.972  0.00  0.00     0.025 C 
ATOM     11  N   LIG d   1       5.087  -1.113  -7.056  0.00  0.00    -0.271 N 
ATOM     12  C   LIG d   1       5.220  -1.663  -5.834  0.00  0.00     0.303 C 
ATOM     13  O   LIG d   1       6.317  -2.003  -5.436  0.00  0.00    -0.253 OA
ATOM     14  N   LIG d   1       4.136  -1.839  -5.052  0.00  0.00    -0.299 N 
ATOM     15  H   LIG d   1       3.435   3.611  -9.516  0.00  0.00     0.158 H 
ATOM     16  H   LIG d   1       7.221   0.553  -9.082  0.00  0.00     0.036 H 
ATOM     17  H   LIG d   1       7.045   0.884  -7.339  0.00  0.00     0.036 H 
ATOM     18  H   LIG d   1       5.989  -1.498  -8.918  0.00  0.00     0.047 H 
ATOM     19  H   LIG d   1       7.099  -1.507  -7.525  0.00  0.00     0.047 H 
ATOM     20  H   LIG d   1       3.252  -1.640  -5.397  0.00  0.00     0.150 HD
ATOM     21  H   LIG d   1       5.846   2.963  -9.391  0.00  0.00     0.310 HD
ENDROOT
BRANCH   1  22
ATOM     22  C   LIG d   1       3.169  -1.541  -8.503  0.00  0.00    -0.015 A 
ATOM     23  C   LIG d   1       2.221  -1.084  -9.401  0.00  0.00    -0.056 A 
ATOM     24  C   LIG d   1       1.652  -1.956 -10.313  0.00  0.00    -0.058 A 
ATOM     25  H   LIG d   1       1.927  -0.045  -9.392  0.00  0.00     0.062 H 
ATOM     26  C   LIG d   1       2.028  -3.284 -10.326  0.00  0.00    -0.020 A 
ATOM     27  H   LIG d   1       0.914  -1.597 -11.013  0.00  0.00     0.062 H 
ATOM     28  C   LIG d   1       2.977  -3.745  -9.425  0.00  0.00     0.120 A 
ATOM     29  H   LIG d   1       1.583  -3.965 -11.037  0.00  0.00     0.065 H 
ATOM     30  C   LIG d   1       3.543  -2.871  -8.509  0.00  0.00    -0.015 A 
ATOM     31  H   LIG d   1       4.279  -3.228  -7.804  0.00  0.00     0.066 H 
BRANCH  28  32
ATOM     32  O   LIG d   1       3.348  -5.053  -9.436  0.00  0.00    -0.495 OA
BRANCH  32  33
ATOM     33  C   LIG d   1       2.421  -5.986  -9.996  0.00  0.00     0.079 C 
ATOM     34  H   LIG d   1       1.851  -5.499 -10.787  0.00  0.00     0.066 H 
ATOM     35  H   LIG d   1       2.965  -6.835 -10.410  0.00  0.00     0.066 H 
ATOM     36  H   LIG d   1       1.742  -6.333  -9.218  0.00  0.00     0.066 H 
ENDBRANCH  32  33
ENDBRANCH  28  32
ENDBRANCH   1  22
BRANCH  14  37
ATOM     37  C   LIG d   1       4.293  -2.333  -3.682  0.00  0.00     0.023 C 
ATOM     38  H   LIG d   1       3.984  -3.378  -3.634  0.00  0.00     0.047 H 
ATOM     39  H   LIG d   1       5.338  -2.249  -3.383  0.00  0.00     0.047 H 
BRANCH  37  40
ATOM     40  C   LIG d   1       3.423  -1.501  -2.737  0.00  0.00     0.060 C 
ATOM     41  H   LIG d   1       2.517  -2.057  -2.495  0.00  0.00     0.039 H 
ATOM     42  H   LIG d   1       3.977  -1.291  -1.822  0.00  0.00     0.039 H 
BRANCH  40  43
ATOM     43  C   LIG d   1       3.051  -0.204  -3.408  0.00  0.00     0.308 C 
ATOM     44  O   LIG d   1       2.073  -0.148  -4.115  0.00  0.00    -0.251 OA
BRANCH  43  45
ATOM     45  O   LIG d   1       3.809   0.889  -3.221  0.00  0.00    -0.468 OA
BRANCH  45  46
ATOM     46  C   LIG d   1       4.421   1.039  -1.938  0.00  0.00     0.082 C 
ATOM     47  H   LIG d   1       5.466   0.734  -1.997  0.00  0.00     0.066 H 
ATOM     48  H   LIG d   1       4.364   2.083  -1.628  0.00  0.00     0.066 H 
ATOM     49  H   LIG d   1       3.901   0.416  -1.211  0.00  0.00     0.066 H 
ENDBRANCH  45  46
ENDBRANCH  43  45
ENDBRANCH  40  43
ENDBRANCH  37  40
ENDBRANCH  14  37
TORSDOF 8
ENDMDL
MODEL 7
REMARK VINA RESULT:      -5.4      1.611      2.163
REMARK  8 active torsions:
REMARK  status: ('A' for Active; 'I' for Inactive)
REMARK    1  A    between atoms: C_1  and  O_2 
REMARK    2  A    between atoms: O_2  and  C_3 
REMARK    3  A    between atoms: C_7  and  C_9 
REMARK       I    between atoms: N_19  and  C_20 
REMARK       I    between atoms: C_20  and  N_22 
REMARK    4  A    between atoms: N_22  and  C_23 
REMARK    5  A    between atoms: C_23  and  C_24 
REMARK    6  A    between atoms: C_24  and  C_25 
REMARK    7  A    between atoms: C_25  and  O_27 
REMARK    8  A    between atoms: O_27  and  C_28 
ROOT
ATOM      1  C   LIG d   1       5.035  -1.595  -7.081  0.00  0.00     0.118 C 
ATOM      2  H   LIG d   1       5.606  -2.490  -7.328  0.00  0.00     0.064 H 
ATOM      3  C   LIG d   1       5.868  -0.365  -7.342  0.00  0.00     0.170 A 
ATOM      4  C   LIG d   1       5.441   0.705  -8.046  0.00  0.00     0.148 A 
ATOM      5  N   LIG d   1       6.432   1.601  -8.072  0.00  0.00    -0.247 N 
ATOM      6  C   LIG d   1       7.457   1.126  -7.413  0.00  0.00     0.243 A 
ATOM      7  N   LIG d   1       7.142  -0.103  -6.943  0.00  0.00    -0.245 N 
ATOM      8  H   LIG d   1       7.715  -0.685  -6.421  0.00  0.00     0.310 HD
ATOM      9  C   LIG d   1       4.076   0.817  -8.679  0.00  0.00     0.029 C 
ATOM     10  C   LIG d   1       3.144  -0.216  -8.034  0.00  0.00     0.025 C 
ATOM     11  N   LIG d   1       3.842  -1.509  -7.942  0.00  0.00    -0.271 N 
ATOM     12  C   LIG d   1       3.405  -2.583  -8.628  0.00  0.00     0.303 C 
ATOM     13  O   LIG d   1       2.478  -2.471  -9.407  0.00  0.00    -0.253 OA
ATOM     14  N   LIG d   1       3.993  -3.782  -8.448  0.00  0.00    -0.299 N 
ATOM     15  H   LIG d   1       8.401   1.632  -7.270  0.00  0.00     0.158 H 
ATOM     16  H   LIG d   1       3.680   1.820  -8.517  0.00  0.00     0.036 H 
ATOM     17  H   LIG d   1       4.153   0.622  -9.749  0.00  0.00     0.036 H 
ATOM     18  H   LIG d   1       2.865   0.121  -7.035  0.00  0.00     0.047 H 
ATOM     19  H   LIG d   1       2.248  -0.328  -8.644  0.00  0.00     0.047 H 
ATOM     20  H   LIG d   1       4.681  -3.889  -7.773  0.00  0.00     0.150 HD
ATOM     21  H   LIG d   1       6.396   2.466  -8.509  0.00  0.00     0.310 HD
ENDROOT
BRANCH   1  22
ATOM     22  C   LIG d   1       4.621  -1.635  -5.633  0.00  0.00    -0.015 A 
ATOM     23  C   LIG d   1       4.818  -2.785  -4.889  0.00  0.00    -0.056 A 
ATOM     24  C   LIG d   1       4.440  -2.825  -3.559  0.00  0.00    -0.058 A 
ATOM     25  H   LIG d   1       5.270  -3.652  -5.348  0.00  0.00     0.062 H 
ATOM     26  C   LIG d   1       3.862  -1.717  -2.972  0.00  0.00    -0.020 A 
ATOM     27  H   LIG d   1       4.596  -3.723  -2.981  0.00  0.00     0.062 H 
ATOM     28  C   LIG d   1       3.662  -0.563  -3.715  0.00  0.00     0.120 A 
ATOM     29  H   LIG d   1       3.566  -1.748  -1.933  0.00  0.00     0.065 H 
ATOM     30  C   LIG d   1       4.038  -0.526  -5.050  0.00  0.00    -0.015 A 
ATOM     31  H   LIG d   1       3.880   0.369  -5.632  0.00  0.00     0.066 H 
BRANCH  28  32
ATOM     32  O   LIG d   1       3.093   0.529  -3.138  0.00  0.00    -0.495 OA
BRANCH  32  33
ATOM     33  C   LIG d   1       3.893   1.261  -2.207  0.00  0.00     0.079 C 
ATOM     34  H   LIG d   1       4.075   2.263  -2.594  0.00  0.00     0.066 H 
ATOM     35  H   LIG d   1       3.370   1.329  -1.253  0.00  0.00     0.066 H 
ATOM     36  H   LIG d   1       4.844   0.748  -2.064  0.00  0.00     0.066 H 
ENDBRANCH  32  33
ENDBRANCH  28  32
ENDBRANCH   1  22
BRANCH  14  37
ATOM     37  C   LIG d   1       3.594  -4.924  -9.274  0.00  0.00     0.023 C 
ATOM     38  H   LIG d   1       2.556  -4.803  -9.584  0.00  0.00     0.047 H 
ATOM     39  H   LIG d   1       4.233  -4.976 -10.155  0.00  0.00     0.047 H 
BRANCH  37  40
ATOM     40  C   LIG d   1       3.736  -6.214  -8.463  0.00  0.00     0.060 C 
ATOM     41  H   LIG d   1       2.761  -6.693  -8.370  0.00  0.00     0.039 H 
ATOM     42  H   LIG d   1       4.426  -6.889  -8.970  0.00  0.00     0.039 H 
BRANCH  40  43
ATOM     43  C   LIG d   1       4.268  -5.888  -7.091  0.00  0.00     0.308 C 
ATOM     44  O   LIG d   1       3.505  -5.612  -6.196  0.00  0.00    -0.251 OA
BRANCH  43  45
ATOM     45  O   LIG d   1       5.592  -5.904  -6.865  0.00  0.00    -0.468 OA
BRANCH  45  46
ATOM     46  C   LIG d   1       6.030  -6.460  -5.623  0.00  0.00     0.082 C 
ATOM     47  H   LIG d   1       7.096  -6.270  -5.496  0.00  0.00     0.066 H 
ATOM     48  H   LIG d   1       5.478  -6.000  -4.803  0.00  0.00     0.066 H 
ATOM     49  H   LIG d   1       5.850  -7.535  -5.623  0.00  0.00     0.066 H 
ENDBRANCH  45  46
ENDBRANCH  43  45
ENDBRANCH  40  43
ENDBRANCH  37  40
ENDBRANCH  14  37
TORSDOF 8
ENDMDL
MODEL 8
REMARK VINA RESULT:      -5.4      2.721      4.838
REMARK  8 active torsions:
REMARK  status: ('A' for Active; 'I' for Inactive)
REMARK    1  A    between atoms: C_1  and  O_2 
REMARK    2  A    between atoms: O_2  and  C_3 
REMARK    3  A    between atoms: C_7  and  C_9 
REMARK       I    between atoms: N_19  and  C_20 
REMARK       I    between atoms: C_20  and  N_22 
REMARK    4  A    between atoms: N_22  and  C_23 
REMARK    5  A    between atoms: C_23  and  C_24 
REMARK    6  A    between atoms: C_24  and  C_25 
REMARK    7  A    between atoms: C_25  and  O_27 
REMARK    8  A    between atoms: O_27  and  C_28 
ROOT
ATOM      1  C   LIG d   1       3.965  -1.523  -7.347  0.00  0.00     0.118 C 
ATOM      2  H   LIG d   1       3.712  -2.268  -6.593  0.00  0.00     0.064 H 
ATOM      3  C   LIG d   1       3.272  -1.849  -8.645  0.00  0.00     0.170 A 
ATOM      4  C   LIG d   1       2.558  -0.960  -9.369  0.00  0.00     0.148 A 
ATOM      5  N   LIG d   1       2.095  -1.592 -10.452  0.00  0.00    -0.247 N 
ATOM      6  C   LIG d   1       2.492  -2.838 -10.425  0.00  0.00     0.243 A 
ATOM      7  N   LIG d   1       3.230  -3.036  -9.309  0.00  0.00    -0.245 N 
ATOM      8  H   LIG d   1       3.649  -3.866  -9.035  0.00  0.00     0.310 HD
ATOM      9  C   LIG d   1       2.345   0.481  -8.976  0.00  0.00     0.029 C 
ATOM     10  C   LIG d   1       3.397   0.870  -7.931  0.00  0.00     0.025 C 
ATOM     11  N   LIG d   1       3.491  -0.194  -6.918  0.00  0.00    -0.271 N 
ATOM     12  C   LIG d   1       3.151   0.037  -5.635  0.00  0.00     0.303 C 
ATOM     13  O   LIG d   1       2.672   1.108  -5.317  0.00  0.00    -0.253 OA
ATOM     14  N   LIG d   1       3.344  -0.918  -4.703  0.00  0.00    -0.299 N 
ATOM     15  H   LIG d   1       2.266  -3.584 -11.172  0.00  0.00     0.158 H 
ATOM     16  H   LIG d   1       2.449   1.117  -9.855  0.00  0.00     0.036 H 
ATOM     17  H   LIG d   1       1.347   0.599  -8.553  0.00  0.00     0.036 H 
ATOM     18  H   LIG d   1       4.364   0.997  -8.418  0.00  0.00     0.047 H 
ATOM     19  H   LIG d   1       3.104   1.804  -7.451  0.00  0.00     0.047 H 
ATOM     20  H   LIG d   1       3.796  -1.742  -4.941  0.00  0.00     0.150 HD
ATOM     21  H   LIG d   1       1.551  -1.189 -11.147  0.00  0.00     0.310 HD
ENDROOT
BRANCH   1  22
ATOM     22  C   LIG d   1       5.457  -1.492  -7.556  0.00  0.00    -0.015 A 
ATOM     23  C   LIG d   1       5.973  -1.230  -8.813  0.00  0.00    -0.056 A 
ATOM     24  C   LIG d   1       7.342  -1.200  -9.008  0.00  0.00    -0.058 A 
ATOM     25  H   LIG d   1       5.305  -1.047  -9.641  0.00  0.00     0.062 H 
ATOM     26  C   LIG d   1       8.197  -1.433  -7.950  0.00  0.00    -0.020 A 
ATOM     27  H   LIG d   1       7.742  -0.995  -9.990  0.00  0.00     0.062 H 
ATOM     28  C   LIG d   1       7.682  -1.697  -6.689  0.00  0.00     0.120 A 
ATOM     29  H   LIG d   1       9.266  -1.410  -8.103  0.00  0.00     0.065 H 
ATOM     30  C   LIG d   1       6.309  -1.731  -6.495  0.00  0.00    -0.015 A 
ATOM     31  H   LIG d   1       5.906  -1.940  -5.516  0.00  0.00     0.066 H 
BRANCH  28  32
ATOM     32  O   LIG d   1       8.523  -1.927  -5.644  0.00  0.00    -0.495 OA
BRANCH  32  33
ATOM     33  C   LIG d   1       9.563  -0.972  -5.427  0.00  0.00     0.079 C 
ATOM     34  H   LIG d   1       9.822  -0.496  -6.373  0.00  0.00     0.066 H 
ATOM     35  H   LIG d   1       9.220  -0.215  -4.722  0.00  0.00     0.066 H 
ATOM     36  H   LIG d   1      10.439  -1.476  -5.022  0.00  0.00     0.066 H 
ENDBRANCH  32  33
ENDBRANCH  28  32
ENDBRANCH   1  22
BRANCH  14  37
ATOM     37  C   LIG d   1       2.873  -0.709  -3.332  0.00  0.00     0.023 C 
ATOM     38  H   LIG d   1       2.797   0.360  -3.133  0.00  0.00     0.047 H 
ATOM     39  H   LIG d   1       1.894  -1.172  -3.210  0.00  0.00     0.047 H 
BRANCH  37  40
ATOM     40  C   LIG d   1       3.863  -1.341  -2.351  0.00  0.00     0.060 C 
ATOM     41  H   LIG d   1       3.654  -0.980  -1.344  0.00  0.00     0.039 H 
ATOM     42  H   LIG d   1       3.760  -2.426  -2.378  0.00  0.00     0.039 H 
BRANCH  40  43
ATOM     43  C   LIG d   1       5.268  -0.959  -2.739  0.00  0.00     0.308 C 
ATOM     44  O   LIG d   1       6.063  -1.815  -3.047  0.00  0.00    -0.251 OA
BRANCH  43  45
ATOM     45  O   LIG d   1       5.635   0.332  -2.742  0.00  0.00    -0.468 OA
BRANCH  45  46
ATOM     46  C   LIG d   1       6.686   0.704  -3.636  0.00  0.00     0.082 C 
ATOM     47  H   LIG d   1       6.423   1.636  -4.138  0.00  0.00     0.066 H 
ATOM     48  H   LIG d   1       7.610   0.842  -3.074  0.00  0.00     0.066 H 
ATOM     49  H   LIG d   1       6.827  -0.081  -4.379  0.00  0.00     0.066 H 
ENDBRANCH  45  46
ENDBRANCH  43  45
ENDBRANCH  40  43
ENDBRANCH  37  40
ENDBRANCH  14  37
TORSDOF 8
ENDMDL
MODEL 9
REMARK VINA RESULT:      -5.4      2.972      5.580
REMARK  8 active torsions:
REMARK  status: ('A' for Active; 'I' for Inactive)
REMARK    1  A    between atoms: C_1  and  O_2 
REMARK    2  A    between atoms: O_2  and  C_3 
REMARK    3  A    between atoms: C_7  and  C_9 
REMARK       I    between atoms: N_19  and  C_20 
REMARK       I    between atoms: C_20  and  N_22 
REMARK    4  A    between atoms: N_22  and  C_23 
REMARK    5  A    between atoms: C_23  and  C_24 
REMARK    6  A    between atoms: C_24  and  C_25 
REMARK    7  A    between atoms: C_25  and  O_27 
REMARK    8  A    between atoms: O_27  and  C_28 
ROOT
ATOM      1  C   LIG d   1       4.123  -1.642  -7.185  0.00  0.00     0.118 C 
ATOM      2  H   LIG d   1       3.925  -2.348  -6.378  0.00  0.00     0.064 H 
ATOM      3  C   LIG d   1       3.446  -2.105  -8.450  0.00  0.00     0.170 A 
ATOM      4  C   LIG d   1       2.670  -1.319  -9.227  0.00  0.00     0.148 A 
ATOM      5  N   LIG d   1       2.244  -2.055 -10.258  0.00  0.00    -0.247 N 
ATOM      6  C   LIG d   1       2.724  -3.266 -10.149  0.00  0.00     0.243 A 
ATOM      7  N   LIG d   1       3.480  -3.336  -9.029  0.00  0.00    -0.245 N 
ATOM      8  H   LIG d   1       3.956  -4.115  -8.702  0.00  0.00     0.310 HD
ATOM      9  C   LIG d   1       2.362   0.128  -8.934  0.00  0.00     0.029 C 
ATOM     10  C   LIG d   1       3.391   0.660  -7.928  0.00  0.00     0.025 C 
ATOM     11  N   LIG d   1       3.563  -0.322  -6.845  0.00  0.00    -0.271 N 
ATOM     12  C   LIG d   1       3.215  -0.024  -5.578  0.00  0.00     0.303 C 
ATOM     13  O   LIG d   1       2.666   1.032  -5.330  0.00  0.00    -0.253 OA
ATOM     14  N   LIG d   1       3.478  -0.895  -4.584  0.00  0.00    -0.299 N 
ATOM     15  H   LIG d   1       2.546  -4.077 -10.839  0.00  0.00     0.158 H 
ATOM     16  H   LIG d   1       2.418   0.707  -9.856  0.00  0.00     0.036 H 
ATOM     17  H   LIG d   1       1.360   0.209  -8.510  0.00  0.00     0.036 H 
ATOM     18  H   LIG d   1       4.345   0.817  -8.433  0.00  0.00     0.047 H 
ATOM     19  H   LIG d   1       3.038   1.603  -7.512  0.00  0.00     0.047 H 
ATOM     20  H   LIG d   1       3.983  -1.702  -4.768  0.00  0.00     0.150 HD
ATOM     21  H   LIG d   1       1.671  -1.740 -10.974  0.00  0.00     0.310 HD
ENDROOT
BRANCH   1  22
ATOM     22  C   LIG d   1       5.608  -1.526  -7.411  0.00  0.00    -0.015 A 
ATOM     23  C   LIG d   1       6.485  -1.736  -6.362  0.00  0.00    -0.056 A 
ATOM     24  C   LIG d   1       7.850  -1.631  -6.567  0.00  0.00    -0.058 A 
ATOM     25  H   LIG d   1       6.104  -1.983  -5.383  0.00  0.00     0.062 H 
ATOM     26  C   LIG d   1       8.338  -1.315  -7.819  0.00  0.00    -0.020 A 
ATOM     27  H   LIG d   1       8.532  -1.796  -5.747  0.00  0.00     0.062 H 
ATOM     28  C   LIG d   1       7.461  -1.103  -8.873  0.00  0.00     0.120 A 
ATOM     29  H   LIG d   1       9.403  -1.232  -7.979  0.00  0.00     0.065 H 
ATOM     30  C   LIG d   1       6.093  -1.204  -8.664  0.00  0.00    -0.015 A 
ATOM     31  H   LIG d   1       5.407  -1.036  -9.482  0.00  0.00     0.066 H 
BRANCH  28  32
ATOM     32  O   LIG d   1       7.940  -0.791 -10.107  0.00  0.00    -0.495 OA
BRANCH  32  33
ATOM     33  C   LIG d   1       9.166  -1.410 -10.501  0.00  0.00     0.079 C 
ATOM     34  H   LIG d   1       9.088  -1.741 -11.536  0.00  0.00     0.066 H 
ATOM     35  H   LIG d   1       9.981  -0.693 -10.409  0.00  0.00     0.066 H 
ATOM     36  H   LIG d   1       9.362  -2.268  -9.858  0.00  0.00     0.066 H 
ENDBRANCH  32  33
ENDBRANCH  28  32
ENDBRANCH   1  22
BRANCH  14  37
ATOM     37  C   LIG d   1       3.001  -0.623  -3.226  0.00  0.00     0.023 C 
ATOM     38  H   LIG d   1       2.532   0.361  -3.196  0.00  0.00     0.047 H 
ATOM     39  H   LIG d   1       2.273  -1.381  -2.937  0.00  0.00     0.047 H 
BRANCH  37  40
ATOM     40  C   LIG d   1       4.183  -0.653  -2.255  0.00  0.00     0.060 C 
ATOM     41  H   LIG d   1       3.830  -0.934  -1.263  0.00  0.00     0.039 H 
ATOM     42  H   LIG d   1       4.918  -1.381  -2.598  0.00  0.00     0.039 H 
BRANCH  40  43
ATOM     43  C   LIG d   1       4.818   0.712  -2.194  0.00  0.00     0.308 C 
ATOM     44  O   LIG d   1       4.810   1.337  -1.160  0.00  0.00    -0.251 OA
BRANCH  43  45
ATOM     45  O   LIG d   1       5.392   1.234  -3.290  0.00  0.00    -0.468 OA
BRANCH  45  46
ATOM     46  C   LIG d   1       6.711   0.784  -3.606  0.00  0.00     0.082 C 
ATOM     47  H   LIG d   1       7.148   0.297  -2.734  0.00  0.00     0.066 H 
ATOM     48  H   LIG d   1       6.666   0.076  -4.434  0.00  0.00     0.066 H 
ATOM     49  H   LIG d   1       7.327   1.637  -3.891  0.00  0.00     0.066 H 
ENDBRANCH  45  46
ENDBRANCH  43  45
ENDBRANCH  40  43
ENDBRANCH  37  40
ENDBRANCH  14  37
TORSDOF 8
ENDMDL
