MODEL 1
REMARK VINA RESULT:      -7.8      0.000      0.000
REMARK  7 active torsions:
REMARK  status: ('A' for Active; 'I' for Inactive)
REMARK    1  A    between atoms: C_1  and  O_2 
REMARK    2  A    between atoms: O_2  and  C_3 
REMARK    3  A    between atoms: C_3  and  C_5 
REMARK    4  A    between atoms: C_8  and  C_11 
REMARK    5  A    between atoms: C_18  and  O_22 
REMARK    6  A    between atoms: O_22  and  C_23 
REMARK    7  A    between atoms: C_23  and  C_25 
ROOT
ATOM      1  C   LIG d   1       9.570   3.905  -5.836  0.00  0.00    -0.008 C 
ATOM      2  C   LIG d   1       8.954   2.700  -5.884  0.00  0.00     0.176 A 
ATOM      3  C   LIG d   1       8.592   1.953  -7.102  0.00  0.00     0.232 A 
ATOM      4  O   LIG d   1       8.778   2.281  -8.261  0.00  0.00    -0.283 OA
ATOM      5  C   LIG d   1       7.948   0.723  -6.604  0.00  0.00     0.068 A 
ATOM      6  C   LIG d   1       7.396  -0.389  -7.240  0.00  0.00    -0.044 A 
ATOM      7  C   LIG d   1       6.864  -1.405  -6.496  0.00  0.00    -0.018 A 
ATOM      8  C   LIG d   1       6.877  -1.333  -5.105  0.00  0.00     0.136 A 
ATOM      9  C   LIG d   1       7.427  -0.237  -4.462  0.00  0.00     0.024 A 
ATOM     10  C   LIG d   1       7.972   0.804  -5.203  0.00  0.00     0.143 A 
ATOM     11  O   LIG d   1       8.557   1.961  -4.822  0.00  0.00    -0.451 OA
ATOM     12  H   LIG d   1       9.919   4.371  -6.746  0.00  0.00     0.066 H 
ATOM     13  H   LIG d   1       7.385  -0.446  -8.318  0.00  0.00     0.063 H 
ATOM     14  H   LIG d   1       6.433  -2.264  -6.988  0.00  0.00     0.065 H 
ATOM     15  H   LIG d   1       7.432  -0.191  -3.382  0.00  0.00     0.069 H 
ENDROOT
BRANCH   1  16
ATOM     16  C   LIG d   1       9.764   4.581  -4.545  0.00  0.00    -0.021 A 
ATOM     17  C   LIG d   1      10.386   3.907  -3.487  0.00  0.00    -0.054 A 
ATOM     18  C   LIG d   1      10.566   4.538  -2.284  0.00  0.00    -0.047 A 
ATOM     19  H   LIG d   1      10.725   2.890  -3.620  0.00  0.00     0.062 H 
ATOM     20  C   LIG d   1      10.129   5.856  -2.113  0.00  0.00     0.059 A 
ATOM     21  H   LIG d   1      11.048   4.019  -1.468  0.00  0.00     0.063 H 
ATOM     22  C   LIG d   1       9.507   6.529  -3.167  0.00  0.00    -0.047 A 
ATOM     23  C   LIG d   1       9.330   5.901  -4.374  0.00  0.00    -0.054 A 
ATOM     24  H   LIG d   1       9.169   7.547  -3.033  0.00  0.00     0.063 H 
ATOM     25  H   LIG d   1       8.854   6.424  -5.189  0.00  0.00     0.062 H 
BRANCH  20  26
ATOM     26  C   LIG d   1      10.324   6.534  -0.816  0.00  0.00     0.339 C 
ATOM     27  O   LIG d   1       9.559   7.412  -0.468  0.00  0.00    -0.245 OA
BRANCH  26  28
ATOM     28  O   LIG d   1      11.351   6.180  -0.019  0.00  0.00    -0.465 OA
BRANCH  28  29
ATOM     29  C   LIG d   1      11.043   5.915   1.376  0.00  0.00     0.082 C 
ATOM     30  H   LIG d   1      11.838   6.315   2.006  0.00  0.00     0.066 H 
ATOM     31  H   LIG d   1      10.098   6.393   1.635  0.00  0.00     0.066 H 
ATOM     32  H   LIG d   1      10.962   4.840   1.532  0.00  0.00     0.066 H 
ENDBRANCH  28  29
ENDBRANCH  26  28
ENDBRANCH  20  26
ENDBRANCH   1  16
BRANCH   8  33
ATOM     33  O   LIG d   1       6.346  -2.347  -4.375  0.00  0.00    -0.422 OA
BRANCH  33  34
ATOM     34  C   LIG d   1       5.043  -2.246  -4.046  0.00  0.00     0.346 C 
ATOM     35  O   LIG d   1       4.293  -3.182  -4.240  0.00  0.00    -0.244 OA
BRANCH  34  36
ATOM     36  C   LIG d   1       4.526  -0.997  -3.452  0.00  0.00     0.078 A 
ATOM     37  C   LIG d   1       3.781  -0.105  -4.229  0.00  0.00     0.055 A 
ATOM     38  C   LIG d   1       3.301   1.060  -3.666  0.00  0.00    -0.043 A 
ATOM     39 CL   LIG d   1       3.460  -0.462  -5.898  0.00  0.00    -0.083 Cl
ATOM     40  C   LIG d   1       3.555   1.346  -2.336  0.00  0.00    -0.060 A 
ATOM     41  H   LIG d   1       2.725   1.751  -4.264  0.00  0.00     0.063 H 
ATOM     42  C   LIG d   1       4.292   0.467  -1.562  0.00  0.00    -0.061 A 
ATOM     43  H   LIG d   1       3.178   2.260  -1.902  0.00  0.00     0.062 H 
ATOM     44  C   LIG d   1       4.773  -0.704  -2.109  0.00  0.00    -0.046 A 
ATOM     45  H   LIG d   1       4.488   0.697  -0.525  0.00  0.00     0.062 H 
ATOM     46  H   LIG d   1       5.344  -1.390  -1.501  0.00  0.00     0.063 H 
ENDBRANCH  34  36
ENDBRANCH  33  34
ENDBRANCH   8  33
TORSDOF 7
ENDMDL
MODEL 2
REMARK VINA RESULT:      -7.5      1.625      2.418
REMARK  7 active torsions:
REMARK  status: ('A' for Active; 'I' for Inactive)
REMARK    1  A    between atoms: C_1  and  O_2 
REMARK    2  A    between atoms: O_2  and  C_3 
REMARK    3  A    between atoms: C_3  and  C_5 
REMARK    4  A    between atoms: C_8  and  C_11 
REMARK    5  A    between atoms: C_18  and  O_22 
REMARK    6  A    between atoms: O_22  and  C_23 
REMARK    7  A    between atoms: C_23  and  C_25 
ROOT
ATOM      1  C   LIG d   1      10.311   5.076  -4.264  0.00  0.00    -0.008 C 
ATOM      2  C   LIG d   1       9.654   3.930  -4.562  0.00  0.00     0.176 A 
ATOM      3  C   LIG d   1       9.290   3.458  -5.910  0.00  0.00     0.232 A 
ATOM      4  O   LIG d   1       9.511   4.004  -6.977  0.00  0.00    -0.283 OA
ATOM      5  C   LIG d   1       8.592   2.180  -5.678  0.00  0.00     0.068 A 
ATOM      6  C   LIG d   1       8.013   1.240  -6.532  0.00  0.00    -0.044 A 
ATOM      7  C   LIG d   1       7.430   0.117  -6.014  0.00  0.00    -0.018 A 
ATOM      8  C   LIG d   1       7.418  -0.092  -4.638  0.00  0.00     0.136 A 
ATOM      9  C   LIG d   1       7.994   0.830  -3.780  0.00  0.00     0.024 A 
ATOM     10  C   LIG d   1       8.590   1.976  -4.289  0.00  0.00     0.143 A 
ATOM     11  O   LIG d   1       9.209   3.009  -3.676  0.00  0.00    -0.451 OA
ATOM     12  H   LIG d   1      10.695   5.701  -5.058  0.00  0.00     0.066 H 
ATOM     13  H   LIG d   1       8.022   1.401  -7.600  0.00  0.00     0.063 H 
ATOM     14  H   LIG d   1       6.979  -0.608  -6.674  0.00  0.00     0.065 H 
ATOM     15  H   LIG d   1       7.979   0.658  -2.712  0.00  0.00     0.069 H 
ENDROOT
BRANCH   1  16
ATOM     16  C   LIG d   1      10.503   5.471  -2.861  0.00  0.00    -0.021 A 
ATOM     17  C   LIG d   1       9.750   6.520  -2.319  0.00  0.00    -0.054 A 
ATOM     18  C   LIG d   1       9.930   6.886  -1.011  0.00  0.00    -0.047 A 
ATOM     19  H   LIG d   1       9.028   7.039  -2.932  0.00  0.00     0.062 H 
ATOM     20  C   LIG d   1      10.864   6.213  -0.217  0.00  0.00     0.059 A 
ATOM     21  H   LIG d   1       9.348   7.695  -0.592  0.00  0.00     0.063 H 
ATOM     22  C   LIG d   1      11.616   5.168  -0.757  0.00  0.00    -0.047 A 
ATOM     23  C   LIG d   1      11.435   4.795  -2.065  0.00  0.00    -0.054 A 
ATOM     24  H   LIG d   1      12.338   4.649  -0.143  0.00  0.00     0.063 H 
ATOM     25  H   LIG d   1      12.014   3.983  -2.480  0.00  0.00     0.062 H 
BRANCH  20  26
ATOM     26  C   LIG d   1      11.056   6.610   1.193  0.00  0.00     0.339 C 
ATOM     27  O   LIG d   1      11.534   7.695   1.459  0.00  0.00    -0.245 OA
BRANCH  26  28
ATOM     28  O   LIG d   1      10.702   5.768   2.183  0.00  0.00    -0.465 OA
BRANCH  28  29
ATOM     29  C   LIG d   1      10.946   6.212   3.545  0.00  0.00     0.082 C 
ATOM     30  H   LIG d   1      10.372   5.594   4.236  0.00  0.00     0.066 H 
ATOM     31  H   LIG d   1      12.008   6.120   3.770  0.00  0.00     0.066 H 
ATOM     32  H   LIG d   1      10.640   7.252   3.647  0.00  0.00     0.066 H 
ENDBRANCH  28  29
ENDBRANCH  26  28
ENDBRANCH  20  26
ENDBRANCH   1  16
BRANCH   8  33
ATOM     33  O   LIG d   1       6.836  -1.210  -4.133  0.00  0.00    -0.422 OA
BRANCH  33  34
ATOM     34  C   LIG d   1       5.788  -1.715  -4.815  0.00  0.00     0.346 C 
ATOM     35  O   LIG d   1       5.924  -2.725  -5.477  0.00  0.00    -0.244 OA
BRANCH  34  36
ATOM     36  C   LIG d   1       4.476  -1.040  -4.758  0.00  0.00     0.078 A 
ATOM     37  C   LIG d   1       3.716  -1.082  -3.586  0.00  0.00     0.055 A 
ATOM     38  C   LIG d   1       2.490  -0.448  -3.541  0.00  0.00    -0.043 A 
ATOM     39 CL   LIG d   1       4.309  -1.929  -2.192  0.00  0.00    -0.083 Cl
ATOM     40  C   LIG d   1       2.016   0.228  -4.651  0.00  0.00    -0.060 A 
ATOM     41  H   LIG d   1       1.899  -0.479  -2.637  0.00  0.00     0.063 H 
ATOM     42  C   LIG d   1       2.765   0.273  -5.814  0.00  0.00    -0.061 A 
ATOM     43  H   LIG d   1       1.056   0.721  -4.610  0.00  0.00     0.062 H 
ATOM     44  C   LIG d   1       3.993  -0.350  -5.872  0.00  0.00    -0.046 A 
ATOM     45  H   LIG d   1       2.388   0.802  -6.677  0.00  0.00     0.062 H 
ATOM     46  H   LIG d   1       4.578  -0.310  -6.779  0.00  0.00     0.063 H 
ENDBRANCH  34  36
ENDBRANCH  33  34
ENDBRANCH   8  33
TORSDOF 7
ENDMDL
MODEL 3
REMARK VINA RESULT:      -7.3      1.619      2.209
REMARK  7 active torsions:
REMARK  status: ('A' for Active; 'I' for Inactive)
REMARK    1  A    between atoms: C_1  and  O_2 
REMARK    2  A    between atoms: O_2  and  C_3 
REMARK    3  A    between atoms: C_3  and  C_5 
REMARK    4  A    between atoms: C_8  and  C_11 
REMARK    5  A    between atoms: C_18  and  O_22 
REMARK    6  A    between atoms: O_22  and  C_23 
REMARK    7  A    between atoms: C_23  and  C_25 
ROOT
ATOM      1  C   LIG d   1      10.557   3.392  -4.838  0.00  0.00    -0.008 C 
ATOM      2  C   LIG d   1       9.811   2.262  -4.865  0.00  0.00     0.176 A 
ATOM      3  C   LIG d   1       9.865   1.205  -5.892  0.00  0.00     0.232 A 
ATOM      4  O   LIG d   1      10.576   1.161  -6.881  0.00  0.00    -0.283 OA
ATOM      5  C   LIG d   1       8.860   0.217  -5.458  0.00  0.00     0.068 A 
ATOM      6  C   LIG d   1       8.435  -1.004  -5.983  0.00  0.00    -0.044 A 
ATOM      7  C   LIG d   1       7.465  -1.721  -5.339  0.00  0.00    -0.018 A 
ATOM      8  C   LIG d   1       6.907  -1.238  -4.158  0.00  0.00     0.136 A 
ATOM      9  C   LIG d   1       7.325  -0.030  -3.624  0.00  0.00     0.024 A 
ATOM     10  C   LIG d   1       8.308   0.711  -4.266  0.00  0.00     0.143 A 
ATOM     11  O   LIG d   1       8.879   1.896  -3.955  0.00  0.00    -0.451 OA
ATOM     12  H   LIG d   1      11.334   3.545  -5.574  0.00  0.00     0.066 H 
ATOM     13  H   LIG d   1       8.867  -1.380  -6.898  0.00  0.00     0.063 H 
ATOM     14  H   LIG d   1       7.133  -2.664  -5.746  0.00  0.00     0.065 H 
ATOM     15  H   LIG d   1       6.885   0.336  -2.707  0.00  0.00     0.069 H 
ENDROOT
BRANCH   1  16
ATOM     16  C   LIG d   1      10.310   4.412  -3.808  0.00  0.00    -0.021 A 
ATOM     17  C   LIG d   1      10.814   4.236  -2.514  0.00  0.00    -0.054 A 
ATOM     18  C   LIG d   1      10.583   5.187  -1.555  0.00  0.00    -0.047 A 
ATOM     19  H   LIG d   1      11.383   3.351  -2.271  0.00  0.00     0.062 H 
ATOM     20  C   LIG d   1       9.846   6.334  -1.868  0.00  0.00     0.059 A 
ATOM     21  H   LIG d   1      10.972   5.052  -0.555  0.00  0.00     0.063 H 
ATOM     22  C   LIG d   1       9.342   6.509  -3.160  0.00  0.00    -0.047 A 
ATOM     23  C   LIG d   1       9.576   5.561  -4.123  0.00  0.00    -0.054 A 
ATOM     24  H   LIG d   1       8.772   7.395  -3.401  0.00  0.00     0.063 H 
ATOM     25  H   LIG d   1       9.191   5.700  -5.122  0.00  0.00     0.062 H 
BRANCH  20  26
ATOM     26  C   LIG d   1       9.598   7.358  -0.834  0.00  0.00     0.339 C 
ATOM     27  O   LIG d   1      10.374   7.486   0.093  0.00  0.00    -0.245 OA
BRANCH  26  28
ATOM     28  O   LIG d   1       8.511   8.149  -0.917  0.00  0.00    -0.465 OA
BRANCH  28  29
ATOM     29  C   LIG d   1       8.727   9.581  -0.789  0.00  0.00     0.082 C 
ATOM     30  H   LIG d   1       9.771   9.811  -1.003  0.00  0.00     0.066 H 
ATOM     31  H   LIG d   1       8.086  10.108  -1.495  0.00  0.00     0.066 H 
ATOM     32  H   LIG d   1       8.486   9.895   0.226  0.00  0.00     0.066 H 
ENDBRANCH  28  29
ENDBRANCH  26  28
ENDBRANCH  20  26
ENDBRANCH   1  16
BRANCH   8  33
ATOM     33  O   LIG d   1       5.945  -1.957  -3.526  0.00  0.00    -0.422 OA
BRANCH  33  34
ATOM     34  C   LIG d   1       4.864  -2.305  -4.254  0.00  0.00     0.346 C 
ATOM     35  O   LIG d   1       4.534  -3.472  -4.332  0.00  0.00    -0.244 OA
BRANCH  34  36
ATOM     36  C   LIG d   1       4.083  -1.268  -4.957  0.00  0.00     0.078 A 
ATOM     37  C   LIG d   1       3.262  -0.398  -4.235  0.00  0.00     0.055 A 
ATOM     38  C   LIG d   1       2.534   0.569  -4.900  0.00  0.00    -0.043 A 
ATOM     39 CL   LIG d   1       3.155  -0.533  -2.507  0.00  0.00    -0.083 Cl
ATOM     40  C   LIG d   1       2.618   0.678  -6.277  0.00  0.00    -0.060 A 
ATOM     41  H   LIG d   1       1.898   1.243  -4.345  0.00  0.00     0.063 H 
ATOM     42  C   LIG d   1       3.431  -0.181  -6.997  0.00  0.00    -0.061 A 
ATOM     43  H   LIG d   1       2.046   1.435  -6.792  0.00  0.00     0.062 H 
ATOM     44  C   LIG d   1       4.167  -1.148  -6.346  0.00  0.00    -0.046 A 
ATOM     45  H   LIG d   1       3.491  -0.091  -8.071  0.00  0.00     0.062 H 
ATOM     46  H   LIG d   1       4.804  -1.814  -6.909  0.00  0.00     0.063 H 
ENDBRANCH  34  36
ENDBRANCH  33  34
ENDBRANCH   8  33
TORSDOF 7
ENDMDL
MODEL 4
REMARK VINA RESULT:      -7.2      1.955      3.049
REMARK  7 active torsions:
REMARK  status: ('A' for Active; 'I' for Inactive)
REMARK    1  A    between atoms: C_1  and  O_2 
REMARK    2  A    between atoms: O_2  and  C_3 
REMARK    3  A    between atoms: C_3  and  C_5 
REMARK    4  A    between atoms: C_8  and  C_11 
REMARK    5  A    between atoms: C_18  and  O_22 
REMARK    6  A    between atoms: O_22  and  C_23 
REMARK    7  A    between atoms: C_23  and  C_25 
ROOT
ATOM      1  C   LIG d   1      11.504   4.024  -2.399  0.00  0.00    -0.008 C 
ATOM      2  C   LIG d   1      10.773   3.155  -3.140  0.00  0.00     0.176 A 
ATOM      3  C   LIG d   1      11.239   1.866  -3.682  0.00  0.00     0.232 A 
ATOM      4  O   LIG d   1      12.342   1.361  -3.564  0.00  0.00    -0.283 OA
ATOM      5  C   LIG d   1      10.072   1.327  -4.405  0.00  0.00     0.068 A 
ATOM      6  C   LIG d   1       9.855   0.151  -5.123  0.00  0.00    -0.044 A 
ATOM      7  C   LIG d   1       8.635  -0.085  -5.692  0.00  0.00    -0.018 A 
ATOM      8  C   LIG d   1       7.607   0.845  -5.551  0.00  0.00     0.136 A 
ATOM      9  C   LIG d   1       7.808   2.013  -4.836  0.00  0.00     0.024 A 
ATOM     10  C   LIG d   1       9.042   2.268  -4.252  0.00  0.00     0.143 A 
ATOM     11  O   LIG d   1       9.484   3.313  -3.518  0.00  0.00    -0.451 OA
ATOM     12  H   LIG d   1      12.502   3.759  -2.084  0.00  0.00     0.066 H 
ATOM     13  H   LIG d   1      10.651  -0.571  -5.234  0.00  0.00     0.063 H 
ATOM     14  H   LIG d   1       8.467  -0.993  -6.251  0.00  0.00     0.065 H 
ATOM     15  H   LIG d   1       7.004   2.728  -4.732  0.00  0.00     0.069 H 
ENDROOT
BRANCH   1  16
ATOM     16  C   LIG d   1      10.937   5.328  -2.025  0.00  0.00    -0.021 A 
ATOM     17  C   LIG d   1      10.496   6.212  -3.017  0.00  0.00    -0.054 A 
ATOM     18  C   LIG d   1       9.968   7.427  -2.667  0.00  0.00    -0.047 A 
ATOM     19  H   LIG d   1      10.572   5.935  -4.058  0.00  0.00     0.062 H 
ATOM     20  C   LIG d   1       9.869   7.784  -1.319  0.00  0.00     0.059 A 
ATOM     21  H   LIG d   1       9.627   8.108  -3.433  0.00  0.00     0.063 H 
ATOM     22  C   LIG d   1      10.309   6.904  -0.327  0.00  0.00    -0.047 A 
ATOM     23  C   LIG d   1      10.833   5.685  -0.675  0.00  0.00    -0.054 A 
ATOM     24  H   LIG d   1      10.232   7.181   0.714  0.00  0.00     0.063 H 
ATOM     25  H   LIG d   1      11.169   5.003   0.092  0.00  0.00     0.062 H 
BRANCH  20  26
ATOM     26  C   LIG d   1       9.299   9.094  -0.943  0.00  0.00     0.339 C 
ATOM     27  O   LIG d   1       8.106   9.202  -0.738  0.00  0.00    -0.245 OA
BRANCH  26  28
ATOM     28  O   LIG d   1      10.102  10.169  -0.829  0.00  0.00    -0.465 OA
BRANCH  28  29
ATOM     29  C   LIG d   1      10.042  10.908   0.421  0.00  0.00     0.082 C 
ATOM     30  H   LIG d   1       9.100  10.690   0.926  0.00  0.00     0.066 H 
ATOM     31  H   LIG d   1      10.874  10.610   1.058  0.00  0.00     0.066 H 
ATOM     32  H   LIG d   1      10.105  11.976   0.214  0.00  0.00     0.066 H 
ENDBRANCH  28  29
ENDBRANCH  26  28
ENDBRANCH  20  26
ENDBRANCH   1  16
BRANCH   8  33
ATOM     33  O   LIG d   1       6.398   0.602  -6.119  0.00  0.00    -0.422 OA
BRANCH  33  34
ATOM     34  C   LIG d   1       5.846  -0.606  -5.887  0.00  0.00     0.346 C 
ATOM     35  O   LIG d   1       5.994  -1.507  -6.689  0.00  0.00    -0.244 OA
BRANCH  34  36
ATOM     36  C   LIG d   1       5.058  -0.833  -4.659  0.00  0.00     0.078 A 
ATOM     37  C   LIG d   1       3.710  -0.466  -4.612  0.00  0.00     0.055 A 
ATOM     38  C   LIG d   1       2.980  -0.683  -3.460  0.00  0.00    -0.043 A 
ATOM     39 CL   LIG d   1       2.956   0.260  -5.997  0.00  0.00    -0.083 Cl
ATOM     40  C   LIG d   1       3.580  -1.261  -2.356  0.00  0.00    -0.060 A 
ATOM     41  H   LIG d   1       1.939  -0.400  -3.420  0.00  0.00     0.063 H 
ATOM     42  C   LIG d   1       4.914  -1.627  -2.397  0.00  0.00    -0.061 A 
ATOM     43  H   LIG d   1       3.004  -1.427  -1.457  0.00  0.00     0.062 H 
ATOM     44  C   LIG d   1       5.654  -1.422  -3.542  0.00  0.00    -0.046 A 
ATOM     45  H   LIG d   1       5.376  -2.078  -1.531  0.00  0.00     0.062 H 
ATOM     46  H   LIG d   1       6.694  -1.713  -3.574  0.00  0.00     0.063 H 
ENDBRANCH  34  36
ENDBRANCH  33  34
ENDBRANCH   8  33
TORSDOF 7
ENDMDL
MODEL 5
REMARK VINA RESULT:      -7.2      4.983      9.401
REMARK  7 active torsions:
REMARK  status: ('A' for Active; 'I' for Inactive)
REMARK    1  A    between atoms: C_1  and  O_2 
REMARK    2  A    between atoms: O_2  and  C_3 
REMARK    3  A    between atoms: C_3  and  C_5 
REMARK    4  A    between atoms: C_8  and  C_11 
REMARK    5  A    between atoms: C_18  and  O_22 
REMARK    6  A    between atoms: O_22  and  C_23 
REMARK    7  A    between atoms: C_23  and  C_25 
ROOT
ATOM      1  C   LIG d   1       4.227   0.973 -10.661  0.00  0.00    -0.008 C 
ATOM      2  C   LIG d   1       4.944   0.634  -9.562  0.00  0.00     0.176 A 
ATOM      3  C   LIG d   1       6.040   1.415  -8.960  0.00  0.00     0.232 A 
ATOM      4  O   LIG d   1       6.488   2.485  -9.336  0.00  0.00    -0.283 OA
ATOM      5  C   LIG d   1       6.477   0.609  -7.805  0.00  0.00     0.068 A 
ATOM      6  C   LIG d   1       7.457   0.794  -6.830  0.00  0.00    -0.044 A 
ATOM      7  C   LIG d   1       7.631  -0.146  -5.853  0.00  0.00    -0.018 A 
ATOM      8  C   LIG d   1       6.828  -1.284  -5.827  0.00  0.00     0.136 A 
ATOM      9  C   LIG d   1       5.847  -1.476  -6.786  0.00  0.00     0.024 A 
ATOM     10  C   LIG d   1       5.658  -0.530  -7.786  0.00  0.00     0.143 A 
ATOM     11  O   LIG d   1       4.786  -0.484  -8.817  0.00  0.00    -0.451 OA
ATOM     12  H   LIG d   1       4.382   1.932 -11.132  0.00  0.00     0.066 H 
ATOM     13  H   LIG d   1       8.081   1.675  -6.848  0.00  0.00     0.063 H 
ATOM     14  H   LIG d   1       8.392  -0.006  -5.100  0.00  0.00     0.065 H 
ATOM     15  H   LIG d   1       5.229  -2.362  -6.757  0.00  0.00     0.069 H 
ENDROOT
BRANCH   1  16
ATOM     16  C   LIG d   1       3.238   0.035 -11.212  0.00  0.00    -0.021 A 
ATOM     17  C   LIG d   1       2.021  -0.168 -10.552  0.00  0.00    -0.054 A 
ATOM     18  C   LIG d   1       1.100  -1.043 -11.066  0.00  0.00    -0.047 A 
ATOM     19  H   LIG d   1       1.808   0.365  -9.637  0.00  0.00     0.062 H 
ATOM     20  C   LIG d   1       1.376  -1.732 -12.251  0.00  0.00     0.059 A 
ATOM     21  H   LIG d   1       0.160  -1.199 -10.557  0.00  0.00     0.063 H 
ATOM     22  C   LIG d   1       2.591  -1.531 -12.911  0.00  0.00    -0.047 A 
ATOM     23  C   LIG d   1       3.512  -0.652 -12.401  0.00  0.00    -0.054 A 
ATOM     24  H   LIG d   1       2.803  -2.065 -13.826  0.00  0.00     0.063 H 
ATOM     25  H   LIG d   1       4.449  -0.494 -12.913  0.00  0.00     0.062 H 
BRANCH  20  26
ATOM     26  C   LIG d   1       0.382  -2.674 -12.805  0.00  0.00     0.339 C 
ATOM     27  O   LIG d   1      -0.581  -2.253 -13.415  0.00  0.00    -0.245 OA
BRANCH  26  28
ATOM     28  O   LIG d   1       0.544  -4.000 -12.633  0.00  0.00    -0.465 OA
BRANCH  28  29
ATOM     29  C   LIG d   1      -0.386  -4.667 -11.736  0.00  0.00     0.082 C 
ATOM     30  H   LIG d   1      -0.714  -3.966 -10.968  0.00  0.00     0.066 H 
ATOM     31  H   LIG d   1      -1.248  -5.016 -12.303  0.00  0.00     0.066 H 
ATOM     32  H   LIG d   1       0.110  -5.516 -11.266  0.00  0.00     0.066 H 
ENDBRANCH  28  29
ENDBRANCH  26  28
ENDBRANCH  20  26
ENDBRANCH   1  16
BRANCH   8  33
ATOM     33  O   LIG d   1       7.008  -2.212  -4.852  0.00  0.00    -0.422 OA
BRANCH  33  34
ATOM     34  C   LIG d   1       6.877  -1.793  -3.578  0.00  0.00     0.346 C 
ATOM     35  O   LIG d   1       7.736  -2.056  -2.760  0.00  0.00    -0.244 OA
BRANCH  34  36
ATOM     36  C   LIG d   1       5.688  -1.016  -3.175  0.00  0.00     0.078 A 
ATOM     37  C   LIG d   1       4.423  -1.611  -3.187  0.00  0.00     0.055 A 
ATOM     38  C   LIG d   1       3.316  -0.878  -2.808  0.00  0.00    -0.043 A 
ATOM     39 CL   LIG d   1       4.244  -3.267  -3.675  0.00  0.00    -0.083 Cl
ATOM     40  C   LIG d   1       3.457   0.442  -2.418  0.00  0.00    -0.060 A 
ATOM     41  H   LIG d   1       2.337  -1.334  -2.817  0.00  0.00     0.063 H 
ATOM     42  C   LIG d   1       4.707   1.037  -2.405  0.00  0.00    -0.061 A 
ATOM     43  H   LIG d   1       2.588   1.011  -2.125  0.00  0.00     0.062 H 
ATOM     44  C   LIG d   1       5.822   0.316  -2.774  0.00  0.00    -0.046 A 
ATOM     45  H   LIG d   1       4.809   2.068  -2.100  0.00  0.00     0.062 H 
ATOM     46  H   LIG d   1       6.797   0.780  -2.758  0.00  0.00     0.063 H 
ENDBRANCH  34  36
ENDBRANCH  33  34
ENDBRANCH   8  33
TORSDOF 7
ENDMDL
MODEL 6
REMARK VINA RESULT:      -7.1      5.711     10.769
REMARK  7 active torsions:
REMARK  status: ('A' for Active; 'I' for Inactive)
REMARK    1  A    between atoms: C_1  and  O_2 
REMARK    2  A    between atoms: O_2  and  C_3 
REMARK    3  A    between atoms: C_3  and  C_5 
REMARK    4  A    between atoms: C_8  and  C_11 
REMARK    5  A    between atoms: C_18  and  O_22 
REMARK    6  A    between atoms: O_22  and  C_23 
REMARK    7  A    between atoms: C_23  and  C_25 
ROOT
ATOM      1  C   LIG d   1       4.743  -8.955  -6.161  0.00  0.00    -0.008 C 
ATOM      2  C   LIG d   1       4.651  -7.632  -6.439  0.00  0.00     0.176 A 
ATOM      3  C   LIG d   1       4.244  -7.037  -7.725  0.00  0.00     0.232 A 
ATOM      4  O   LIG d   1       3.925  -7.617  -8.748  0.00  0.00    -0.283 OA
ATOM      5  C   LIG d   1       4.317  -5.582  -7.498  0.00  0.00     0.068 A 
ATOM      6  C   LIG d   1       4.052  -4.476  -8.306  0.00  0.00    -0.044 A 
ATOM      7  C   LIG d   1       4.205  -3.213  -7.805  0.00  0.00    -0.018 A 
ATOM      8  C   LIG d   1       4.620  -3.030  -6.488  0.00  0.00     0.136 A 
ATOM      9  C   LIG d   1       4.880  -4.119  -5.673  0.00  0.00     0.024 A 
ATOM     10  C   LIG d   1       4.729  -5.409  -6.167  0.00  0.00     0.143 A 
ATOM     11  O   LIG d   1       4.916  -6.615  -5.587  0.00  0.00    -0.451 OA
ATOM     12  H   LIG d   1       4.426  -9.684  -6.893  0.00  0.00     0.066 H 
ATOM     13  H   LIG d   1       3.731  -4.616  -9.327  0.00  0.00     0.063 H 
ATOM     14  H   LIG d   1       4.005  -2.357  -8.431  0.00  0.00     0.065 H 
ATOM     15  H   LIG d   1       5.201  -3.967  -4.652  0.00  0.00     0.069 H 
ENDROOT
BRANCH   1  16
ATOM     16  C   LIG d   1       5.275  -9.399  -4.864  0.00  0.00    -0.021 A 
ATOM     17  C   LIG d   1       6.648  -9.317  -4.605  0.00  0.00    -0.054 A 
ATOM     18  C   LIG d   1       7.142  -9.730  -3.395  0.00  0.00    -0.047 A 
ATOM     19  H   LIG d   1       7.317  -8.927  -5.357  0.00  0.00     0.062 H 
ATOM     20  C   LIG d   1       6.275 -10.234  -2.420  0.00  0.00     0.059 A 
ATOM     21  H   LIG d   1       8.202  -9.666  -3.194  0.00  0.00     0.063 H 
ATOM     22  C   LIG d   1       4.905 -10.317  -2.679  0.00  0.00    -0.047 A 
ATOM     23  C   LIG d   1       4.407  -9.899  -3.886  0.00  0.00    -0.054 A 
ATOM     24  H   LIG d   1       4.236 -10.707  -1.925  0.00  0.00     0.063 H 
ATOM     25  H   LIG d   1       3.347  -9.959  -4.083  0.00  0.00     0.062 H 
BRANCH  20  26
ATOM     26  C   LIG d   1       6.810 -10.679  -1.118  0.00  0.00     0.339 C 
ATOM     27  O   LIG d   1       6.109 -11.323  -0.361  0.00  0.00    -0.245 OA
BRANCH  26  28
ATOM     28  O   LIG d   1       8.073 -10.370  -0.767  0.00  0.00    -0.465 OA
BRANCH  28  29
ATOM     29  C   LIG d   1       8.890 -11.445  -0.229  0.00  0.00     0.082 C 
ATOM     30  H   LIG d   1       9.943 -11.169  -0.297  0.00  0.00     0.066 H 
ATOM     31  H   LIG d   1       8.624 -11.615   0.814  0.00  0.00     0.066 H 
ATOM     32  H   LIG d   1       8.715 -12.355  -0.803  0.00  0.00     0.066 H 
ENDBRANCH  28  29
ENDBRANCH  26  28
ENDBRANCH  20  26
ENDBRANCH   1  16
BRANCH   8  33
ATOM     33  O   LIG d   1       4.769  -1.772  -5.999  0.00  0.00    -0.422 OA
BRANCH  33  34
ATOM     34  C   LIG d   1       5.664  -1.605  -5.005  0.00  0.00     0.346 C 
ATOM     35  O   LIG d   1       6.741  -2.167  -5.057  0.00  0.00    -0.244 OA
BRANCH  34  36
ATOM     36  C   LIG d   1       5.336  -0.742  -3.854  0.00  0.00     0.078 A 
ATOM     37  C   LIG d   1       4.554  -1.235  -2.806  0.00  0.00     0.055 A 
ATOM     38  C   LIG d   1       4.252  -0.421  -1.732  0.00  0.00    -0.043 A 
ATOM     39 CL   LIG d   1       3.962  -2.867  -2.855  0.00  0.00    -0.083 Cl
ATOM     40  C   LIG d   1       4.723   0.879  -1.692  0.00  0.00    -0.060 A 
ATOM     41  H   LIG d   1       3.646  -0.800  -0.922  0.00  0.00     0.063 H 
ATOM     42  C   LIG d   1       5.499   1.373  -2.726  0.00  0.00    -0.061 A 
ATOM     43  H   LIG d   1       4.483   1.511  -0.850  0.00  0.00     0.062 H 
ATOM     44  C   LIG d   1       5.813   0.570  -3.802  0.00  0.00    -0.046 A 
ATOM     45  H   LIG d   1       5.863   2.389  -2.688  0.00  0.00     0.062 H 
ATOM     46  H   LIG d   1       6.423   0.956  -4.606  0.00  0.00     0.063 H 
ENDBRANCH  34  36
ENDBRANCH  33  34
ENDBRANCH   8  33
TORSDOF 7
ENDMDL
MODEL 7
REMARK VINA RESULT:      -6.6      3.853      6.653
REMARK  7 active torsions:
REMARK  status: ('A' for Active; 'I' for Inactive)
REMARK    1  A    between atoms: C_1  and  O_2 
REMARK    2  A    between atoms: O_2  and  C_3 
REMARK    3  A    between atoms: C_3  and  C_5 
REMARK    4  A    between atoms: C_8  and  C_11 
REMARK    5  A    between atoms: C_18  and  O_22 
REMARK    6  A    between atoms: O_22  and  C_23 
REMARK    7  A    between atoms: C_23  and  C_25 
ROOT
ATOM      1  C   LIG d   1      10.535   6.643  -7.204  0.00  0.00    -0.008 C 
ATOM      2  C   LIG d   1      10.173   5.583  -6.441  0.00  0.00     0.176 A 
ATOM      3  C   LIG d   1      10.247   5.501  -4.971  0.00  0.00     0.232 A 
ATOM      4  O   LIG d   1      10.640   6.354  -4.194  0.00  0.00    -0.283 OA
ATOM      5  C   LIG d   1       9.746   4.152  -4.651  0.00  0.00     0.068 A 
ATOM      6  C   LIG d   1       9.557   3.464  -3.452  0.00  0.00    -0.044 A 
ATOM      7  C   LIG d   1       9.055   2.193  -3.468  0.00  0.00    -0.018 A 
ATOM      8  C   LIG d   1       8.729   1.585  -4.678  0.00  0.00     0.136 A 
ATOM      9  C   LIG d   1       8.907   2.259  -5.875  0.00  0.00     0.024 A 
ATOM     10  C   LIG d   1       9.416   3.551  -5.876  0.00  0.00     0.143 A 
ATOM     11  O   LIG d   1       9.678   4.407  -6.889  0.00  0.00    -0.451 OA
ATOM     12  H   LIG d   1      10.841   7.567  -6.735  0.00  0.00     0.066 H 
ATOM     13  H   LIG d   1       9.809   3.933  -2.513  0.00  0.00     0.063 H 
ATOM     14  H   LIG d   1       8.912   1.659  -2.540  0.00  0.00     0.065 H 
ATOM     15  H   LIG d   1       8.651   1.779  -6.808  0.00  0.00     0.069 H 
ENDROOT
BRANCH   1  16
ATOM     16  C   LIG d   1      10.511   6.536  -8.670  0.00  0.00    -0.021 A 
ATOM     17  C   LIG d   1       9.336   6.821  -9.375  0.00  0.00    -0.054 A 
ATOM     18  C   LIG d   1       9.315   6.720 -10.741  0.00  0.00    -0.047 A 
ATOM     19  H   LIG d   1       8.445   7.119  -8.841  0.00  0.00     0.062 H 
ATOM     20  C   LIG d   1      10.468   6.335 -11.432  0.00  0.00     0.059 A 
ATOM     21  H   LIG d   1       8.408   6.941 -11.286  0.00  0.00     0.063 H 
ATOM     22  C   LIG d   1      11.642   6.049 -10.730  0.00  0.00    -0.047 A 
ATOM     23  C   LIG d   1      11.667   6.154  -9.362  0.00  0.00    -0.054 A 
ATOM     24  H   LIG d   1      12.532   5.751 -11.264  0.00  0.00     0.063 H 
ATOM     25  H   LIG d   1      12.575   5.938  -8.821  0.00  0.00     0.062 H 
BRANCH  20  26
ATOM     26  C   LIG d   1      10.445   6.227 -12.905  0.00  0.00     0.339 C 
ATOM     27  O   LIG d   1      10.438   7.233 -13.588  0.00  0.00    -0.245 OA
BRANCH  26  28
ATOM     28  O   LIG d   1      10.429   5.014 -13.491  0.00  0.00    -0.465 OA
BRANCH  28  29
ATOM     29  C   LIG d   1       9.624   4.873 -14.693  0.00  0.00     0.082 C 
ATOM     30  H   LIG d   1      10.181   4.303 -15.437  0.00  0.00     0.066 H 
ATOM     31  H   LIG d   1       8.700   4.350 -14.450  0.00  0.00     0.066 H 
ATOM     32  H   LIG d   1       9.391   5.861 -15.091  0.00  0.00     0.066 H 
ENDBRANCH  28  29
ENDBRANCH  26  28
ENDBRANCH  20  26
ENDBRANCH   1  16
BRANCH   8  33
ATOM     33  O   LIG d   1       8.232   0.322  -4.683  0.00  0.00    -0.422 OA
BRANCH  33  34
ATOM     34  C   LIG d   1       6.904   0.189  -4.879  0.00  0.00     0.346 C 
ATOM     35  O   LIG d   1       6.447   0.250  -6.004  0.00  0.00    -0.244 OA
BRANCH  34  36
ATOM     36  C   LIG d   1       6.006  -0.030  -3.728  0.00  0.00     0.078 A 
ATOM     37  C   LIG d   1       5.625  -1.326  -3.371  0.00  0.00     0.055 A 
ATOM     38  C   LIG d   1       4.785  -1.522  -2.293  0.00  0.00    -0.043 A 
ATOM     39 CL   LIG d   1       6.206  -2.686  -4.281  0.00  0.00    -0.083 Cl
ATOM     40  C   LIG d   1       4.322  -0.439  -1.567  0.00  0.00    -0.060 A 
ATOM     41  H   LIG d   1       4.489  -2.523  -2.015  0.00  0.00     0.063 H 
ATOM     42  C   LIG d   1       4.697   0.847  -1.915  0.00  0.00    -0.061 A 
ATOM     43  H   LIG d   1       3.665  -0.598  -0.725  0.00  0.00     0.062 H 
ATOM     44  C   LIG d   1       5.540   1.058  -2.986  0.00  0.00    -0.046 A 
ATOM     45  H   LIG d   1       4.331   1.688  -1.344  0.00  0.00     0.062 H 
ATOM     46  H   LIG d   1       5.834   2.062  -3.253  0.00  0.00     0.063 H 
ENDBRANCH  34  36
ENDBRANCH  33  34
ENDBRANCH   8  33
TORSDOF 7
ENDMDL
MODEL 8
REMARK VINA RESULT:      -6.5      6.972     12.113
REMARK  7 active torsions:
REMARK  status: ('A' for Active; 'I' for Inactive)
REMARK    1  A    between atoms: C_1  and  O_2 
REMARK    2  A    between atoms: O_2  and  C_3 
REMARK    3  A    between atoms: C_3  and  C_5 
REMARK    4  A    between atoms: C_8  and  C_11 
REMARK    5  A    between atoms: C_18  and  O_22 
REMARK    6  A    between atoms: O_22  and  C_23 
REMARK    7  A    between atoms: C_23  and  C_25 
ROOT
ATOM      1  C   LIG d   1       0.973  -3.464 -12.303  0.00  0.00    -0.008 C 
ATOM      2  C   LIG d   1       1.578  -2.502 -11.565  0.00  0.00     0.176 A 
ATOM      3  C   LIG d   1       2.443  -1.424 -12.078  0.00  0.00     0.232 A 
ATOM      4  O   LIG d   1       2.763  -1.210 -13.234  0.00  0.00    -0.283 OA
ATOM      5  C   LIG d   1       2.841  -0.667 -10.877  0.00  0.00     0.068 A 
ATOM      6  C   LIG d   1       3.637   0.462 -10.681  0.00  0.00    -0.044 A 
ATOM      7  C   LIG d   1       3.824   0.954  -9.419  0.00  0.00    -0.018 A 
ATOM      8  C   LIG d   1       3.216   0.333  -8.331  0.00  0.00     0.136 A 
ATOM      9  C   LIG d   1       2.418  -0.785  -8.512  0.00  0.00     0.024 A 
ATOM     10  C   LIG d   1       2.219  -1.297  -9.788  0.00  0.00     0.143 A 
ATOM     11  O   LIG d   1       1.500  -2.356 -10.222  0.00  0.00    -0.451 OA
ATOM     12  H   LIG d   1       1.036  -3.438 -13.381  0.00  0.00     0.066 H 
ATOM     13  H   LIG d   1       4.109   0.944 -11.524  0.00  0.00     0.063 H 
ATOM     14  H   LIG d   1       4.443   1.825  -9.267  0.00  0.00     0.065 H 
ATOM     15  H   LIG d   1       1.951  -1.259  -7.661  0.00  0.00     0.069 H 
ENDROOT
BRANCH   1  16
ATOM     16  C   LIG d   1       0.231  -4.544 -11.637  0.00  0.00    -0.021 A 
ATOM     17  C   LIG d   1      -1.168  -4.511 -11.596  0.00  0.00    -0.054 A 
ATOM     18  C   LIG d   1      -1.859  -5.518 -10.974  0.00  0.00    -0.047 A 
ATOM     19  H   LIG d   1      -1.703  -3.692 -12.054  0.00  0.00     0.062 H 
ATOM     20  C   LIG d   1      -1.167  -6.579 -10.382  0.00  0.00     0.059 A 
ATOM     21  H   LIG d   1      -2.939  -5.494 -10.944  0.00  0.00     0.063 H 
ATOM     22  C   LIG d   1       0.229  -6.613 -10.421  0.00  0.00    -0.047 A 
ATOM     23  C   LIG d   1       0.923  -5.608 -11.047  0.00  0.00    -0.054 A 
ATOM     24  H   LIG d   1       0.763  -7.433  -9.963  0.00  0.00     0.063 H 
ATOM     25  H   LIG d   1       2.001  -5.638 -11.081  0.00  0.00     0.062 H 
BRANCH  20  26
ATOM     26  C   LIG d   1      -1.913  -7.664  -9.713  0.00  0.00     0.339 C 
ATOM     27  O   LIG d   1      -2.526  -7.438  -8.688  0.00  0.00    -0.245 OA
BRANCH  26  28
ATOM     28  O   LIG d   1      -1.914  -8.904 -10.239  0.00  0.00    -0.465 OA
BRANCH  28  29
ATOM     29  C   LIG d   1      -3.207  -9.540 -10.429  0.00  0.00     0.082 C 
ATOM     30  H   LIG d   1      -3.611  -9.836  -9.461  0.00  0.00     0.066 H 
ATOM     31  H   LIG d   1      -3.888  -8.837 -10.909  0.00  0.00     0.066 H 
ATOM     32  H   LIG d   1      -3.089 -10.421 -11.059  0.00  0.00     0.066 H 
ENDBRANCH  28  29
ENDBRANCH  26  28
ENDBRANCH  20  26
ENDBRANCH   1  16
BRANCH   8  33
ATOM     33  O   LIG d   1       3.407   0.829  -7.082  0.00  0.00    -0.422 OA
BRANCH  33  34
ATOM     34  C   LIG d   1       4.374   0.255  -6.338  0.00  0.00     0.346 C 
ATOM     35  O   LIG d   1       5.530   0.290  -6.712  0.00  0.00    -0.244 OA
BRANCH  34  36
ATOM     36  C   LIG d   1       4.029  -0.416  -5.069  0.00  0.00     0.078 A 
ATOM     37  C   LIG d   1       4.620  -1.638  -4.738  0.00  0.00     0.055 A 
ATOM     38  C   LIG d   1       4.292  -2.260  -3.549  0.00  0.00    -0.043 A 
ATOM     39 CL   LIG d   1       5.763  -2.374  -5.818  0.00  0.00    -0.083 Cl
ATOM     40  C   LIG d   1       3.382  -1.675  -2.687  0.00  0.00    -0.060 A 
ATOM     41  H   LIG d   1       4.747  -3.205  -3.291  0.00  0.00     0.063 H 
ATOM     42  C   LIG d   1       2.794  -0.464  -3.010  0.00  0.00    -0.061 A 
ATOM     43  H   LIG d   1       3.128  -2.166  -1.760  0.00  0.00     0.062 H 
ATOM     44  C   LIG d   1       3.115   0.171  -4.190  0.00  0.00    -0.046 A 
ATOM     45  H   LIG d   1       2.083  -0.013  -2.332  0.00  0.00     0.062 H 
ATOM     46  H   LIG d   1       2.659   1.118  -4.437  0.00  0.00     0.063 H 
ENDBRANCH  34  36
ENDBRANCH  33  34
ENDBRANCH   8  33
TORSDOF 7
ENDMDL
MODEL 9
REMARK VINA RESULT:      -6.5      2.335      3.239
REMARK  7 active torsions:
REMARK  status: ('A' for Active; 'I' for Inactive)
REMARK    1  A    between atoms: C_1  and  O_2 
REMARK    2  A    between atoms: O_2  and  C_3 
REMARK    3  A    between atoms: C_3  and  C_5 
REMARK    4  A    between atoms: C_8  and  C_11 
REMARK    5  A    between atoms: C_18  and  O_22 
REMARK    6  A    between atoms: O_22  and  C_23 
REMARK    7  A    between atoms: C_23  and  C_25 
ROOT
ATOM      1  C   LIG d   1      11.049   4.470  -6.010  0.00  0.00    -0.008 C 
ATOM      2  C   LIG d   1      10.317   3.384  -5.661  0.00  0.00     0.176 A 
ATOM      3  C   LIG d   1      10.421   2.036  -6.249  0.00  0.00     0.232 A 
ATOM      4  O   LIG d   1      11.169   1.665  -7.138  0.00  0.00    -0.283 OA
ATOM      5  C   LIG d   1       9.413   1.239  -5.527  0.00  0.00     0.068 A 
ATOM      6  C   LIG d   1       9.021  -0.098  -5.602  0.00  0.00    -0.044 A 
ATOM      7  C   LIG d   1       8.037  -0.566  -4.777  0.00  0.00    -0.018 A 
ATOM      8  C   LIG d   1       7.429   0.287  -3.859  0.00  0.00     0.136 A 
ATOM      9  C   LIG d   1       7.813   1.614  -3.770  0.00  0.00     0.024 A 
ATOM     10  C   LIG d   1       8.812   2.107  -4.601  0.00  0.00     0.143 A 
ATOM     11  O   LIG d   1       9.357   3.338  -4.709  0.00  0.00    -0.451 OA
ATOM     12  H   LIG d   1      11.850   4.373  -6.728  0.00  0.00     0.066 H 
ATOM     13  H   LIG d   1       9.491  -0.761  -6.313  0.00  0.00     0.063 H 
ATOM     14  H   LIG d   1       7.730  -1.600  -4.837  0.00  0.00     0.065 H 
ATOM     15  H   LIG d   1       7.336   2.268  -3.054  0.00  0.00     0.069 H 
ENDROOT
BRANCH   1  16
ATOM     16  C   LIG d   1      10.752   5.780  -5.412  0.00  0.00    -0.021 A 
ATOM     17  C   LIG d   1       9.755   6.593  -5.964  0.00  0.00    -0.054 A 
ATOM     18  C   LIG d   1       9.480   7.813  -5.405  0.00  0.00    -0.047 A 
ATOM     19  H   LIG d   1       9.204   6.258  -6.830  0.00  0.00     0.062 H 
ATOM     20  C   LIG d   1      10.193   8.247  -4.283  0.00  0.00     0.059 A 
ATOM     21  H   LIG d   1       8.710   8.441  -5.831  0.00  0.00     0.063 H 
ATOM     22  C   LIG d   1      11.189   7.436  -3.732  0.00  0.00    -0.047 A 
ATOM     23  C   LIG d   1      11.464   6.212  -4.286  0.00  0.00    -0.054 A 
ATOM     24  H   LIG d   1      11.740   7.772  -2.866  0.00  0.00     0.063 H 
ATOM     25  H   LIG d   1      12.230   5.585  -3.857  0.00  0.00     0.062 H 
BRANCH  20  26
ATOM     26  C   LIG d   1       9.895   9.562  -3.682  0.00  0.00     0.339 C 
ATOM     27  O   LIG d   1      10.071   9.741  -2.493  0.00  0.00    -0.245 OA
BRANCH  26  28
ATOM     28  O   LIG d   1       9.426  10.563  -4.453  0.00  0.00    -0.465 OA
BRANCH  28  29
ATOM     29  C   LIG d   1       8.721  11.640  -3.778  0.00  0.00     0.082 C 
ATOM     30  H   LIG d   1       7.924  11.221  -3.162  0.00  0.00     0.066 H 
ATOM     31  H   LIG d   1       9.418  12.190  -3.147  0.00  0.00     0.066 H 
ATOM     32  H   LIG d   1       8.291  12.312  -4.520  0.00  0.00     0.066 H 
ENDBRANCH  28  29
ENDBRANCH  26  28
ENDBRANCH  20  26
ENDBRANCH   1  16
BRANCH   8  33
ATOM     33  O   LIG d   1       6.453  -0.188  -3.044  0.00  0.00    -0.422 OA
BRANCH  33  34
ATOM     34  C   LIG d   1       5.558  -1.035  -3.591  0.00  0.00     0.346 C 
ATOM     35  O   LIG d   1       5.602  -2.220  -3.326  0.00  0.00    -0.244 OA
BRANCH  34  36
ATOM     36  C   LIG d   1       4.526  -0.522  -4.514  0.00  0.00     0.078 A 
ATOM     37  C   LIG d   1       3.471   0.253  -4.026  0.00  0.00     0.055 A 
ATOM     38  C   LIG d   1       2.509   0.729  -4.896  0.00  0.00    -0.043 A 
ATOM     39 CL   LIG d   1       3.368   0.617  -2.332  0.00  0.00    -0.083 Cl
ATOM     40  C   LIG d   1       2.590   0.440  -6.247  0.00  0.00    -0.060 A 
ATOM     41  H   LIG d   1       1.692   1.328  -4.522  0.00  0.00     0.063 H 
ATOM     42  C   LIG d   1       3.634  -0.327  -6.735  0.00  0.00    -0.061 A 
ATOM     43  H   LIG d   1       1.835   0.814  -6.922  0.00  0.00     0.062 H 
ATOM     44  C   LIG d   1       4.604  -0.805  -5.880  0.00  0.00    -0.046 A 
ATOM     45  H   LIG d   1       3.690  -0.549  -7.791  0.00  0.00     0.062 H 
ATOM     46  H   LIG d   1       5.419  -1.399  -6.264  0.00  0.00     0.063 H 
ENDBRANCH  34  36
ENDBRANCH  33  34
ENDBRANCH   8  33
TORSDOF 7
ENDMDL
