MODEL 1
REMARK VINA RESULT:      -8.1      0.000      0.000
REMARK  5 active torsions:
REMARK  status: ('A' for Active; 'I' for Inactive)
REMARK    1  A    between atoms: C_4  and  C_7 
REMARK    2  A    between atoms: C_7  and  N_8 
REMARK    3  A    between atoms: C_17  and  C_19 
REMARK    4  A    between atoms: C_21  and  C_24 
REMARK    5  A    between atoms: C_28  and  N_30 
ROOT
ATOM      1  N   LIG d   1       7.307   0.731  -5.349  0.00  0.00     0.252 N 
ATOM      2  C   LIG d   1       6.649  -0.225  -6.256  0.00  0.00     0.014 C 
ATOM      3  C   LIG d   1       6.542   0.408  -7.621  0.00  0.00     0.106 A 
ATOM      4  C   LIG d   1       7.275   1.480  -7.998  0.00  0.00     0.050 A 
ATOM      5  N   LIG d   1       6.920   1.779  -9.275  0.00  0.00    -0.348 N 
ATOM      6  C   LIG d   1       5.977   0.879  -9.644  0.00  0.00     0.094 A 
ATOM      7  N   LIG d   1       5.760   0.063  -8.644  0.00  0.00    -0.235 NA
ATOM      8  H   LIG d   1       7.273   2.502  -9.818  0.00  0.00     0.167 HD
ATOM      9  C   LIG d   1       8.281   2.151  -7.099  0.00  0.00     0.042 C 
ATOM     10  C   LIG d   1       8.571   1.198  -5.931  0.00  0.00     0.065 C 
ATOM     11  H   LIG d   1       9.141   0.342  -6.294  0.00  0.00     0.096 H 
ATOM     12  H   LIG d   1       7.244  -1.136  -6.321  0.00  0.00     0.088 H 
ATOM     13  H   LIG d   1       5.655  -0.462  -5.878  0.00  0.00     0.088 H 
ATOM     14  H   LIG d   1       5.486   0.842 -10.604  0.00  0.00     0.103 H 
ATOM     15  H   LIG d   1       9.200   2.347  -7.654  0.00  0.00     0.039 H 
ATOM     16  H   LIG d   1       7.871   3.087  -6.720  0.00  0.00     0.039 H 
ATOM     17  H   LIG d   1       6.697   1.520  -5.200  0.00  0.00     0.205 HD
ENDROOT
BRANCH  10  18
ATOM     18  C   LIG d   1       9.371   1.922  -4.879  0.00  0.00     0.276 A 
ATOM     19  O   LIG d   1      10.451   1.441  -4.249  0.00  0.00    -0.332 OA
ATOM     20  N   LIG d   1      10.876   2.456  -3.351  0.00  0.00    -0.056 NA
ATOM     21  C   LIG d   1      10.038   3.452  -3.494  0.00  0.00     0.203 A 
ATOM     22  N   LIG d   1       9.126   3.118  -4.425  0.00  0.00    -0.186 NA
BRANCH  21  23
ATOM     23  C   LIG d   1      10.084   4.737  -2.752  0.00  0.00     0.029 A 
ATOM     24  C   LIG d   1      10.680   4.795  -1.494  0.00  0.00     0.026 A 
ATOM     25  C   LIG d   1      10.727   5.994  -0.810  0.00  0.00     0.274 A 
ATOM     26  H   LIG d   1      11.107   3.906  -1.056  0.00  0.00     0.069 H 
ATOM     27  C   LIG d   1      10.173   7.133  -1.367  0.00  0.00     0.016 A 
ATOM     28  C   LIG d   1       9.576   7.079  -2.614  0.00  0.00    -0.055 A 
ATOM     29  H   LIG d   1      10.208   8.068  -0.828  0.00  0.00     0.069 H 
ATOM     30  C   LIG d   1       9.530   5.887  -3.309  0.00  0.00    -0.051 A 
ATOM     31  H   LIG d   1       9.146   7.971  -3.045  0.00  0.00     0.062 H 
ATOM     32  H   LIG d   1       9.064   5.847  -4.283  0.00  0.00     0.062 H 
BRANCH  25  33
ATOM     33  N   LIG d   1      11.365   6.060   0.523  0.00  0.00     0.080 N 
ATOM     34  O   LIG d   1      12.523   6.390   0.624  0.00  0.00     0.041 OA
ATOM     35  O   LIG d   1      10.727   5.784   1.513  0.00  0.00    -0.576 OA
ENDBRANCH  25  33
ENDBRANCH  21  23
ENDBRANCH  10  18
BRANCH   1  36
ATOM     36  C   LIG d   1       7.576   0.074  -4.062  0.00  0.00    -0.005 C 
ATOM     37  H   LIG d   1       8.286   0.673  -3.491  0.00  0.00     0.087 H 
ATOM     38  H   LIG d   1       7.996  -0.915  -4.241  0.00  0.00     0.087 H 
BRANCH  36  39
ATOM     39  C   LIG d   1       6.291  -0.057  -3.287  0.00  0.00    -0.003 A 
ATOM     40  C   LIG d   1       5.778  -1.310  -3.005  0.00  0.00    -0.053 A 
ATOM     41  C   LIG d   1       4.600  -1.431  -2.293  0.00  0.00    -0.061 A 
ATOM     42  H   LIG d   1       6.299  -2.194  -3.342  0.00  0.00     0.062 H 
ATOM     43  C   LIG d   1       3.934  -0.298  -1.862  0.00  0.00    -0.062 A 
ATOM     44  H   LIG d   1       4.200  -2.408  -2.074  0.00  0.00     0.062 H 
ATOM     45  C   LIG d   1       4.447   0.954  -2.143  0.00  0.00    -0.061 A 
ATOM     46  H   LIG d   1       3.012  -0.392  -1.309  0.00  0.00     0.062 H 
ATOM     47  C   LIG d   1       5.625   1.075  -2.856  0.00  0.00    -0.053 A 
ATOM     48  H   LIG d   1       3.927   1.839  -1.806  0.00  0.00     0.062 H 
ATOM     49  H   LIG d   1       6.026   2.054  -3.076  0.00  0.00     0.062 H 
ENDBRANCH  36  39
ENDBRANCH   1  36
TORSDOF 5
ENDMDL
MODEL 2
REMARK VINA RESULT:      -8.0      1.020      1.133
REMARK  5 active torsions:
REMARK  status: ('A' for Active; 'I' for Inactive)
REMARK    1  A    between atoms: C_4  and  C_7 
REMARK    2  A    between atoms: C_7  and  N_8 
REMARK    3  A    between atoms: C_17  and  C_19 
REMARK    4  A    between atoms: C_21  and  C_24 
REMARK    5  A    between atoms: C_28  and  N_30 
ROOT
ATOM      1  N   LIG d   1       6.731   0.295  -5.895  0.00  0.00     0.252 N 
ATOM      2  C   LIG d   1       5.955  -0.718  -6.629  0.00  0.00     0.014 C 
ATOM      3  C   LIG d   1       5.588  -0.153  -7.979  0.00  0.00     0.106 A 
ATOM      4  C   LIG d   1       6.209   0.917  -8.526  0.00  0.00     0.050 A 
ATOM      5  N   LIG d   1       5.625   1.147  -9.731  0.00  0.00    -0.348 N 
ATOM      6  C   LIG d   1       4.662   0.208  -9.888  0.00  0.00     0.094 A 
ATOM      7  N   LIG d   1       4.650  -0.565  -8.832  0.00  0.00    -0.235 NA
ATOM      8  H   LIG d   1       5.854   1.851 -10.358  0.00  0.00     0.167 HD
ATOM      9  C   LIG d   1       7.336   1.653  -7.849  0.00  0.00     0.042 C 
ATOM     10  C   LIG d   1       7.858   0.764  -6.712  0.00  0.00     0.065 C 
ATOM     11  H   LIG d   1       8.382  -0.095  -7.134  0.00  0.00     0.096 H 
ATOM     12  H   LIG d   1       6.557  -1.616  -6.760  0.00  0.00     0.088 H 
ATOM     13  H   LIG d   1       5.051  -0.961  -6.072  0.00  0.00     0.088 H 
ATOM     14  H   LIG d   1       4.010   0.114 -10.744  0.00  0.00     0.103 H 
ATOM     15  H   LIG d   1       8.136   1.845  -8.566  0.00  0.00     0.039 H 
ATOM     16  H   LIG d   1       6.969   2.596  -7.443  0.00  0.00     0.039 H 
ATOM     17  H   LIG d   1       6.132   1.075  -5.674  0.00  0.00     0.205 HD
ENDROOT
BRANCH  10  18
ATOM     18  C   LIG d   1       8.807   1.556  -5.850  0.00  0.00     0.276 A 
ATOM     19  O   LIG d   1      10.030   1.164  -5.469  0.00  0.00    -0.332 OA
ATOM     20  N   LIG d   1      10.559   2.216  -4.676  0.00  0.00    -0.056 NA
ATOM     21  C   LIG d   1       9.636   3.145  -4.628  0.00  0.00     0.203 A 
ATOM     22  N   LIG d   1       8.575   2.734  -5.345  0.00  0.00    -0.186 NA
BRANCH  21  23
ATOM     23  C   LIG d   1       9.743   4.436  -3.904  0.00  0.00     0.029 A 
ATOM     24  C   LIG d   1      10.232   4.466  -2.599  0.00  0.00     0.026 A 
ATOM     25  C   LIG d   1      10.335   5.670  -1.932  0.00  0.00     0.274 A 
ATOM     26  H   LIG d   1      10.533   3.551  -2.113  0.00  0.00     0.069 H 
ATOM     27  C   LIG d   1       9.943   6.844  -2.551  0.00  0.00     0.016 A 
ATOM     28  C   LIG d   1       9.452   6.818  -3.845  0.00  0.00    -0.055 A 
ATOM     29  H   LIG d   1      10.022   7.783  -2.025  0.00  0.00     0.069 H 
ATOM     30  C   LIG d   1       9.351   5.620  -4.523  0.00  0.00    -0.051 A 
ATOM     31  H   LIG d   1       9.148   7.736  -4.324  0.00  0.00     0.062 H 
ATOM     32  H   LIG d   1       8.969   5.602  -5.533  0.00  0.00     0.062 H 
BRANCH  25  33
ATOM     33  N   LIG d   1      10.860   5.706  -0.549  0.00  0.00     0.080 N 
ATOM     34  O   LIG d   1      11.899   5.147  -0.281  0.00  0.00     0.041 OA
ATOM     35  O   LIG d   1      10.252   6.295   0.315  0.00  0.00    -0.576 OA
ENDBRANCH  25  33
ENDBRANCH  21  23
ENDBRANCH  10  18
BRANCH   1  36
ATOM     36  C   LIG d   1       7.244  -0.293  -4.650  0.00  0.00    -0.005 C 
ATOM     37  H   LIG d   1       8.118   0.267  -4.317  0.00  0.00     0.087 H 
ATOM     38  H   LIG d   1       7.522  -1.332  -4.827  0.00  0.00     0.087 H 
BRANCH  36  39
ATOM     39  C   LIG d   1       6.175  -0.233  -3.589  0.00  0.00    -0.003 A 
ATOM     40  C   LIG d   1       5.598  -1.399  -3.122  0.00  0.00    -0.053 A 
ATOM     41  C   LIG d   1       4.619  -1.345  -2.148  0.00  0.00    -0.061 A 
ATOM     42  H   LIG d   1       5.914  -2.353  -3.517  0.00  0.00     0.062 H 
ATOM     43  C   LIG d   1       4.216  -0.122  -1.641  0.00  0.00    -0.062 A 
ATOM     44  H   LIG d   1       4.169  -2.255  -1.783  0.00  0.00     0.062 H 
ATOM     45  C   LIG d   1       4.794   1.043  -2.108  0.00  0.00    -0.061 A 
ATOM     46  H   LIG d   1       3.449  -0.079  -0.883  0.00  0.00     0.062 H 
ATOM     47  C   LIG d   1       5.772   0.989  -3.082  0.00  0.00    -0.053 A 
ATOM     48  H   LIG d   1       4.479   1.998  -1.712  0.00  0.00     0.062 H 
ATOM     49  H   LIG d   1       6.223   1.900  -3.448  0.00  0.00     0.062 H 
ENDBRANCH  36  39
ENDBRANCH   1  36
TORSDOF 5
ENDMDL
MODEL 3
REMARK VINA RESULT:      -7.6      2.310      2.890
REMARK  5 active torsions:
REMARK  status: ('A' for Active; 'I' for Inactive)
REMARK    1  A    between atoms: C_4  and  C_7 
REMARK    2  A    between atoms: C_7  and  N_8 
REMARK    3  A    between atoms: C_17  and  C_19 
REMARK    4  A    between atoms: C_21  and  C_24 
REMARK    5  A    between atoms: C_28  and  N_30 
ROOT
ATOM      1  N   LIG d   1       5.982   0.038  -6.311  0.00  0.00     0.252 N 
ATOM      2  C   LIG d   1       5.030  -0.863  -6.981  0.00  0.00     0.014 C 
ATOM      3  C   LIG d   1       4.524  -0.181  -8.228  0.00  0.00     0.106 A 
ATOM      4  C   LIG d   1       5.147   0.875  -8.798  0.00  0.00     0.050 A 
ATOM      5  N   LIG d   1       4.420   1.228  -9.889  0.00  0.00    -0.348 N 
ATOM      6  C   LIG d   1       3.370   0.376  -9.958  0.00  0.00     0.094 A 
ATOM      7  N   LIG d   1       3.445  -0.465  -8.957  0.00  0.00    -0.235 NA
ATOM      8  H   LIG d   1       4.615   1.955 -10.502  0.00  0.00     0.167 HD
ATOM      9  C   LIG d   1       6.415   1.479  -8.252  0.00  0.00     0.042 C 
ATOM     10  C   LIG d   1       7.017   0.478  -7.255  0.00  0.00     0.065 C 
ATOM     11  H   LIG d   1       7.404  -0.385  -7.798  0.00  0.00     0.096 H 
ATOM     12  H   LIG d   1       5.532  -1.792  -7.249  0.00  0.00     0.088 H 
ATOM     13  H   LIG d   1       4.197  -1.077  -6.312  0.00  0.00     0.088 H 
ATOM     14  H   LIG d   1       2.599   0.388 -10.713  0.00  0.00     0.103 H 
ATOM     15  H   LIG d   1       7.118   1.660  -9.065  0.00  0.00     0.039 H 
ATOM     16  H   LIG d   1       6.188   2.417  -7.743  0.00  0.00     0.039 H 
ATOM     17  H   LIG d   1       5.486   0.843  -5.961  0.00  0.00     0.205 HD
ENDROOT
BRANCH  10  18
ATOM     18  C   LIG d   1       8.140   1.138  -6.498  0.00  0.00     0.276 A 
ATOM     19  O   LIG d   1       9.394   0.678  -6.399  0.00  0.00    -0.332 OA
ATOM     20  N   LIG d   1      10.102   1.612  -5.599  0.00  0.00    -0.056 NA
ATOM     21  C   LIG d   1       9.245   2.547  -5.272  0.00  0.00     0.203 A 
ATOM     22  N   LIG d   1       8.054   2.249  -5.823  0.00  0.00    -0.186 NA
BRANCH  21  23
ATOM     23  C   LIG d   1       9.537   3.736  -4.434  0.00  0.00     0.029 A 
ATOM     24  C   LIG d   1       9.450   5.015  -4.982  0.00  0.00     0.026 A 
ATOM     25  C   LIG d   1       9.716   6.119  -4.196  0.00  0.00     0.274 A 
ATOM     26  H   LIG d   1       9.170   5.142  -6.016  0.00  0.00     0.069 H 
ATOM     27  C   LIG d   1      10.081   5.957  -2.872  0.00  0.00     0.016 A 
ATOM     28  C   LIG d   1      10.174   4.689  -2.325  0.00  0.00    -0.055 A 
ATOM     29  H   LIG d   1      10.292   6.822  -2.262  0.00  0.00     0.069 H 
ATOM     30  C   LIG d   1       9.903   3.579  -3.100  0.00  0.00    -0.051 A 
ATOM     31  H   LIG d   1      10.459   4.568  -1.291  0.00  0.00     0.062 H 
ATOM     32  H   LIG d   1       9.975   2.590  -2.671  0.00  0.00     0.062 H 
BRANCH  25  33
ATOM     33  N   LIG d   1       9.617   7.478  -4.774  0.00  0.00     0.080 N 
ATOM     34  O   LIG d   1       9.976   8.436  -4.130  0.00  0.00     0.041 OA
ATOM     35  O   LIG d   1       9.180   7.630  -5.891  0.00  0.00    -0.576 OA
ENDBRANCH  25  33
ENDBRANCH  21  23
ENDBRANCH  10  18
BRANCH   1  36
ATOM     36  C   LIG d   1       6.616  -0.669  -5.190  0.00  0.00    -0.005 C 
ATOM     37  H   LIG d   1       7.633  -0.302  -5.057  0.00  0.00     0.087 H 
ATOM     38  H   LIG d   1       6.639  -1.738  -5.402  0.00  0.00     0.087 H 
BRANCH  36  39
ATOM     39  C   LIG d   1       5.824  -0.425  -3.931  0.00  0.00    -0.003 A 
ATOM     40  C   LIG d   1       5.169  -1.472  -3.311  0.00  0.00    -0.053 A 
ATOM     41  C   LIG d   1       4.445  -1.248  -2.156  0.00  0.00    -0.061 A 
ATOM     42  H   LIG d   1       5.224  -2.466  -3.730  0.00  0.00     0.062 H 
ATOM     43  C   LIG d   1       4.376   0.025  -1.619  0.00  0.00    -0.062 A 
ATOM     44  H   LIG d   1       3.932  -2.065  -1.672  0.00  0.00     0.062 H 
ATOM     45  C   LIG d   1       5.032   1.072  -2.238  0.00  0.00    -0.061 A 
ATOM     46  H   LIG d   1       3.807   0.201  -0.719  0.00  0.00     0.062 H 
ATOM     47  C   LIG d   1       5.756   0.848  -3.394  0.00  0.00    -0.053 A 
ATOM     48  H   LIG d   1       4.979   2.067  -1.819  0.00  0.00     0.062 H 
ATOM     49  H   LIG d   1       6.269   1.667  -3.878  0.00  0.00     0.062 H 
ENDBRANCH  36  39
ENDBRANCH   1  36
TORSDOF 5
ENDMDL
MODEL 4
REMARK VINA RESULT:      -7.5      5.725      9.140
REMARK  5 active torsions:
REMARK  status: ('A' for Active; 'I' for Inactive)
REMARK    1  A    between atoms: C_4  and  C_7 
REMARK    2  A    between atoms: C_7  and  N_8 
REMARK    3  A    between atoms: C_17  and  C_19 
REMARK    4  A    between atoms: C_21  and  C_24 
REMARK    5  A    between atoms: C_28  and  N_30 
ROOT
ATOM      1  N   LIG d   1       4.352  -0.476  -6.590  0.00  0.00     0.252 N 
ATOM      2  C   LIG d   1       3.197   0.261  -7.128  0.00  0.00     0.014 C 
ATOM      3  C   LIG d   1       3.595   0.878  -8.445  0.00  0.00     0.106 A 
ATOM      4  C   LIG d   1       4.676   0.476  -9.153  0.00  0.00     0.050 A 
ATOM      5  N   LIG d   1       4.731   1.244 -10.271  0.00  0.00    -0.348 N 
ATOM      6  C   LIG d   1       3.679   2.096 -10.218  0.00  0.00     0.094 A 
ATOM      7  N   LIG d   1       3.006   1.865  -9.119  0.00  0.00    -0.235 NA
ATOM      8  H   LIG d   1       5.398   1.194 -10.974  0.00  0.00     0.167 HD
ATOM      9  C   LIG d   1       5.592  -0.632  -8.703  0.00  0.00     0.042 C 
ATOM     10  C   LIG d   1       4.871  -1.412  -7.594  0.00  0.00     0.065 C 
ATOM     11  H   LIG d   1       4.044  -1.976  -8.026  0.00  0.00     0.096 H 
ATOM     12  H   LIG d   1       2.364  -0.425  -7.281  0.00  0.00     0.088 H 
ATOM     13  H   LIG d   1       2.903   1.042  -6.427  0.00  0.00     0.088 H 
ATOM     14  H   LIG d   1       3.436   2.842 -10.960  0.00  0.00     0.103 H 
ATOM     15  H   LIG d   1       5.809  -1.296  -9.541  0.00  0.00     0.039 H 
ATOM     16  H   LIG d   1       6.520  -0.210  -8.316  0.00  0.00     0.039 H 
ATOM     17  H   LIG d   1       5.076   0.180  -6.339  0.00  0.00     0.205 HD
ENDROOT
BRANCH  10  18
ATOM     18  C   LIG d   1       5.839  -2.365  -6.940  0.00  0.00     0.276 A 
ATOM     19  O   LIG d   1       7.082  -2.066  -6.542  0.00  0.00    -0.332 OA
ATOM     20  N   LIG d   1       7.621  -3.255  -5.985  0.00  0.00    -0.056 NA
ATOM     21  C   LIG d   1       6.689  -4.170  -6.089  0.00  0.00     0.203 A 
ATOM     22  N   LIG d   1       5.609  -3.619  -6.672  0.00  0.00    -0.186 NA
BRANCH  21  23
ATOM     23  C   LIG d   1       6.804  -5.579  -5.640  0.00  0.00     0.029 A 
ATOM     24  C   LIG d   1       5.716  -6.442  -5.759  0.00  0.00     0.026 A 
ATOM     25  C   LIG d   1       5.830  -7.754  -5.345  0.00  0.00     0.274 A 
ATOM     26  H   LIG d   1       4.787  -6.085  -6.178  0.00  0.00     0.069 H 
ATOM     27  C   LIG d   1       7.018  -8.210  -4.802  0.00  0.00     0.016 A 
ATOM     28  C   LIG d   1       8.099  -7.357  -4.677  0.00  0.00    -0.055 A 
ATOM     29  H   LIG d   1       7.101  -9.236  -4.476  0.00  0.00     0.069 H 
ATOM     30  C   LIG d   1       7.998  -6.045  -5.093  0.00  0.00    -0.051 A 
ATOM     31  H   LIG d   1       9.024  -7.718  -4.253  0.00  0.00     0.062 H 
ATOM     32  H   LIG d   1       8.844  -5.380  -4.996  0.00  0.00     0.062 H 
BRANCH  25  33
ATOM     33  N   LIG d   1       4.677  -8.673  -5.477  0.00  0.00     0.080 N 
ATOM     34  O   LIG d   1       4.281  -8.992  -6.574  0.00  0.00     0.041 OA
ATOM     35  O   LIG d   1       4.133  -9.106  -4.489  0.00  0.00    -0.576 OA
ENDBRANCH  25  33
ENDBRANCH  21  23
ENDBRANCH  10  18
BRANCH   1  36
ATOM     36  C   LIG d   1       3.938  -1.225  -5.395  0.00  0.00    -0.005 C 
ATOM     37  H   LIG d   1       4.501  -2.156  -5.337  0.00  0.00     0.087 H 
ATOM     38  H   LIG d   1       2.873  -1.446  -5.456  0.00  0.00     0.087 H 
BRANCH  36  39
ATOM     39  C   LIG d   1       4.208  -0.397  -4.165  0.00  0.00    -0.003 A 
ATOM     40  C   LIG d   1       5.507  -0.076  -3.819  0.00  0.00    -0.053 A 
ATOM     41  C   LIG d   1       5.755   0.685  -2.692  0.00  0.00    -0.061 A 
ATOM     42  H   LIG d   1       6.329  -0.419  -4.431  0.00  0.00     0.062 H 
ATOM     43  C   LIG d   1       4.703   1.125  -1.910  0.00  0.00    -0.062 A 
ATOM     44  H   LIG d   1       6.770   0.935  -2.422  0.00  0.00     0.062 H 
ATOM     45  C   LIG d   1       3.404   0.805  -2.257  0.00  0.00    -0.061 A 
ATOM     46  H   LIG d   1       4.897   1.716  -1.028  0.00  0.00     0.062 H 
ATOM     47  C   LIG d   1       3.156   0.044  -3.383  0.00  0.00    -0.053 A 
ATOM     48  H   LIG d   1       2.581   1.149  -1.646  0.00  0.00     0.062 H 
ATOM     49  H   LIG d   1       2.140  -0.207  -3.654  0.00  0.00     0.062 H 
ENDBRANCH  36  39
ENDBRANCH   1  36
TORSDOF 5
ENDMDL
MODEL 5
REMARK VINA RESULT:      -7.2      6.357     10.372
REMARK  5 active torsions:
REMARK  status: ('A' for Active; 'I' for Inactive)
REMARK    1  A    between atoms: C_4  and  C_7 
REMARK    2  A    between atoms: C_7  and  N_8 
REMARK    3  A    between atoms: C_17  and  C_19 
REMARK    4  A    between atoms: C_21  and  C_24 
REMARK    5  A    between atoms: C_28  and  N_30 
ROOT
ATOM      1  N   LIG d   1       5.441  -1.992  -6.175  0.00  0.00     0.252 N 
ATOM      2  C   LIG d   1       4.608  -0.791  -5.996  0.00  0.00     0.014 C 
ATOM      3  C   LIG d   1       3.760  -0.610  -7.230  0.00  0.00     0.106 A 
ATOM      4  C   LIG d   1       3.541  -1.598  -8.128  0.00  0.00     0.050 A 
ATOM      5  N   LIG d   1       2.745  -1.085  -9.102  0.00  0.00    -0.348 N 
ATOM      6  C   LIG d   1       2.497   0.204  -8.771  0.00  0.00     0.094 A 
ATOM      7  N   LIG d   1       3.111   0.476  -7.648  0.00  0.00    -0.235 NA
ATOM      8  H   LIG d   1       2.418  -1.554  -9.886  0.00  0.00     0.167 HD
ATOM      9  C   LIG d   1       4.115  -2.984  -7.988  0.00  0.00     0.042 C 
ATOM     10  C   LIG d   1       4.605  -3.142  -6.541  0.00  0.00     0.065 C 
ATOM     11  H   LIG d   1       3.746  -3.194  -5.871  0.00  0.00     0.096 H 
ATOM     12  H   LIG d   1       3.965  -0.918  -5.126  0.00  0.00     0.088 H 
ATOM     13  H   LIG d   1       5.247   0.080  -5.855  0.00  0.00     0.088 H 
ATOM     14  H   LIG d   1       1.894   0.894  -9.341  0.00  0.00     0.103 H 
ATOM     15  H   LIG d   1       3.345  -3.726  -8.202  0.00  0.00     0.039 H 
ATOM     16  H   LIG d   1       4.951  -3.109  -8.677  0.00  0.00     0.039 H 
ATOM     17  H   LIG d   1       6.114  -1.823  -6.906  0.00  0.00     0.205 HD
ENDROOT
BRANCH  10  18
ATOM     18  C   LIG d   1       5.412  -4.409  -6.420  0.00  0.00     0.276 A 
ATOM     19  O   LIG d   1       6.570  -4.661  -7.044  0.00  0.00    -0.332 OA
ATOM     20  N   LIG d   1       6.968  -5.962  -6.638  0.00  0.00    -0.056 NA
ATOM     21  C   LIG d   1       6.041  -6.397  -5.821  0.00  0.00     0.203 A 
ATOM     22  N   LIG d   1       5.098  -5.445  -5.696  0.00  0.00    -0.186 NA
BRANCH  21  23
ATOM     23  C   LIG d   1       6.030  -7.718  -5.147  0.00  0.00     0.029 A 
ATOM     24  C   LIG d   1       4.822  -8.368  -4.902  0.00  0.00     0.026 A 
ATOM     25  C   LIG d   1       4.818  -9.601  -4.280  0.00  0.00     0.274 A 
ATOM     26  H   LIG d   1       3.892  -7.910  -5.202  0.00  0.00     0.069 H 
ATOM     27  C   LIG d   1       6.009 -10.185  -3.888  0.00  0.00     0.016 A 
ATOM     28  C   LIG d   1       7.211  -9.542  -4.124  0.00  0.00    -0.055 A 
ATOM     29  H   LIG d   1       6.001 -11.147  -3.398  0.00  0.00     0.069 H 
ATOM     30  C   LIG d   1       7.227  -8.312  -4.751  0.00  0.00    -0.051 A 
ATOM     31  H   LIG d   1       8.138 -10.002  -3.817  0.00  0.00     0.062 H 
ATOM     32  H   LIG d   1       8.166  -7.812  -4.936  0.00  0.00     0.062 H 
BRANCH  25  33
ATOM     33  N   LIG d   1       3.536 -10.295  -4.025  0.00  0.00     0.080 N 
ATOM     34  O   LIG d   1       3.263 -11.303  -4.634  0.00  0.00     0.041 OA
ATOM     35  O   LIG d   1       2.762  -9.855  -3.207  0.00  0.00    -0.576 OA
ENDBRANCH  25  33
ENDBRANCH  21  23
ENDBRANCH  10  18
BRANCH   1  36
ATOM     36  C   LIG d   1       6.148  -2.285  -4.920  0.00  0.00    -0.005 C 
ATOM     37  H   LIG d   1       7.209  -2.066  -5.042  0.00  0.00     0.087 H 
ATOM     38  H   LIG d   1       6.020  -3.338  -4.669  0.00  0.00     0.087 H 
BRANCH  36  39
ATOM     39  C   LIG d   1       5.582  -1.432  -3.814  0.00  0.00    -0.003 A 
ATOM     40  C   LIG d   1       4.596  -1.937  -2.987  0.00  0.00    -0.053 A 
ATOM     41  C   LIG d   1       4.078  -1.156  -1.972  0.00  0.00    -0.061 A 
ATOM     42  H   LIG d   1       4.232  -2.943  -3.134  0.00  0.00     0.062 H 
ATOM     43  C   LIG d   1       4.546   0.132  -1.784  0.00  0.00    -0.062 A 
ATOM     44  H   LIG d   1       3.308  -1.549  -1.326  0.00  0.00     0.062 H 
ATOM     45  C   LIG d   1       5.533   0.637  -2.610  0.00  0.00    -0.061 A 
ATOM     46  H   LIG d   1       4.139   0.744  -0.993  0.00  0.00     0.062 H 
ATOM     47  C   LIG d   1       6.050  -0.145  -3.626  0.00  0.00    -0.053 A 
ATOM     48  H   LIG d   1       5.898   1.642  -2.463  0.00  0.00     0.062 H 
ATOM     49  H   LIG d   1       6.821   0.250  -4.272  0.00  0.00     0.062 H 
ENDBRANCH  36  39
ENDBRANCH   1  36
TORSDOF 5
ENDMDL
MODEL 6
REMARK VINA RESULT:      -7.2      5.325      7.761
REMARK  5 active torsions:
REMARK  status: ('A' for Active; 'I' for Inactive)
REMARK    1  A    between atoms: C_4  and  C_7 
REMARK    2  A    between atoms: C_7  and  N_8 
REMARK    3  A    between atoms: C_17  and  C_19 
REMARK    4  A    between atoms: C_21  and  C_24 
REMARK    5  A    between atoms: C_28  and  N_30 
ROOT
ATOM      1  N   LIG d   1       4.200  -0.169  -6.324  0.00  0.00     0.252 N 
ATOM      2  C   LIG d   1       3.061   0.051  -7.229  0.00  0.00     0.014 C 
ATOM      3  C   LIG d   1       3.531   0.887  -8.393  0.00  0.00     0.106 A 
ATOM      4  C   LIG d   1       4.836   1.042  -8.713  0.00  0.00     0.050 A 
ATOM      5  N   LIG d   1       4.889   1.852  -9.801  0.00  0.00    -0.348 N 
ATOM      6  C   LIG d   1       3.612   2.170 -10.120  0.00  0.00     0.094 A 
ATOM      7  N   LIG d   1       2.808   1.585  -9.269  0.00  0.00    -0.235 NA
ATOM      8  H   LIG d   1       5.690   2.148 -10.262  0.00  0.00     0.167 HD
ATOM      9  C   LIG d   1       5.958   0.393  -7.944  0.00  0.00     0.042 C 
ATOM     10  C   LIG d   1       5.345  -0.709  -7.068  0.00  0.00     0.065 C 
ATOM     11  H   LIG d   1       5.011  -1.532  -7.700  0.00  0.00     0.096 H 
ATOM     12  H   LIG d   1       2.691  -0.907  -7.592  0.00  0.00     0.088 H 
ATOM     13  H   LIG d   1       2.266   0.572  -6.696  0.00  0.00     0.088 H 
ATOM     14  H   LIG d   1       3.307   2.802 -10.940  0.00  0.00     0.103 H 
ATOM     15  H   LIG d   1       6.678  -0.043  -8.637  0.00  0.00     0.039 H 
ATOM     16  H   LIG d   1       6.452   1.134  -7.315  0.00  0.00     0.039 H 
ATOM     17  H   LIG d   1       4.462   0.707  -5.899  0.00  0.00     0.205 HD
ENDROOT
BRANCH  10  18
ATOM     18  C   LIG d   1       6.382  -1.214  -6.097  0.00  0.00     0.276 A 
ATOM     19  O   LIG d   1       7.174  -0.451  -5.332  0.00  0.00    -0.332 OA
ATOM     20  N   LIG d   1       7.985  -1.342  -4.581  0.00  0.00    -0.056 NA
ATOM     21  C   LIG d   1       7.640  -2.553  -4.943  0.00  0.00     0.203 A 
ATOM     22  N   LIG d   1       6.664  -2.464  -5.866  0.00  0.00    -0.186 NA
BRANCH  21  23
ATOM     23  C   LIG d   1       8.225  -3.813  -4.423  0.00  0.00     0.029 A 
ATOM     24  C   LIG d   1       7.950  -5.024  -5.054  0.00  0.00     0.026 A 
ATOM     25  C   LIG d   1       8.503  -6.193  -4.570  0.00  0.00     0.274 A 
ATOM     26  H   LIG d   1       7.310  -5.047  -5.923  0.00  0.00     0.069 H 
ATOM     27  C   LIG d   1       9.318  -6.165  -3.453  0.00  0.00     0.016 A 
ATOM     28  C   LIG d   1       9.590  -4.966  -2.819  0.00  0.00    -0.055 A 
ATOM     29  H   LIG d   1       9.745  -7.082  -3.075  0.00  0.00     0.069 H 
ATOM     30  C   LIG d   1       9.049  -3.791  -3.299  0.00  0.00    -0.051 A 
ATOM     31  H   LIG d   1      10.228  -4.949  -1.948  0.00  0.00     0.062 H 
ATOM     32  H   LIG d   1       9.263  -2.855  -2.804  0.00  0.00     0.062 H 
BRANCH  25  33
ATOM     33  N   LIG d   1       8.217  -7.480  -5.244  0.00  0.00     0.080 N 
ATOM     34  O   LIG d   1       8.037  -7.510  -6.439  0.00  0.00     0.041 OA
ATOM     35  O   LIG d   1       8.166  -8.502  -4.600  0.00  0.00    -0.576 OA
ENDBRANCH  25  33
ENDBRANCH  21  23
ENDBRANCH  10  18
BRANCH   1  36
ATOM     36  C   LIG d   1       3.811  -1.121  -5.273  0.00  0.00    -0.005 C 
ATOM     37  H   LIG d   1       4.428  -2.016  -5.347  0.00  0.00     0.087 H 
ATOM     38  H   LIG d   1       2.762  -1.390  -5.398  0.00  0.00     0.087 H 
BRANCH  36  39
ATOM     39  C   LIG d   1       4.008  -0.484  -3.921  0.00  0.00    -0.003 A 
ATOM     40  C   LIG d   1       3.694   0.848  -3.732  0.00  0.00    -0.053 A 
ATOM     41  C   LIG d   1       3.874   1.432  -2.492  0.00  0.00    -0.061 A 
ATOM     42  H   LIG d   1       3.308   1.434  -4.553  0.00  0.00     0.062 H 
ATOM     43  C   LIG d   1       4.367   0.681  -1.440  0.00  0.00    -0.062 A 
ATOM     44  H   LIG d   1       3.630   2.472  -2.344  0.00  0.00     0.062 H 
ATOM     45  C   LIG d   1       4.680  -0.652  -1.630  0.00  0.00    -0.061 A 
ATOM     46  H   LIG d   1       4.512   1.138  -0.473  0.00  0.00     0.062 H 
ATOM     47  C   LIG d   1       4.501  -1.235  -2.870  0.00  0.00    -0.053 A 
ATOM     48  H   LIG d   1       5.065  -1.238  -0.808  0.00  0.00     0.062 H 
ATOM     49  H   LIG d   1       4.746  -2.276  -3.018  0.00  0.00     0.062 H 
ENDBRANCH  36  39
ENDBRANCH   1  36
TORSDOF 5
ENDMDL
MODEL 7
REMARK VINA RESULT:      -7.1      3.187      7.918
REMARK  5 active torsions:
REMARK  status: ('A' for Active; 'I' for Inactive)
REMARK    1  A    between atoms: C_4  and  C_7 
REMARK    2  A    between atoms: C_7  and  N_8 
REMARK    3  A    between atoms: C_17  and  C_19 
REMARK    4  A    between atoms: C_21  and  C_24 
REMARK    5  A    between atoms: C_28  and  N_30 
ROOT
ATOM      1  N   LIG d   1      11.011   3.337  -4.109  0.00  0.00     0.252 N 
ATOM      2  C   LIG d   1      12.374   3.874  -4.247  0.00  0.00     0.014 C 
ATOM      3  C   LIG d   1      13.354   2.788  -3.875  0.00  0.00     0.106 A 
ATOM      4  C   LIG d   1      13.021   1.478  -3.822  0.00  0.00     0.050 A 
ATOM      5  N   LIG d   1      14.136   0.796  -3.454  0.00  0.00    -0.348 N 
ATOM      6  C   LIG d   1      15.123   1.709  -3.293  0.00  0.00     0.094 A 
ATOM      7  N   LIG d   1      14.641   2.899  -3.549  0.00  0.00    -0.235 NA
ATOM      8  H   LIG d   1      14.210  -0.163  -3.329  0.00  0.00     0.167 HD
ATOM      9  C   LIG d   1      11.639   0.964  -4.134  0.00  0.00     0.042 C 
ATOM     10  C   LIG d   1      10.878   2.082  -4.860  0.00  0.00     0.065 C 
ATOM     11  H   LIG d   1      11.292   2.213  -5.860  0.00  0.00     0.096 H 
ATOM     12  H   LIG d   1      12.544   4.182  -5.278  0.00  0.00     0.088 H 
ATOM     13  H   LIG d   1      12.500   4.729  -3.583  0.00  0.00     0.088 H 
ATOM     14  H   LIG d   1      16.139   1.491  -3.002  0.00  0.00     0.103 H 
ATOM     15  H   LIG d   1      11.708   0.085  -4.776  0.00  0.00     0.039 H 
ATOM     16  H   LIG d   1      11.124   0.706  -3.208  0.00  0.00     0.039 H 
ATOM     17  H   LIG d   1      10.819   3.165  -3.134  0.00  0.00     0.205 HD
ENDROOT
BRANCH  10  18
ATOM     18  C   LIG d   1       9.421   1.711  -4.965  0.00  0.00     0.276 A 
ATOM     19  O   LIG d   1       8.686   1.742  -6.084  0.00  0.00    -0.332 OA
ATOM     20  N   LIG d   1       7.382   1.314  -5.718  0.00  0.00    -0.056 NA
ATOM     21  C   LIG d   1       7.419   1.068  -4.432  0.00  0.00     0.203 A 
ATOM     22  N   LIG d   1       8.664   1.313  -3.984  0.00  0.00    -0.186 NA
BRANCH  21  23
ATOM     23  C   LIG d   1       6.280   0.598  -3.607  0.00  0.00     0.029 A 
ATOM     24  C   LIG d   1       5.788  -0.696  -3.767  0.00  0.00     0.026 A 
ATOM     25  C   LIG d   1       4.732  -1.132  -2.992  0.00  0.00     0.274 A 
ATOM     26  H   LIG d   1       6.236  -1.358  -4.493  0.00  0.00     0.069 H 
ATOM     27  C   LIG d   1       4.153  -0.282  -2.067  0.00  0.00     0.016 A 
ATOM     28  C   LIG d   1       4.633   1.005  -1.907  0.00  0.00    -0.055 A 
ATOM     29  H   LIG d   1       3.324  -0.625  -1.466  0.00  0.00     0.069 H 
ATOM     30  C   LIG d   1       5.694   1.448  -2.672  0.00  0.00    -0.051 A 
ATOM     31  H   LIG d   1       4.179   1.665  -1.183  0.00  0.00     0.062 H 
ATOM     32  H   LIG d   1       6.069   2.454  -2.546  0.00  0.00     0.062 H 
BRANCH  25  33
ATOM     33  N   LIG d   1       4.213  -2.508  -3.157  0.00  0.00     0.080 N 
ATOM     34  O   LIG d   1       4.464  -3.133  -4.161  0.00  0.00     0.041 OA
ATOM     35  O   LIG d   1       3.539  -3.009  -2.286  0.00  0.00    -0.576 OA
ENDBRANCH  25  33
ENDBRANCH  21  23
ENDBRANCH  10  18
BRANCH   1  36
ATOM     36  C   LIG d   1      10.047   4.318  -4.628  0.00  0.00    -0.005 C 
ATOM     37  H   LIG d   1       9.054   3.870  -4.658  0.00  0.00     0.087 H 
ATOM     38  H   LIG d   1      10.342   4.619  -5.633  0.00  0.00     0.087 H 
BRANCH  36  39
ATOM     39  C   LIG d   1      10.027   5.527  -3.728  0.00  0.00    -0.003 A 
ATOM     40  C   LIG d   1       9.951   5.366  -2.357  0.00  0.00    -0.053 A 
ATOM     41  C   LIG d   1       9.934   6.474  -1.531  0.00  0.00    -0.061 A 
ATOM     42  H   LIG d   1       9.906   4.375  -1.932  0.00  0.00     0.062 H 
ATOM     43  C   LIG d   1       9.992   7.744  -2.077  0.00  0.00    -0.062 A 
ATOM     44  H   LIG d   1       9.874   6.349  -0.461  0.00  0.00     0.062 H 
ATOM     45  C   LIG d   1      10.069   7.904  -3.447  0.00  0.00    -0.061 A 
ATOM     46  H   LIG d   1       9.975   8.609  -1.432  0.00  0.00     0.062 H 
ATOM     47  C   LIG d   1      10.085   6.796  -4.273  0.00  0.00    -0.053 A 
ATOM     48  H   LIG d   1      10.115   8.896  -3.873  0.00  0.00     0.062 H 
ATOM     49  H   LIG d   1      10.145   6.921  -5.344  0.00  0.00     0.062 H 
ENDBRANCH  36  39
ENDBRANCH   1  36
TORSDOF 5
ENDMDL
MODEL 8
REMARK VINA RESULT:      -7.1      2.350      3.004
REMARK  5 active torsions:
REMARK  status: ('A' for Active; 'I' for Inactive)
REMARK    1  A    between atoms: C_4  and  C_7 
REMARK    2  A    between atoms: C_7  and  N_8 
REMARK    3  A    between atoms: C_17  and  C_19 
REMARK    4  A    between atoms: C_21  and  C_24 
REMARK    5  A    between atoms: C_28  and  N_30 
ROOT
ATOM      1  N   LIG d   1       7.032  -1.633  -4.870  0.00  0.00     0.252 N 
ATOM      2  C   LIG d   1       7.026  -3.102  -4.967  0.00  0.00     0.014 C 
ATOM      3  C   LIG d   1       7.168  -3.485  -6.419  0.00  0.00     0.106 A 
ATOM      4  C   LIG d   1       7.615  -2.632  -7.369  0.00  0.00     0.050 A 
ATOM      5  N   LIG d   1       7.610  -3.306  -8.548  0.00  0.00    -0.348 N 
ATOM      6  C   LIG d   1       7.160  -4.556  -8.287  0.00  0.00     0.094 A 
ATOM      7  N   LIG d   1       6.899  -4.651  -7.007  0.00  0.00    -0.235 NA
ATOM      8  H   LIG d   1       7.876  -2.957  -9.413  0.00  0.00     0.167 HD
ATOM      9  C   LIG d   1       8.025  -1.211  -7.076  0.00  0.00     0.042 C 
ATOM     10  C   LIG d   1       8.207  -1.082  -5.557  0.00  0.00     0.065 C 
ATOM     11  H   LIG d   1       9.098  -1.632  -5.251  0.00  0.00     0.096 H 
ATOM     12  H   LIG d   1       7.861  -3.510  -4.398  0.00  0.00     0.088 H 
ATOM     13  H   LIG d   1       6.088  -3.491  -4.572  0.00  0.00     0.088 H 
ATOM     14  H   LIG d   1       7.036  -5.344  -9.014  0.00  0.00     0.103 H 
ATOM     15  H   LIG d   1       8.964  -0.986  -7.583  0.00  0.00     0.039 H 
ATOM     16  H   LIG d   1       7.247  -0.526  -7.415  0.00  0.00     0.039 H 
ATOM     17  H   LIG d   1       6.195  -1.269  -5.297  0.00  0.00     0.205 HD
ENDROOT
BRANCH  10  18
ATOM     18  C   LIG d   1       8.367   0.371  -5.193  0.00  0.00     0.276 A 
ATOM     19  O   LIG d   1       7.496   1.349  -5.477  0.00  0.00    -0.332 OA
ATOM     20  N   LIG d   1       8.049   2.544  -4.947  0.00  0.00    -0.056 NA
ATOM     21  C   LIG d   1       9.192   2.214  -4.398  0.00  0.00     0.203 A 
ATOM     22  N   LIG d   1       9.376   0.890  -4.554  0.00  0.00    -0.186 NA
BRANCH  21  23
ATOM     23  C   LIG d   1      10.128   3.143  -3.719  0.00  0.00     0.029 A 
ATOM     24  C   LIG d   1       9.634   4.184  -2.937  0.00  0.00     0.026 A 
ATOM     25  C   LIG d   1      10.509   5.043  -2.301  0.00  0.00     0.274 A 
ATOM     26  H   LIG d   1       8.568   4.316  -2.824  0.00  0.00     0.069 H 
ATOM     27  C   LIG d   1      11.874   4.878  -2.451  0.00  0.00     0.016 A 
ATOM     28  C   LIG d   1      12.370   3.849  -3.231  0.00  0.00    -0.055 A 
ATOM     29  H   LIG d   1      12.555   5.554  -1.956  0.00  0.00     0.069 H 
ATOM     30  C   LIG d   1      11.504   2.981  -3.865  0.00  0.00    -0.051 A 
ATOM     31  H   LIG d   1      13.437   3.724  -3.344  0.00  0.00     0.062 H 
ATOM     32  H   LIG d   1      11.893   2.177  -4.473  0.00  0.00     0.062 H 
BRANCH  25  33
ATOM     33  N   LIG d   1       9.985   6.145  -1.464  0.00  0.00     0.080 N 
ATOM     34  O   LIG d   1       9.288   7.001  -1.958  0.00  0.00     0.041 OA
ATOM     35  O   LIG d   1      10.253   6.190  -0.286  0.00  0.00    -0.576 OA
ENDBRANCH  25  33
ENDBRANCH  21  23
ENDBRANCH  10  18
BRANCH   1  36
ATOM     36  C   LIG d   1       7.068  -1.239  -3.455  0.00  0.00    -0.005 C 
ATOM     37  H   LIG d   1       7.840  -0.484  -3.307  0.00  0.00     0.087 H 
ATOM     38  H   LIG d   1       7.289  -2.112  -2.841  0.00  0.00     0.087 H 
BRANCH  36  39
ATOM     39  C   LIG d   1       5.728  -0.673  -3.058  0.00  0.00    -0.003 A 
ATOM     40  C   LIG d   1       4.612  -1.488  -3.036  0.00  0.00    -0.053 A 
ATOM     41  C   LIG d   1       3.384  -0.968  -2.671  0.00  0.00    -0.061 A 
ATOM     42  H   LIG d   1       4.700  -2.530  -3.303  0.00  0.00     0.062 H 
ATOM     43  C   LIG d   1       3.273   0.367  -2.327  0.00  0.00    -0.062 A 
ATOM     44  H   LIG d   1       2.513  -1.604  -2.654  0.00  0.00     0.062 H 
ATOM     45  C   LIG d   1       4.390   1.181  -2.349  0.00  0.00    -0.061 A 
ATOM     46  H   LIG d   1       2.313   0.773  -2.046  0.00  0.00     0.062 H 
ATOM     47  C   LIG d   1       5.617   0.662  -2.715  0.00  0.00    -0.053 A 
ATOM     48  H   LIG d   1       4.303   2.224  -2.080  0.00  0.00     0.062 H 
ATOM     49  H   LIG d   1       6.490   1.299  -2.732  0.00  0.00     0.062 H 
ENDBRANCH  36  39
ENDBRANCH   1  36
TORSDOF 5
ENDMDL
MODEL 9
REMARK VINA RESULT:      -7.0      6.291      9.111
REMARK  5 active torsions:
REMARK  status: ('A' for Active; 'I' for Inactive)
REMARK    1  A    between atoms: C_4  and  C_7 
REMARK    2  A    between atoms: C_7  and  N_8 
REMARK    3  A    between atoms: C_17  and  C_19 
REMARK    4  A    between atoms: C_21  and  C_24 
REMARK    5  A    between atoms: C_28  and  N_30 
ROOT
ATOM      1  N   LIG d   1       7.367  -7.510  -5.365  0.00  0.00     0.252 N 
ATOM      2  C   LIG d   1       7.752  -8.883  -5.728  0.00  0.00     0.014 C 
ATOM      3  C   LIG d   1       6.520  -9.751  -5.687  0.00  0.00     0.106 A 
ATOM      4  C   LIG d   1       5.263  -9.252  -5.704  0.00  0.00     0.050 A 
ATOM      5  N   LIG d   1       4.411 -10.308  -5.652  0.00  0.00    -0.348 N 
ATOM      6  C   LIG d   1       5.172 -11.428  -5.607  0.00  0.00     0.094 A 
ATOM      7  N   LIG d   1       6.434 -11.080  -5.629  0.00  0.00    -0.235 NA
ATOM      8  H   LIG d   1       3.442 -10.268  -5.647  0.00  0.00     0.167 HD
ATOM      9  C   LIG d   1       4.961  -7.777  -5.771  0.00  0.00     0.042 C 
ATOM     10  C   LIG d   1       6.247  -7.057  -6.199  0.00  0.00     0.065 C 
ATOM     11  H   LIG d   1       6.459  -7.283  -7.245  0.00  0.00     0.096 H 
ATOM     12  H   LIG d   1       8.172  -8.891  -6.734  0.00  0.00     0.088 H 
ATOM     13  H   LIG d   1       8.491  -9.255  -5.020  0.00  0.00     0.088 H 
ATOM     14  H   LIG d   1       4.799 -12.440  -5.560  0.00  0.00     0.103 H 
ATOM     15  H   LIG d   1       4.173  -7.594  -6.503  0.00  0.00     0.039 H 
ATOM     16  H   LIG d   1       4.645  -7.420  -4.791  0.00  0.00     0.039 H 
ATOM     17  H   LIG d   1       7.091  -7.488  -4.395  0.00  0.00     0.205 HD
ENDROOT
BRANCH  10  18
ATOM     18  C   LIG d   1       6.068  -5.569  -6.035  0.00  0.00     0.276 A 
ATOM     19  O   LIG d   1       6.332  -4.642  -6.965  0.00  0.00    -0.332 OA
ATOM     20  N   LIG d   1       6.016  -3.388  -6.381  0.00  0.00    -0.056 NA
ATOM     21  C   LIG d   1       5.601  -3.638  -5.164  0.00  0.00     0.203 A 
ATOM     22  N   LIG d   1       5.636  -4.968  -4.964  0.00  0.00    -0.186 NA
BRANCH  21  23
ATOM     23  C   LIG d   1       5.164  -2.625  -4.172  0.00  0.00     0.029 A 
ATOM     24  C   LIG d   1       5.745  -1.358  -4.165  0.00  0.00     0.026 A 
ATOM     25  C   LIG d   1       5.330  -0.417  -3.244  0.00  0.00     0.274 A 
ATOM     26  H   LIG d   1       6.514  -1.112  -4.882  0.00  0.00     0.069 H 
ATOM     27  C   LIG d   1       4.349  -0.733  -2.321  0.00  0.00     0.016 A 
ATOM     28  C   LIG d   1       3.774  -1.991  -2.320  0.00  0.00    -0.055 A 
ATOM     29  H   LIG d   1       4.031   0.004  -1.600  0.00  0.00     0.069 H 
ATOM     30  C   LIG d   1       4.176  -2.937  -3.241  0.00  0.00    -0.051 A 
ATOM     31  H   LIG d   1       3.008  -2.233  -1.598  0.00  0.00     0.062 H 
ATOM     32  H   LIG d   1       3.724  -3.919  -3.241  0.00  0.00     0.062 H 
BRANCH  25  33
ATOM     33  N   LIG d   1       5.941   0.931  -3.240  0.00  0.00     0.080 N 
ATOM     34  O   LIG d   1       6.712   1.249  -4.115  0.00  0.00     0.041 OA
ATOM     35  O   LIG d   1       5.668   1.716  -2.361  0.00  0.00    -0.576 OA
ENDBRANCH  25  33
ENDBRANCH  21  23
ENDBRANCH  10  18
BRANCH   1  36
ATOM     36  C   LIG d   1       8.515  -6.613  -5.564  0.00  0.00    -0.005 C 
ATOM     37  H   LIG d   1       8.228  -5.798  -6.228  0.00  0.00     0.087 H 
ATOM     38  H   LIG d   1       9.339  -7.172  -6.007  0.00  0.00     0.087 H 
BRANCH  36  39
ATOM     39  C   LIG d   1       8.948  -6.050  -4.235  0.00  0.00    -0.003 A 
ATOM     40  C   LIG d   1       9.037  -4.682  -4.059  0.00  0.00    -0.053 A 
ATOM     41  C   LIG d   1       9.432  -4.165  -2.840  0.00  0.00    -0.061 A 
ATOM     42  H   LIG d   1       8.796  -4.017  -4.875  0.00  0.00     0.062 H 
ATOM     43  C   LIG d   1       9.739  -5.018  -1.795  0.00  0.00    -0.062 A 
ATOM     44  H   LIG d   1       9.502  -3.097  -2.703  0.00  0.00     0.062 H 
ATOM     45  C   LIG d   1       9.650  -6.386  -1.970  0.00  0.00    -0.061 A 
ATOM     46  H   LIG d   1      10.052  -4.614  -0.844  0.00  0.00     0.062 H 
ATOM     47  C   LIG d   1       9.255  -6.902  -3.190  0.00  0.00    -0.053 A 
ATOM     48  H   LIG d   1       9.889  -7.052  -1.154  0.00  0.00     0.062 H 
ATOM     49  H   LIG d   1       9.185  -7.972  -3.327  0.00  0.00     0.062 H 
ENDBRANCH  36  39
ENDBRANCH   1  36
TORSDOF 5
ENDMDL
MODEL 10
REMARK VINA RESULT:      -7.0      6.684     11.204
REMARK  5 active torsions:
REMARK  status: ('A' for Active; 'I' for Inactive)
REMARK    1  A    between atoms: C_4  and  C_7 
REMARK    2  A    between atoms: C_7  and  N_8 
REMARK    3  A    between atoms: C_17  and  C_19 
REMARK    4  A    between atoms: C_21  and  C_24 
REMARK    5  A    between atoms: C_28  and  N_30 
ROOT
ATOM      1  N   LIG d   1       4.475  -1.713  -5.707  0.00  0.00     0.252 N 
ATOM      2  C   LIG d   1       5.008  -0.374  -5.403  0.00  0.00     0.014 C 
ATOM      3  C   LIG d   1       4.757  -0.081  -3.945  0.00  0.00     0.106 A 
ATOM      4  C   LIG d   1       4.463  -1.040  -3.038  0.00  0.00     0.050 A 
ATOM      5  N   LIG d   1       4.299  -0.421  -1.840  0.00  0.00    -0.348 N 
ATOM      6  C   LIG d   1       4.498   0.902  -2.048  0.00  0.00     0.094 A 
ATOM      7  N   LIG d   1       4.773   1.093  -3.313  0.00  0.00    -0.235 NA
ATOM      8  H   LIG d   1       4.078  -0.846  -0.996  0.00  0.00     0.167 HD
ATOM      9  C   LIG d   1       4.361  -2.502  -3.385  0.00  0.00     0.042 C 
ATOM     10  C   LIG d   1       5.011  -2.701  -4.762  0.00  0.00     0.065 C 
ATOM     11  H   LIG d   1       6.090  -2.573  -4.676  0.00  0.00     0.096 H 
ATOM     12  H   LIG d   1       6.079  -0.353  -5.602  0.00  0.00     0.088 H 
ATOM     13  H   LIG d   1       4.506   0.368  -6.022  0.00  0.00     0.088 H 
ATOM     14  H   LIG d   1       4.440   1.673  -1.294  0.00  0.00     0.103 H 
ATOM     15  H   LIG d   1       4.888  -3.097  -2.638  0.00  0.00     0.039 H 
ATOM     16  H   LIG d   1       3.313  -2.800  -3.424  0.00  0.00     0.039 H 
ATOM     17  H   LIG d   1       3.470  -1.694  -5.636  0.00  0.00     0.205 HD
ENDROOT
BRANCH  10  18
ATOM     18  C   LIG d   1       4.710  -4.090  -5.264  0.00  0.00     0.276 A 
ATOM     19  O   LIG d   1       3.596  -4.465  -5.907  0.00  0.00    -0.332 OA
ATOM     20  N   LIG d   1       3.743  -5.849  -6.189  0.00  0.00    -0.056 NA
ATOM     21  C   LIG d   1       4.905  -6.206  -5.700  0.00  0.00     0.203 A 
ATOM     22  N   LIG d   1       5.485  -5.129  -5.140  0.00  0.00    -0.186 NA
BRANCH  21  23
ATOM     23  C   LIG d   1       5.486  -7.570  -5.756  0.00  0.00     0.029 A 
ATOM     24  C   LIG d   1       4.862  -8.623  -5.089  0.00  0.00     0.026 A 
ATOM     25  C   LIG d   1       5.403  -9.891  -5.149  0.00  0.00     0.274 A 
ATOM     26  H   LIG d   1       3.955  -8.447  -4.532  0.00  0.00     0.069 H 
ATOM     27  C   LIG d   1       6.570 -10.116  -5.859  0.00  0.00     0.016 A 
ATOM     28  C   LIG d   1       7.196  -9.074  -6.517  0.00  0.00    -0.055 A 
ATOM     29  H   LIG d   1       6.991 -11.109  -5.900  0.00  0.00     0.069 H 
ATOM     30  C   LIG d   1       6.660  -7.803  -6.470  0.00  0.00    -0.051 A 
ATOM     31  H   LIG d   1       8.106  -9.254  -7.070  0.00  0.00     0.062 H 
ATOM     32  H   LIG d   1       7.149  -6.989  -6.986  0.00  0.00     0.062 H 
BRANCH  25  33
ATOM     33  N   LIG d   1       4.738 -11.012  -4.448  0.00  0.00     0.080 N 
ATOM     34  O   LIG d   1       4.070 -11.804  -5.071  0.00  0.00     0.041 OA
ATOM     35  O   LIG d   1       4.863 -11.137  -3.252  0.00  0.00    -0.576 OA
ENDBRANCH  25  33
ENDBRANCH  21  23
ENDBRANCH  10  18
BRANCH   1  36
ATOM     36  C   LIG d   1       4.859  -2.090  -7.075  0.00  0.00    -0.005 C 
ATOM     37  H   LIG d   1       5.057  -3.161  -7.114  0.00  0.00     0.087 H 
ATOM     38  H   LIG d   1       5.756  -1.543  -7.364  0.00  0.00     0.087 H 
BRANCH  36  39
ATOM     39  C   LIG d   1       3.737  -1.752  -8.023  0.00  0.00    -0.003 A 
ATOM     40  C   LIG d   1       3.297  -2.691  -8.936  0.00  0.00    -0.053 A 
ATOM     41  C   LIG d   1       2.267  -2.381  -9.804  0.00  0.00    -0.061 A 
ATOM     42  H   LIG d   1       3.757  -3.667  -8.971  0.00  0.00     0.062 H 
ATOM     43  C   LIG d   1       1.677  -1.131  -9.758  0.00  0.00    -0.062 A 
ATOM     44  H   LIG d   1       1.923  -3.114 -10.518  0.00  0.00     0.062 H 
ATOM     45  C   LIG d   1       2.117  -0.192  -8.844  0.00  0.00    -0.061 A 
ATOM     46  H   LIG d   1       0.875  -0.887 -10.439  0.00  0.00     0.062 H 
ATOM     47  C   LIG d   1       3.147  -0.502  -7.977  0.00  0.00    -0.053 A 
ATOM     48  H   LIG d   1       1.656   0.784  -8.808  0.00  0.00     0.062 H 
ATOM     49  H   LIG d   1       3.491   0.232  -7.262  0.00  0.00     0.062 H 
ENDBRANCH  36  39
ENDBRANCH   1  36
TORSDOF 5
ENDMDL
