MODEL 1
REMARK VINA RESULT:      -5.2      0.000      0.000
REMARK  2 active torsions:
REMARK  status: ('A' for Active; 'I' for Inactive)
REMARK    1  A    between atoms: C_2  and  C_11 
REMARK    2  A    between atoms: C_4  and  C_9 
ROOT
ATOM      1  C   LIG d   1       4.400  -1.470  -2.409  0.00  0.00     0.057 C 
ATOM      2  C   LIG d   1       4.058  -0.063  -2.950  0.00  0.00     0.051 C 
ATOM      3  H   LIG d   1       3.006   0.170  -2.787  0.00  0.00     0.041 H 
ATOM      4  C   LIG d   1       4.361  -0.185  -4.458  0.00  0.00     0.150 C 
ATOM      5  H   LIG d   1       5.124   0.537  -4.746  0.00  0.00     0.080 H 
ATOM      6  O   LIG d   1       4.848  -1.541  -4.670  0.00  0.00    -0.455 OA
ATOM      7  C   LIG d   1       4.443  -2.330  -3.658  0.00  0.00     0.308 C 
ATOM      8  O   LIG d   1       4.166  -3.504  -3.731  0.00  0.00    -0.251 OA
ATOM      9  H   LIG d   1       5.372  -1.464  -1.914  0.00  0.00     0.038 H 
ATOM     10  H   LIG d   1       3.624  -1.818  -1.729  0.00  0.00     0.038 H 
ENDROOT
BRANCH   2  11
ATOM     11  C   LIG d   1       4.937   0.982  -2.314  0.00  0.00     0.049 C 
ATOM     12  O   LIG d   1       4.807   1.250  -1.143  0.00  0.00    -0.549 OA
ATOM     13  O   LIG d   1       5.861   1.621  -3.049  0.00  0.00    -0.549 OA
ENDBRANCH   2  11
BRANCH   4  14
ATOM     14  C   LIG d   1       3.104   0.044  -5.259  0.00  0.00     0.083 C 
ATOM     15  O   LIG d   1       2.068   0.304  -4.695  0.00  0.00    -0.546 OA
ATOM     16  O   LIG d   1       3.137  -0.041  -6.597  0.00  0.00    -0.546 OA
ENDBRANCH   4  14
TORSDOF 2
ENDMDL
MODEL 2
REMARK VINA RESULT:      -4.7      1.640      4.010
REMARK  2 active torsions:
REMARK  status: ('A' for Active; 'I' for Inactive)
REMARK    1  A    between atoms: C_2  and  C_11 
REMARK    2  A    between atoms: C_4  and  C_9 
ROOT
ATOM      1  C   LIG d   1       4.617  -0.950  -2.154  0.00  0.00     0.057 C 
ATOM      2  C   LIG d   1       5.408  -1.399  -3.403  0.00  0.00     0.051 C 
ATOM      3  H   LIG d   1       6.403  -1.749  -3.127  0.00  0.00     0.041 H 
ATOM      4  C   LIG d   1       5.500  -0.107  -4.243  0.00  0.00     0.150 C 
ATOM      5  H   LIG d   1       5.030  -0.258  -5.214  0.00  0.00     0.080 H 
ATOM      6  O   LIG d   1       4.785   0.919  -3.495  0.00  0.00    -0.455 OA
ATOM      7  C   LIG d   1       4.710   0.564  -2.199  0.00  0.00     0.308 C 
ATOM      8  O   LIG d   1       4.716   1.311  -1.250  0.00  0.00    -0.251 OA
ATOM      9  H   LIG d   1       3.577  -1.273  -2.223  0.00  0.00     0.038 H 
ATOM     10  H   LIG d   1       5.081  -1.337  -1.247  0.00  0.00     0.038 H 
ENDROOT
BRANCH   2  11
ATOM     11  C   LIG d   1       4.659  -2.469  -4.154  0.00  0.00     0.049 C 
ATOM     12  O   LIG d   1       4.109  -3.358  -3.549  0.00  0.00    -0.549 OA
ATOM     13  O   LIG d   1       4.609  -2.439  -5.495  0.00  0.00    -0.549 OA
ENDBRANCH   2  11
BRANCH   4  14
ATOM     14  C   LIG d   1       6.941   0.293  -4.422  0.00  0.00     0.083 C 
ATOM     15  O   LIG d   1       7.810  -0.547  -4.395  0.00  0.00    -0.546 OA
ATOM     16  O   LIG d   1       7.261   1.583  -4.610  0.00  0.00    -0.546 OA
ENDBRANCH   4  14
TORSDOF 2
ENDMDL
MODEL 3
REMARK VINA RESULT:      -4.7      1.267      3.238
REMARK  2 active torsions:
REMARK  status: ('A' for Active; 'I' for Inactive)
REMARK    1  A    between atoms: C_2  and  C_11 
REMARK    2  A    between atoms: C_4  and  C_9 
ROOT
ATOM      1  C   LIG d   1       5.505  -0.777  -2.514  0.00  0.00     0.057 C 
ATOM      2  C   LIG d   1       4.988  -1.219  -3.902  0.00  0.00     0.051 C 
ATOM      3  H   LIG d   1       5.541  -0.720  -4.699  0.00  0.00     0.041 H 
ATOM      4  C   LIG d   1       3.516  -0.758  -3.890  0.00  0.00     0.150 C 
ATOM      5  H   LIG d   1       2.855  -1.613  -4.027  0.00  0.00     0.080 H 
ATOM      6  O   LIG d   1       3.286  -0.152  -2.585  0.00  0.00    -0.455 OA
ATOM      7  C   LIG d   1       4.462   0.221  -2.048  0.00  0.00     0.308 C 
ATOM      8  O   LIG d   1       4.651   1.173  -1.328  0.00  0.00    -0.251 OA
ATOM      9  H   LIG d   1       5.553  -1.629  -1.834  0.00  0.00     0.038 H 
ATOM     10  H   LIG d   1       6.481  -0.300  -2.602  0.00  0.00     0.038 H 
ENDROOT
BRANCH   2  11
ATOM     11  C   LIG d   1       5.077  -2.715  -4.053  0.00  0.00     0.049 C 
ATOM     12  O   LIG d   1       4.129  -3.408  -3.768  0.00  0.00    -0.549 OA
ATOM     13  O   LIG d   1       6.211  -3.279  -4.498  0.00  0.00    -0.549 OA
ENDBRANCH   2  11
BRANCH   4  14
ATOM     14  C   LIG d   1       3.282   0.257  -4.979  0.00  0.00     0.083 C 
ATOM     15  O   LIG d   1       2.547   1.195  -4.784  0.00  0.00    -0.546 OA
ATOM     16  O   LIG d   1       3.890   0.117  -6.167  0.00  0.00    -0.546 OA
ENDBRANCH   4  14
TORSDOF 2
ENDMDL
MODEL 4
REMARK VINA RESULT:      -4.7      1.453      2.015
REMARK  2 active torsions:
REMARK  status: ('A' for Active; 'I' for Inactive)
REMARK    1  A    between atoms: C_2  and  C_11 
REMARK    2  A    between atoms: C_4  and  C_9 
ROOT
ATOM      1  C   LIG d   1       3.702  -1.347  -3.032  0.00  0.00     0.057 C 
ATOM      2  C   LIG d   1       4.332  -0.076  -3.647  0.00  0.00     0.051 C 
ATOM      3  H   LIG d   1       3.739   0.282  -4.489  0.00  0.00     0.041 H 
ATOM      4  C   LIG d   1       5.715  -0.566  -4.123  0.00  0.00     0.150 C 
ATOM      5  H   LIG d   1       6.503  -0.002  -3.627  0.00  0.00     0.080 H 
ATOM      6  O   LIG d   1       5.800  -1.973  -3.756  0.00  0.00    -0.455 OA
ATOM      7  C   LIG d   1       4.562  -2.470  -3.580  0.00  0.00     0.308 C 
ATOM      8  O   LIG d   1       4.203  -3.600  -3.815  0.00  0.00    -0.251 OA
ATOM      9  H   LIG d   1       3.760  -1.315  -1.943  0.00  0.00     0.038 H 
ATOM     10  H   LIG d   1       2.669  -1.459  -3.359  0.00  0.00     0.038 H 
ENDROOT
BRANCH   2  11
ATOM     11  C   LIG d   1       4.479   1.003  -2.606  0.00  0.00     0.049 C 
ATOM     12  O   LIG d   1       5.573   1.445  -2.344  0.00  0.00    -0.549 OA
ATOM     13  O   LIG d   1       3.396   1.470  -1.965  0.00  0.00    -0.549 OA
ENDBRANCH   2  11
BRANCH   4  14
ATOM     14  C   LIG d   1       5.831  -0.415  -5.618  0.00  0.00     0.083 C 
ATOM     15  O   LIG d   1       4.975   0.174  -6.234  0.00  0.00    -0.546 OA
ATOM     16  O   LIG d   1       6.885  -0.934  -6.265  0.00  0.00    -0.546 OA
ENDBRANCH   4  14
TORSDOF 2
ENDMDL
MODEL 5
REMARK VINA RESULT:      -4.6      1.803      2.957
REMARK  2 active torsions:
REMARK  status: ('A' for Active; 'I' for Inactive)
REMARK    1  A    between atoms: C_2  and  C_11 
REMARK    2  A    between atoms: C_4  and  C_9 
ROOT
ATOM      1  C   LIG d   1       6.045  -1.733  -3.393  0.00  0.00     0.057 C 
ATOM      2  C   LIG d   1       6.211  -0.215  -3.160  0.00  0.00     0.051 C 
ATOM      3  H   LIG d   1       6.494  -0.009  -2.127  0.00  0.00     0.041 H 
ATOM      4  C   LIG d   1       4.804   0.341  -3.461  0.00  0.00     0.150 C 
ATOM      5  H   LIG d   1       4.852   1.060  -4.278  0.00  0.00     0.080 H 
ATOM      6  O   LIG d   1       3.986  -0.801  -3.846  0.00  0.00    -0.455 OA
ATOM      7  C   LIG d   1       4.541  -1.933  -3.378  0.00  0.00     0.308 C 
ATOM      8  O   LIG d   1       3.953  -2.923  -3.014  0.00  0.00    -0.251 OA
ATOM      9  H   LIG d   1       6.461  -2.020  -4.360  0.00  0.00     0.038 H 
ATOM     10  H   LIG d   1       6.516  -2.298  -2.589  0.00  0.00     0.038 H 
ENDROOT
BRANCH   2  11
ATOM     11  C   LIG d   1       7.226   0.364  -4.111  0.00  0.00     0.049 C 
ATOM     12  O   LIG d   1       8.105  -0.336  -4.556  0.00  0.00    -0.549 OA
ATOM     13  O   LIG d   1       7.158   1.658  -4.460  0.00  0.00    -0.549 OA
ENDBRANCH   2  11
BRANCH   4  14
ATOM     14  C   LIG d   1       4.231   0.995  -2.229  0.00  0.00     0.083 C 
ATOM     15  O   LIG d   1       3.091   1.394  -2.231  0.00  0.00    -0.546 OA
ATOM     16  O   LIG d   1       4.989   1.134  -1.131  0.00  0.00    -0.546 OA
ENDBRANCH   4  14
TORSDOF 2
ENDMDL
MODEL 6
REMARK VINA RESULT:      -4.6      1.439      4.099
REMARK  2 active torsions:
REMARK  status: ('A' for Active; 'I' for Inactive)
REMARK    1  A    between atoms: C_2  and  C_11 
REMARK    2  A    between atoms: C_4  and  C_9 
ROOT
ATOM      1  C   LIG d   1       2.671   0.927  -4.369  0.00  0.00     0.057 C 
ATOM      2  C   LIG d   1       3.250  -0.257  -5.176  0.00  0.00     0.051 C 
ATOM      3  H   LIG d   1       2.686  -1.170  -4.982  0.00  0.00     0.041 H 
ATOM      4  C   LIG d   1       4.689  -0.380  -4.633  0.00  0.00     0.150 C 
ATOM      5  H   LIG d   1       5.406  -0.246  -5.442  0.00  0.00     0.080 H 
ATOM      6  O   LIG d   1       4.847   0.678  -3.645  0.00  0.00    -0.455 OA
ATOM      7  C   LIG d   1       3.636   1.070  -3.207  0.00  0.00     0.308 C 
ATOM      8  O   LIG d   1       3.369   1.464  -2.096  0.00  0.00    -0.251 OA
ATOM      9  H   LIG d   1       2.662   1.835  -4.974  0.00  0.00     0.038 H 
ATOM     10  H   LIG d   1       1.670   0.693  -4.010  0.00  0.00     0.038 H 
ENDROOT
BRANCH   2  11
ATOM     11  C   LIG d   1       3.261   0.056  -6.649  0.00  0.00     0.049 C 
ATOM     12  O   LIG d   1       3.059   1.185  -7.029  0.00  0.00    -0.549 OA
ATOM     13  O   LIG d   1       3.489  -0.921  -7.542  0.00  0.00    -0.549 OA
ENDBRANCH   2  11
BRANCH   4  14
ATOM     14  C   LIG d   1       4.885  -1.727  -3.986  0.00  0.00     0.083 C 
ATOM     15  O   LIG d   1       4.166  -2.651  -4.284  0.00  0.00    -0.546 OA
ATOM     16  O   LIG d   1       5.857  -1.899  -3.077  0.00  0.00    -0.546 OA
ENDBRANCH   4  14
TORSDOF 2
ENDMDL
MODEL 7
REMARK VINA RESULT:      -4.4      1.804      3.665
REMARK  2 active torsions:
REMARK  status: ('A' for Active; 'I' for Inactive)
REMARK    1  A    between atoms: C_2  and  C_11 
REMARK    2  A    between atoms: C_4  and  C_9 
ROOT
ATOM      1  C   LIG d   1       4.501  -2.216  -3.045  0.00  0.00     0.057 C 
ATOM      2  C   LIG d   1       5.869  -1.509  -3.178  0.00  0.00     0.051 C 
ATOM      3  H   LIG d   1       6.292  -1.295  -2.195  0.00  0.00     0.041 H 
ATOM      4  C   LIG d   1       5.517  -0.201  -3.916  0.00  0.00     0.150 C 
ATOM      5  H   LIG d   1       6.062  -0.145  -4.857  0.00  0.00     0.080 H 
ATOM      6  O   LIG d   1       4.084  -0.246  -4.169  0.00  0.00    -0.455 OA
ATOM      7  C   LIG d   1       3.501  -1.107  -3.315  0.00  0.00     0.308 C 
ATOM      8  O   LIG d   1       2.389  -1.015  -2.850  0.00  0.00    -0.251 OA
ATOM      9  H   LIG d   1       4.406  -3.008  -3.789  0.00  0.00     0.038 H 
ATOM     10  H   LIG d   1       4.371  -2.615  -2.040  0.00  0.00     0.038 H 
ENDROOT
BRANCH   2  11
ATOM     11  C   LIG d   1       6.823  -2.341  -3.994  0.00  0.00     0.049 C 
ATOM     12  O   LIG d   1       7.820  -2.793  -3.484  0.00  0.00    -0.549 OA
ATOM     13  O   LIG d   1       6.568  -2.575  -5.292  0.00  0.00    -0.549 OA
ENDBRANCH   2  11
BRANCH   4  14
ATOM     14  C   LIG d   1       5.853   0.987  -3.052  0.00  0.00     0.083 C 
ATOM     15  O   LIG d   1       6.704   1.770  -3.404  0.00  0.00    -0.546 OA
ATOM     16  O   LIG d   1       5.207   1.176  -1.891  0.00  0.00    -0.546 OA
ENDBRANCH   4  14
TORSDOF 2
ENDMDL
MODEL 8
REMARK VINA RESULT:      -4.4      1.791      3.850
REMARK  2 active torsions:
REMARK  status: ('A' for Active; 'I' for Inactive)
REMARK    1  A    between atoms: C_2  and  C_11 
REMARK    2  A    between atoms: C_4  and  C_9 
ROOT
ATOM      1  C   LIG d   1       6.210  -0.559  -4.669  0.00  0.00     0.057 C 
ATOM      2  C   LIG d   1       4.935  -1.280  -4.176  0.00  0.00     0.051 C 
ATOM      3  H   LIG d   1       4.079  -1.027  -4.803  0.00  0.00     0.041 H 
ATOM      4  C   LIG d   1       4.747  -0.722  -2.749  0.00  0.00     0.150 C 
ATOM      5  H   LIG d   1       4.774  -1.534  -2.024  0.00  0.00     0.080 H 
ATOM      6  O   LIG d   1       5.857   0.192  -2.517  0.00  0.00    -0.455 OA
ATOM      7  C   LIG d   1       6.364   0.596  -3.697  0.00  0.00     0.308 C 
ATOM      8  O   LIG d   1       6.851   1.675  -3.936  0.00  0.00    -0.251 OA
ATOM      9  H   LIG d   1       7.072  -1.225  -4.614  0.00  0.00     0.038 H 
ATOM     10  H   LIG d   1       6.073  -0.191  -5.685  0.00  0.00     0.038 H 
ENDROOT
BRANCH   2  11
ATOM     11  C   LIG d   1       5.144  -2.771  -4.141  0.00  0.00     0.049 C 
ATOM     12  O   LIG d   1       4.225  -3.504  -3.861  0.00  0.00    -0.549 OA
ATOM     13  O   LIG d   1       6.353  -3.286  -4.415  0.00  0.00    -0.549 OA
ENDBRANCH   2  11
BRANCH   4  14
ATOM     14  C   LIG d   1       3.438   0.018  -2.651  0.00  0.00     0.083 C 
ATOM     15  O   LIG d   1       2.438  -0.455  -3.136  0.00  0.00    -0.546 OA
ATOM     16  O   LIG d   1       3.383   1.203  -2.024  0.00  0.00    -0.546 OA
ENDBRANCH   4  14
TORSDOF 2
ENDMDL
MODEL 9
REMARK VINA RESULT:      -4.2      1.723      3.091
REMARK  2 active torsions:
REMARK  status: ('A' for Active; 'I' for Inactive)
REMARK    1  A    between atoms: C_2  and  C_11 
REMARK    2  A    between atoms: C_4  and  C_9 
ROOT
ATOM      1  C   LIG d   1       6.800   0.646  -3.806  0.00  0.00     0.057 C 
ATOM      2  C   LIG d   1       5.618   0.037  -3.018  0.00  0.00     0.051 C 
ATOM      3  H   LIG d   1       5.977  -0.644  -2.245  0.00  0.00     0.041 H 
ATOM      4  C   LIG d   1       4.835  -0.732  -4.101  0.00  0.00     0.150 C 
ATOM      5  H   LIG d   1       3.819  -0.346  -4.173  0.00  0.00     0.080 H 
ATOM      6  O   LIG d   1       5.543  -0.511  -5.355  0.00  0.00    -0.455 OA
ATOM      7  C   LIG d   1       6.814  -0.150  -5.097  0.00  0.00     0.308 C 
ATOM      8  O   LIG d   1       7.783  -0.410  -5.769  0.00  0.00    -0.251 OA
ATOM      9  H   LIG d   1       6.622   1.703  -4.008  0.00  0.00     0.038 H 
ATOM     10  H   LIG d   1       7.734   0.511  -3.261  0.00  0.00     0.038 H 
ENDROOT
BRANCH   2  11
ATOM     11  C   LIG d   1       4.765   1.121  -2.413  0.00  0.00     0.049 C 
ATOM     12  O   LIG d   1       4.735   1.268  -1.214  0.00  0.00    -0.549 OA
ATOM     13  O   LIG d   1       4.033   1.921  -3.205  0.00  0.00    -0.549 OA
ENDBRANCH   2  11
BRANCH   4  14
ATOM     14  C   LIG d   1       4.808  -2.203  -3.775  0.00  0.00     0.083 C 
ATOM     15  O   LIG d   1       5.599  -2.953  -4.296  0.00  0.00    -0.546 OA
ATOM     16  O   LIG d   1       3.904  -2.681  -2.905  0.00  0.00    -0.546 OA
ENDBRANCH   4  14
TORSDOF 2
ENDMDL
MODEL 10
REMARK VINA RESULT:      -4.2      1.560      3.476
REMARK  2 active torsions:
REMARK  status: ('A' for Active; 'I' for Inactive)
REMARK    1  A    between atoms: C_2  and  C_11 
REMARK    2  A    between atoms: C_4  and  C_9 
ROOT
ATOM      1  C   LIG d   1       4.555  -1.544  -5.361  0.00  0.00     0.057 C 
ATOM      2  C   LIG d   1       3.986  -0.107  -5.386  0.00  0.00     0.051 C 
ATOM      3  H   LIG d   1       4.773   0.625  -5.202  0.00  0.00     0.041 H 
ATOM      4  C   LIG d   1       2.966  -0.114  -4.228  0.00  0.00     0.150 C 
ATOM      5  H   LIG d   1       1.971   0.117  -4.605  0.00  0.00     0.080 H 
ATOM      6  O   LIG d   1       2.990  -1.459  -3.669  0.00  0.00    -0.455 OA
ATOM      7  C   LIG d   1       4.147  -2.064  -3.995  0.00  0.00     0.308 C 
ATOM      8  O   LIG d   1       4.748  -2.869  -3.325  0.00  0.00    -0.251 OA
ATOM      9  H   LIG d   1       4.107  -2.148  -6.151  0.00  0.00     0.038 H 
ATOM     10  H   LIG d   1       5.640  -1.528  -5.457  0.00  0.00     0.038 H 
ENDROOT
BRANCH   2  11
ATOM     11  C   LIG d   1       3.299   0.171  -6.698  0.00  0.00     0.049 C 
ATOM     12  O   LIG d   1       2.931   1.292  -6.961  0.00  0.00    -0.549 OA
ATOM     13  O   LIG d   1       3.091  -0.826  -7.572  0.00  0.00    -0.549 OA
ENDBRANCH   2  11
BRANCH   4  14
ATOM     14  C   LIG d   1       3.369   0.889  -3.178  0.00  0.00     0.083 C 
ATOM     15  O   LIG d   1       3.411   0.563  -2.015  0.00  0.00    -0.546 OA
ATOM     16  O   LIG d   1       3.680   2.144  -3.534  0.00  0.00    -0.546 OA
ENDBRANCH   4  14
TORSDOF 2
ENDMDL
