MODEL 1
REMARK VINA RESULT:      -6.3      0.000      0.000
REMARK  7 active torsions:
REMARK  status: ('A' for Active; 'I' for Inactive)
REMARK    1  A    between atoms: C_1  and  C_2 
REMARK    2  A    between atoms: C_2  and  C_3 
REMARK    3  A    between atoms: C_3  and  C_4 
REMARK    4  A    between atoms: C_4  and  N_5 
REMARK       I    between atoms: N_5  and  C_6 
REMARK    5  A    between atoms: C_6  and  C_8 
REMARK    6  A    between atoms: C_8  and  C_9 
REMARK    7  A    between atoms: C_8  and  C_13 
ROOT
ATOM      1  N   LIG d   1       3.558  -0.468  -5.783  0.00  0.00    -0.315 N 
ATOM      2  C   LIG d   1       3.483   0.249  -4.644  0.00  0.00     0.234 C 
ATOM      3  O   LIG d   1       2.763   1.224  -4.586  0.00  0.00    -0.275 OA
ATOM      4  H   LIG d   1       4.134  -1.246  -5.828  0.00  0.00     0.149 HD
ENDROOT
BRANCH   1   5
ATOM      5  C   LIG d   1       2.769  -0.071  -6.951  0.00  0.00     0.012 C 
ATOM      6  H   LIG d   1       2.359  -0.959  -7.431  0.00  0.00     0.046 H 
ATOM      7  H   LIG d   1       1.955   0.581  -6.635  0.00  0.00     0.046 H 
BRANCH   5   8
ATOM      8  C   LIG d   1       3.665   0.676  -7.941  0.00  0.00    -0.038 C 
ATOM      9  H   LIG d   1       4.584   0.983  -7.441  0.00  0.00     0.028 H 
ATOM     10  H   LIG d   1       3.908   0.021  -8.777  0.00  0.00     0.028 H 
BRANCH   8  11
ATOM     11  C   LIG d   1       2.930   1.914  -8.460  0.00  0.00    -0.054 C 
ATOM     12  H   LIG d   1       1.907   1.647  -8.720  0.00  0.00     0.026 H 
ATOM     13  H   LIG d   1       2.920   2.682  -7.686  0.00  0.00     0.026 H 
BRANCH  11  14
ATOM     14  C   LIG d   1       3.648   2.450  -9.700  0.00  0.00    -0.065 C 
ATOM     15  H   LIG d   1       4.022   3.453  -9.499  0.00  0.00     0.023 H 
ATOM     16  H   LIG d   1       4.482   1.794  -9.950  0.00  0.00     0.023 H 
ATOM     17  H   LIG d   1       2.951   2.484 -10.538  0.00  0.00     0.023 H 
ENDBRANCH  11  14
ENDBRANCH   8  11
ENDBRANCH   5   8
ENDBRANCH   1   5
BRANCH   2  18
ATOM     18  C   LIG d   1       4.294  -0.160  -3.441  0.00  0.00     0.224 C 
ATOM     19  H   LIG d   1       5.307  -0.411  -3.755  0.00  0.00     0.057 H 
BRANCH  18  20
ATOM     20  C   LIG d   1       3.648  -1.378  -2.781  0.00  0.00     0.409 C 
ATOM     21  F   LIG d   1       4.146  -1.524  -1.481  0.00  0.00    -0.170 F 
ATOM     22  F   LIG d   1       3.946  -2.526  -3.525  0.00  0.00    -0.170 F 
ATOM     23  F   LIG d   1       2.260  -1.201  -2.731  0.00  0.00    -0.170 F 
ENDBRANCH  18  20
BRANCH  18  24
ATOM     24  C   LIG d   1       4.341   0.997  -2.440  0.00  0.00     0.409 C 
ATOM     25  F   LIG d   1       5.044   0.597  -1.299  0.00  0.00    -0.170 F 
ATOM     26  F   LIG d   1       4.987   2.093  -3.025  0.00  0.00    -0.170 F 
ATOM     27  F   LIG d   1       3.037   1.359  -2.084  0.00  0.00    -0.170 F 
ENDBRANCH  18  24
ENDBRANCH   2  18
TORSDOF 7
ENDMDL
MODEL 2
REMARK VINA RESULT:      -6.3      1.197      2.591
REMARK  7 active torsions:
REMARK  status: ('A' for Active; 'I' for Inactive)
REMARK    1  A    between atoms: C_1  and  C_2 
REMARK    2  A    between atoms: C_2  and  C_3 
REMARK    3  A    between atoms: C_3  and  C_4 
REMARK    4  A    between atoms: C_4  and  N_5 
REMARK       I    between atoms: N_5  and  C_6 
REMARK    5  A    between atoms: C_6  and  C_8 
REMARK    6  A    between atoms: C_8  and  C_9 
REMARK    7  A    between atoms: C_8  and  C_13 
ROOT
ATOM      1  N   LIG d   1       2.962  -0.114  -5.527  0.00  0.00    -0.315 N 
ATOM      2  C   LIG d   1       4.057  -0.077  -4.743  0.00  0.00     0.234 C 
ATOM      3  O   LIG d   1       5.159   0.004  -5.244  0.00  0.00    -0.275 OA
ATOM      4  H   LIG d   1       2.081  -0.179  -5.126  0.00  0.00     0.149 HD
ENDROOT
BRANCH   1   5
ATOM      5  C   LIG d   1       3.101  -0.057  -6.984  0.00  0.00     0.012 C 
ATOM      6  H   LIG d   1       4.119  -0.330  -7.262  0.00  0.00     0.046 H 
ATOM      7  H   LIG d   1       2.399  -0.754  -7.442  0.00  0.00     0.046 H 
BRANCH   5   8
ATOM      8  C   LIG d   1       2.802   1.362  -7.470  0.00  0.00    -0.038 C 
ATOM      9  H   LIG d   1       1.807   1.658  -7.136  0.00  0.00     0.028 H 
ATOM     10  H   LIG d   1       3.542   2.049  -7.061  0.00  0.00     0.028 H 
BRANCH   8  11
ATOM     11  C   LIG d   1       2.859   1.400  -8.998  0.00  0.00    -0.054 C 
ATOM     12  H   LIG d   1       3.197   0.435  -9.374  0.00  0.00     0.026 H 
ATOM     13  H   LIG d   1       1.866   1.616  -9.394  0.00  0.00     0.026 H 
BRANCH  11  14
ATOM     14  C   LIG d   1       3.835   2.491  -9.444  0.00  0.00    -0.065 C 
ATOM     15  H   LIG d   1       4.789   2.354  -8.936  0.00  0.00     0.023 H 
ATOM     16  H   LIG d   1       3.984   2.426 -10.523  0.00  0.00     0.023 H 
ATOM     17  H   LIG d   1       3.426   3.469  -9.193  0.00  0.00     0.023 H 
ENDBRANCH  11  14
ENDBRANCH   8  11
ENDBRANCH   5   8
ENDBRANCH   1   5
BRANCH   2  18
ATOM     18  C   LIG d   1       3.914  -0.135  -3.244  0.00  0.00     0.224 C 
ATOM     19  H   LIG d   1       2.871  -0.318  -2.986  0.00  0.00     0.057 H 
BRANCH  18  20
ATOM     20  C   LIG d   1       4.364   1.195  -2.637  0.00  0.00     0.409 C 
ATOM     21  F   LIG d   1       4.345   1.100  -1.241  0.00  0.00    -0.170 F 
ATOM     22  F   LIG d   1       3.495   2.213  -3.046  0.00  0.00    -0.170 F 
ATOM     23  F   LIG d   1       5.663   1.489  -3.066  0.00  0.00    -0.170 F 
ENDBRANCH  18  20
BRANCH  18  24
ATOM     24  C   LIG d   1       4.783  -1.267  -2.692  0.00  0.00     0.409 C 
ATOM     25  F   LIG d   1       4.622  -2.407  -3.487  0.00  0.00    -0.170 F 
ATOM     26  F   LIG d   1       6.126  -0.874  -2.706  0.00  0.00    -0.170 F 
ATOM     27  F   LIG d   1       4.394  -1.555  -1.379  0.00  0.00    -0.170 F 
ENDBRANCH  18  24
ENDBRANCH   2  18
TORSDOF 7
ENDMDL
MODEL 3
REMARK VINA RESULT:      -6.3      1.181      1.605
REMARK  7 active torsions:
REMARK  status: ('A' for Active; 'I' for Inactive)
REMARK    1  A    between atoms: C_1  and  C_2 
REMARK    2  A    between atoms: C_2  and  C_3 
REMARK    3  A    between atoms: C_3  and  C_4 
REMARK    4  A    between atoms: C_4  and  N_5 
REMARK       I    between atoms: N_5  and  C_6 
REMARK    5  A    between atoms: C_6  and  C_8 
REMARK    6  A    between atoms: C_8  and  C_9 
REMARK    7  A    between atoms: C_8  and  C_13 
ROOT
ATOM      1  N   LIG d   1       3.829  -0.583  -5.154  0.00  0.00    -0.315 N 
ATOM      2  C   LIG d   1       4.923  -0.213  -4.459  0.00  0.00     0.234 C 
ATOM      3  O   LIG d   1       5.900   0.208  -5.043  0.00  0.00    -0.275 OA
ATOM      4  H   LIG d   1       3.049  -0.919  -4.686  0.00  0.00     0.149 HD
ENDROOT
BRANCH   1   5
ATOM      5  C   LIG d   1       3.819  -0.476  -6.614  0.00  0.00     0.012 C 
ATOM      6  H   LIG d   1       4.725   0.028  -6.949  0.00  0.00     0.046 H 
ATOM      7  H   LIG d   1       3.776  -1.475  -7.050  0.00  0.00     0.046 H 
BRANCH   5   8
ATOM      8  C   LIG d   1       2.595   0.327  -7.059  0.00  0.00    -0.038 C 
ATOM      9  H   LIG d   1       1.694  -0.269  -6.907  0.00  0.00     0.028 H 
ATOM     10  H   LIG d   1       2.527   1.242  -6.471  0.00  0.00     0.028 H 
BRANCH   8  11
ATOM     11  C   LIG d   1       2.728   0.681  -8.541  0.00  0.00    -0.054 C 
ATOM     12  H   LIG d   1       3.540   0.104  -8.981  0.00  0.00     0.026 H 
ATOM     13  H   LIG d   1       1.795   0.447  -9.056  0.00  0.00     0.026 H 
BRANCH  11  14
ATOM     14  C   LIG d   1       3.028   2.175  -8.682  0.00  0.00    -0.065 C 
ATOM     15  H   LIG d   1       2.735   2.511  -9.676  0.00  0.00     0.023 H 
ATOM     16  H   LIG d   1       2.468   2.731  -7.930  0.00  0.00     0.023 H 
ATOM     17  H   LIG d   1       4.095   2.346  -8.541  0.00  0.00     0.023 H 
ENDBRANCH  11  14
ENDBRANCH   8  11
ENDBRANCH   5   8
ENDBRANCH   1   5
BRANCH   2  18
ATOM     18  C   LIG d   1       4.934  -0.322  -2.956  0.00  0.00     0.224 C 
ATOM     19  H   LIG d   1       5.962  -0.274  -2.596  0.00  0.00     0.057 H 
BRANCH  18  20
ATOM     20  C   LIG d   1       4.309  -1.653  -2.535  0.00  0.00     0.409 C 
ATOM     21  F   LIG d   1       4.468  -1.828  -1.156  0.00  0.00    -0.170 F 
ATOM     22  F   LIG d   1       4.940  -2.701  -3.214  0.00  0.00    -0.170 F 
ATOM     23  F   LIG d   1       2.945  -1.647  -2.850  0.00  0.00    -0.170 F 
ENDBRANCH  18  20
BRANCH  18  24
ATOM     24  C   LIG d   1       4.128   0.833  -2.355  0.00  0.00     0.409 C 
ATOM     25  F   LIG d   1       4.287   1.973  -3.149  0.00  0.00    -0.170 F 
ATOM     26  F   LIG d   1       2.775   0.482  -2.309  0.00  0.00    -0.170 F 
ATOM     27  F   LIG d   1       4.587   1.097  -1.060  0.00  0.00    -0.170 F 
ENDBRANCH  18  24
ENDBRANCH   2  18
TORSDOF 7
ENDMDL
MODEL 4
REMARK VINA RESULT:      -6.2      1.502      2.027
REMARK  7 active torsions:
REMARK  status: ('A' for Active; 'I' for Inactive)
REMARK    1  A    between atoms: C_1  and  C_2 
REMARK    2  A    between atoms: C_2  and  C_3 
REMARK    3  A    between atoms: C_3  and  C_4 
REMARK    4  A    between atoms: C_4  and  N_5 
REMARK       I    between atoms: N_5  and  C_6 
REMARK    5  A    between atoms: C_6  and  C_8 
REMARK    6  A    between atoms: C_8  and  C_9 
REMARK    7  A    between atoms: C_8  and  C_13 
ROOT
ATOM      1  N   LIG d   1       3.453  -0.729  -5.922  0.00  0.00    -0.315 N 
ATOM      2  C   LIG d   1       3.905  -0.379  -4.702  0.00  0.00     0.234 C 
ATOM      3  O   LIG d   1       3.836   0.777  -4.338  0.00  0.00    -0.275 OA
ATOM      4  H   LIG d   1       3.508  -1.653  -6.212  0.00  0.00     0.149 HD
ENDROOT
BRANCH   1   5
ATOM      5  C   LIG d   1       2.879   0.284  -6.810  0.00  0.00     0.012 C 
ATOM      6  H   LIG d   1       1.926   0.625  -6.405  0.00  0.00     0.046 H 
ATOM      7  H   LIG d   1       3.565   1.128  -6.888  0.00  0.00     0.046 H 
BRANCH   5   8
ATOM      8  C   LIG d   1       2.657  -0.321  -8.198  0.00  0.00    -0.038 C 
ATOM      9  H   LIG d   1       3.529  -0.910  -8.482  0.00  0.00     0.028 H 
ATOM     10  H   LIG d   1       1.776  -0.962  -8.178  0.00  0.00     0.028 H 
BRANCH   8  11
ATOM     11  C   LIG d   1       2.446   0.802  -9.215  0.00  0.00    -0.054 C 
ATOM     12  H   LIG d   1       2.979   0.564 -10.135  0.00  0.00     0.026 H 
ATOM     13  H   LIG d   1       1.382   0.906  -9.428  0.00  0.00     0.026 H 
BRANCH  11  14
ATOM     14  C   LIG d   1       2.982   2.116  -8.642  0.00  0.00    -0.065 C 
ATOM     15  H   LIG d   1       2.410   2.385  -7.755  0.00  0.00     0.023 H 
ATOM     16  H   LIG d   1       4.032   1.995  -8.375  0.00  0.00     0.023 H 
ATOM     17  H   LIG d   1       2.885   2.905  -9.389  0.00  0.00     0.023 H 
ENDBRANCH  11  14
ENDBRANCH   8  11
ENDBRANCH   5   8
ENDBRANCH   1   5
BRANCH   2  18
ATOM     18  C   LIG d   1       4.494  -1.422  -3.788  0.00  0.00     0.224 C 
ATOM     19  H   LIG d   1       4.493  -2.388  -4.292  0.00  0.00     0.057 H 
BRANCH  18  20
ATOM     20  C   LIG d   1       3.658  -1.512  -2.510  0.00  0.00     0.409 C 
ATOM     21  F   LIG d   1       3.633  -2.837  -2.062  0.00  0.00    -0.170 F 
ATOM     22  F   LIG d   1       2.352  -1.086  -2.776  0.00  0.00    -0.170 F 
ATOM     23  F   LIG d   1       4.223  -0.697  -1.524  0.00  0.00    -0.170 F 
ENDBRANCH  18  20
BRANCH  18  24
ATOM     24  C   LIG d   1       5.931  -1.034  -3.430  0.00  0.00     0.409 C 
ATOM     25  F   LIG d   1       6.530  -2.076  -2.716  0.00  0.00    -0.170 F 
ATOM     26  F   LIG d   1       6.655  -0.796  -4.604  0.00  0.00    -0.170 F 
ATOM     27  F   LIG d   1       5.919   0.124  -2.645  0.00  0.00    -0.170 F 
ENDBRANCH  18  24
ENDBRANCH   2  18
TORSDOF 7
ENDMDL
MODEL 5
REMARK VINA RESULT:      -6.2      1.103      2.622
REMARK  7 active torsions:
REMARK  status: ('A' for Active; 'I' for Inactive)
REMARK    1  A    between atoms: C_1  and  C_2 
REMARK    2  A    between atoms: C_2  and  C_3 
REMARK    3  A    between atoms: C_3  and  C_4 
REMARK    4  A    between atoms: C_4  and  N_5 
REMARK       I    between atoms: N_5  and  C_6 
REMARK    5  A    between atoms: C_6  and  C_8 
REMARK    6  A    between atoms: C_8  and  C_9 
REMARK    7  A    between atoms: C_8  and  C_13 
ROOT
ATOM      1  N   LIG d   1       3.743   0.037  -5.157  0.00  0.00    -0.315 N 
ATOM      2  C   LIG d   1       2.855  -0.095  -4.152  0.00  0.00     0.234 C 
ATOM      3  O   LIG d   1       1.684  -0.298  -4.400  0.00  0.00    -0.275 OA
ATOM      4  H   LIG d   1       4.679   0.199  -4.958  0.00  0.00     0.149 HD
ENDROOT
BRANCH   1   5
ATOM      5  C   LIG d   1       3.297  -0.064  -6.548  0.00  0.00     0.012 C 
ATOM      6  H   LIG d   1       4.097  -0.486  -7.157  0.00  0.00     0.046 H 
ATOM      7  H   LIG d   1       2.420  -0.708  -6.602  0.00  0.00     0.046 H 
BRANCH   5   8
ATOM      8  C   LIG d   1       2.940   1.329  -7.071  0.00  0.00    -0.038 C 
ATOM      9  H   LIG d   1       1.972   1.630  -6.671  0.00  0.00     0.028 H 
ATOM     10  H   LIG d   1       3.702   2.042  -6.756  0.00  0.00     0.028 H 
BRANCH   8  11
ATOM     11  C   LIG d   1       2.872   1.297  -8.599  0.00  0.00    -0.054 C 
ATOM     12  H   LIG d   1       3.270   0.351  -8.962  0.00  0.00     0.026 H 
ATOM     13  H   LIG d   1       1.835   1.402  -8.920  0.00  0.00     0.026 H 
BRANCH  11  14
ATOM     14  C   LIG d   1       3.700   2.451  -9.170  0.00  0.00    -0.065 C 
ATOM     15  H   LIG d   1       3.328   3.395  -8.776  0.00  0.00     0.023 H 
ATOM     16  H   LIG d   1       4.745   2.323  -8.885  0.00  0.00     0.023 H 
ATOM     17  H   LIG d   1       3.619   2.454 -10.257  0.00  0.00     0.023 H 
ENDBRANCH  11  14
ENDBRANCH   8  11
ENDBRANCH   5   8
ENDBRANCH   1   5
BRANCH   2  18
ATOM     18  C   LIG d   1       3.314   0.007  -2.721  0.00  0.00     0.224 C 
ATOM     19  H   LIG d   1       2.447   0.101  -2.067  0.00  0.00     0.057 H 
BRANCH  18  20
ATOM     20  C   LIG d   1       4.210   1.236  -2.559  0.00  0.00     0.409 C 
ATOM     21  F   LIG d   1       4.448   1.463  -1.199  0.00  0.00    -0.170 F 
ATOM     22  F   LIG d   1       3.575   2.353  -3.114  0.00  0.00    -0.170 F 
ATOM     23  F   LIG d   1       5.427   1.016  -3.215  0.00  0.00    -0.170 F 
ENDBRANCH  18  20
BRANCH  18  24
ATOM     24  C   LIG d   1       4.101  -1.251  -2.346  0.00  0.00     0.409 C 
ATOM     25  F   LIG d   1       4.631  -1.103  -1.060  0.00  0.00    -0.170 F 
ATOM     26  F   LIG d   1       3.248  -2.360  -2.374  0.00  0.00    -0.170 F 
ATOM     27  F   LIG d   1       5.142  -1.439  -3.262  0.00  0.00    -0.170 F 
ENDBRANCH  18  24
ENDBRANCH   2  18
TORSDOF 7
ENDMDL
MODEL 6
REMARK VINA RESULT:      -6.0      1.704      3.411
REMARK  7 active torsions:
REMARK  status: ('A' for Active; 'I' for Inactive)
REMARK    1  A    between atoms: C_1  and  C_2 
REMARK    2  A    between atoms: C_2  and  C_3 
REMARK    3  A    between atoms: C_3  and  C_4 
REMARK    4  A    between atoms: C_4  and  N_5 
REMARK       I    between atoms: N_5  and  C_6 
REMARK    5  A    between atoms: C_6  and  C_8 
REMARK    6  A    between atoms: C_8  and  C_9 
REMARK    7  A    between atoms: C_8  and  C_13 
ROOT
ATOM      1  N   LIG d   1       4.172  -0.181  -5.125  0.00  0.00    -0.315 N 
ATOM      2  C   LIG d   1       3.229  -0.077  -4.168  0.00  0.00     0.234 C 
ATOM      3  O   LIG d   1       2.061   0.038  -4.476  0.00  0.00    -0.275 OA
ATOM      4  H   LIG d   1       5.105  -0.273  -4.878  0.00  0.00     0.149 HD
ENDROOT
BRANCH   1   5
ATOM      5  C   LIG d   1       3.787  -0.156  -6.538  0.00  0.00     0.012 C 
ATOM      6  H   LIG d   1       2.707  -0.035  -6.619  0.00  0.00     0.046 H 
ATOM      7  H   LIG d   1       4.285   0.677  -7.035  0.00  0.00     0.046 H 
BRANCH   5   8
ATOM      8  C   LIG d   1       4.204  -1.469  -7.204  0.00  0.00    -0.038 C 
ATOM      9  H   LIG d   1       3.329  -2.107  -7.330  0.00  0.00     0.028 H 
ATOM     10  H   LIG d   1       4.644  -1.259  -8.179  0.00  0.00     0.028 H 
BRANCH   8  11
ATOM     11  C   LIG d   1       5.232  -2.182  -6.324  0.00  0.00    -0.054 C 
ATOM     12  H   LIG d   1       6.174  -2.270  -6.863  0.00  0.00     0.026 H 
ATOM     13  H   LIG d   1       5.389  -1.609  -5.410  0.00  0.00     0.026 H 
BRANCH  11  14
ATOM     14  C   LIG d   1       4.717  -3.579  -5.968  0.00  0.00    -0.065 C 
ATOM     15  H   LIG d   1       5.258  -3.955  -5.101  0.00  0.00     0.023 H 
ATOM     16  H   LIG d   1       3.652  -3.525  -5.738  0.00  0.00     0.023 H 
ATOM     17  H   LIG d   1       4.872  -4.250  -6.812  0.00  0.00     0.023 H 
ENDBRANCH  11  14
ENDBRANCH   8  11
ENDBRANCH   5   8
ENDBRANCH   1   5
BRANCH   2  18
ATOM     18  C   LIG d   1       3.625  -0.104  -2.714  0.00  0.00     0.224 C 
ATOM     19  H   LIG d   1       2.729  -0.064  -2.094  0.00  0.00     0.057 H 
BRANCH  18  20
ATOM     20  C   LIG d   1       4.513   1.101  -2.404  0.00  0.00     0.409 C 
ATOM     21  F   LIG d   1       3.957   2.251  -2.976  0.00  0.00    -0.170 F 
ATOM     22  F   LIG d   1       5.791   0.888  -2.935  0.00  0.00    -0.170 F 
ATOM     23  F   LIG d   1       4.606   1.269  -1.018  0.00  0.00    -0.170 F 
ENDBRANCH  18  20
BRANCH  18  24
ATOM     24  C   LIG d   1       4.393  -1.394  -2.418  0.00  0.00     0.409 C 
ATOM     25  F   LIG d   1       3.652  -2.491  -2.869  0.00  0.00    -0.170 F 
ATOM     26  F   LIG d   1       5.627  -1.363  -3.078  0.00  0.00    -0.170 F 
ATOM     27  F   LIG d   1       4.603  -1.506  -1.039  0.00  0.00    -0.170 F 
ENDBRANCH  18  24
ENDBRANCH   2  18
TORSDOF 7
ENDMDL
MODEL 7
REMARK VINA RESULT:      -5.8      1.601      2.294
REMARK  7 active torsions:
REMARK  status: ('A' for Active; 'I' for Inactive)
REMARK    1  A    between atoms: C_1  and  C_2 
REMARK    2  A    between atoms: C_2  and  C_3 
REMARK    3  A    between atoms: C_3  and  C_4 
REMARK    4  A    between atoms: C_4  and  N_5 
REMARK       I    between atoms: N_5  and  C_6 
REMARK    5  A    between atoms: C_6  and  C_8 
REMARK    6  A    between atoms: C_8  and  C_9 
REMARK    7  A    between atoms: C_8  and  C_13 
ROOT
ATOM      1  N   LIG d   1       3.633   0.540  -5.587  0.00  0.00    -0.315 N 
ATOM      2  C   LIG d   1       4.041  -0.268  -4.588  0.00  0.00     0.234 C 
ATOM      3  O   LIG d   1       3.725  -1.439  -4.588  0.00  0.00    -0.275 OA
ATOM      4  H   LIG d   1       3.887   1.476  -5.587  0.00  0.00     0.149 HD
ENDROOT
BRANCH   1   5
ATOM      5  C   LIG d   1       2.808   0.005  -6.672  0.00  0.00     0.012 C 
ATOM      6  H   LIG d   1       2.799  -1.084  -6.619  0.00  0.00     0.046 H 
ATOM      7  H   LIG d   1       1.789   0.382  -6.572  0.00  0.00     0.046 H 
BRANCH   5   8
ATOM      8  C   LIG d   1       3.385   0.446  -8.018  0.00  0.00    -0.038 C 
ATOM      9  H   LIG d   1       4.473   0.466  -7.958  0.00  0.00     0.028 H 
ATOM     10  H   LIG d   1       3.078  -0.256  -8.793  0.00  0.00     0.028 H 
BRANCH   8  11
ATOM     11  C   LIG d   1       2.867   1.843  -8.362  0.00  0.00    -0.054 C 
ATOM     12  H   LIG d   1       1.934   1.759  -8.918  0.00  0.00     0.026 H 
ATOM     13  H   LIG d   1       2.692   2.403  -7.442  0.00  0.00     0.026 H 
BRANCH  11  14
ATOM     14  C   LIG d   1       3.905   2.577  -9.214  0.00  0.00    -0.065 C 
ATOM     15  H   LIG d   1       4.022   3.595  -8.847  0.00  0.00     0.023 H 
ATOM     16  H   LIG d   1       4.860   2.055  -9.152  0.00  0.00     0.023 H 
ATOM     17  H   LIG d   1       3.572   2.600 -10.252  0.00  0.00     0.023 H 
ENDBRANCH  11  14
ENDBRANCH   8  11
ENDBRANCH   5   8
ENDBRANCH   1   5
BRANCH   2  18
ATOM     18  C   LIG d   1       4.892   0.283  -3.473  0.00  0.00     0.224 C 
ATOM     19  H   LIG d   1       5.068   1.345  -3.642  0.00  0.00     0.057 H 
BRANCH  18  20
ATOM     20  C   LIG d   1       6.229  -0.457  -3.438  0.00  0.00     0.409 C 
ATOM     21  F   LIG d   1       7.189   0.344  -2.810  0.00  0.00    -0.170 F 
ATOM     22  F   LIG d   1       6.641  -0.740  -4.745  0.00  0.00    -0.170 F 
ATOM     23  F   LIG d   1       6.083  -1.653  -2.726  0.00  0.00    -0.170 F 
ENDBRANCH  18  20
BRANCH  18  24
ATOM     24  C   LIG d   1       4.168   0.092  -2.138  0.00  0.00     0.409 C 
ATOM     25  F   LIG d   1       2.823   0.448  -2.282  0.00  0.00    -0.170 F 
ATOM     26  F   LIG d   1       4.255  -1.249  -1.748  0.00  0.00    -0.170 F 
ATOM     27  F   LIG d   1       4.764   0.901  -1.165  0.00  0.00    -0.170 F 
ENDBRANCH  18  24
ENDBRANCH   2  18
TORSDOF 7
ENDMDL
MODEL 8
REMARK VINA RESULT:      -5.7      1.230      2.402
REMARK  7 active torsions:
REMARK  status: ('A' for Active; 'I' for Inactive)
REMARK    1  A    between atoms: C_1  and  C_2 
REMARK    2  A    between atoms: C_2  and  C_3 
REMARK    3  A    between atoms: C_3  and  C_4 
REMARK    4  A    between atoms: C_4  and  N_5 
REMARK       I    between atoms: N_5  and  C_6 
REMARK    5  A    between atoms: C_6  and  C_8 
REMARK    6  A    between atoms: C_8  and  C_9 
REMARK    7  A    between atoms: C_8  and  C_13 
ROOT
ATOM      1  N   LIG d   1       3.935   0.065  -5.930  0.00  0.00    -0.315 N 
ATOM      2  C   LIG d   1       3.379   0.111  -4.703  0.00  0.00     0.234 C 
ATOM      3  O   LIG d   1       2.193   0.336  -4.582  0.00  0.00    -0.275 OA
ATOM      4  H   LIG d   1       4.883  -0.115  -6.025  0.00  0.00     0.149 HD
ENDROOT
BRANCH   1   5
ATOM      5  C   LIG d   1       3.108   0.285  -7.118  0.00  0.00     0.012 C 
ATOM      6  H   LIG d   1       2.066   0.403  -6.819  0.00  0.00     0.046 H 
ATOM      7  H   LIG d   1       3.443   1.187  -7.631  0.00  0.00     0.046 H 
BRANCH   5   8
ATOM      8  C   LIG d   1       3.236  -0.914  -8.059  0.00  0.00    -0.038 C 
ATOM      9  H   LIG d   1       2.358  -1.553  -7.955  0.00  0.00     0.028 H 
ATOM     10  H   LIG d   1       3.309  -0.563  -9.088  0.00  0.00     0.028 H 
BRANCH   8  11
ATOM     11  C   LIG d   1       4.492  -1.711  -7.701  0.00  0.00    -0.054 C 
ATOM     12  H   LIG d   1       5.279  -1.493  -8.422  0.00  0.00     0.026 H 
ATOM     13  H   LIG d   1       4.828  -1.431  -6.702  0.00  0.00     0.026 H 
BRANCH  11  14
ATOM     14  C   LIG d   1       4.173  -3.207  -7.731  0.00  0.00    -0.065 C 
ATOM     15  H   LIG d   1       4.714  -3.677  -8.552  0.00  0.00     0.023 H 
ATOM     16  H   LIG d   1       4.475  -3.662  -6.788  0.00  0.00     0.023 H 
ATOM     17  H   LIG d   1       3.101  -3.347  -7.875  0.00  0.00     0.023 H 
ENDBRANCH  11  14
ENDBRANCH   8  11
ENDBRANCH   5   8
ENDBRANCH   1   5
BRANCH   2  18
ATOM     18  C   LIG d   1       4.230  -0.117  -3.480  0.00  0.00     0.224 C 
ATOM     19  H   LIG d   1       5.272  -0.231  -3.780  0.00  0.00     0.057 H 
BRANCH  18  20
ATOM     20  C   LIG d   1       3.764  -1.384  -2.763  0.00  0.00     0.409 C 
ATOM     21  F   LIG d   1       4.092  -2.504  -3.535  0.00  0.00    -0.170 F 
ATOM     22  F   LIG d   1       2.378  -1.334  -2.580  0.00  0.00    -0.170 F 
ATOM     23  F   LIG d   1       4.397  -1.476  -1.518  0.00  0.00    -0.170 F 
ENDBRANCH  18  20
BRANCH  18  24
ATOM     24  C   LIG d   1       4.098   1.081  -2.537  0.00  0.00     0.409 C 
ATOM     25  F   LIG d   1       4.148   2.266  -3.278  0.00  0.00    -0.170 F 
ATOM     26  F   LIG d   1       2.877   1.007  -1.858  0.00  0.00    -0.170 F 
ATOM     27  F   LIG d   1       5.148   1.064  -1.612  0.00  0.00    -0.170 F 
ENDBRANCH  18  24
ENDBRANCH   2  18
TORSDOF 7
ENDMDL
MODEL 9
REMARK VINA RESULT:      -5.7      2.888      4.508
REMARK  7 active torsions:
REMARK  status: ('A' for Active; 'I' for Inactive)
REMARK    1  A    between atoms: C_1  and  C_2 
REMARK    2  A    between atoms: C_2  and  C_3 
REMARK    3  A    between atoms: C_3  and  C_4 
REMARK    4  A    between atoms: C_4  and  N_5 
REMARK       I    between atoms: N_5  and  C_6 
REMARK    5  A    between atoms: C_6  and  C_8 
REMARK    6  A    between atoms: C_8  and  C_9 
REMARK    7  A    between atoms: C_8  and  C_13 
ROOT
ATOM      1  N   LIG d   1       6.310  -1.091  -3.383  0.00  0.00    -0.315 N 
ATOM      2  C   LIG d   1       5.414  -0.359  -4.073  0.00  0.00     0.234 C 
ATOM      3  O   LIG d   1       5.661  -0.011  -5.208  0.00  0.00    -0.275 OA
ATOM      4  H   LIG d   1       6.112  -1.369  -2.475  0.00  0.00     0.149 HD
ENDROOT
BRANCH   1   5
ATOM      5  C   LIG d   1       7.583  -1.466  -4.002  0.00  0.00     0.012 C 
ATOM      6  H   LIG d   1       7.660  -1.000  -4.985  0.00  0.00     0.046 H 
ATOM      7  H   LIG d   1       8.407  -1.127  -3.373  0.00  0.00     0.046 H 
BRANCH   5   8
ATOM      8  C   LIG d   1       7.650  -2.987  -4.152  0.00  0.00    -0.038 C 
ATOM      9  H   LIG d   1       8.690  -3.311  -4.111  0.00  0.00     0.028 H 
ATOM     10  H   LIG d   1       7.091  -3.457  -3.343  0.00  0.00     0.028 H 
BRANCH   8  11
ATOM     11  C   LIG d   1       7.041  -3.394  -5.495  0.00  0.00    -0.054 C 
ATOM     12  H   LIG d   1       6.811  -2.501  -6.076  0.00  0.00     0.026 H 
ATOM     13  H   LIG d   1       7.752  -4.012  -6.045  0.00  0.00     0.026 H 
BRANCH  11  14
ATOM     14  C   LIG d   1       5.756  -4.189  -5.252  0.00  0.00    -0.065 C 
ATOM     15  H   LIG d   1       4.961  -3.797  -5.886  0.00  0.00     0.023 H 
ATOM     16  H   LIG d   1       5.928  -5.239  -5.491  0.00  0.00     0.023 H 
ATOM     17  H   LIG d   1       5.464  -4.097  -4.206  0.00  0.00     0.023 H 
ENDBRANCH  11  14
ENDBRANCH   8  11
ENDBRANCH   5   8
ENDBRANCH   1   5
BRANCH   2  18
ATOM     18  C   LIG d   1       4.104   0.025  -3.435  0.00  0.00     0.224 C 
ATOM     19  H   LIG d   1       3.447   0.458  -4.190  0.00  0.00     0.057 H 
BRANCH  18  20
ATOM     20  C   LIG d   1       4.356   1.051  -2.329  0.00  0.00     0.409 C 
ATOM     21  F   LIG d   1       4.698   0.387  -1.146  0.00  0.00    -0.170 F 
ATOM     22  F   LIG d   1       3.197   1.808  -2.121  0.00  0.00    -0.170 F 
ATOM     23  F   LIG d   1       5.404   1.898  -2.708  0.00  0.00    -0.170 F 
ENDBRANCH  18  20
BRANCH  18  24
ATOM     24  C   LIG d   1       3.443  -1.218  -2.836  0.00  0.00     0.409 C 
ATOM     25  F   LIG d   1       4.116  -1.585  -1.666  0.00  0.00    -0.170 F 
ATOM     26  F   LIG d   1       2.106  -0.937  -2.537  0.00  0.00    -0.170 F 
ATOM     27  F   LIG d   1       3.505  -2.269  -3.759  0.00  0.00    -0.170 F 
ENDBRANCH  18  24
ENDBRANCH   2  18
TORSDOF 7
ENDMDL
MODEL 10
REMARK VINA RESULT:      -5.6      1.627      2.120
REMARK  7 active torsions:
REMARK  status: ('A' for Active; 'I' for Inactive)
REMARK    1  A    between atoms: C_1  and  C_2 
REMARK    2  A    between atoms: C_2  and  C_3 
REMARK    3  A    between atoms: C_3  and  C_4 
REMARK    4  A    between atoms: C_4  and  N_5 
REMARK       I    between atoms: N_5  and  C_6 
REMARK    5  A    between atoms: C_6  and  C_8 
REMARK    6  A    between atoms: C_8  and  C_9 
REMARK    7  A    between atoms: C_8  and  C_13 
ROOT
ATOM      1  N   LIG d   1       5.008  -0.048  -5.827  0.00  0.00    -0.315 N 
ATOM      2  C   LIG d   1       4.512  -0.830  -4.847  0.00  0.00     0.234 C 
ATOM      3  O   LIG d   1       4.119  -1.949  -5.104  0.00  0.00    -0.275 OA
ATOM      4  H   LIG d   1       5.321   0.846  -5.620  0.00  0.00     0.149 HD
ENDROOT
BRANCH   1   5
ATOM      5  C   LIG d   1       5.073  -0.548  -7.202  0.00  0.00     0.012 C 
ATOM      6  H   LIG d   1       6.074  -0.930  -7.402  0.00  0.00     0.046 H 
ATOM      7  H   LIG d   1       4.345  -1.350  -7.331  0.00  0.00     0.046 H 
BRANCH   5   8
ATOM      8  C   LIG d   1       4.756   0.589  -8.174  0.00  0.00    -0.038 C 
ATOM      9  H   LIG d   1       4.490   1.485  -7.612  0.00  0.00     0.028 H 
ATOM     10  H   LIG d   1       5.631   0.795  -8.791  0.00  0.00     0.028 H 
BRANCH   8  11
ATOM     11  C   LIG d   1       3.584   0.183  -9.070  0.00  0.00    -0.054 C 
ATOM     12  H   LIG d   1       3.262   1.040  -9.659  0.00  0.00     0.026 H 
ATOM     13  H   LIG d   1       3.899  -0.620  -9.738  0.00  0.00     0.026 H 
BRANCH  11  14
ATOM     14  C   LIG d   1       2.423  -0.304  -8.200  0.00  0.00    -0.065 C 
ATOM     15  H   LIG d   1       2.816  -0.790  -7.308  0.00  0.00     0.023 H 
ATOM     16  H   LIG d   1       1.806   0.546  -7.909  0.00  0.00     0.023 H 
ATOM     17  H   LIG d   1       1.819  -1.014  -8.765  0.00  0.00     0.023 H 
ENDBRANCH  11  14
ENDBRANCH   8  11
ENDBRANCH   5   8
ENDBRANCH   1   5
BRANCH   2  18
ATOM     18  C   LIG d   1       4.446  -0.316  -3.432  0.00  0.00     0.224 C 
ATOM     19  H   LIG d   1       5.202   0.456  -3.291  0.00  0.00     0.057 H 
BRANCH  18  20
ATOM     20  C   LIG d   1       4.703  -1.466  -2.458  0.00  0.00     0.409 C 
ATOM     21  F   LIG d   1       4.541  -1.011  -1.145  0.00  0.00    -0.170 F 
ATOM     22  F   LIG d   1       6.009  -1.939  -2.629  0.00  0.00    -0.170 F 
ATOM     23  F   LIG d   1       3.796  -2.501  -2.708  0.00  0.00    -0.170 F 
ENDBRANCH  18  20
BRANCH  18  24
ATOM     24  C   LIG d   1       3.059   0.275  -3.169  0.00  0.00     0.409 C 
ATOM     25  F   LIG d   1       3.141   1.211  -2.133  0.00  0.00    -0.170 F 
ATOM     26  F   LIG d   1       2.591   0.903  -4.328  0.00  0.00    -0.170 F 
ATOM     27  F   LIG d   1       2.178  -0.749  -2.804  0.00  0.00    -0.170 F 
ENDBRANCH  18  24
ENDBRANCH   2  18
TORSDOF 7
ENDMDL
