MODEL 1
REMARK VINA RESULT:      -6.3      0.000      0.000
REMARK  12 active torsions:
REMARK  status: ('A' for Active; 'I' for Inactive)
REMARK    1  A    between atoms: C_1  and  C_2 
REMARK    2  A    between atoms: C_2  and  C_3 
REMARK    3  A    between atoms: C_2  and  C_4 
REMARK    4  A    between atoms: C_7  and  C_11 
REMARK    5  A    between atoms: C_7  and  C_23 
REMARK    6  A    between atoms: C_11  and  C_12 
REMARK    7  A    between atoms: C_12  and  N_13 
REMARK    8  A    between atoms: N_13  and  C_14 
REMARK       I    between atoms: N_13  and  C_20 
REMARK    9  A    between atoms: C_14  and  C_15 
REMARK   10  A    between atoms: C_20  and  C_22 
REMARK   11  A    between atoms: C_28  and  O_29 
REMARK   12  A    between atoms: O_29  and  C_30 
ROOT
ATOM      1  C   LIG d   1       5.507  -4.025  -5.237  0.00  0.00     0.062 C 
ATOM      2  H   LIG d   1       5.356  -3.839  -4.173  0.00  0.00     0.060 H 
ATOM      3  C   LIG d   1       4.654  -3.049  -6.052  0.00  0.00    -0.017 C 
ATOM      4  C   LIG d   1       5.112  -1.616  -5.761  0.00  0.00     0.005 C 
ATOM      5  C   LIG d   1       6.604  -1.494  -6.084  0.00  0.00    -0.019 C 
ATOM      6  C   LIG d   1       7.382  -2.530  -5.268  0.00  0.00     0.049 C 
ATOM      7  O   LIG d   1       6.886  -3.836  -5.563  0.00  0.00    -0.376 OA
ATOM      8  H   LIG d   1       3.606  -3.160  -5.772  0.00  0.00     0.030 H 
ATOM      9  H   LIG d   1       4.773  -3.262  -7.115  0.00  0.00     0.030 H 
ATOM     10  H   LIG d   1       6.763  -1.674  -7.148  0.00  0.00     0.030 H 
ATOM     11  H   LIG d   1       6.950  -0.493  -5.829  0.00  0.00     0.030 H 
ATOM     12  H   LIG d   1       8.440  -2.475  -5.526  0.00  0.00     0.056 H 
ATOM     13  H   LIG d   1       7.256  -2.324  -4.205  0.00  0.00     0.056 H 
ENDROOT
BRANCH   4  14
ATOM     14  C   LIG d   1       4.318  -0.638  -6.629  0.00  0.00    -0.027 C 
ATOM     15  H   LIG d   1       3.304  -1.016  -6.767  0.00  0.00     0.029 H 
ATOM     16  H   LIG d   1       4.279   0.335  -6.139  0.00  0.00     0.029 H 
BRANCH  14  17
ATOM     17  C   LIG d   1       5.000  -0.496  -7.991  0.00  0.00     0.016 C 
ATOM     18  H   LIG d   1       6.078  -0.599  -7.870  0.00  0.00     0.046 H 
ATOM     19  H   LIG d   1       4.633  -1.271  -8.663  0.00  0.00     0.046 H 
BRANCH  17  20
ATOM     20  N   LIG d   1       4.696   0.822  -8.554  0.00  0.00    -0.294 N 
ATOM     21  C   LIG d   1       5.693   1.691  -8.813  0.00  0.00     0.213 C 
ATOM     22  O   LIG d   1       5.453   2.744  -9.364  0.00  0.00    -0.276 OA
BRANCH  20  23
ATOM     23  C   LIG d   1       3.308   1.196  -8.835  0.00  0.00     0.073 C 
ATOM     24  H   LIG d   1       2.715   1.107  -7.925  0.00  0.00     0.054 H 
ATOM     25  H   LIG d   1       3.273   2.225  -9.191  0.00  0.00     0.054 H 
BRANCH  23  26
ATOM     26  C   LIG d   1       2.745   0.280  -9.891  0.00  0.00     0.122 A 
ATOM     27  O   LIG d   1       3.245   0.105 -11.126  0.00  0.00    -0.466 OA
ATOM     28  C   LIG d   1       2.492  -0.786 -11.792  0.00  0.00     0.092 A 
ATOM     29  C   LIG d   1       1.491  -1.182 -10.986  0.00  0.00    -0.024 A 
ATOM     30  H   LIG d   1       2.659  -1.123 -12.804  0.00  0.00     0.103 H 
ATOM     31  C   LIG d   1       1.653  -0.495  -9.761  0.00  0.00    -0.019 A 
ATOM     32  H   LIG d   1       0.711  -1.890 -11.227  0.00  0.00     0.065 H 
ATOM     33  H   LIG d   1       1.024  -0.577  -8.888  0.00  0.00     0.065 H 
ENDBRANCH  23  26
ENDBRANCH  20  23
BRANCH  21  34
ATOM     34  C   LIG d   1       7.107   1.354  -8.415  0.00  0.00     0.012 C 
ATOM     35  H   LIG d   1       7.258   0.277  -8.488  0.00  0.00     0.032 H 
ATOM     36  H   LIG d   1       7.803   1.863  -9.082  0.00  0.00     0.032 H 
ATOM     37  H   LIG d   1       7.284   1.678  -7.390  0.00  0.00     0.032 H 
ENDBRANCH  21  34
ENDBRANCH  17  20
ENDBRANCH  14  17
ENDBRANCH   4  14
BRANCH   4  38
ATOM     38  C   LIG d   1       4.884  -1.300  -4.305  0.00  0.00     0.001 A 
ATOM     39  C   LIG d   1       5.409  -0.139  -3.757  0.00  0.00     0.124 A 
ATOM     40  C   LIG d   1       5.201   0.147  -2.415  0.00  0.00    -0.020 A 
ATOM     41  C   LIG d   1       4.467  -0.722  -1.631  0.00  0.00    -0.058 A 
ATOM     42  H   LIG d   1       5.612   1.048  -1.985  0.00  0.00     0.065 H 
ATOM     43  C   LIG d   1       3.940  -1.876  -2.181  0.00  0.00    -0.061 A 
ATOM     44  H   LIG d   1       4.305  -0.500  -0.586  0.00  0.00     0.062 H 
ATOM     45  C   LIG d   1       4.146  -2.162  -3.518  0.00  0.00    -0.055 A 
ATOM     46  H   LIG d   1       3.368  -2.554  -1.567  0.00  0.00     0.062 H 
ATOM     47  H   LIG d   1       3.733  -3.064  -3.947  0.00  0.00     0.062 H 
BRANCH  39  48
ATOM     48  O   LIG d   1       6.129   0.715  -4.531  0.00  0.00    -0.495 OA
BRANCH  48  49
ATOM     49  C   LIG d   1       7.270   1.330  -3.930  0.00  0.00     0.079 C 
ATOM     50  H   LIG d   1       7.262   1.140  -2.856  0.00  0.00     0.066 H 
ATOM     51  H   LIG d   1       8.179   0.916  -4.365  0.00  0.00     0.066 H 
ATOM     52  H   LIG d   1       7.239   2.405  -4.108  0.00  0.00     0.066 H 
ENDBRANCH  48  49
ENDBRANCH  39  48
ENDBRANCH   4  38
BRANCH   1  53
ATOM     53  C   LIG d   1       5.096  -5.461  -5.567  0.00  0.00    -0.020 C 
ATOM     54  H   LIG d   1       4.757  -5.959  -4.660  0.00  0.00     0.032 H 
BRANCH  53  55
ATOM     55  C   LIG d   1       3.962  -5.443  -6.594  0.00  0.00    -0.060 C 
ATOM     56  H   LIG d   1       4.176  -6.161  -7.386  0.00  0.00     0.023 H 
ATOM     57  H   LIG d   1       3.025  -5.710  -6.106  0.00  0.00     0.023 H 
ATOM     58  H   LIG d   1       3.876  -4.444  -7.024  0.00  0.00     0.023 H 
ENDBRANCH  53  55
BRANCH  53  59
ATOM     59  C   LIG d   1       6.296  -6.214  -6.146  0.00  0.00    -0.060 C 
ATOM     60  H   LIG d   1       7.036  -6.374  -5.362  0.00  0.00     0.023 H 
ATOM     61  H   LIG d   1       5.966  -7.177  -6.536  0.00  0.00     0.023 H 
ATOM     62  H   LIG d   1       6.739  -5.628  -6.951  0.00  0.00     0.023 H 
ENDBRANCH  53  59
ENDBRANCH   1  53
TORSDOF 12
ENDMDL
MODEL 2
REMARK VINA RESULT:      -5.8      2.245      4.313
REMARK  12 active torsions:
REMARK  status: ('A' for Active; 'I' for Inactive)
REMARK    1  A    between atoms: C_1  and  C_2 
REMARK    2  A    between atoms: C_2  and  C_3 
REMARK    3  A    between atoms: C_2  and  C_4 
REMARK    4  A    between atoms: C_7  and  C_11 
REMARK    5  A    between atoms: C_7  and  C_23 
REMARK    6  A    between atoms: C_11  and  C_12 
REMARK    7  A    between atoms: C_12  and  N_13 
REMARK    8  A    between atoms: N_13  and  C_14 
REMARK       I    between atoms: N_13  and  C_20 
REMARK    9  A    between atoms: C_14  and  C_15 
REMARK   10  A    between atoms: C_20  and  C_22 
REMARK   11  A    between atoms: C_28  and  O_29 
REMARK   12  A    between atoms: O_29  and  C_30 
ROOT
ATOM      1  C   LIG d   1       5.658  -0.679  -2.971  0.00  0.00     0.062 C 
ATOM      2  H   LIG d   1       6.491  -0.058  -2.643  0.00  0.00     0.060 H 
ATOM      3  C   LIG d   1       5.258  -0.287  -4.397  0.00  0.00    -0.017 C 
ATOM      4  C   LIG d   1       6.436  -0.553  -5.340  0.00  0.00     0.005 C 
ATOM      5  C   LIG d   1       6.837  -2.027  -5.233  0.00  0.00    -0.019 C 
ATOM      6  C   LIG d   1       7.175  -2.352  -3.776  0.00  0.00     0.049 C 
ATOM      7  O   LIG d   1       6.050  -2.053  -2.949  0.00  0.00    -0.376 OA
ATOM      8  H   LIG d   1       5.002   0.772  -4.424  0.00  0.00     0.030 H 
ATOM      9  H   LIG d   1       4.399  -0.879  -4.710  0.00  0.00     0.030 H 
ATOM     10  H   LIG d   1       6.010  -2.655  -5.564  0.00  0.00     0.030 H 
ATOM     11  H   LIG d   1       7.709  -2.213  -5.861  0.00  0.00     0.030 H 
ATOM     12  H   LIG d   1       7.421  -3.410  -3.687  0.00  0.00     0.056 H 
ATOM     13  H   LIG d   1       8.029  -1.753  -3.459  0.00  0.00     0.056 H 
ENDROOT
BRANCH   4  14
ATOM     14  C   LIG d   1       6.022  -0.237  -6.779  0.00  0.00    -0.027 C 
ATOM     15  H   LIG d   1       5.084   0.318  -6.773  0.00  0.00     0.029 H 
ATOM     16  H   LIG d   1       6.796   0.363  -7.257  0.00  0.00     0.029 H 
BRANCH  14  17
ATOM     17  C   LIG d   1       5.837  -1.543  -7.553  0.00  0.00     0.016 C 
ATOM     18  H   LIG d   1       6.496  -1.548  -8.421  0.00  0.00     0.046 H 
ATOM     19  H   LIG d   1       6.079  -2.387  -6.908  0.00  0.00     0.046 H 
BRANCH  17  20
ATOM     20  N   LIG d   1       4.445  -1.653  -7.998  0.00  0.00    -0.294 N 
ATOM     21  C   LIG d   1       4.037  -2.746  -8.673  0.00  0.00     0.213 C 
ATOM     22  O   LIG d   1       2.866  -2.880  -8.960  0.00  0.00    -0.276 OA
BRANCH  20  23
ATOM     23  C   LIG d   1       3.497  -0.575  -7.709  0.00  0.00     0.073 C 
ATOM     24  H   LIG d   1       2.485  -0.978  -7.680  0.00  0.00     0.054 H 
ATOM     25  H   LIG d   1       3.737  -0.128  -6.744  0.00  0.00     0.054 H 
BRANCH  23  26
ATOM     26  C   LIG d   1       3.587   0.476  -8.785  0.00  0.00     0.122 A 
ATOM     27  O   LIG d   1       3.968   0.268 -10.056  0.00  0.00    -0.466 OA
ATOM     28  C   LIG d   1       3.926   1.427 -10.732  0.00  0.00     0.092 A 
ATOM     29  C   LIG d   1       3.524   2.396  -9.890  0.00  0.00    -0.024 A 
ATOM     30  H   LIG d   1       4.176   1.560 -11.774  0.00  0.00     0.103 H 
ATOM     31  C   LIG d   1       3.306   1.783  -8.634  0.00  0.00    -0.019 A 
ATOM     32  H   LIG d   1       3.394   3.442 -10.126  0.00  0.00     0.065 H 
ATOM     33  H   LIG d   1       2.977   2.270  -7.729  0.00  0.00     0.065 H 
ENDBRANCH  23  26
ENDBRANCH  20  23
BRANCH  21  34
ATOM     34  C   LIG d   1       5.036  -3.800  -9.073  0.00  0.00     0.012 C 
ATOM     35  H   LIG d   1       5.766  -3.930  -8.274  0.00  0.00     0.032 H 
ATOM     36  H   LIG d   1       4.519  -4.744  -9.249  0.00  0.00     0.032 H 
ATOM     37  H   LIG d   1       5.546  -3.491  -9.985  0.00  0.00     0.032 H 
ENDBRANCH  21  34
ENDBRANCH  17  20
ENDBRANCH  14  17
ENDBRANCH   4  14
BRANCH   4  38
ATOM     38  C   LIG d   1       7.603   0.317  -4.948  0.00  0.00     0.001 A 
ATOM     39  C   LIG d   1       8.856   0.086  -5.496  0.00  0.00     0.124 A 
ATOM     40  C   LIG d   1       9.929   0.886  -5.129  0.00  0.00    -0.020 A 
ATOM     41  C   LIG d   1       9.745   1.913  -4.224  0.00  0.00    -0.058 A 
ATOM     42  H   LIG d   1      10.906   0.705  -5.551  0.00  0.00     0.065 H 
ATOM     43  C   LIG d   1       8.493   2.145  -3.684  0.00  0.00    -0.061 A 
ATOM     44  H   LIG d   1      10.580   2.536  -3.939  0.00  0.00     0.062 H 
ATOM     45  C   LIG d   1       7.423   1.350  -4.048  0.00  0.00    -0.055 A 
ATOM     46  H   LIG d   1       8.352   2.948  -2.976  0.00  0.00     0.062 H 
ATOM     47  H   LIG d   1       6.446   1.533  -3.625  0.00  0.00     0.062 H 
BRANCH  39  48
ATOM     48  O   LIG d   1       9.033  -0.925  -6.387  0.00  0.00    -0.495 OA
BRANCH  48  49
ATOM     49  C   LIG d   1      10.340  -1.496  -6.467  0.00  0.00     0.079 C 
ATOM     50  H   LIG d   1      10.395  -2.162  -7.329  0.00  0.00     0.066 H 
ATOM     51  H   LIG d   1      11.079  -0.702  -6.575  0.00  0.00     0.066 H 
ATOM     52  H   LIG d   1      10.546  -2.062  -5.559  0.00  0.00     0.066 H 
ENDBRANCH  48  49
ENDBRANCH  39  48
ENDBRANCH   4  38
BRANCH   1  53
ATOM     53  C   LIG d   1       4.467  -0.472  -2.033  0.00  0.00    -0.020 C 
ATOM     54  H   LIG d   1       4.684  -0.924  -1.066  0.00  0.00     0.032 H 
BRANCH  53  55
ATOM     55  C   LIG d   1       4.215   1.026  -1.851  0.00  0.00    -0.060 C 
ATOM     56  H   LIG d   1       3.775   1.205  -0.870  0.00  0.00     0.023 H 
ATOM     57  H   LIG d   1       5.159   1.566  -1.930  0.00  0.00     0.023 H 
ATOM     58  H   LIG d   1       3.531   1.376  -2.625  0.00  0.00     0.023 H 
ENDBRANCH  53  55
BRANCH  53  59
ATOM     59  C   LIG d   1       3.224  -1.129  -2.636  0.00  0.00    -0.060 C 
ATOM     60  H   LIG d   1       3.487  -1.611  -3.577  0.00  0.00     0.023 H 
ATOM     61  H   LIG d   1       2.835  -1.875  -1.943  0.00  0.00     0.023 H 
ATOM     62  H   LIG d   1       2.462  -0.370  -2.817  0.00  0.00     0.023 H 
ENDBRANCH  53  59
ENDBRANCH   1  53
TORSDOF 12
ENDMDL
MODEL 3
REMARK VINA RESULT:      -5.8      1.770      2.416
REMARK  12 active torsions:
REMARK  status: ('A' for Active; 'I' for Inactive)
REMARK    1  A    between atoms: C_1  and  C_2 
REMARK    2  A    between atoms: C_2  and  C_3 
REMARK    3  A    between atoms: C_2  and  C_4 
REMARK    4  A    between atoms: C_7  and  C_11 
REMARK    5  A    between atoms: C_7  and  C_23 
REMARK    6  A    between atoms: C_11  and  C_12 
REMARK    7  A    between atoms: C_12  and  N_13 
REMARK    8  A    between atoms: N_13  and  C_14 
REMARK       I    between atoms: N_13  and  C_20 
REMARK    9  A    between atoms: C_14  and  C_15 
REMARK   10  A    between atoms: C_20  and  C_22 
REMARK   11  A    between atoms: C_28  and  O_29 
REMARK   12  A    between atoms: O_29  and  C_30 
ROOT
ATOM      1  C   LIG d   1       7.361  -2.505  -4.821  0.00  0.00     0.062 C 
ATOM      2  H   LIG d   1       6.839  -2.477  -3.864  0.00  0.00     0.060 H 
ATOM      3  C   LIG d   1       6.350  -2.731  -5.949  0.00  0.00    -0.017 C 
ATOM      4  C   LIG d   1       5.369  -1.554  -5.988  0.00  0.00     0.005 C 
ATOM      5  C   LIG d   1       6.157  -0.253  -6.166  0.00  0.00    -0.019 C 
ATOM      6  C   LIG d   1       7.176  -0.123  -5.030  0.00  0.00     0.049 C 
ATOM      7  O   LIG d   1       8.037  -1.262  -5.031  0.00  0.00    -0.376 OA
ATOM      8  H   LIG d   1       5.803  -3.655  -5.766  0.00  0.00     0.030 H 
ATOM      9  H   LIG d   1       6.876  -2.799  -6.901  0.00  0.00     0.030 H 
ATOM     10  H   LIG d   1       6.679  -0.271  -7.122  0.00  0.00     0.030 H 
ATOM     11  H   LIG d   1       5.471   0.593  -6.140  0.00  0.00     0.030 H 
ATOM     12  H   LIG d   1       7.768   0.781  -5.175  0.00  0.00     0.056 H 
ATOM     13  H   LIG d   1       6.651  -0.064  -4.076  0.00  0.00     0.056 H 
ENDROOT
BRANCH   4  14
ATOM     14  C   LIG d   1       4.402  -1.732  -7.159  0.00  0.00    -0.027 C 
ATOM     15  H   LIG d   1       4.448  -2.762  -7.515  0.00  0.00     0.029 H 
ATOM     16  H   LIG d   1       3.387  -1.506  -6.832  0.00  0.00     0.029 H 
BRANCH  14  17
ATOM     17  C   LIG d   1       4.796  -0.783  -8.293  0.00  0.00     0.016 C 
ATOM     18  H   LIG d   1       5.651  -0.182  -7.983  0.00  0.00     0.046 H 
ATOM     19  H   LIG d   1       5.059  -1.362  -9.177  0.00  0.00     0.046 H 
BRANCH  17  20
ATOM     20  N   LIG d   1       3.668   0.098  -8.605  0.00  0.00    -0.294 N 
ATOM     21  C   LIG d   1       3.893   1.355  -9.036  0.00  0.00     0.213 C 
ATOM     22  O   LIG d   1       2.964   2.053  -9.383  0.00  0.00    -0.276 OA
BRANCH  20  23
ATOM     23  C   LIG d   1       2.294  -0.387  -8.450  0.00  0.00     0.073 C 
ATOM     24  H   LIG d   1       2.222  -0.991  -7.545  0.00  0.00     0.054 H 
ATOM     25  H   LIG d   1       1.615   0.462  -8.374  0.00  0.00     0.054 H 
BRANCH  23  26
ATOM     26  C   LIG d   1       1.920  -1.226  -9.643  0.00  0.00     0.122 A 
ATOM     27  O   LIG d   1       2.069  -2.557  -9.746  0.00  0.00    -0.466 OA
ATOM     28  C   LIG d   1       1.625  -2.966 -10.946  0.00  0.00     0.092 A 
ATOM     29  C   LIG d   1       1.195  -1.891 -11.629  0.00  0.00    -0.024 A 
ATOM     30  H   LIG d   1       1.619  -3.986 -11.304  0.00  0.00     0.103 H 
ATOM     31  C   LIG d   1       1.384  -0.769 -10.790  0.00  0.00    -0.019 A 
ATOM     32  H   LIG d   1       0.784  -1.884 -12.628  0.00  0.00     0.065 H 
ATOM     33  H   LIG d   1       1.145   0.258 -11.024  0.00  0.00     0.065 H 
ENDBRANCH  23  26
ENDBRANCH  20  23
BRANCH  21  34
ATOM     34  C   LIG d   1       5.299   1.894  -9.084  0.00  0.00     0.012 C 
ATOM     35  H   LIG d   1       5.409   2.689  -8.348  0.00  0.00     0.032 H 
ATOM     36  H   LIG d   1       6.003   1.092  -8.860  0.00  0.00     0.032 H 
ATOM     37  H   LIG d   1       5.504   2.288 -10.080  0.00  0.00     0.032 H 
ENDBRANCH  21  34
ENDBRANCH  17  20
ENDBRANCH  14  17
ENDBRANCH   4  14
BRANCH   4  38
ATOM     38  C   LIG d   1       4.593  -1.502  -4.697  0.00  0.00     0.001 A 
ATOM     39  C   LIG d   1       3.767  -0.421  -4.427  0.00  0.00     0.124 A 
ATOM     40  C   LIG d   1       3.058  -0.373  -3.236  0.00  0.00    -0.020 A 
ATOM     41  C   LIG d   1       3.172  -1.404  -2.323  0.00  0.00    -0.058 A 
ATOM     42  H   LIG d   1       2.417   0.469  -3.021  0.00  0.00     0.065 H 
ATOM     43  C   LIG d   1       3.993  -2.484  -2.597  0.00  0.00    -0.061 A 
ATOM     44  H   LIG d   1       2.620  -1.368  -1.396  0.00  0.00     0.062 H 
ATOM     45  C   LIG d   1       4.700  -2.533  -3.784  0.00  0.00    -0.055 A 
ATOM     46  H   LIG d   1       4.082  -3.288  -1.883  0.00  0.00     0.062 H 
ATOM     47  H   LIG d   1       5.340  -3.377  -3.996  0.00  0.00     0.062 H 
BRANCH  39  48
ATOM     48  O   LIG d   1       3.654   0.592  -5.327  0.00  0.00    -0.495 OA
BRANCH  48  49
ATOM     49  C   LIG d   1       2.458   1.370  -5.280  0.00  0.00     0.079 C 
ATOM     50  H   LIG d   1       1.719   0.944  -5.959  0.00  0.00     0.066 H 
ATOM     51  H   LIG d   1       2.061   1.369  -4.265  0.00  0.00     0.066 H 
ATOM     52  H   LIG d   1       2.679   2.394  -5.581  0.00  0.00     0.066 H 
ENDBRANCH  48  49
ENDBRANCH  39  48
ENDBRANCH   4  38
BRANCH   1  53
ATOM     53  C   LIG d   1       8.380  -3.645  -4.814  0.00  0.00    -0.020 C 
ATOM     54  H   LIG d   1       9.175  -3.427  -5.526  0.00  0.00     0.032 H 
BRANCH  53  55
ATOM     55  C   LIG d   1       8.976  -3.787  -3.411  0.00  0.00    -0.060 C 
ATOM     56  H   LIG d   1       9.924  -3.250  -3.363  0.00  0.00     0.023 H 
ATOM     57  H   LIG d   1       8.285  -3.372  -2.679  0.00  0.00     0.023 H 
ATOM     58  H   LIG d   1       9.146  -4.842  -3.194  0.00  0.00     0.023 H 
ENDBRANCH  53  55
BRANCH  53  59
ATOM     59  C   LIG d   1       7.687  -4.951  -5.208  0.00  0.00    -0.060 C 
ATOM     60  H   LIG d   1       8.253  -5.438  -6.002  0.00  0.00     0.023 H 
ATOM     61  H   LIG d   1       7.636  -5.611  -4.342  0.00  0.00     0.023 H 
ATOM     62  H   LIG d   1       6.678  -4.735  -5.560  0.00  0.00     0.023 H 
ENDBRANCH  53  59
ENDBRANCH   1  53
TORSDOF 12
ENDMDL
MODEL 4
REMARK VINA RESULT:      -5.7      2.347      4.136
REMARK  12 active torsions:
REMARK  status: ('A' for Active; 'I' for Inactive)
REMARK    1  A    between atoms: C_1  and  C_2 
REMARK    2  A    between atoms: C_2  and  C_3 
REMARK    3  A    between atoms: C_2  and  C_4 
REMARK    4  A    between atoms: C_7  and  C_11 
REMARK    5  A    between atoms: C_7  and  C_23 
REMARK    6  A    between atoms: C_11  and  C_12 
REMARK    7  A    between atoms: C_12  and  N_13 
REMARK    8  A    between atoms: N_13  and  C_14 
REMARK       I    between atoms: N_13  and  C_20 
REMARK    9  A    between atoms: C_14  and  C_15 
REMARK   10  A    between atoms: C_20  and  C_22 
REMARK   11  A    between atoms: C_28  and  O_29 
REMARK   12  A    between atoms: O_29  and  C_30 
ROOT
ATOM      1  C   LIG d   1       5.852  -0.655  -3.142  0.00  0.00     0.062 C 
ATOM      2  H   LIG d   1       6.632  -0.009  -2.739  0.00  0.00     0.060 H 
ATOM      3  C   LIG d   1       5.584  -0.283  -4.603  0.00  0.00    -0.017 C 
ATOM      4  C   LIG d   1       6.855  -0.522  -5.424  0.00  0.00     0.005 C 
ATOM      5  C   LIG d   1       7.285  -1.983  -5.266  0.00  0.00    -0.019 C 
ATOM      6  C   LIG d   1       7.487  -2.290  -3.780  0.00  0.00     0.049 C 
ATOM      7  O   LIG d   1       6.277  -2.018  -3.069  0.00  0.00    -0.376 OA
ATOM      8  H   LIG d   1       5.303   0.769  -4.664  0.00  0.00     0.030 H 
ATOM      9  H   LIG d   1       4.776  -0.901  -4.993  0.00  0.00     0.030 H 
ATOM     10  H   LIG d   1       6.511  -2.636  -5.670  0.00  0.00     0.030 H 
ATOM     11  H   LIG d   1       8.218  -2.148  -5.803  0.00  0.00     0.030 H 
ATOM     12  H   LIG d   1       7.751  -3.340  -3.658  0.00  0.00     0.056 H 
ATOM     13  H   LIG d   1       8.288  -1.665  -3.385  0.00  0.00     0.056 H 
ENDROOT
BRANCH   4  14
ATOM     14  C   LIG d   1       6.576  -0.226  -6.899  0.00  0.00    -0.027 C 
ATOM     15  H   LIG d   1       6.801   0.821  -7.108  0.00  0.00     0.029 H 
ATOM     16  H   LIG d   1       7.202  -0.863  -7.523  0.00  0.00     0.029 H 
BRANCH  14  17
ATOM     17  C   LIG d   1       5.102  -0.502  -7.203  0.00  0.00     0.016 C 
ATOM     18  H   LIG d   1       5.022  -1.374  -7.852  0.00  0.00     0.046 H 
ATOM     19  H   LIG d   1       4.568  -0.690  -6.272  0.00  0.00     0.046 H 
BRANCH  17  20
ATOM     20  N   LIG d   1       4.517   0.662  -7.874  0.00  0.00    -0.294 N 
ATOM     21  C   LIG d   1       3.293   1.100  -7.519  0.00  0.00     0.213 C 
ATOM     22  O   LIG d   1       2.847   2.116  -8.008  0.00  0.00    -0.276 OA
BRANCH  20  23
ATOM     23  C   LIG d   1       5.262   1.349  -8.932  0.00  0.00     0.073 C 
ATOM     24  H   LIG d   1       4.908   2.375  -9.019  0.00  0.00     0.054 H 
ATOM     25  H   LIG d   1       6.324   1.352  -8.685  0.00  0.00     0.054 H 
BRANCH  23  26
ATOM     26  C   LIG d   1       5.053   0.632 -10.240  0.00  0.00     0.122 A 
ATOM     27  O   LIG d   1       5.858  -0.312 -10.757  0.00  0.00    -0.466 OA
ATOM     28  C   LIG d   1       5.361  -0.730 -11.932  0.00  0.00     0.092 A 
ATOM     29  C   LIG d   1       4.232  -0.044 -12.184  0.00  0.00    -0.024 A 
ATOM     30  H   LIG d   1       5.796  -1.486 -12.569  0.00  0.00     0.103 H 
ATOM     31  C   LIG d   1       4.033   0.834 -11.094  0.00  0.00    -0.019 A 
ATOM     32  H   LIG d   1       3.597  -0.144 -13.053  0.00  0.00     0.065 H 
ATOM     33  H   LIG d   1       3.219   1.533 -10.970  0.00  0.00     0.065 H 
ENDBRANCH  23  26
ENDBRANCH  20  23
BRANCH  21  34
ATOM     34  C   LIG d   1       2.478   0.326  -6.516  0.00  0.00     0.012 C 
ATOM     35  H   LIG d   1       2.693  -0.738  -6.617  0.00  0.00     0.032 H 
ATOM     36  H   LIG d   1       2.734   0.654  -5.509  0.00  0.00     0.032 H 
ATOM     37  H   LIG d   1       1.417   0.501  -6.696  0.00  0.00     0.032 H 
ENDBRANCH  21  34
ENDBRANCH  17  20
ENDBRANCH  14  17
ENDBRANCH   4  14
BRANCH   4  38
ATOM     38  C   LIG d   1       7.954   0.383  -4.927  0.00  0.00     0.001 A 
ATOM     39  C   LIG d   1       9.263   0.172  -5.333  0.00  0.00     0.124 A 
ATOM     40  C   LIG d   1      10.273   1.004  -4.870  0.00  0.00    -0.020 A 
ATOM     41  C   LIG d   1       9.971   2.043  -4.011  0.00  0.00    -0.058 A 
ATOM     42  H   LIG d   1      11.294   0.839  -5.180  0.00  0.00     0.065 H 
ATOM     43  C   LIG d   1       8.663   2.254  -3.612  0.00  0.00    -0.061 A 
ATOM     44  H   LIG d   1      10.756   2.690  -3.650  0.00  0.00     0.062 H 
ATOM     45  C   LIG d   1       7.656   1.427  -4.073  0.00  0.00    -0.055 A 
ATOM     46  H   LIG d   1       8.429   3.066  -2.940  0.00  0.00     0.062 H 
ATOM     47  H   LIG d   1       6.635   1.594  -3.761  0.00  0.00     0.062 H 
BRANCH  39  48
ATOM     48  O   LIG d   1       9.558  -0.850  -6.179  0.00  0.00    -0.495 OA
BRANCH  48  49
ATOM     49  C   LIG d   1      10.882  -1.383  -6.115  0.00  0.00     0.079 C 
ATOM     50  H   LIG d   1      10.896  -2.378  -6.563  0.00  0.00     0.066 H 
ATOM     51  H   LIG d   1      11.564  -0.731  -6.660  0.00  0.00     0.066 H 
ATOM     52  H   LIG d   1      11.196  -1.450  -5.074  0.00  0.00     0.066 H 
ENDBRANCH  48  49
ENDBRANCH  39  48
ENDBRANCH   4  38
BRANCH   1  53
ATOM     53  C   LIG d   1       4.570  -0.476  -2.327  0.00  0.00    -0.020 C 
ATOM     54  H   LIG d   1       4.658  -1.022  -1.388  0.00  0.00     0.032 H 
BRANCH  53  55
ATOM     55  C   LIG d   1       4.355   1.010  -2.034  0.00  0.00    -0.060 C 
ATOM     56  H   LIG d   1       3.328   1.284  -2.279  0.00  0.00     0.023 H 
ATOM     57  H   LIG d   1       4.540   1.204  -0.978  0.00  0.00     0.023 H 
ATOM     58  H   LIG d   1       5.041   1.603  -2.639  0.00  0.00     0.023 H 
ENDBRANCH  53  55
BRANCH  53  59
ATOM     59  C   LIG d   1       3.381  -1.018  -3.123  0.00  0.00    -0.060 C 
ATOM     60  H   LIG d   1       2.515  -1.107  -2.466  0.00  0.00     0.023 H 
ATOM     61  H   LIG d   1       3.148  -0.333  -3.938  0.00  0.00     0.023 H 
ATOM     62  H   LIG d   1       3.631  -1.997  -3.531  0.00  0.00     0.023 H 
ENDBRANCH  53  59
ENDBRANCH   1  53
TORSDOF 12
ENDMDL
MODEL 5
REMARK VINA RESULT:      -5.6      2.457      4.250
REMARK  12 active torsions:
REMARK  status: ('A' for Active; 'I' for Inactive)
REMARK    1  A    between atoms: C_1  and  C_2 
REMARK    2  A    between atoms: C_2  and  C_3 
REMARK    3  A    between atoms: C_2  and  C_4 
REMARK    4  A    between atoms: C_7  and  C_11 
REMARK    5  A    between atoms: C_7  and  C_23 
REMARK    6  A    between atoms: C_11  and  C_12 
REMARK    7  A    between atoms: C_12  and  N_13 
REMARK    8  A    between atoms: N_13  and  C_14 
REMARK       I    between atoms: N_13  and  C_20 
REMARK    9  A    between atoms: C_14  and  C_15 
REMARK   10  A    between atoms: C_20  and  C_22 
REMARK   11  A    between atoms: C_28  and  O_29 
REMARK   12  A    between atoms: O_29  and  C_30 
ROOT
ATOM      1  C   LIG d   1       5.971  -0.586  -3.333  0.00  0.00     0.062 C 
ATOM      2  H   LIG d   1       6.692   0.095  -2.880  0.00  0.00     0.060 H 
ATOM      3  C   LIG d   1       5.892  -0.321  -4.839  0.00  0.00    -0.017 C 
ATOM      4  C   LIG d   1       7.259  -0.603  -5.471  0.00  0.00     0.005 C 
ATOM      5  C   LIG d   1       7.668  -2.045  -5.155  0.00  0.00    -0.019 C 
ATOM      6  C   LIG d   1       7.678  -2.244  -3.637  0.00  0.00     0.049 C 
ATOM      7  O   LIG d   1       6.387  -1.936  -3.109  0.00  0.00    -0.376 OA
ATOM      8  H   LIG d   1       5.619   0.720  -5.011  0.00  0.00     0.030 H 
ATOM      9  H   LIG d   1       5.142  -0.975  -5.284  0.00  0.00     0.030 H 
ATOM     10  H   LIG d   1       6.954  -2.733  -5.608  0.00  0.00     0.030 H 
ATOM     11  H   LIG d   1       8.663  -2.236  -5.556  0.00  0.00     0.030 H 
ATOM     12  H   LIG d   1       7.927  -3.280  -3.408  0.00  0.00     0.056 H 
ATOM     13  H   LIG d   1       8.421  -1.583  -3.189  0.00  0.00     0.056 H 
ENDROOT
BRANCH   4  14
ATOM     14  C   LIG d   1       7.171  -0.415  -6.987  0.00  0.00    -0.027 C 
ATOM     15  H   LIG d   1       8.143  -0.619  -7.435  0.00  0.00     0.029 H 
ATOM     16  H   LIG d   1       6.430  -1.101  -7.397  0.00  0.00     0.029 H 
BRANCH  14  17
ATOM     17  C   LIG d   1       6.759   1.026  -7.298  0.00  0.00     0.016 C 
ATOM     18  H   LIG d   1       5.681   1.131  -7.173  0.00  0.00     0.046 H 
ATOM     19  H   LIG d   1       7.271   1.705  -6.618  0.00  0.00     0.046 H 
BRANCH  17  20
ATOM     20  N   LIG d   1       7.123   1.350  -8.679  0.00  0.00    -0.294 N 
ATOM     21  C   LIG d   1       8.225   2.083  -8.932  0.00  0.00     0.213 C 
ATOM     22  O   LIG d   1       8.579   2.273 -10.076  0.00  0.00    -0.276 OA
BRANCH  20  23
ATOM     23  C   LIG d   1       6.290   0.876  -9.787  0.00  0.00     0.073 C 
ATOM     24  H   LIG d   1       6.563   1.404 -10.700  0.00  0.00     0.054 H 
ATOM     25  H   LIG d   1       6.444  -0.194  -9.927  0.00  0.00     0.054 H 
BRANCH  23  26
ATOM     26  C   LIG d   1       4.840   1.137  -9.472  0.00  0.00     0.122 A 
ATOM     27  O   LIG d   1       3.913   0.201  -9.205  0.00  0.00    -0.466 OA
ATOM     28  C   LIG d   1       2.733   0.796  -8.967  0.00  0.00     0.092 A 
ATOM     29  C   LIG d   1       2.894   2.125  -9.090  0.00  0.00    -0.024 A 
ATOM     30  H   LIG d   1       1.810   0.291  -8.722  0.00  0.00     0.103 H 
ATOM     31  C   LIG d   1       4.251   2.346  -9.416  0.00  0.00    -0.019 A 
ATOM     32  H   LIG d   1       2.131   2.881  -8.965  0.00  0.00     0.065 H 
ATOM     33  H   LIG d   1       4.726   3.300  -9.587  0.00  0.00     0.065 H 
ENDBRANCH  23  26
ENDBRANCH  20  23
BRANCH  21  34
ATOM     34  C   LIG d   1       9.017   2.669  -7.791  0.00  0.00     0.012 C 
ATOM     35  H   LIG d   1       9.698   1.915  -7.397  0.00  0.00     0.032 H 
ATOM     36  H   LIG d   1       9.590   3.524  -8.149  0.00  0.00     0.032 H 
ATOM     37  H   LIG d   1       8.336   2.992  -7.004  0.00  0.00     0.032 H 
ENDBRANCH  21  34
ENDBRANCH  17  20
ENDBRANCH  14  17
ENDBRANCH   4  14
BRANCH   4  38
ATOM     38  C   LIG d   1       8.283   0.347  -4.904  0.00  0.00     0.001 A 
ATOM     39  C   LIG d   1       9.628   0.171  -5.192  0.00  0.00     0.124 A 
ATOM     40  C   LIG d   1      10.568   1.044  -4.664  0.00  0.00    -0.020 A 
ATOM     41  C   LIG d   1      10.162   2.090  -3.858  0.00  0.00    -0.058 A 
ATOM     42  H   LIG d   1      11.616   0.907  -4.884  0.00  0.00     0.065 H 
ATOM     43  C   LIG d   1       8.819   2.266  -3.576  0.00  0.00    -0.061 A 
ATOM     44  H   LIG d   1      10.893   2.770  -3.447  0.00  0.00     0.062 H 
ATOM     45  C   LIG d   1       7.881   1.397  -4.102  0.00  0.00    -0.055 A 
ATOM     46  H   LIG d   1       8.503   3.083  -2.945  0.00  0.00     0.062 H 
ATOM     47  H   LIG d   1       6.832   1.537  -3.881  0.00  0.00     0.062 H 
BRANCH  39  48
ATOM     48  O   LIG d   1      10.025  -0.858  -5.987  0.00  0.00    -0.495 OA
BRANCH  48  49
ATOM     49  C   LIG d   1      10.903  -0.539  -7.069  0.00  0.00     0.079 C 
ATOM     50  H   LIG d   1      10.330  -0.467  -7.994  0.00  0.00     0.066 H 
ATOM     51  H   LIG d   1      11.394   0.414  -6.871  0.00  0.00     0.066 H 
ATOM     52  H   LIG d   1      11.655  -1.321  -7.169  0.00  0.00     0.066 H 
ENDBRANCH  48  49
ENDBRANCH  39  48
ENDBRANCH   4  38
BRANCH   1  53
ATOM     53  C   LIG d   1       4.595  -0.365  -2.703  0.00  0.00    -0.020 C 
ATOM     54  H   LIG d   1       3.873  -0.124  -3.482  0.00  0.00     0.032 H 
BRANCH  53  55
ATOM     55  C   LIG d   1       4.155  -1.640  -1.978  0.00  0.00    -0.060 C 
ATOM     56  H   LIG d   1       3.088  -1.797  -2.133  0.00  0.00     0.023 H 
ATOM     57  H   LIG d   1       4.709  -2.491  -2.372  0.00  0.00     0.023 H 
ATOM     58  H   LIG d   1       4.355  -1.538  -0.911  0.00  0.00     0.023 H 
ENDBRANCH  53  55
BRANCH  53  59
ATOM     59  C   LIG d   1       4.672   0.790  -1.702  0.00  0.00    -0.060 C 
ATOM     60  H   LIG d   1       4.333   0.447  -0.725  0.00  0.00     0.023 H 
ATOM     61  H   LIG d   1       5.702   1.138  -1.628  0.00  0.00     0.023 H 
ATOM     62  H   LIG d   1       4.036   1.608  -2.042  0.00  0.00     0.023 H 
ENDBRANCH  53  59
ENDBRANCH   1  53
TORSDOF 12
ENDMDL
MODEL 6
REMARK VINA RESULT:      -5.6      2.324      4.822
REMARK  12 active torsions:
REMARK  status: ('A' for Active; 'I' for Inactive)
REMARK    1  A    between atoms: C_1  and  C_2 
REMARK    2  A    between atoms: C_2  and  C_3 
REMARK    3  A    between atoms: C_2  and  C_4 
REMARK    4  A    between atoms: C_7  and  C_11 
REMARK    5  A    between atoms: C_7  and  C_23 
REMARK    6  A    between atoms: C_11  and  C_12 
REMARK    7  A    between atoms: C_12  and  N_13 
REMARK    8  A    between atoms: N_13  and  C_14 
REMARK       I    between atoms: N_13  and  C_20 
REMARK    9  A    between atoms: C_14  and  C_15 
REMARK   10  A    between atoms: C_20  and  C_22 
REMARK   11  A    between atoms: C_28  and  O_29 
REMARK   12  A    between atoms: O_29  and  C_30 
ROOT
ATOM      1  C   LIG d   1       5.297  -0.585  -3.025  0.00  0.00     0.062 C 
ATOM      2  H   LIG d   1       6.090   0.107  -2.743  0.00  0.00     0.060 H 
ATOM      3  C   LIG d   1       5.062  -0.507  -4.536  0.00  0.00    -0.017 C 
ATOM      4  C   LIG d   1       6.338  -0.942  -5.265  0.00  0.00     0.005 C 
ATOM      5  C   LIG d   1       6.718  -2.353  -4.808  0.00  0.00    -0.019 C 
ATOM      6  C   LIG d   1       6.888  -2.359  -3.286  0.00  0.00     0.049 C 
ATOM      7  O   LIG d   1       5.677  -1.916  -2.671  0.00  0.00    -0.376 OA
ATOM      8  H   LIG d   1       4.815   0.518  -4.813  0.00  0.00     0.030 H 
ATOM      9  H   LIG d   1       4.241  -1.169  -4.811  0.00  0.00     0.030 H 
ATOM     10  H   LIG d   1       5.931  -3.052  -5.089  0.00  0.00     0.030 H 
ATOM     11  H   LIG d   1       7.654  -2.648  -5.281  0.00  0.00     0.030 H 
ATOM     12  H   LIG d   1       7.117  -3.371  -2.951  0.00  0.00     0.056 H 
ATOM     13  H   LIG d   1       7.703  -1.691  -3.008  0.00  0.00     0.056 H 
ENDROOT
BRANCH   4  14
ATOM     14  C   LIG d   1       6.090  -0.941  -6.775  0.00  0.00    -0.027 C 
ATOM     15  H   LIG d   1       7.036  -0.795  -7.298  0.00  0.00     0.029 H 
ATOM     16  H   LIG d   1       5.654  -1.894  -7.073  0.00  0.00     0.029 H 
BRANCH  14  17
ATOM     17  C   LIG d   1       5.129   0.194  -7.132  0.00  0.00     0.016 C 
ATOM     18  H   LIG d   1       4.102  -0.164  -7.065  0.00  0.00     0.046 H 
ATOM     19  H   LIG d   1       5.271   1.023  -6.440  0.00  0.00     0.046 H 
BRANCH  17  20
ATOM     20  N   LIG d   1       5.398   0.649  -8.499  0.00  0.00    -0.294 N 
ATOM     21  C   LIG d   1       4.497   1.415  -9.145  0.00  0.00     0.213 C 
ATOM     22  O   LIG d   1       4.758   1.868 -10.239  0.00  0.00    -0.276 OA
BRANCH  20  23
ATOM     23  C   LIG d   1       6.647   0.270  -9.164  0.00  0.00     0.073 C 
ATOM     24  H   LIG d   1       7.053  -0.625  -8.693  0.00  0.00     0.054 H 
ATOM     25  H   LIG d   1       6.452   0.069 -10.217  0.00  0.00     0.054 H 
BRANCH  23  26
ATOM     26  C   LIG d   1       7.641   1.396  -9.044  0.00  0.00     0.122 A 
ATOM     27  O   LIG d   1       8.442   1.845 -10.025  0.00  0.00    -0.466 OA
ATOM     28  C   LIG d   1       9.192   2.858  -9.562  0.00  0.00     0.092 A 
ATOM     29  C   LIG d   1       8.882   3.060  -8.268  0.00  0.00    -0.024 A 
ATOM     30  H   LIG d   1       9.923   3.414 -10.130  0.00  0.00     0.103 H 
ATOM     31  C   LIG d   1       7.883   2.117  -7.934  0.00  0.00    -0.019 A 
ATOM     32  H   LIG d   1       9.315   3.799  -7.610  0.00  0.00     0.065 H 
ATOM     33  H   LIG d   1       7.405   1.999  -6.973  0.00  0.00     0.065 H 
ENDBRANCH  23  26
ENDBRANCH  20  23
BRANCH  21  34
ATOM     34  C   LIG d   1       3.163   1.707  -8.508  0.00  0.00     0.012 C 
ATOM     35  H   LIG d   1       3.182   2.703  -8.065  0.00  0.00     0.032 H 
ATOM     36  H   LIG d   1       2.380   1.661  -9.265  0.00  0.00     0.032 H 
ATOM     37  H   LIG d   1       2.960   0.968  -7.732  0.00  0.00     0.032 H 
ENDBRANCH  21  34
ENDBRANCH  17  20
ENDBRANCH  14  17
ENDBRANCH   4  14
BRANCH   4  38
ATOM     38  C   LIG d   1       7.457   0.014  -4.937  0.00  0.00     0.001 A 
ATOM     39  C   LIG d   1       8.736  -0.225  -5.416  0.00  0.00     0.124 A 
ATOM     40  C   LIG d   1       9.765   0.654  -5.109  0.00  0.00    -0.020 A 
ATOM     41  C   LIG d   1       9.511   1.767  -4.331  0.00  0.00    -0.058 A 
ATOM     42  H   LIG d   1      10.762   0.468  -5.477  0.00  0.00     0.065 H 
ATOM     43  C   LIG d   1       8.233   2.005  -3.858  0.00  0.00    -0.061 A 
ATOM     44  H   LIG d   1      10.312   2.451  -4.091  0.00  0.00     0.062 H 
ATOM     45  C   LIG d   1       7.207   1.131  -4.164  0.00  0.00    -0.055 A 
ATOM     46  H   LIG d   1       8.037   2.875  -3.250  0.00  0.00     0.062 H 
ATOM     47  H   LIG d   1       6.209   1.320  -3.795  0.00  0.00     0.062 H 
BRANCH  39  48
ATOM     48  O   LIG d   1       8.982  -1.320  -6.184  0.00  0.00    -0.495 OA
BRANCH  48  49
ATOM     49  C   LIG d   1       9.855  -1.145  -7.301  0.00  0.00     0.079 C 
ATOM     50  H   LIG d   1       9.718  -0.146  -7.717  0.00  0.00     0.066 H 
ATOM     51  H   LIG d   1      10.889  -1.266  -6.979  0.00  0.00     0.066 H 
ATOM     52  H   LIG d   1       9.623  -1.889  -8.063  0.00  0.00     0.066 H 
ENDBRANCH  48  49
ENDBRANCH  39  48
ENDBRANCH   4  38
BRANCH   1  53
ATOM     53  C   LIG d   1       4.009  -0.210  -2.289  0.00  0.00    -0.020 C 
ATOM     54  H   LIG d   1       4.059  -0.568  -1.262  0.00  0.00     0.032 H 
BRANCH  53  55
ATOM     55  C   LIG d   1       3.844   1.312  -2.291  0.00  0.00    -0.060 C 
ATOM     56  H   LIG d   1       3.057   1.592  -2.992  0.00  0.00     0.023 H 
ATOM     57  H   LIG d   1       3.577   1.650  -1.291  0.00  0.00     0.023 H 
ATOM     58  H   LIG d   1       4.782   1.778  -2.595  0.00  0.00     0.023 H 
ENDBRANCH  53  55
BRANCH  53  59
ATOM     59  C   LIG d   1       2.813  -0.853  -2.995  0.00  0.00    -0.060 C 
ATOM     60  H   LIG d   1       3.170  -1.526  -3.774  0.00  0.00     0.023 H 
ATOM     61  H   LIG d   1       2.224  -1.416  -2.271  0.00  0.00     0.023 H 
ATOM     62  H   LIG d   1       2.193  -0.076  -3.442  0.00  0.00     0.023 H 
ENDBRANCH  53  59
ENDBRANCH   1  53
TORSDOF 12
ENDMDL
MODEL 7
REMARK VINA RESULT:      -5.6      2.459      7.108
REMARK  12 active torsions:
REMARK  status: ('A' for Active; 'I' for Inactive)
REMARK    1  A    between atoms: C_1  and  C_2 
REMARK    2  A    between atoms: C_2  and  C_3 
REMARK    3  A    between atoms: C_2  and  C_4 
REMARK    4  A    between atoms: C_7  and  C_11 
REMARK    5  A    between atoms: C_7  and  C_23 
REMARK    6  A    between atoms: C_11  and  C_12 
REMARK    7  A    between atoms: C_12  and  N_13 
REMARK    8  A    between atoms: N_13  and  C_14 
REMARK       I    between atoms: N_13  and  C_20 
REMARK    9  A    between atoms: C_14  and  C_15 
REMARK   10  A    between atoms: C_20  and  C_22 
REMARK   11  A    between atoms: C_28  and  O_29 
REMARK   12  A    between atoms: O_29  and  C_30 
ROOT
ATOM      1  C   LIG d   1       5.427  -0.174  -3.738  0.00  0.00     0.062 C 
ATOM      2  H   LIG d   1       4.765   0.490  -4.294  0.00  0.00     0.060 H 
ATOM      3  C   LIG d   1       5.313  -1.595  -4.297  0.00  0.00    -0.017 C 
ATOM      4  C   LIG d   1       5.774  -1.598  -5.758  0.00  0.00     0.005 C 
ATOM      5  C   LIG d   1       7.204  -1.057  -5.833  0.00  0.00    -0.019 C 
ATOM      6  C   LIG d   1       7.245   0.343  -5.214  0.00  0.00     0.049 C 
ATOM      7  O   LIG d   1       6.776   0.281  -3.866  0.00  0.00    -0.376 OA
ATOM      8  H   LIG d   1       4.276  -1.926  -4.241  0.00  0.00     0.030 H 
ATOM      9  H   LIG d   1       5.944  -2.267  -3.714  0.00  0.00     0.030 H 
ATOM     10  H   LIG d   1       7.873  -1.718  -5.281  0.00  0.00     0.030 H 
ATOM     11  H   LIG d   1       7.520  -1.006  -6.874  0.00  0.00     0.030 H 
ATOM     12  H   LIG d   1       8.269   0.716  -5.226  0.00  0.00     0.056 H 
ATOM     13  H   LIG d   1       6.607   1.013  -5.790  0.00  0.00     0.056 H 
ENDROOT
BRANCH   4  14
ATOM     14  C   LIG d   1       5.737  -3.027  -6.304  0.00  0.00    -0.027 C 
ATOM     15  H   LIG d   1       4.802  -3.188  -6.841  0.00  0.00     0.029 H 
ATOM     16  H   LIG d   1       6.576  -3.180  -6.982  0.00  0.00     0.029 H 
BRANCH  14  17
ATOM     17  C   LIG d   1       5.834  -4.018  -5.141  0.00  0.00     0.016 C 
ATOM     18  H   LIG d   1       6.160  -3.494  -4.243  0.00  0.00     0.046 H 
ATOM     19  H   LIG d   1       4.858  -4.468  -4.965  0.00  0.00     0.046 H 
BRANCH  17  20
ATOM     20  N   LIG d   1       6.802  -5.066  -5.473  0.00  0.00    -0.294 N 
ATOM     21  C   LIG d   1       6.379  -6.322  -5.719  0.00  0.00     0.213 C 
ATOM     22  O   LIG d   1       7.168  -7.167  -6.084  0.00  0.00    -0.276 OA
BRANCH  20  23
ATOM     23  C   LIG d   1       8.231  -4.748  -5.539  0.00  0.00     0.073 C 
ATOM     24  H   LIG d   1       8.734  -5.468  -6.184  0.00  0.00     0.054 H 
ATOM     25  H   LIG d   1       8.362  -3.745  -5.945  0.00  0.00     0.054 H 
BRANCH  23  26
ATOM     26  C   LIG d   1       8.824  -4.813  -4.156  0.00  0.00     0.122 A 
ATOM     27  O   LIG d   1       9.211  -5.930  -3.518  0.00  0.00    -0.466 OA
ATOM     28  C   LIG d   1       9.696  -5.609  -2.308  0.00  0.00     0.092 A 
ATOM     29  C   LIG d   1       9.613  -4.275  -2.156  0.00  0.00    -0.024 A 
ATOM     30  H   LIG d   1      10.082  -6.305  -1.578  0.00  0.00     0.103 H 
ATOM     31  C   LIG d   1       9.051  -3.761  -3.347  0.00  0.00    -0.019 A 
ATOM     32  H   LIG d   1       9.916  -3.705  -1.290  0.00  0.00     0.065 H 
ATOM     33  H   LIG d   1       8.844  -2.725  -3.566  0.00  0.00     0.065 H 
ENDBRANCH  23  26
ENDBRANCH  20  23
BRANCH  21  34
ATOM     34  C   LIG d   1       4.926  -6.676  -5.536  0.00  0.00     0.012 C 
ATOM     35  H   LIG d   1       4.487  -6.916  -6.505  0.00  0.00     0.032 H 
ATOM     36  H   LIG d   1       4.842  -7.539  -4.876  0.00  0.00     0.032 H 
ATOM     37  H   LIG d   1       4.398  -5.830  -5.097  0.00  0.00     0.032 H 
ENDBRANCH  21  34
ENDBRANCH  17  20
ENDBRANCH  14  17
ENDBRANCH   4  14
BRANCH   4  38
ATOM     38  C   LIG d   1       4.860  -0.723  -6.577  0.00  0.00     0.001 A 
ATOM     39  C   LIG d   1       5.219  -0.358  -7.866  0.00  0.00     0.124 A 
ATOM     40  C   LIG d   1       4.378   0.452  -8.615  0.00  0.00    -0.020 A 
ATOM     41  C   LIG d   1       3.183   0.889  -8.077  0.00  0.00    -0.058 A 
ATOM     42  H   LIG d   1       4.657   0.741  -9.617  0.00  0.00     0.065 H 
ATOM     43  C   LIG d   1       2.824   0.520  -6.794  0.00  0.00    -0.061 A 
ATOM     44  H   LIG d   1       2.528   1.520  -8.660  0.00  0.00     0.062 H 
ATOM     45  C   LIG d   1       3.661  -0.288  -6.046  0.00  0.00    -0.055 A 
ATOM     46  H   LIG d   1       1.890   0.862  -6.375  0.00  0.00     0.062 H 
ATOM     47  H   LIG d   1       3.378  -0.576  -5.043  0.00  0.00     0.062 H 
BRANCH  39  48
ATOM     48  O   LIG d   1       6.395  -0.790  -8.393  0.00  0.00    -0.495 OA
BRANCH  48  49
ATOM     49  C   LIG d   1       6.345  -1.378  -9.694  0.00  0.00     0.079 C 
ATOM     50  H   LIG d   1       5.901  -2.372  -9.627  0.00  0.00     0.066 H 
ATOM     51  H   LIG d   1       5.741  -0.755 -10.353  0.00  0.00     0.066 H 
ATOM     52  H   LIG d   1       7.354  -1.459 -10.096  0.00  0.00     0.066 H 
ENDBRANCH  48  49
ENDBRANCH  39  48
ENDBRANCH   4  38
BRANCH   1  53
ATOM     53  C   LIG d   1       5.026  -0.173  -2.262  0.00  0.00    -0.020 C 
ATOM     54  H   LIG d   1       5.919  -0.091  -1.643  0.00  0.00     0.032 H 
BRANCH  53  55
ATOM     55  C   LIG d   1       4.102   1.015  -1.985  0.00  0.00    -0.060 C 
ATOM     56  H   LIG d   1       3.065   0.711  -2.126  0.00  0.00     0.023 H 
ATOM     57  H   LIG d   1       4.245   1.355  -0.959  0.00  0.00     0.023 H 
ATOM     58  H   LIG d   1       4.338   1.827  -2.672  0.00  0.00     0.023 H 
ENDBRANCH  53  55
BRANCH  53  59
ATOM     59  C   LIG d   1       4.294  -1.476  -1.932  0.00  0.00    -0.060 C 
ATOM     60  H   LIG d   1       4.635  -1.850  -0.966  0.00  0.00     0.023 H 
ATOM     61  H   LIG d   1       3.221  -1.289  -1.890  0.00  0.00     0.023 H 
ATOM     62  H   LIG d   1       4.504  -2.217  -2.703  0.00  0.00     0.023 H 
ENDBRANCH  53  59
ENDBRANCH   1  53
TORSDOF 12
ENDMDL
MODEL 8
REMARK VINA RESULT:      -5.5      2.036      4.676
REMARK  12 active torsions:
REMARK  status: ('A' for Active; 'I' for Inactive)
REMARK    1  A    between atoms: C_1  and  C_2 
REMARK    2  A    between atoms: C_2  and  C_3 
REMARK    3  A    between atoms: C_2  and  C_4 
REMARK    4  A    between atoms: C_7  and  C_11 
REMARK    5  A    between atoms: C_7  and  C_23 
REMARK    6  A    between atoms: C_11  and  C_12 
REMARK    7  A    between atoms: C_12  and  N_13 
REMARK    8  A    between atoms: N_13  and  C_14 
REMARK       I    between atoms: N_13  and  C_20 
REMARK    9  A    between atoms: C_14  and  C_15 
REMARK   10  A    between atoms: C_20  and  C_22 
REMARK   11  A    between atoms: C_28  and  O_29 
REMARK   12  A    between atoms: O_29  and  C_30 
ROOT
ATOM      1  C   LIG d   1       4.529  -2.105  -3.738  0.00  0.00     0.062 C 
ATOM      2  H   LIG d   1       5.590  -1.922  -3.567  0.00  0.00     0.060 H 
ATOM      3  C   LIG d   1       4.105  -1.459  -5.061  0.00  0.00    -0.017 C 
ATOM      4  C   LIG d   1       4.880  -2.113  -6.210  0.00  0.00     0.005 C 
ATOM      5  C   LIG d   1       4.622  -3.622  -6.191  0.00  0.00    -0.019 C 
ATOM      6  C   LIG d   1       5.026  -4.184  -4.825  0.00  0.00     0.049 C 
ATOM      7  O   LIG d   1       4.291  -3.513  -3.800  0.00  0.00    -0.376 OA
ATOM      8  H   LIG d   1       4.326  -0.392  -5.032  0.00  0.00     0.030 H 
ATOM      9  H   LIG d   1       3.035  -1.607  -5.211  0.00  0.00     0.030 H 
ATOM     10  H   LIG d   1       3.564  -3.813  -6.365  0.00  0.00     0.030 H 
ATOM     11  H   LIG d   1       5.212  -4.101  -6.972  0.00  0.00     0.030 H 
ATOM     12  H   LIG d   1       4.805  -5.251  -4.791  0.00  0.00     0.056 H 
ATOM     13  H   LIG d   1       6.093  -4.028  -4.669  0.00  0.00     0.056 H 
ENDROOT
BRANCH   4  14
ATOM     14  C   LIG d   1       4.409  -1.528  -7.543  0.00  0.00    -0.027 C 
ATOM     15  H   LIG d   1       5.107  -1.812  -8.331  0.00  0.00     0.029 H 
ATOM     16  H   LIG d   1       3.417  -1.914  -7.780  0.00  0.00     0.029 H 
BRANCH  14  17
ATOM     17  C   LIG d   1       4.351  -0.003  -7.438  0.00  0.00     0.016 C 
ATOM     18  H   LIG d   1       3.328   0.309  -7.227  0.00  0.00     0.046 H 
ATOM     19  H   LIG d   1       5.006   0.331  -6.634  0.00  0.00     0.046 H 
BRANCH  17  20
ATOM     20  N   LIG d   1       4.789   0.590  -8.704  0.00  0.00    -0.294 N 
ATOM     21  C   LIG d   1       4.134   1.651  -9.214  0.00  0.00     0.213 C 
ATOM     22  O   LIG d   1       4.552   2.200 -10.212  0.00  0.00    -0.276 OA
BRANCH  20  23
ATOM     23  C   LIG d   1       5.941   0.029  -9.415  0.00  0.00     0.073 C 
ATOM     24  H   LIG d   1       5.951  -1.054  -9.294  0.00  0.00     0.054 H 
ATOM     25  H   LIG d   1       5.869   0.275 -10.474  0.00  0.00     0.054 H 
BRANCH  23  26
ATOM     26  C   LIG d   1       7.211   0.609  -8.850  0.00  0.00     0.122 A 
ATOM     27  O   LIG d   1       8.458   0.301  -9.243  0.00  0.00    -0.466 OA
ATOM     28  C   LIG d   1       9.343   1.011  -8.524  0.00  0.00     0.092 A 
ATOM     29  C   LIG d   1       8.664   1.777  -7.651  0.00  0.00    -0.024 A 
ATOM     30  H   LIG d   1      10.417   0.970  -8.626  0.00  0.00     0.103 H 
ATOM     31  C   LIG d   1       7.290   1.518  -7.861  0.00  0.00    -0.019 A 
ATOM     32  H   LIG d   1       9.087   2.459  -6.928  0.00  0.00     0.065 H 
ATOM     33  H   LIG d   1       6.463   1.964  -7.330  0.00  0.00     0.065 H 
ENDBRANCH  23  26
ENDBRANCH  20  23
BRANCH  21  34
ATOM     34  C   LIG d   1       2.881   2.155  -8.546  0.00  0.00     0.012 C 
ATOM     35  H   LIG d   1       2.859   3.244  -8.589  0.00  0.00     0.032 H 
ATOM     36  H   LIG d   1       2.008   1.754  -9.061  0.00  0.00     0.032 H 
ATOM     37  H   LIG d   1       2.868   1.832  -7.505  0.00  0.00     0.032 H 
ENDBRANCH  21  34
ENDBRANCH  17  20
ENDBRANCH  14  17
ENDBRANCH   4  14
BRANCH   4  38
ATOM     38  C   LIG d   1       6.354  -1.850  -6.037  0.00  0.00     0.001 A 
ATOM     39  C   LIG d   1       7.272  -2.473  -6.870  0.00  0.00     0.124 A 
ATOM     40  C   LIG d   1       8.628  -2.232  -6.705  0.00  0.00    -0.020 A 
ATOM     41  C   LIG d   1       9.061  -1.371  -5.716  0.00  0.00    -0.058 A 
ATOM     42  H   LIG d   1       9.346  -2.719  -7.349  0.00  0.00     0.065 H 
ATOM     43  C   LIG d   1       8.144  -0.747  -4.890  0.00  0.00    -0.061 A 
ATOM     44  H   LIG d   1      10.117  -1.184  -5.588  0.00  0.00     0.062 H 
ATOM     45  C   LIG d   1       6.791  -0.984  -5.054  0.00  0.00    -0.055 A 
ATOM     46  H   LIG d   1       8.483  -0.074  -4.118  0.00  0.00     0.062 H 
ATOM     47  H   LIG d   1       6.076  -0.496  -4.408  0.00  0.00     0.062 H 
BRANCH  39  48
ATOM     48  O   LIG d   1       6.843  -3.319  -7.843  0.00  0.00    -0.495 OA
BRANCH  48  49
ATOM     49  C   LIG d   1       7.624  -3.381  -9.038  0.00  0.00     0.079 C 
ATOM     50  H   LIG d   1       8.683  -3.422  -8.779  0.00  0.00     0.066 H 
ATOM     51  H   LIG d   1       7.354  -4.272  -9.605  0.00  0.00     0.066 H 
ATOM     52  H   LIG d   1       7.434  -2.495  -9.643  0.00  0.00     0.066 H 
ENDBRANCH  48  49
ENDBRANCH  39  48
ENDBRANCH   4  38
BRANCH   1  53
ATOM     53  C   LIG d   1       3.716  -1.500  -2.592  0.00  0.00    -0.020 C 
ATOM     54  H   LIG d   1       3.385  -2.293  -1.923  0.00  0.00     0.032 H 
BRANCH  53  55
ATOM     55  C   LIG d   1       4.587  -0.509  -1.817  0.00  0.00    -0.060 C 
ATOM     56  H   LIG d   1       5.193   0.068  -2.516  0.00  0.00     0.023 H 
ATOM     57  H   LIG d   1       3.949   0.166  -1.246  0.00  0.00     0.023 H 
ATOM     58  H   LIG d   1       5.240  -1.054  -1.136  0.00  0.00     0.023 H 
ENDBRANCH  53  55
BRANCH  53  59
ATOM     59  C   LIG d   1       2.497  -0.771  -3.161  0.00  0.00    -0.060 C 
ATOM     60  H   LIG d   1       2.166  -1.272  -4.071  0.00  0.00     0.023 H 
ATOM     61  H   LIG d   1       1.691  -0.783  -2.427  0.00  0.00     0.023 H 
ATOM     62  H   LIG d   1       2.764   0.261  -3.391  0.00  0.00     0.023 H 
ENDBRANCH  53  59
ENDBRANCH   1  53
TORSDOF 12
ENDMDL
MODEL 9
REMARK VINA RESULT:      -5.5      2.839      7.417
REMARK  12 active torsions:
REMARK  status: ('A' for Active; 'I' for Inactive)
REMARK    1  A    between atoms: C_1  and  C_2 
REMARK    2  A    between atoms: C_2  and  C_3 
REMARK    3  A    between atoms: C_2  and  C_4 
REMARK    4  A    between atoms: C_7  and  C_11 
REMARK    5  A    between atoms: C_7  and  C_23 
REMARK    6  A    between atoms: C_11  and  C_12 
REMARK    7  A    between atoms: C_12  and  N_13 
REMARK    8  A    between atoms: N_13  and  C_14 
REMARK       I    between atoms: N_13  and  C_20 
REMARK    9  A    between atoms: C_14  and  C_15 
REMARK   10  A    between atoms: C_20  and  C_22 
REMARK   11  A    between atoms: C_28  and  O_29 
REMARK   12  A    between atoms: O_29  and  C_30 
ROOT
ATOM      1  C   LIG d   1       5.747   0.572  -3.260  0.00  0.00     0.062 C 
ATOM      2  H   LIG d   1       5.156   0.789  -4.150  0.00  0.00     0.060 H 
ATOM      3  C   LIG d   1       6.515  -0.737  -3.460  0.00  0.00    -0.017 C 
ATOM      4  C   LIG d   1       7.486  -0.576  -4.634  0.00  0.00     0.005 C 
ATOM      5  C   LIG d   1       8.418   0.606  -4.352  0.00  0.00    -0.019 C 
ATOM      6  C   LIG d   1       7.577   1.864  -4.117  0.00  0.00     0.049 C 
ATOM      7  O   LIG d   1       6.674   1.637  -3.033  0.00  0.00    -0.376 OA
ATOM      8  H   LIG d   1       5.811  -1.541  -3.677  0.00  0.00     0.030 H 
ATOM      9  H   LIG d   1       7.073  -0.974  -2.554  0.00  0.00     0.030 H 
ATOM     10  H   LIG d   1       9.015   0.396  -3.464  0.00  0.00     0.030 H 
ATOM     11  H   LIG d   1       9.076   0.762  -5.206  0.00  0.00     0.030 H 
ATOM     12  H   LIG d   1       8.233   2.700  -3.874  0.00  0.00     0.056 H 
ATOM     13  H   LIG d   1       7.011   2.096  -5.019  0.00  0.00     0.056 H 
ENDROOT
BRANCH   4  14
ATOM     14  C   LIG d   1       8.313  -1.854  -4.794  0.00  0.00    -0.027 C 
ATOM     15  H   LIG d   1       8.374  -2.117  -5.850  0.00  0.00     0.029 H 
ATOM     16  H   LIG d   1       9.316  -1.690  -4.402  0.00  0.00     0.029 H 
BRANCH  14  17
ATOM     17  C   LIG d   1       7.643  -2.993  -4.022  0.00  0.00     0.016 C 
ATOM     18  H   LIG d   1       8.128  -3.110  -3.053  0.00  0.00     0.046 H 
ATOM     19  H   LIG d   1       6.589  -2.762  -3.876  0.00  0.00     0.046 H 
BRANCH  17  20
ATOM     20  N   LIG d   1       7.769  -4.238  -4.784  0.00  0.00    -0.294 N 
ATOM     21  C   LIG d   1       6.691  -4.767  -5.395  0.00  0.00     0.213 C 
ATOM     22  O   LIG d   1       6.813  -5.745  -6.102  0.00  0.00    -0.276 OA
BRANCH  20  23
ATOM     23  C   LIG d   1       9.069  -4.908  -4.882  0.00  0.00     0.073 C 
ATOM     24  H   LIG d   1       9.061  -5.595  -5.727  0.00  0.00     0.054 H 
ATOM     25  H   LIG d   1       9.852  -4.163  -5.027  0.00  0.00     0.054 H 
BRANCH  23  26
ATOM     26  C   LIG d   1       9.335  -5.676  -3.613  0.00  0.00     0.122 A 
ATOM     27  O   LIG d   1       9.009  -6.959  -3.389  0.00  0.00    -0.466 OA
ATOM     28  C   LIG d   1       9.401  -7.312  -2.154  0.00  0.00     0.092 A 
ATOM     29  C   LIG d   1       9.976  -6.245  -1.570  0.00  0.00    -0.024 A 
ATOM     30  H   LIG d   1       9.272  -8.285  -1.704  0.00  0.00     0.103 H 
ATOM     31  C   LIG d   1       9.933  -5.190  -2.510  0.00  0.00    -0.019 A 
ATOM     32  H   LIG d   1      10.390  -6.202  -0.573  0.00  0.00     0.065 H 
ATOM     33  H   LIG d   1      10.309  -4.188  -2.371  0.00  0.00     0.065 H 
ENDBRANCH  23  26
ENDBRANCH  20  23
BRANCH  21  34
ATOM     34  C   LIG d   1       5.334  -4.144  -5.199  0.00  0.00     0.012 C 
ATOM     35  H   LIG d   1       5.170  -3.381  -5.960  0.00  0.00     0.032 H 
ATOM     36  H   LIG d   1       4.565  -4.912  -5.285  0.00  0.00     0.032 H 
ATOM     37  H   LIG d   1       5.282  -3.688  -4.210  0.00  0.00     0.032 H 
ENDBRANCH  21  34
ENDBRANCH  17  20
ENDBRANCH  14  17
ENDBRANCH   4  14
BRANCH   4  38
ATOM     38  C   LIG d   1       6.710  -0.316  -5.899  0.00  0.00     0.001 A 
ATOM     39  C   LIG d   1       7.369   0.107  -7.043  0.00  0.00     0.124 A 
ATOM     40  C   LIG d   1       6.650   0.350  -8.205  0.00  0.00    -0.020 A 
ATOM     41  C   LIG d   1       5.281   0.166  -8.221  0.00  0.00    -0.058 A 
ATOM     42  H   LIG d   1       7.161   0.683  -9.097  0.00  0.00     0.065 H 
ATOM     43  C   LIG d   1       4.627  -0.261  -7.079  0.00  0.00    -0.061 A 
ATOM     44  H   LIG d   1       4.722   0.355  -9.125  0.00  0.00     0.062 H 
ATOM     45  C   LIG d   1       5.341  -0.504  -5.921  0.00  0.00    -0.055 A 
ATOM     46  H   LIG d   1       3.557  -0.404  -7.093  0.00  0.00     0.062 H 
ATOM     47  H   LIG d   1       4.828  -0.838  -5.030  0.00  0.00     0.062 H 
BRANCH  39  48
ATOM     48  O   LIG d   1       8.717   0.286  -7.026  0.00  0.00    -0.495 OA
BRANCH  48  49
ATOM     49  C   LIG d   1       9.466  -0.338  -8.070  0.00  0.00     0.079 C 
ATOM     50  H   LIG d   1       9.152  -1.377  -8.173  0.00  0.00     0.066 H 
ATOM     51  H   LIG d   1       9.292   0.188  -9.009  0.00  0.00     0.066 H 
ATOM     52  H   LIG d   1      10.528  -0.303  -7.826  0.00  0.00     0.066 H 
ENDBRANCH  48  49
ENDBRANCH  39  48
ENDBRANCH   4  38
BRANCH   1  53
ATOM     53  C   LIG d   1       4.818   0.440  -2.052  0.00  0.00    -0.020 C 
ATOM     54  H   LIG d   1       5.339   0.770  -1.154  0.00  0.00     0.032 H 
BRANCH  53  55
ATOM     55  C   LIG d   1       3.574   1.305  -2.267  0.00  0.00    -0.060 C 
ATOM     56  H   LIG d   1       3.850   2.210  -2.808  0.00  0.00     0.023 H 
ATOM     57  H   LIG d   1       2.838   0.746  -2.844  0.00  0.00     0.023 H 
ATOM     58  H   LIG d   1       3.149   1.576  -1.301  0.00  0.00     0.023 H 
ENDBRANCH  53  55
BRANCH  53  59
ATOM     59  C   LIG d   1       4.400  -1.023  -1.889  0.00  0.00    -0.060 C 
ATOM     60  H   LIG d   1       5.227  -1.672  -2.175  0.00  0.00     0.023 H 
ATOM     61  H   LIG d   1       4.134  -1.211  -0.849  0.00  0.00     0.023 H 
ATOM     62  H   LIG d   1       3.539  -1.229  -2.526  0.00  0.00     0.023 H 
ENDBRANCH  53  59
ENDBRANCH   1  53
TORSDOF 12
ENDMDL
MODEL 10
REMARK VINA RESULT:      -5.5      2.856      6.449
REMARK  12 active torsions:
REMARK  status: ('A' for Active; 'I' for Inactive)
REMARK    1  A    between atoms: C_1  and  C_2 
REMARK    2  A    between atoms: C_2  and  C_3 
REMARK    3  A    between atoms: C_2  and  C_4 
REMARK    4  A    between atoms: C_7  and  C_11 
REMARK    5  A    between atoms: C_7  and  C_23 
REMARK    6  A    between atoms: C_11  and  C_12 
REMARK    7  A    between atoms: C_12  and  N_13 
REMARK    8  A    between atoms: N_13  and  C_14 
REMARK       I    between atoms: N_13  and  C_20 
REMARK    9  A    between atoms: C_14  and  C_15 
REMARK   10  A    between atoms: C_20  and  C_22 
REMARK   11  A    between atoms: C_28  and  O_29 
REMARK   12  A    between atoms: O_29  and  C_30 
ROOT
ATOM      1  C   LIG d   1       5.762   0.439  -3.248  0.00  0.00     0.062 C 
ATOM      2  H   LIG d   1       5.156   0.640  -4.132  0.00  0.00     0.060 H 
ATOM      3  C   LIG d   1       6.584  -0.833  -3.470  0.00  0.00    -0.017 C 
ATOM      4  C   LIG d   1       7.540  -0.615  -4.648  0.00  0.00     0.005 C 
ATOM      5  C   LIG d   1       8.421   0.604  -4.357  0.00  0.00    -0.019 C 
ATOM      6  C   LIG d   1       7.527   1.820  -4.100  0.00  0.00     0.049 C 
ATOM      7  O   LIG d   1       6.643   1.540  -3.014  0.00  0.00    -0.376 OA
ATOM      8  H   LIG d   1       5.916  -1.664  -3.693  0.00  0.00     0.030 H 
ATOM      9  H   LIG d   1       7.159  -1.056  -2.571  0.00  0.00     0.030 H 
ATOM     10  H   LIG d   1       9.033   0.409  -3.476  0.00  0.00     0.030 H 
ATOM     11  H   LIG d   1       9.066   0.798  -5.213  0.00  0.00     0.030 H 
ATOM     12  H   LIG d   1       8.148   2.681  -3.851  0.00  0.00     0.056 H 
ATOM     13  H   LIG d   1       6.945   2.039  -4.996  0.00  0.00     0.056 H 
ENDROOT
BRANCH   4  14
ATOM     14  C   LIG d   1       8.420  -1.853  -4.829  0.00  0.00    -0.027 C 
ATOM     15  H   LIG d   1       8.345  -2.204  -5.858  0.00  0.00     0.029 H 
ATOM     16  H   LIG d   1       9.457  -1.598  -4.608  0.00  0.00     0.029 H 
BRANCH  14  17
ATOM     17  C   LIG d   1       7.951  -2.955  -3.878  0.00  0.00     0.016 C 
ATOM     18  H   LIG d   1       8.340  -2.762  -2.878  0.00  0.00     0.046 H 
ATOM     19  H   LIG d   1       6.862  -2.970  -3.848  0.00  0.00     0.046 H 
BRANCH  17  20
ATOM     20  N   LIG d   1       8.444  -4.251  -4.351  0.00  0.00    -0.294 N 
ATOM     21  C   LIG d   1       9.206  -5.017  -3.546  0.00  0.00     0.213 C 
ATOM     22  O   LIG d   1       9.537  -6.128  -3.902  0.00  0.00    -0.276 OA
BRANCH  20  23
ATOM     23  C   LIG d   1       8.108  -4.714  -5.700  0.00  0.00     0.073 C 
ATOM     24  H   LIG d   1       8.370  -3.943  -6.425  0.00  0.00     0.054 H 
ATOM     25  H   LIG d   1       8.666  -5.624  -5.922  0.00  0.00     0.054 H 
BRANCH  23  26
ATOM     26  C   LIG d   1       6.631  -4.997  -5.781  0.00  0.00     0.122 A 
ATOM     27  O   LIG d   1       6.024  -6.125  -5.375  0.00  0.00    -0.466 OA
ATOM     28  C   LIG d   1       4.703  -6.027  -5.595  0.00  0.00     0.092 A 
ATOM     29  C   LIG d   1       4.454  -4.831  -6.158  0.00  0.00    -0.024 A 
ATOM     30  H   LIG d   1       3.966  -6.782  -5.364  0.00  0.00     0.103 H 
ATOM     31  C   LIG d   1       5.696  -4.167  -6.278  0.00  0.00    -0.019 A 
ATOM     32  H   LIG d   1       3.489  -4.450  -6.461  0.00  0.00     0.065 H 
ATOM     33  H   LIG d   1       5.863  -3.183  -6.689  0.00  0.00     0.065 H 
ENDBRANCH  23  26
ENDBRANCH  20  23
BRANCH  21  34
ATOM     34  C   LIG d   1       9.649  -4.492  -2.205  0.00  0.00     0.012 C 
ATOM     35  H   LIG d   1      10.248  -3.593  -2.348  0.00  0.00     0.032 H 
ATOM     36  H   LIG d   1       8.774  -4.253  -1.601  0.00  0.00     0.032 H 
ATOM     37  H   LIG d   1      10.245  -5.250  -1.697  0.00  0.00     0.032 H 
ENDBRANCH  21  34
ENDBRANCH  17  20
ENDBRANCH  14  17
ENDBRANCH   4  14
BRANCH   4  38
ATOM     38  C   LIG d   1       6.744  -0.373  -5.905  0.00  0.00     0.001 A 
ATOM     39  C   LIG d   1       7.385   0.041  -7.063  0.00  0.00     0.124 A 
ATOM     40  C   LIG d   1       6.649   0.267  -8.217  0.00  0.00    -0.020 A 
ATOM     41  C   LIG d   1       5.281   0.074  -8.211  0.00  0.00    -0.058 A 
ATOM     42  H   LIG d   1       7.144   0.593  -9.119  0.00  0.00     0.065 H 
ATOM     43  C   LIG d   1       4.645  -0.344  -7.056  0.00  0.00    -0.061 A 
ATOM     44  H   LIG d   1       4.707   0.250  -9.109  0.00  0.00     0.062 H 
ATOM     45  C   LIG d   1       5.377  -0.570  -5.906  0.00  0.00    -0.055 A 
ATOM     46  H   LIG d   1       3.576  -0.494  -7.053  0.00  0.00     0.062 H 
ATOM     47  H   LIG d   1       4.878  -0.897  -5.004  0.00  0.00     0.062 H 
BRANCH  39  48
ATOM     48  O   LIG d   1       8.731   0.228  -7.067  0.00  0.00    -0.495 OA
BRANCH  48  49
ATOM     49  C   LIG d   1       9.244   1.225  -7.952  0.00  0.00     0.079 C 
ATOM     50  H   LIG d   1      10.321   1.321  -7.808  0.00  0.00     0.066 H 
ATOM     51  H   LIG d   1       9.041   0.936  -8.983  0.00  0.00     0.066 H 
ATOM     52  H   LIG d   1       8.764   2.180  -7.741  0.00  0.00     0.066 H 
ENDBRANCH  48  49
ENDBRANCH  39  48
ENDBRANCH   4  38
BRANCH   1  53
ATOM     53  C   LIG d   1       4.848   0.251  -2.036  0.00  0.00    -0.020 C 
ATOM     54  H   LIG d   1       5.394   0.497  -1.127  0.00  0.00     0.032 H 
BRANCH  53  55
ATOM     55  C   LIG d   1       3.632   1.172  -2.166  0.00  0.00    -0.060 C 
ATOM     56  H   LIG d   1       3.029   1.108  -1.260  0.00  0.00     0.023 H 
ATOM     57  H   LIG d   1       3.968   2.199  -2.307  0.00  0.00     0.023 H 
ATOM     58  H   LIG d   1       3.033   0.864  -3.023  0.00  0.00     0.023 H 
ENDBRANCH  53  55
BRANCH  53  59
ATOM     59  C   LIG d   1       4.380  -1.205  -1.972  0.00  0.00    -0.060 C 
ATOM     60  H   LIG d   1       5.092  -1.839  -2.500  0.00  0.00     0.023 H 
ATOM     61  H   LIG d   1       4.316  -1.520  -0.930  0.00  0.00     0.023 H 
ATOM     62  H   LIG d   1       3.399  -1.293  -2.439  0.00  0.00     0.023 H 
ENDBRANCH  53  59
ENDBRANCH   1  53
TORSDOF 12
ENDMDL
