MODEL 1
REMARK VINA RESULT:      -6.2      0.000      0.000
REMARK  20 active torsions:
REMARK  status: ('A' for Active; 'I' for Inactive)
REMARK    1  A    between atoms: C_1  and  C_2 
REMARK    2  A    between atoms: C_2  and  C_3 
REMARK    3  A    between atoms: C_6  and  N_9 
REMARK       I    between atoms: N_9  and  C_10 
REMARK    4  A    between atoms: C_10  and  C_12 
REMARK    5  A    between atoms: C_12  and  C_14 
REMARK    6  A    between atoms: C_12  and  N_17 
REMARK    7  A    between atoms: C_14  and  C_15 
REMARK    8  A    between atoms: C_14  and  C_16 
REMARK       I    between atoms: N_17  and  C_18 
REMARK    9  A    between atoms: C_18  and  C_20 
REMARK       I    between atoms: N_23  and  C_26 
REMARK   10  A    between atoms: C_26  and  C_28 
REMARK   11  A    between atoms: C_28  and  C_30 
REMARK   12  A    between atoms: C_28  and  N_34 
REMARK   13  A    between atoms: C_30  and  C_31 
REMARK   14  A    between atoms: C_31  and  S_32 
REMARK   15  A    between atoms: S_32  and  C_33 
REMARK       I    between atoms: N_34  and  C_35 
REMARK   16  A    between atoms: C_35  and  O_37 
REMARK   17  A    between atoms: O_37  and  C_38 
REMARK   18  A    between atoms: C_38  and  C_39 
REMARK   19  A    between atoms: C_38  and  C_40 
REMARK   20  A    between atoms: C_38  and  C_41 
ROOT
ATOM      1  C   LIG d   1      10.157   5.858  -6.200  0.00  0.00     0.038 C 
ATOM      2  C   LIG d   1      11.555   6.458  -6.030  0.00  0.00    -0.026 C 
ATOM      3  C   LIG d   1      11.448   7.985  -5.978  0.00  0.00     0.015 C 
ATOM      4  N   LIG d   1      10.500   8.358  -4.920  0.00  0.00    -0.300 N 
ATOM      5  C   LIG d   1       9.154   7.766  -4.938  0.00  0.00     0.015 C 
ATOM      6  C   LIG d   1       9.288   6.241  -5.001  0.00  0.00    -0.026 C 
ATOM      7  C   LIG d   1      10.856   9.225  -3.952  0.00  0.00     0.236 C 
ATOM      8  O   LIG d   1      11.923   9.797  -4.014  0.00  0.00    -0.274 OA
ATOM      9  H   LIG d   1       9.706   6.243  -7.114  0.00  0.00     0.040 H 
ATOM     10  H   LIG d   1      11.998   6.093  -5.103  0.00  0.00     0.029 H 
ATOM     11  H   LIG d   1      12.182   6.165  -6.872  0.00  0.00     0.029 H 
ATOM     12  H   LIG d   1      12.427   8.412  -5.759  0.00  0.00     0.046 H 
ATOM     13  H   LIG d   1      11.091   8.358  -6.938  0.00  0.00     0.046 H 
ATOM     14  H   LIG d   1       8.619   8.049  -4.032  0.00  0.00     0.046 H 
ATOM     15  H   LIG d   1       8.610   8.122  -5.812  0.00  0.00     0.046 H 
ATOM     16  H   LIG d   1       8.299   5.794  -5.111  0.00  0.00     0.029 H 
ATOM     17  H   LIG d   1       9.751   5.878  -4.083  0.00  0.00     0.029 H 
ENDROOT
BRANCH   1  18
ATOM     18  C   LIG d   1      10.263   4.357  -6.285  0.00  0.00     0.217 C 
ATOM     19  N   LIG d   1       9.810   3.591  -5.274  0.00  0.00    -0.303 N 
ATOM     20  H   LIG d   1       9.417   4.005  -4.490  0.00  0.00     0.149 HD
ATOM     21  O   LIG d   1      10.755   3.839  -7.266  0.00  0.00    -0.276 OA
BRANCH  19  22
ATOM     22  C   LIG d   1       9.914   2.131  -5.357  0.00  0.00     0.102 C 
ATOM     23  H   LIG d   1      10.190   1.844  -6.372  0.00  0.00     0.060 H 
BRANCH  22  24
ATOM     24  C   LIG d   1       8.585   1.513  -5.004  0.00  0.00     0.238 C 
ATOM     25  N   LIG d   1       8.452   0.810  -3.862  0.00  0.00    -0.284 N 
ATOM     26  H   LIG d   1       9.208   0.710  -3.263  0.00  0.00     0.155 HD
ATOM     27  O   LIG d   1       7.637   1.648  -5.749  0.00  0.00    -0.273 OA
BRANCH  25  28
ATOM     28  C   LIG d   1       7.222   0.225  -3.541  0.00  0.00     0.034 A 
ATOM     29  C   LIG d   1       6.169   1.017  -3.100  0.00  0.00    -0.040 A 
ATOM     30  C   LIG d   1       4.955   0.439  -2.786  0.00  0.00    -0.057 A 
ATOM     31  H   LIG d   1       6.300   2.086  -3.004  0.00  0.00     0.064 H 
ATOM     32  C   LIG d   1       4.788  -0.929  -2.909  0.00  0.00    -0.048 A 
ATOM     33  H   LIG d   1       4.137   1.053  -2.443  0.00  0.00     0.062 H 
ATOM     34  C   LIG d   1       5.835  -1.720  -3.343  0.00  0.00    -0.057 A 
ATOM     35  C   LIG d   1       7.049  -1.147  -3.664  0.00  0.00    -0.040 A 
ATOM     36  H   LIG d   1       5.701  -2.789  -3.434  0.00  0.00     0.062 H 
ATOM     37  H   LIG d   1       7.866  -1.765  -4.007  0.00  0.00     0.064 H 
BRANCH  32  38
ATOM     38  C   LIG d   1       3.462  -1.558  -2.564  0.00  0.00    -0.030 C 
ATOM     39  H   LIG d   1       3.346  -1.590  -1.481  0.00  0.00     0.031 H 
ATOM     40  H   LIG d   1       3.427  -2.572  -2.963  0.00  0.00     0.031 H 
BRANCH  38  41
ATOM     41  C   LIG d   1       2.330  -0.730  -3.175  0.00  0.00    -0.061 C 
ATOM     42  H   LIG d   1       2.307   0.254  -2.706  0.00  0.00     0.023 H 
ATOM     43  H   LIG d   1       2.498  -0.618  -4.246  0.00  0.00     0.023 H 
ATOM     44  H   LIG d   1       1.380  -1.235  -3.007  0.00  0.00     0.023 H 
ENDBRANCH  38  41
ENDBRANCH  32  38
ENDBRANCH  25  28
ENDBRANCH  22  24
BRANCH  22  45
ATOM     45  C   LIG d   1      10.981   1.639  -4.378  0.00  0.00    -0.020 C 
ATOM     46  H   LIG d   1      10.593   0.793  -3.812  0.00  0.00     0.032 H 
BRANCH  45  47
ATOM     47  C   LIG d   1      12.225   1.207  -5.155  0.00  0.00    -0.060 C 
ATOM     48  H   LIG d   1      12.995   0.879  -4.456  0.00  0.00     0.023 H 
ATOM     49  H   LIG d   1      11.969   0.385  -5.824  0.00  0.00     0.023 H 
ATOM     50  H   LIG d   1      12.600   2.047  -5.739  0.00  0.00     0.023 H 
ENDBRANCH  45  47
BRANCH  45  51
ATOM     51  C   LIG d   1      11.349   2.771  -3.415  0.00  0.00    -0.060 C 
ATOM     52  H   LIG d   1      10.440   3.202  -2.997  0.00  0.00     0.023 H 
ATOM     53  H   LIG d   1      11.968   2.376  -2.609  0.00  0.00     0.023 H 
ATOM     54  H   LIG d   1      11.904   3.540  -3.954  0.00  0.00     0.023 H 
ENDBRANCH  45  51
ENDBRANCH  22  45
ENDBRANCH  19  22
ENDBRANCH   1  18
BRANCH   7  55
ATOM     55  C   LIG d   1       9.929   9.483  -2.793  0.00  0.00     0.103 C 
ATOM     56  H   LIG d   1       8.964   9.013  -2.988  0.00  0.00     0.060 H 
BRANCH  55  57
ATOM     57  C   LIG d   1       9.736  10.991  -2.619  0.00  0.00    -0.017 C 
ATOM     58  H   LIG d   1       9.331  11.193  -1.627  0.00  0.00     0.030 H 
ATOM     59  H   LIG d   1      10.695  11.495  -2.729  0.00  0.00     0.030 H 
BRANCH  57  60
ATOM     60  C   LIG d   1       8.763  11.507  -3.682  0.00  0.00    -0.004 C 
ATOM     61  H   LIG d   1       8.428  10.675  -4.301  0.00  0.00     0.038 H 
ATOM     62  H   LIG d   1       7.903  11.965  -3.195  0.00  0.00     0.038 H 
BRANCH  60  63
ATOM     63  S   LIG d   1       9.599  12.737  -4.720  0.00  0.00    -0.164 SA
BRANCH  63  64
ATOM     64  C   LIG d   1       9.795  11.902  -6.318  0.00  0.00    -0.018 C 
ATOM     65  H   LIG d   1      10.784  12.122  -6.724  0.00  0.00     0.034 H 
ATOM     66  H   LIG d   1       9.692  10.826  -6.181  0.00  0.00     0.034 H 
ATOM     67  H   LIG d   1       9.031  12.256  -7.010  0.00  0.00     0.034 H 
ENDBRANCH  63  64
ENDBRANCH  60  63
ENDBRANCH  57  60
ENDBRANCH  55  57
BRANCH  55  68
ATOM     68  N   LIG d   1      10.507   8.921  -1.570  0.00  0.00    -0.270 N 
ATOM     69  C   LIG d   1       9.778   8.091  -0.799  0.00  0.00     0.401 C 
ATOM     70  O   LIG d   1       8.640   7.808  -1.118  0.00  0.00    -0.226 OA
ATOM     71  H   LIG d   1      11.415   9.146  -1.316  0.00  0.00     0.153 HD
BRANCH  69  72
ATOM     72  O   LIG d   1      10.309   7.574   0.325  0.00  0.00    -0.445 OA
BRANCH  72  73
ATOM     73  C   LIG d   1      11.118   6.405   0.182  0.00  0.00     0.107 C 
BRANCH  73  74
ATOM     74  C   LIG d   1      10.609   5.573  -0.997  0.00  0.00    -0.025 C 
ATOM     75  H   LIG d   1       9.807   6.111  -1.503  0.00  0.00     0.027 H 
ATOM     76  H   LIG d   1      11.426   5.397  -1.697  0.00  0.00     0.027 H 
ATOM     77  H   LIG d   1      10.232   4.618  -0.631  0.00  0.00     0.027 H 
ENDBRANCH  73  74
BRANCH  73  78
ATOM     78  C   LIG d   1      12.569   6.817  -0.074  0.00  0.00    -0.025 C 
ATOM     79  H   LIG d   1      12.697   7.871   0.173  0.00  0.00     0.027 H 
ATOM     80  H   LIG d   1      13.233   6.215   0.547  0.00  0.00     0.027 H 
ATOM     81  H   LIG d   1      12.812   6.658  -1.125  0.00  0.00     0.027 H 
ENDBRANCH  73  78
BRANCH  73  82
ATOM     82  C   LIG d   1      11.043   5.573   1.464  0.00  0.00    -0.025 C 
ATOM     83  H   LIG d   1      10.158   5.859   2.031  0.00  0.00     0.027 H 
ATOM     84  H   LIG d   1      10.984   4.515   1.207  0.00  0.00     0.027 H 
ATOM     85  H   LIG d   1      11.935   5.751   2.065  0.00  0.00     0.027 H 
ENDBRANCH  73  82
ENDBRANCH  72  73
ENDBRANCH  69  72
ENDBRANCH  55  68
ENDBRANCH   7  55
TORSDOF 20
ENDMDL
MODEL 2
REMARK VINA RESULT:      -6.0      1.096      1.776
REMARK  20 active torsions:
REMARK  status: ('A' for Active; 'I' for Inactive)
REMARK    1  A    between atoms: C_1  and  C_2 
REMARK    2  A    between atoms: C_2  and  C_3 
REMARK    3  A    between atoms: C_6  and  N_9 
REMARK       I    between atoms: N_9  and  C_10 
REMARK    4  A    between atoms: C_10  and  C_12 
REMARK    5  A    between atoms: C_12  and  C_14 
REMARK    6  A    between atoms: C_12  and  N_17 
REMARK    7  A    between atoms: C_14  and  C_15 
REMARK    8  A    between atoms: C_14  and  C_16 
REMARK       I    between atoms: N_17  and  C_18 
REMARK    9  A    between atoms: C_18  and  C_20 
REMARK       I    between atoms: N_23  and  C_26 
REMARK   10  A    between atoms: C_26  and  C_28 
REMARK   11  A    between atoms: C_28  and  C_30 
REMARK   12  A    between atoms: C_28  and  N_34 
REMARK   13  A    between atoms: C_30  and  C_31 
REMARK   14  A    between atoms: C_31  and  S_32 
REMARK   15  A    between atoms: S_32  and  C_33 
REMARK       I    between atoms: N_34  and  C_35 
REMARK   16  A    between atoms: C_35  and  O_37 
REMARK   17  A    between atoms: O_37  and  C_38 
REMARK   18  A    between atoms: C_38  and  C_39 
REMARK   19  A    between atoms: C_38  and  C_40 
REMARK   20  A    between atoms: C_38  and  C_41 
ROOT
ATOM      1  C   LIG d   1       9.855   5.701  -6.333  0.00  0.00     0.038 C 
ATOM      2  C   LIG d   1      11.274   6.267  -6.428  0.00  0.00    -0.026 C 
ATOM      3  C   LIG d   1      11.225   7.789  -6.262  0.00  0.00     0.015 C 
ATOM      4  N   LIG d   1      10.533   8.106  -5.005  0.00  0.00    -0.300 N 
ATOM      5  C   LIG d   1       9.197   7.537  -4.772  0.00  0.00     0.015 C 
ATOM      6  C   LIG d   1       9.270   6.018  -4.955  0.00  0.00    -0.026 C 
ATOM      7  C   LIG d   1      11.111   8.902  -4.085  0.00  0.00     0.236 C 
ATOM      8  O   LIG d   1      12.157   9.460  -4.338  0.00  0.00    -0.274 OA
ATOM      9  H   LIG d   1       9.232   6.152  -7.105  0.00  0.00     0.040 H 
ATOM     10  H   LIG d   1      11.892   5.835  -5.641  0.00  0.00     0.029 H 
ATOM     11  H   LIG d   1      11.699   6.020  -7.401  0.00  0.00     0.029 H 
ATOM     12  H   LIG d   1      12.239   8.185  -6.231  0.00  0.00     0.046 H 
ATOM     13  H   LIG d   1      10.683   8.230  -7.099  0.00  0.00     0.046 H 
ATOM     14  H   LIG d   1       8.875   7.768  -3.757  0.00  0.00     0.046 H 
ATOM     15  H   LIG d   1       8.491   7.958  -5.487  0.00  0.00     0.046 H 
ATOM     16  H   LIG d   1       8.268   5.594  -4.879  0.00  0.00     0.029 H 
ATOM     17  H   LIG d   1       9.906   5.588  -4.181  0.00  0.00     0.029 H 
ENDROOT
BRANCH   1  18
ATOM     18  C   LIG d   1       9.896   4.207  -6.530  0.00  0.00     0.217 C 
ATOM     19  N   LIG d   1       9.875   3.386  -5.462  0.00  0.00    -0.303 N 
ATOM     20  H   LIG d   1       9.833   3.755  -4.566  0.00  0.00     0.149 HD
ATOM     21  O   LIG d   1       9.948   3.746  -7.651  0.00  0.00    -0.276 OA
BRANCH  19  22
ATOM     22  C   LIG d   1       9.915   1.933  -5.654  0.00  0.00     0.102 C 
ATOM     23  H   LIG d   1      10.092   1.711  -6.707  0.00  0.00     0.060 H 
BRANCH  22  24
ATOM     24  C   LIG d   1       8.600   1.334  -5.228  0.00  0.00     0.238 C 
ATOM     25  N   LIG d   1       8.496   0.718  -4.033  0.00  0.00    -0.284 N 
ATOM     26  H   LIG d   1       9.265   0.670  -3.445  0.00  0.00     0.155 HD
ATOM     27  O   LIG d   1       7.636   1.404  -5.961  0.00  0.00    -0.273 OA
BRANCH  25  28
ATOM     28  C   LIG d   1       7.279   0.150  -3.644  0.00  0.00     0.034 A 
ATOM     29  C   LIG d   1       7.073  -1.217  -3.781  0.00  0.00    -0.040 A 
ATOM     30  C   LIG d   1       5.871  -1.776  -3.395  0.00  0.00    -0.057 A 
ATOM     31  H   LIG d   1       7.853  -1.843  -4.190  0.00  0.00     0.064 H 
ATOM     32  C   LIG d   1       4.872  -0.975  -2.871  0.00  0.00    -0.048 A 
ATOM     33  H   LIG d   1       5.710  -2.838  -3.501  0.00  0.00     0.062 H 
ATOM     34  C   LIG d   1       5.071   0.386  -2.737  0.00  0.00    -0.057 A 
ATOM     35  C   LIG d   1       6.273   0.950  -3.117  0.00  0.00    -0.040 A 
ATOM     36  H   LIG d   1       4.287   1.009  -2.332  0.00  0.00     0.062 H 
ATOM     37  H   LIG d   1       6.430   2.013  -3.008  0.00  0.00     0.064 H 
BRANCH  32  38
ATOM     38  C   LIG d   1       3.560  -1.588  -2.450  0.00  0.00    -0.030 C 
ATOM     39  H   LIG d   1       3.448  -1.502  -1.370  0.00  0.00     0.031 H 
ATOM     40  H   LIG d   1       3.543  -2.640  -2.735  0.00  0.00     0.031 H 
BRANCH  38  41
ATOM     41  C   LIG d   1       2.410  -0.854  -3.142  0.00  0.00    -0.061 C 
ATOM     42  H   LIG d   1       2.401   0.188  -2.824  0.00  0.00     0.023 H 
ATOM     43  H   LIG d   1       2.544  -0.904  -4.223  0.00  0.00     0.023 H 
ATOM     44  H   LIG d   1       1.465  -1.324  -2.871  0.00  0.00     0.023 H 
ENDBRANCH  38  41
ENDBRANCH  32  38
ENDBRANCH  25  28
ENDBRANCH  22  24
BRANCH  22  45
ATOM     45  C   LIG d   1      11.044   1.339  -4.811  0.00  0.00    -0.020 C 
ATOM     46  H   LIG d   1      10.654   0.521  -4.206  0.00  0.00     0.032 H 
BRANCH  45  47
ATOM     47  C   LIG d   1      12.146   0.813  -5.731  0.00  0.00    -0.060 C 
ATOM     48  H   LIG d   1      13.101   0.835  -5.204  0.00  0.00     0.023 H 
ATOM     49  H   LIG d   1      11.917  -0.211  -6.024  0.00  0.00     0.023 H 
ATOM     50  H   LIG d   1      12.208   1.441  -6.620  0.00  0.00     0.023 H 
ENDBRANCH  45  47
BRANCH  45  51
ATOM     51  C   LIG d   1      11.618   2.422  -3.894  0.00  0.00    -0.060 C 
ATOM     52  H   LIG d   1      12.706   2.349  -3.882  0.00  0.00     0.023 H 
ATOM     53  H   LIG d   1      11.324   3.405  -4.262  0.00  0.00     0.023 H 
ATOM     54  H   LIG d   1      11.232   2.284  -2.883  0.00  0.00     0.023 H 
ENDBRANCH  45  51
ENDBRANCH  22  45
ENDBRANCH  19  22
ENDBRANCH   1  18
BRANCH   7  55
ATOM     55  C   LIG d   1      10.458   9.097  -2.741  0.00  0.00     0.103 C 
ATOM     56  H   LIG d   1       9.381   9.205  -2.873  0.00  0.00     0.060 H 
BRANCH  55  57
ATOM     57  C   LIG d   1      11.019  10.358  -2.079  0.00  0.00    -0.017 C 
ATOM     58  H   LIG d   1      11.327  10.126  -1.059  0.00  0.00     0.030 H 
ATOM     59  H   LIG d   1      11.878  10.715  -2.646  0.00  0.00     0.030 H 
BRANCH  57  60
ATOM     60  C   LIG d   1       9.941  11.443  -2.051  0.00  0.00    -0.004 C 
ATOM     61  H   LIG d   1       9.696  11.738  -3.072  0.00  0.00     0.038 H 
ATOM     62  H   LIG d   1       9.048  11.055  -1.562  0.00  0.00     0.038 H 
BRANCH  60  63
ATOM     63  S   LIG d   1      10.555  12.883  -1.135  0.00  0.00    -0.164 SA
BRANCH  63  64
ATOM     64  C   LIG d   1      10.644  12.305   0.582  0.00  0.00    -0.018 C 
ATOM     65  H   LIG d   1      11.542  12.705   1.054  0.00  0.00     0.034 H 
ATOM     66  H   LIG d   1       9.765  12.648   1.127  0.00  0.00     0.034 H 
ATOM     67  H   LIG d   1      10.680  11.215   0.598  0.00  0.00     0.034 H 
ENDBRANCH  63  64
ENDBRANCH  60  63
ENDBRANCH  57  60
ENDBRANCH  55  57
BRANCH  55  68
ATOM     68  N   LIG d   1      10.732   7.937  -1.891  0.00  0.00    -0.270 N 
ATOM     69  C   LIG d   1       9.815   7.526  -0.993  0.00  0.00     0.401 C 
ATOM     70  O   LIG d   1       8.760   8.120  -0.888  0.00  0.00    -0.226 OA
ATOM     71  H   LIG d   1      11.574   7.462  -1.975  0.00  0.00     0.153 HD
BRANCH  69  72
ATOM     72  O   LIG d   1      10.067   6.460  -0.211  0.00  0.00    -0.445 OA
BRANCH  72  73
ATOM     73  C   LIG d   1      11.187   6.552   0.670  0.00  0.00     0.107 C 
BRANCH  73  74
ATOM     74  C   LIG d   1      11.354   8.000   1.134  0.00  0.00    -0.025 C 
ATOM     75  H   LIG d   1      10.773   8.658   0.488  0.00  0.00     0.027 H 
ATOM     76  H   LIG d   1      11.002   8.095   2.162  0.00  0.00     0.027 H 
ATOM     77  H   LIG d   1      12.407   8.278   1.084  0.00  0.00     0.027 H 
ENDBRANCH  73  74
BRANCH  73  78
ATOM     78  C   LIG d   1      10.956   5.651   1.885  0.00  0.00    -0.025 C 
ATOM     79  H   LIG d   1      10.705   6.266   2.751  0.00  0.00     0.027 H 
ATOM     80  H   LIG d   1      10.135   4.965   1.678  0.00  0.00     0.027 H 
ATOM     81  H   LIG d   1      11.862   5.082   2.094  0.00  0.00     0.027 H 
ENDBRANCH  73  78
BRANCH  73  82
ATOM     82  C   LIG d   1      12.453   6.102  -0.063  0.00  0.00    -0.025 C 
ATOM     83  H   LIG d   1      12.369   5.045  -0.317  0.00  0.00     0.027 H 
ATOM     84  H   LIG d   1      12.572   6.686  -0.975  0.00  0.00     0.027 H 
ATOM     85  H   LIG d   1      13.319   6.253   0.582  0.00  0.00     0.027 H 
ENDBRANCH  73  82
ENDBRANCH  72  73
ENDBRANCH  69  72
ENDBRANCH  55  68
ENDBRANCH   7  55
TORSDOF 20
ENDMDL
MODEL 3
REMARK VINA RESULT:      -5.7      3.815     10.187
REMARK  20 active torsions:
REMARK  status: ('A' for Active; 'I' for Inactive)
REMARK    1  A    between atoms: C_1  and  C_2 
REMARK    2  A    between atoms: C_2  and  C_3 
REMARK    3  A    between atoms: C_6  and  N_9 
REMARK       I    between atoms: N_9  and  C_10 
REMARK    4  A    between atoms: C_10  and  C_12 
REMARK    5  A    between atoms: C_12  and  C_14 
REMARK    6  A    between atoms: C_12  and  N_17 
REMARK    7  A    between atoms: C_14  and  C_15 
REMARK    8  A    between atoms: C_14  and  C_16 
REMARK       I    between atoms: N_17  and  C_18 
REMARK    9  A    between atoms: C_18  and  C_20 
REMARK       I    between atoms: N_23  and  C_26 
REMARK   10  A    between atoms: C_26  and  C_28 
REMARK   11  A    between atoms: C_28  and  C_30 
REMARK   12  A    between atoms: C_28  and  N_34 
REMARK   13  A    between atoms: C_30  and  C_31 
REMARK   14  A    between atoms: C_31  and  S_32 
REMARK   15  A    between atoms: S_32  and  C_33 
REMARK       I    between atoms: N_34  and  C_35 
REMARK   16  A    between atoms: C_35  and  O_37 
REMARK   17  A    between atoms: O_37  and  C_38 
REMARK   18  A    between atoms: C_38  and  C_39 
REMARK   19  A    between atoms: C_38  and  C_40 
REMARK   20  A    between atoms: C_38  and  C_41 
ROOT
ATOM      1  C   LIG d   1       9.404   0.786  -4.570  0.00  0.00     0.038 C 
ATOM      2  C   LIG d   1       9.422  -0.229  -5.716  0.00  0.00    -0.026 C 
ATOM      3  C   LIG d   1       8.689  -1.500  -5.279  0.00  0.00     0.015 C 
ATOM      4  N   LIG d   1       7.343  -1.136  -4.817  0.00  0.00    -0.300 N 
ATOM      5  C   LIG d   1       7.207  -0.104  -3.780  0.00  0.00     0.015 C 
ATOM      6  C   LIG d   1       7.956   1.153  -4.236  0.00  0.00    -0.026 C 
ATOM      7  C   LIG d   1       6.253  -1.737  -5.335  0.00  0.00     0.236 C 
ATOM      8  O   LIG d   1       6.381  -2.669  -6.100  0.00  0.00    -0.274 OA
ATOM      9  H   LIG d   1       9.881   0.350  -3.693  0.00  0.00     0.040 H 
ATOM     10  H   LIG d   1       8.923   0.197  -6.587  0.00  0.00     0.029 H 
ATOM     11  H   LIG d   1      10.453  -0.472  -5.971  0.00  0.00     0.029 H 
ATOM     12  H   LIG d   1       8.613  -2.186  -6.122  0.00  0.00     0.046 H 
ATOM     13  H   LIG d   1       9.238  -1.976  -4.466  0.00  0.00     0.046 H 
ATOM     14  H   LIG d   1       6.153   0.132  -3.636  0.00  0.00     0.046 H 
ATOM     15  H   LIG d   1       7.634  -0.466  -2.846  0.00  0.00     0.046 H 
ATOM     16  H   LIG d   1       7.945   1.893  -3.435  0.00  0.00     0.029 H 
ATOM     17  H   LIG d   1       7.471   1.566  -5.120  0.00  0.00     0.029 H 
ENDROOT
BRANCH   1  18
ATOM     18  C   LIG d   1      10.153   2.026  -4.986  0.00  0.00     0.217 C 
ATOM     19  N   LIG d   1       9.767   3.232  -4.528  0.00  0.00    -0.303 N 
ATOM     20  H   LIG d   1       9.005   3.303  -3.931  0.00  0.00     0.149 HD
ATOM     21  O   LIG d   1      11.106   1.936  -5.732  0.00  0.00    -0.276 OA
BRANCH  19  22
ATOM     22  C   LIG d   1      10.496   4.437  -4.933  0.00  0.00     0.102 C 
ATOM     23  H   LIG d   1      11.391   4.152  -5.486  0.00  0.00     0.060 H 
BRANCH  22  24
ATOM     24  C   LIG d   1      10.890   5.221  -3.708  0.00  0.00     0.238 C 
ATOM     25  N   LIG d   1      10.000   5.407  -2.712  0.00  0.00    -0.284 N 
ATOM     26  H   LIG d   1       9.111   5.029  -2.780  0.00  0.00     0.155 HD
ATOM     27  O   LIG d   1      12.008   5.684  -3.618  0.00  0.00    -0.273 OA
BRANCH  25  28
ATOM     28  C   LIG d   1      10.363   6.145  -1.580  0.00  0.00     0.034 A 
ATOM     29  C   LIG d   1      10.994   5.519  -0.513  0.00  0.00    -0.040 A 
ATOM     30  C   LIG d   1      11.352   6.249   0.602  0.00  0.00    -0.057 A 
ATOM     31  H   LIG d   1      11.205   4.459  -0.556  0.00  0.00     0.064 H 
ATOM     32  C   LIG d   1      11.083   7.604   0.658  0.00  0.00    -0.048 A 
ATOM     33  H   LIG d   1      11.843   5.763   1.432  0.00  0.00     0.062 H 
ATOM     34  C   LIG d   1      10.450   8.231  -0.400  0.00  0.00    -0.057 A 
ATOM     35  C   LIG d   1      10.094   7.506  -1.520  0.00  0.00    -0.040 A 
ATOM     36  H   LIG d   1      10.237   9.289  -0.351  0.00  0.00     0.062 H 
ATOM     37  H   LIG d   1       9.604   7.997  -2.349  0.00  0.00     0.064 H 
BRANCH  32  38
ATOM     38  C   LIG d   1      11.474   8.400   1.877  0.00  0.00    -0.030 C 
ATOM     39  H   LIG d   1      12.394   7.994   2.296  0.00  0.00     0.031 H 
ATOM     40  H   LIG d   1      10.679   8.340   2.621  0.00  0.00     0.031 H 
BRANCH  38  41
ATOM     41  C   LIG d   1      11.695   9.861   1.483  0.00  0.00    -0.061 C 
ATOM     42  H   LIG d   1      12.758  10.095   1.535  0.00  0.00     0.023 H 
ATOM     43  H   LIG d   1      11.335  10.022   0.467  0.00  0.00     0.023 H 
ATOM     44  H   LIG d   1      11.147  10.508   2.168  0.00  0.00     0.023 H 
ENDBRANCH  38  41
ENDBRANCH  32  38
ENDBRANCH  25  28
ENDBRANCH  22  24
BRANCH  22  45
ATOM     45  C   LIG d   1       9.600   5.300  -5.823  0.00  0.00    -0.020 C 
ATOM     46  H   LIG d   1       8.570   5.239  -5.471  0.00  0.00     0.032 H 
BRANCH  45  47
ATOM     47  C   LIG d   1      10.073   6.753  -5.769  0.00  0.00    -0.060 C 
ATOM     48  H   LIG d   1      10.695   6.965  -6.638  0.00  0.00     0.023 H 
ATOM     49  H   LIG d   1       9.208   7.417  -5.770  0.00  0.00     0.023 H 
ATOM     50  H   LIG d   1      10.652   6.913  -4.860  0.00  0.00     0.023 H 
ENDBRANCH  45  47
BRANCH  45  51
ATOM     51  C   LIG d   1       9.675   4.792  -7.265  0.00  0.00    -0.060 C 
ATOM     52  H   LIG d   1      10.534   5.241  -7.764  0.00  0.00     0.023 H 
ATOM     53  H   LIG d   1       9.781   3.707  -7.264  0.00  0.00     0.023 H 
ATOM     54  H   LIG d   1       8.762   5.067  -7.795  0.00  0.00     0.023 H 
ENDBRANCH  45  51
ENDBRANCH  22  45
ENDBRANCH  19  22
ENDBRANCH   1  18
BRANCH   7  55
ATOM     55  C   LIG d   1       4.876  -1.251  -4.963  0.00  0.00     0.103 C 
ATOM     56  H   LIG d   1       4.948  -0.254  -4.528  0.00  0.00     0.060 H 
BRANCH  55  57
ATOM     57  C   LIG d   1       4.255  -2.208  -3.944  0.00  0.00    -0.017 C 
ATOM     58  H   LIG d   1       3.679  -2.972  -4.468  0.00  0.00     0.030 H 
ATOM     59  H   LIG d   1       5.045  -2.683  -3.363  0.00  0.00     0.030 H 
BRANCH  57  60
ATOM     60  C   LIG d   1       3.331  -1.427  -3.007  0.00  0.00    -0.004 C 
ATOM     61  H   LIG d   1       2.674  -0.788  -3.596  0.00  0.00     0.038 H 
ATOM     62  H   LIG d   1       2.732  -2.125  -2.423  0.00  0.00     0.038 H 
BRANCH  60  63
ATOM     63  S   LIG d   1       4.328  -0.404  -1.888  0.00  0.00    -0.164 SA
BRANCH  63  64
ATOM     64  C   LIG d   1       3.826   1.293  -2.282  0.00  0.00    -0.018 C 
ATOM     65  H   LIG d   1       4.701   1.944  -2.264  0.00  0.00     0.034 H 
ATOM     66  H   LIG d   1       3.375   1.318  -3.274  0.00  0.00     0.034 H 
ATOM     67  H   LIG d   1       3.101   1.639  -1.544  0.00  0.00     0.034 H 
ENDBRANCH  63  64
ENDBRANCH  60  63
ENDBRANCH  57  60
ENDBRANCH  55  57
BRANCH  55  68
ATOM     68  N   LIG d   1       4.036  -1.201  -6.161  0.00  0.00    -0.270 N 
ATOM     69  C   LIG d   1       3.296  -0.105  -6.421  0.00  0.00     0.401 C 
ATOM     70  O   LIG d   1       3.326   0.843  -5.661  0.00  0.00    -0.226 OA
ATOM     71  H   LIG d   1       4.012  -1.956  -6.769  0.00  0.00     0.153 HD
BRANCH  69  72
ATOM     72  O   LIG d   1       2.523  -0.059  -7.522  0.00  0.00    -0.445 OA
BRANCH  72  73
ATOM     73  C   LIG d   1       3.066   0.599  -8.668  0.00  0.00     0.107 C 
BRANCH  73  74
ATOM     74  C   LIG d   1       2.779   2.099  -8.579  0.00  0.00    -0.025 C 
ATOM     75  H   LIG d   1       3.553   2.583  -7.984  0.00  0.00     0.027 H 
ATOM     76  H   LIG d   1       2.770   2.528  -9.582  0.00  0.00     0.027 H 
ATOM     77  H   LIG d   1       1.808   2.256  -8.109  0.00  0.00     0.027 H 
ENDBRANCH  73  74
BRANCH  73  78
ATOM     78  C   LIG d   1       4.578   0.372  -8.718  0.00  0.00    -0.025 C 
ATOM     79  H   LIG d   1       5.094   1.301  -8.471  0.00  0.00     0.027 H 
ATOM     80  H   LIG d   1       4.854  -0.398  -7.998  0.00  0.00     0.027 H 
ATOM     81  H   LIG d   1       4.865   0.052  -9.720  0.00  0.00     0.027 H 
ENDBRANCH  73  78
BRANCH  73  82
ATOM     82  C   LIG d   1       2.424   0.031  -9.935  0.00  0.00    -0.025 C 
ATOM     83  H   LIG d   1       2.238   0.840 -10.642  0.00  0.00     0.027 H 
ATOM     84  H   LIG d   1       3.095  -0.699 -10.387  0.00  0.00     0.027 H 
ATOM     85  H   LIG d   1       1.480  -0.452  -9.679  0.00  0.00     0.027 H 
ENDBRANCH  73  82
ENDBRANCH  72  73
ENDBRANCH  69  72
ENDBRANCH  55  68
ENDBRANCH   7  55
TORSDOF 20
ENDMDL
MODEL 4
REMARK VINA RESULT:      -5.7      2.501      3.476
REMARK  20 active torsions:
REMARK  status: ('A' for Active; 'I' for Inactive)
REMARK    1  A    between atoms: C_1  and  C_2 
REMARK    2  A    between atoms: C_2  and  C_3 
REMARK    3  A    between atoms: C_6  and  N_9 
REMARK       I    between atoms: N_9  and  C_10 
REMARK    4  A    between atoms: C_10  and  C_12 
REMARK    5  A    between atoms: C_12  and  C_14 
REMARK    6  A    between atoms: C_12  and  N_17 
REMARK    7  A    between atoms: C_14  and  C_15 
REMARK    8  A    between atoms: C_14  and  C_16 
REMARK       I    between atoms: N_17  and  C_18 
REMARK    9  A    between atoms: C_18  and  C_20 
REMARK       I    between atoms: N_23  and  C_26 
REMARK   10  A    between atoms: C_26  and  C_28 
REMARK   11  A    between atoms: C_28  and  C_30 
REMARK   12  A    between atoms: C_28  and  N_34 
REMARK   13  A    between atoms: C_30  and  C_31 
REMARK   14  A    between atoms: C_31  and  S_32 
REMARK   15  A    between atoms: S_32  and  C_33 
REMARK       I    between atoms: N_34  and  C_35 
REMARK   16  A    between atoms: C_35  and  O_37 
REMARK   17  A    between atoms: O_37  and  C_38 
REMARK   18  A    between atoms: C_38  and  C_39 
REMARK   19  A    between atoms: C_38  and  C_40 
REMARK   20  A    between atoms: C_38  and  C_41 
ROOT
ATOM      1  C   LIG d   1       9.416   6.433  -4.109  0.00  0.00     0.038 C 
ATOM      2  C   LIG d   1      10.313   7.506  -4.733  0.00  0.00    -0.026 C 
ATOM      3  C   LIG d   1      10.220   8.789  -3.902  0.00  0.00     0.015 C 
ATOM      4  N   LIG d   1      10.541   8.473  -2.504  0.00  0.00    -0.300 N 
ATOM      5  C   LIG d   1       9.799   7.395  -1.836  0.00  0.00     0.015 C 
ATOM      6  C   LIG d   1       9.898   6.126  -2.690  0.00  0.00    -0.026 C 
ATOM      7  C   LIG d   1      11.497   9.159  -1.847  0.00  0.00     0.236 C 
ATOM      8  O   LIG d   1      12.018  10.122  -2.367  0.00  0.00    -0.274 OA
ATOM      9  H   LIG d   1       8.389   6.795  -4.075  0.00  0.00     0.040 H 
ATOM     10  H   LIG d   1      11.345   7.155  -4.745  0.00  0.00     0.029 H 
ATOM     11  H   LIG d   1       9.985   7.707  -5.752  0.00  0.00     0.029 H 
ATOM     12  H   LIG d   1      10.930   9.523  -4.283  0.00  0.00     0.046 H 
ATOM     13  H   LIG d   1       9.208   9.191  -3.963  0.00  0.00     0.046 H 
ATOM     14  H   LIG d   1      10.232   7.208  -0.853  0.00  0.00     0.046 H 
ATOM     15  H   LIG d   1       8.754   7.682  -1.728  0.00  0.00     0.046 H 
ATOM     16  H   LIG d   1       9.273   5.346  -2.255  0.00  0.00     0.029 H 
ATOM     17  H   LIG d   1      10.933   5.788  -2.721  0.00  0.00     0.029 H 
ENDROOT
BRANCH   1  18
ATOM     18  C   LIG d   1       9.480   5.179  -4.944  0.00  0.00     0.217 C 
ATOM     19  N   LIG d   1       9.519   3.973  -4.345  0.00  0.00    -0.303 N 
ATOM     20  H   LIG d   1       9.507   3.911  -3.377  0.00  0.00     0.149 HD
ATOM     21  O   LIG d   1       9.495   5.258  -6.154  0.00  0.00    -0.276 OA
BRANCH  19  22
ATOM     22  C   LIG d   1       9.581   2.754  -5.157  0.00  0.00     0.102 C 
ATOM     23  H   LIG d   1       9.597   3.022  -6.214  0.00  0.00     0.060 H 
BRANCH  22  24
ATOM     24  C   LIG d   1       8.373   1.900  -4.872  0.00  0.00     0.238 C 
ATOM     25  N   LIG d   1       8.191   1.378  -3.643  0.00  0.00    -0.284 N 
ATOM     26  H   LIG d   1       8.833   1.561  -2.939  0.00  0.00     0.155 HD
ATOM     27  O   LIG d   1       7.565   1.681  -5.750  0.00  0.00    -0.273 OA
BRANCH  25  28
ATOM     28  C   LIG d   1       7.076   0.574  -3.383  0.00  0.00     0.034 A 
ATOM     29  C   LIG d   1       5.882   1.153  -2.973  0.00  0.00    -0.040 A 
ATOM     30  C   LIG d   1       4.782   0.358  -2.718  0.00  0.00    -0.057 A 
ATOM     31  H   LIG d   1       5.813   2.225  -2.853  0.00  0.00     0.064 H 
ATOM     32  C   LIG d   1       4.869  -1.014  -2.870  0.00  0.00    -0.048 A 
ATOM     33  H   LIG d   1       3.853   0.807  -2.399  0.00  0.00     0.062 H 
ATOM     34  C   LIG d   1       6.058  -1.594  -3.273  0.00  0.00    -0.057 A 
ATOM     35  C   LIG d   1       7.159  -0.803  -3.534  0.00  0.00    -0.040 A 
ATOM     36  H   LIG d   1       6.123  -2.666  -3.387  0.00  0.00     0.062 H 
ATOM     37  H   LIG d   1       8.087  -1.256  -3.854  0.00  0.00     0.064 H 
BRANCH  32  38
ATOM     38  C   LIG d   1       3.667  -1.880  -2.591  0.00  0.00    -0.030 C 
ATOM     39  H   LIG d   1       3.654  -2.155  -1.537  0.00  0.00     0.031 H 
ATOM     40  H   LIG d   1       3.720  -2.782  -3.201  0.00  0.00     0.031 H 
BRANCH  38  41
ATOM     41  C   LIG d   1       2.392  -1.107  -2.931  0.00  0.00    -0.061 C 
ATOM     42  H   LIG d   1       2.120  -1.294  -3.970  0.00  0.00     0.023 H 
ATOM     43  H   LIG d   1       1.582  -1.434  -2.278  0.00  0.00     0.023 H 
ATOM     44  H   LIG d   1       2.565  -0.040  -2.788  0.00  0.00     0.023 H 
ENDBRANCH  38  41
ENDBRANCH  32  38
ENDBRANCH  25  28
ENDBRANCH  22  24
BRANCH  22  45
ATOM     45  C   LIG d   1      10.850   1.975  -4.809  0.00  0.00    -0.020 C 
ATOM     46  H   LIG d   1      10.604   0.924  -4.664  0.00  0.00     0.032 H 
BRANCH  45  47
ATOM     47  C   LIG d   1      11.860   2.109  -5.949  0.00  0.00    -0.060 C 
ATOM     48  H   LIG d   1      12.872   2.090  -5.544  0.00  0.00     0.023 H 
ATOM     49  H   LIG d   1      11.733   1.281  -6.647  0.00  0.00     0.023 H 
ATOM     50  H   LIG d   1      11.697   3.052  -6.471  0.00  0.00     0.023 H 
ENDBRANCH  45  47
BRANCH  45  51
ATOM     51  C   LIG d   1      11.457   2.538  -3.522  0.00  0.00    -0.060 C 
ATOM     52  H   LIG d   1      10.803   3.311  -3.119  0.00  0.00     0.023 H 
ATOM     53  H   LIG d   1      11.566   1.737  -2.790  0.00  0.00     0.023 H 
ATOM     54  H   LIG d   1      12.437   2.966  -3.739  0.00  0.00     0.023 H 
ENDBRANCH  45  51
ENDBRANCH  22  45
ENDBRANCH  19  22
ENDBRANCH   1  18
BRANCH   7  55
ATOM     55  C   LIG d   1      11.919   8.727  -0.466  0.00  0.00     0.103 C 
ATOM     56  H   LIG d   1      11.178   8.039  -0.058  0.00  0.00     0.060 H 
BRANCH  55  57
ATOM     57  C   LIG d   1      12.030   9.954   0.441  0.00  0.00    -0.017 C 
ATOM     58  H   LIG d   1      13.017  10.403   0.326  0.00  0.00     0.030 H 
ATOM     59  H   LIG d   1      11.267  10.681   0.164  0.00  0.00     0.030 H 
BRANCH  57  60
ATOM     60  C   LIG d   1      11.828   9.533   1.898  0.00  0.00    -0.004 C 
ATOM     61  H   LIG d   1      10.776   9.642   2.164  0.00  0.00     0.038 H 
ATOM     62  H   LIG d   1      12.127   8.492   2.019  0.00  0.00     0.038 H 
BRANCH  60  63
ATOM     63  S   LIG d   1      12.839  10.583   2.977  0.00  0.00    -0.164 SA
BRANCH  63  64
ATOM     64  C   LIG d   1      12.547   9.915   4.638  0.00  0.00    -0.018 C 
ATOM     65  H   LIG d   1      12.011  10.652   5.237  0.00  0.00     0.034 H 
ATOM     66  H   LIG d   1      11.952   9.005   4.564  0.00  0.00     0.034 H 
ATOM     67  H   LIG d   1      13.503   9.687   5.111  0.00  0.00     0.034 H 
ENDBRANCH  63  64
ENDBRANCH  60  63
ENDBRANCH  57  60
ENDBRANCH  55  57
BRANCH  55  68
ATOM     68  N   LIG d   1      13.219   8.056  -0.540  0.00  0.00    -0.270 N 
ATOM     69  C   LIG d   1      13.344   6.780  -0.124  0.00  0.00     0.401 C 
ATOM     70  O   LIG d   1      12.379   6.186   0.312  0.00  0.00    -0.226 OA
ATOM     71  H   LIG d   1      13.990   8.530  -0.889  0.00  0.00     0.153 HD
BRANCH  69  72
ATOM     72  O   LIG d   1      14.539   6.164  -0.192  0.00  0.00    -0.445 OA
BRANCH  72  73
ATOM     73  C   LIG d   1      14.904   5.594  -1.451  0.00  0.00     0.107 C 
BRANCH  73  74
ATOM     74  C   LIG d   1      13.645   5.346  -2.283  0.00  0.00    -0.025 C 
ATOM     75  H   LIG d   1      13.203   4.392  -1.999  0.00  0.00     0.027 H 
ATOM     76  H   LIG d   1      12.927   6.148  -2.105  0.00  0.00     0.027 H 
ATOM     77  H   LIG d   1      13.908   5.324  -3.341  0.00  0.00     0.027 H 
ENDBRANCH  73  74
BRANCH  73  78
ATOM     78  C   LIG d   1      15.828   6.558  -2.198  0.00  0.00    -0.025 C 
ATOM     79  H   LIG d   1      15.938   7.477  -1.621  0.00  0.00     0.027 H 
ATOM     80  H   LIG d   1      16.805   6.094  -2.334  0.00  0.00     0.027 H 
ATOM     81  H   LIG d   1      15.398   6.790  -3.173  0.00  0.00     0.027 H 
ENDBRANCH  73  78
BRANCH  73  82
ATOM     82  C   LIG d   1      15.632   4.268  -1.219  0.00  0.00    -0.025 C 
ATOM     83  H   LIG d   1      14.911   3.451  -1.231  0.00  0.00     0.027 H 
ATOM     84  H   LIG d   1      16.368   4.115  -2.008  0.00  0.00     0.027 H 
ATOM     85  H   LIG d   1      16.136   4.294  -0.252  0.00  0.00     0.027 H 
ENDBRANCH  73  82
ENDBRANCH  72  73
ENDBRANCH  69  72
ENDBRANCH  55  68
ENDBRANCH   7  55
TORSDOF 20
ENDMDL
MODEL 5
REMARK VINA RESULT:      -5.7      4.110      6.725
REMARK  20 active torsions:
REMARK  status: ('A' for Active; 'I' for Inactive)
REMARK    1  A    between atoms: C_1  and  C_2 
REMARK    2  A    between atoms: C_2  and  C_3 
REMARK    3  A    between atoms: C_6  and  N_9 
REMARK       I    between atoms: N_9  and  C_10 
REMARK    4  A    between atoms: C_10  and  C_12 
REMARK    5  A    between atoms: C_12  and  C_14 
REMARK    6  A    between atoms: C_12  and  N_17 
REMARK    7  A    between atoms: C_14  and  C_15 
REMARK    8  A    between atoms: C_14  and  C_16 
REMARK       I    between atoms: N_17  and  C_18 
REMARK    9  A    between atoms: C_18  and  C_20 
REMARK       I    between atoms: N_23  and  C_26 
REMARK   10  A    between atoms: C_26  and  C_28 
REMARK   11  A    between atoms: C_28  and  C_30 
REMARK   12  A    between atoms: C_28  and  N_34 
REMARK   13  A    between atoms: C_30  and  C_31 
REMARK   14  A    between atoms: C_31  and  S_32 
REMARK   15  A    between atoms: S_32  and  C_33 
REMARK       I    between atoms: N_34  and  C_35 
REMARK   16  A    between atoms: C_35  and  O_37 
REMARK   17  A    between atoms: O_37  and  C_38 
REMARK   18  A    between atoms: C_38  and  C_39 
REMARK   19  A    between atoms: C_38  and  C_40 
REMARK   20  A    between atoms: C_38  and  C_41 
ROOT
ATOM      1  C   LIG d   1       8.005   2.242  -4.480  0.00  0.00     0.038 C 
ATOM      2  C   LIG d   1       8.612   2.356  -5.881  0.00  0.00    -0.026 C 
ATOM      3  C   LIG d   1       9.418   3.656  -5.979  0.00  0.00     0.015 C 
ATOM      4  N   LIG d   1      10.403   3.687  -4.890  0.00  0.00    -0.300 N 
ATOM      5  C   LIG d   1       9.936   3.496  -3.510  0.00  0.00     0.015 C 
ATOM      6  C   LIG d   1       9.126   2.197  -3.439  0.00  0.00    -0.026 C 
ATOM      7  C   LIG d   1      11.710   3.885  -5.152  0.00  0.00     0.236 C 
ATOM      8  O   LIG d   1      12.068   4.161  -6.277  0.00  0.00    -0.274 OA
ATOM      9  H   LIG d   1       7.366   3.105  -4.291  0.00  0.00     0.040 H 
ATOM     10  H   LIG d   1       9.271   1.507  -6.062  0.00  0.00     0.029 H 
ATOM     11  H   LIG d   1       7.816   2.365  -6.624  0.00  0.00     0.029 H 
ATOM     12  H   LIG d   1       9.932   3.694  -6.939  0.00  0.00     0.046 H 
ATOM     13  H   LIG d   1       8.745   4.509  -5.888  0.00  0.00     0.046 H 
ATOM     14  H   LIG d   1      10.793   3.428  -2.840  0.00  0.00     0.046 H 
ATOM     15  H   LIG d   1       9.307   4.336  -3.218  0.00  0.00     0.046 H 
ATOM     16  H   LIG d   1       8.692   2.092  -2.444  0.00  0.00     0.029 H 
ATOM     17  H   LIG d   1       9.779   1.349  -3.643  0.00  0.00     0.029 H 
ENDROOT
BRANCH   1  18
ATOM     18  C   LIG d   1       7.184   0.981  -4.391  0.00  0.00     0.217 C 
ATOM     19  N   LIG d   1       5.918   1.032  -3.933  0.00  0.00    -0.303 N 
ATOM     20  H   LIG d   1       5.535   1.881  -3.661  0.00  0.00     0.149 HD
ATOM     21  O   LIG d   1       7.665  -0.079  -4.731  0.00  0.00    -0.276 OA
BRANCH  19  22
ATOM     22  C   LIG d   1       5.121  -0.194  -3.846  0.00  0.00     0.102 C 
ATOM     23  H   LIG d   1       5.786  -1.059  -3.819  0.00  0.00     0.060 H 
BRANCH  22  24
ATOM     24  C   LIG d   1       4.218  -0.292  -5.047  0.00  0.00     0.238 C 
ATOM     25  N   LIG d   1       4.744  -0.288  -6.288  0.00  0.00    -0.284 N 
ATOM     26  H   LIG d   1       5.705  -0.231  -6.407  0.00  0.00     0.155 HD
ATOM     27  O   LIG d   1       3.016  -0.375  -4.898  0.00  0.00    -0.273 OA
BRANCH  25  28
ATOM     28  C   LIG d   1       3.904  -0.366  -7.404  0.00  0.00     0.034 A 
ATOM     29  C   LIG d   1       3.311   0.784  -7.911  0.00  0.00    -0.040 A 
ATOM     30  C   LIG d   1       2.483   0.705  -9.013  0.00  0.00    -0.057 A 
ATOM     31  H   LIG d   1       3.498   1.740  -7.442  0.00  0.00     0.064 H 
ATOM     32  C   LIG d   1       2.244  -0.518  -9.613  0.00  0.00    -0.048 A 
ATOM     33  H   LIG d   1       2.021   1.598  -9.407  0.00  0.00     0.062 H 
ATOM     34  C   LIG d   1       2.828  -1.665  -9.109  0.00  0.00    -0.057 A 
ATOM     35  C   LIG d   1       3.661  -1.592  -8.010  0.00  0.00    -0.040 A 
ATOM     36  H   LIG d   1       2.636  -2.619  -9.577  0.00  0.00     0.062 H 
ATOM     37  H   LIG d   1       4.121  -2.487  -7.619  0.00  0.00     0.064 H 
BRANCH  32  38
ATOM     38  C   LIG d   1       1.339  -0.602 -10.816  0.00  0.00    -0.030 C 
ATOM     39  H   LIG d   1       0.981   0.395 -11.071  0.00  0.00     0.031 H 
ATOM     40  H   LIG d   1       0.489  -1.245 -10.586  0.00  0.00     0.031 H 
BRANCH  38  41
ATOM     41  C   LIG d   1       2.115  -1.184 -11.998  0.00  0.00    -0.061 C 
ATOM     42  H   LIG d   1       1.832  -0.661 -12.911  0.00  0.00     0.023 H 
ATOM     43  H   LIG d   1       3.185  -1.063 -11.826  0.00  0.00     0.023 H 
ATOM     44  H   LIG d   1       1.881  -2.244 -12.098  0.00  0.00     0.023 H 
ENDBRANCH  38  41
ENDBRANCH  32  38
ENDBRANCH  25  28
ENDBRANCH  22  24
BRANCH  22  45
ATOM     45  C   LIG d   1       4.275  -0.162  -2.572  0.00  0.00    -0.020 C 
ATOM     46  H   LIG d   1       3.226  -0.029  -2.836  0.00  0.00     0.032 H 
BRANCH  45  47
ATOM     47  C   LIG d   1       4.446  -1.477  -1.811  0.00  0.00    -0.060 C 
ATOM     48  H   LIG d   1       5.497  -1.614  -1.555  0.00  0.00     0.023 H 
ATOM     49  H   LIG d   1       3.850  -1.449  -0.899  0.00  0.00     0.023 H 
ATOM     50  H   LIG d   1       4.114  -2.305  -2.437  0.00  0.00     0.023 H 
ENDBRANCH  45  47
BRANCH  45  51
ATOM     51  C   LIG d   1       4.729   1.002  -1.689  0.00  0.00    -0.060 C 
ATOM     52  H   LIG d   1       5.143   1.793  -2.313  0.00  0.00     0.023 H 
ATOM     53  H   LIG d   1       3.876   1.389  -1.130  0.00  0.00     0.023 H 
ATOM     54  H   LIG d   1       5.491   0.653  -0.991  0.00  0.00     0.023 H 
ENDBRANCH  45  51
ENDBRANCH  22  45
ENDBRANCH  19  22
ENDBRANCH   1  18
BRANCH   7  55
ATOM     55  C   LIG d   1      12.726   3.765  -4.046  0.00  0.00     0.103 C 
ATOM     56  H   LIG d   1      12.230   3.443  -3.130  0.00  0.00     0.060 H 
BRANCH  55  57
ATOM     57  C   LIG d   1      13.390   5.124  -3.814  0.00  0.00    -0.017 C 
ATOM     58  H   LIG d   1      14.318   4.984  -3.257  0.00  0.00     0.030 H 
ATOM     59  H   LIG d   1      13.609   5.591  -4.774  0.00  0.00     0.030 H 
BRANCH  57  60
ATOM     60  C   LIG d   1      12.447   6.024  -3.013  0.00  0.00    -0.004 C 
ATOM     61  H   LIG d   1      12.801   7.054  -3.060  0.00  0.00     0.038 H 
ATOM     62  H   LIG d   1      11.444   5.966  -3.436  0.00  0.00     0.038 H 
BRANCH  60  63
ATOM     63  S   LIG d   1      12.407   5.474  -1.285  0.00  0.00    -0.164 SA
BRANCH  63  64
ATOM     64  C   LIG d   1      10.732   5.893  -0.729  0.00  0.00    -0.018 C 
ATOM     65  H   LIG d   1      10.664   5.758   0.351  0.00  0.00     0.034 H 
ATOM     66  H   LIG d   1      10.515   6.931  -0.980  0.00  0.00     0.034 H 
ATOM     67  H   LIG d   1      10.012   5.241  -1.223  0.00  0.00     0.034 H 
ENDBRANCH  63  64
ENDBRANCH  60  63
ENDBRANCH  57  60
ENDBRANCH  55  57
BRANCH  55  68
ATOM     68  N   LIG d   1      13.744   2.783  -4.422  0.00  0.00    -0.270 N 
ATOM     69  C   LIG d   1      13.598   1.491  -4.069  0.00  0.00     0.401 C 
ATOM     70  O   LIG d   1      12.621   1.140  -3.438  0.00  0.00    -0.226 OA
ATOM     71  H   LIG d   1      14.524   3.062  -4.927  0.00  0.00     0.153 HD
BRANCH  69  72
ATOM     72  O   LIG d   1      14.534   0.587  -4.415  0.00  0.00    -0.445 OA
BRANCH  72  73
ATOM     73  C   LIG d   1      15.544   0.296  -3.448  0.00  0.00     0.107 C 
BRANCH  73  74
ATOM     74  C   LIG d   1      15.105  -0.894  -2.593  0.00  0.00    -0.025 C 
ATOM     75  H   LIG d   1      14.032  -0.835  -2.410  0.00  0.00     0.027 H 
ATOM     76  H   LIG d   1      15.334  -1.822  -3.117  0.00  0.00     0.027 H 
ATOM     77  H   LIG d   1      15.637  -0.874  -1.642  0.00  0.00     0.027 H 
ENDBRANCH  73  74
BRANCH  73  78
ATOM     78  C   LIG d   1      16.853  -0.046  -4.163  0.00  0.00    -0.025 C 
ATOM     79  H   LIG d   1      16.690  -0.890  -4.833  0.00  0.00     0.027 H 
ATOM     80  H   LIG d   1      17.188   0.816  -4.740  0.00  0.00     0.027 H 
ATOM     81  H   LIG d   1      17.612  -0.307  -3.426  0.00  0.00     0.027 H 
ENDBRANCH  73  78
BRANCH  73  82
ATOM     82  C   LIG d   1      15.758   1.517  -2.551  0.00  0.00    -0.025 C 
ATOM     83  H   LIG d   1      16.576   2.119  -2.947  0.00  0.00     0.027 H 
ATOM     84  H   LIG d   1      14.847   2.114  -2.525  0.00  0.00     0.027 H 
ATOM     85  H   LIG d   1      16.005   1.187  -1.541  0.00  0.00     0.027 H 
ENDBRANCH  73  82
ENDBRANCH  72  73
ENDBRANCH  69  72
ENDBRANCH  55  68
ENDBRANCH   7  55
TORSDOF 20
ENDMDL
MODEL 6
REMARK VINA RESULT:      -5.6      4.291      9.278
REMARK  20 active torsions:
REMARK  status: ('A' for Active; 'I' for Inactive)
REMARK    1  A    between atoms: C_1  and  C_2 
REMARK    2  A    between atoms: C_2  and  C_3 
REMARK    3  A    between atoms: C_6  and  N_9 
REMARK       I    between atoms: N_9  and  C_10 
REMARK    4  A    between atoms: C_10  and  C_12 
REMARK    5  A    between atoms: C_12  and  C_14 
REMARK    6  A    between atoms: C_12  and  N_17 
REMARK    7  A    between atoms: C_14  and  C_15 
REMARK    8  A    between atoms: C_14  and  C_16 
REMARK       I    between atoms: N_17  and  C_18 
REMARK    9  A    between atoms: C_18  and  C_20 
REMARK       I    between atoms: N_23  and  C_26 
REMARK   10  A    between atoms: C_26  and  C_28 
REMARK   11  A    between atoms: C_28  and  C_30 
REMARK   12  A    between atoms: C_28  and  N_34 
REMARK   13  A    between atoms: C_30  and  C_31 
REMARK   14  A    between atoms: C_31  and  S_32 
REMARK   15  A    between atoms: S_32  and  C_33 
REMARK       I    between atoms: N_34  and  C_35 
REMARK   16  A    between atoms: C_35  and  O_37 
REMARK   17  A    between atoms: O_37  and  C_38 
REMARK   18  A    between atoms: C_38  and  C_39 
REMARK   19  A    between atoms: C_38  and  C_40 
REMARK   20  A    between atoms: C_38  and  C_41 
ROOT
ATOM      1  C   LIG d   1       8.678   0.451  -7.623  0.00  0.00     0.038 C 
ATOM      2  C   LIG d   1       8.011   1.809  -7.857  0.00  0.00    -0.026 C 
ATOM      3  C   LIG d   1       6.824   1.633  -8.809  0.00  0.00     0.015 C 
ATOM      4  N   LIG d   1       5.926   0.606  -8.262  0.00  0.00    -0.300 N 
ATOM      5  C   LIG d   1       6.485  -0.709  -7.917  0.00  0.00     0.015 C 
ATOM      6  C   LIG d   1       7.675  -0.506  -6.974  0.00  0.00    -0.026 C 
ATOM      7  C   LIG d   1       4.616   0.866  -8.081  0.00  0.00     0.236 C 
ATOM      8  O   LIG d   1       4.144   1.909  -8.479  0.00  0.00    -0.274 OA
ATOM      9  H   LIG d   1       9.008   0.040  -8.577  0.00  0.00     0.040 H 
ATOM     10  H   LIG d   1       7.658   2.210  -6.907  0.00  0.00     0.029 H 
ATOM     11  H   LIG d   1       8.732   2.497  -8.297  0.00  0.00     0.029 H 
ATOM     12  H   LIG d   1       6.287   2.577  -8.901  0.00  0.00     0.046 H 
ATOM     13  H   LIG d   1       7.185   1.318  -9.788  0.00  0.00     0.046 H 
ATOM     14  H   LIG d   1       5.724  -1.309  -7.420  0.00  0.00     0.046 H 
ATOM     15  H   LIG d   1       6.818  -1.213  -8.823  0.00  0.00     0.046 H 
ATOM     16  H   LIG d   1       8.158  -1.465  -6.787  0.00  0.00     0.029 H 
ATOM     17  H   LIG d   1       7.326  -0.084  -6.032  0.00  0.00     0.029 H 
ENDROOT
BRANCH   1  18
ATOM     18  C   LIG d   1       9.867   0.626  -6.714  0.00  0.00     0.217 C 
ATOM     19  N   LIG d   1      10.618   1.741  -6.794  0.00  0.00    -0.303 N 
ATOM     20  H   LIG d   1      10.394   2.432  -7.437  0.00  0.00     0.149 HD
ATOM     21  O   LIG d   1      10.146  -0.239  -5.909  0.00  0.00    -0.276 OA
BRANCH  19  22
ATOM     22  C   LIG d   1      11.775   1.910  -5.910  0.00  0.00     0.102 C 
ATOM     23  H   LIG d   1      11.889   1.023  -5.286  0.00  0.00     0.060 H 
BRANCH  22  24
ATOM     24  C   LIG d   1      11.563   3.117  -5.032  0.00  0.00     0.238 C 
ATOM     25  N   LIG d   1      10.361   3.331  -4.459  0.00  0.00    -0.284 N 
ATOM     26  H   LIG d   1       9.637   2.703  -4.605  0.00  0.00     0.155 HD
ATOM     27  O   LIG d   1      12.473   3.896  -4.842  0.00  0.00    -0.273 OA
BRANCH  25  28
ATOM     28  C   LIG d   1      10.161   4.458  -3.655  0.00  0.00     0.034 A 
ATOM     29  C   LIG d   1       9.610   5.611  -4.198  0.00  0.00    -0.040 A 
ATOM     30  C   LIG d   1       9.412   6.722  -3.402  0.00  0.00    -0.057 A 
ATOM     31  H   LIG d   1       9.336   5.639  -5.243  0.00  0.00     0.064 H 
ATOM     32  C   LIG d   1       9.763   6.687  -2.065  0.00  0.00    -0.048 A 
ATOM     33  H   LIG d   1       8.984   7.619  -3.823  0.00  0.00     0.062 H 
ATOM     34  C   LIG d   1      10.317   5.543  -1.522  0.00  0.00    -0.057 A 
ATOM     35  C   LIG d   1      10.512   4.427  -2.312  0.00  0.00    -0.040 A 
ATOM     36  H   LIG d   1      10.594   5.520  -0.478  0.00  0.00     0.062 H 
ATOM     37  H   LIG d   1      10.941   3.531  -1.886  0.00  0.00     0.064 H 
BRANCH  32  38
ATOM     38  C   LIG d   1       9.547   7.901  -1.198  0.00  0.00    -0.030 C 
ATOM     39  H   LIG d   1       8.548   7.866  -0.766  0.00  0.00     0.031 H 
ATOM     40  H   LIG d   1       9.650   8.802  -1.804  0.00  0.00     0.031 H 
BRANCH  38  41
ATOM     41  C   LIG d   1      10.588   7.919  -0.077  0.00  0.00    -0.061 C 
ATOM     42  H   LIG d   1      10.364   7.129   0.639  0.00  0.00     0.023 H 
ATOM     43  H   LIG d   1      11.580   7.758  -0.499  0.00  0.00     0.023 H 
ATOM     44  H   LIG d   1      10.560   8.885   0.428  0.00  0.00     0.023 H 
ENDBRANCH  38  41
ENDBRANCH  32  38
ENDBRANCH  25  28
ENDBRANCH  22  24
BRANCH  22  45
ATOM     45  C   LIG d   1      13.036   2.108  -6.752  0.00  0.00    -0.020 C 
ATOM     46  H   LIG d   1      13.686   2.836  -6.268  0.00  0.00     0.032 H 
BRANCH  45  47
ATOM     47  C   LIG d   1      13.773   0.775  -6.888  0.00  0.00    -0.060 C 
ATOM     48  H   LIG d   1      14.841   0.934  -6.743  0.00  0.00     0.023 H 
ATOM     49  H   LIG d   1      13.404   0.077  -6.136  0.00  0.00     0.023 H 
ATOM     50  H   LIG d   1      13.599   0.363  -7.882  0.00  0.00     0.023 H 
ENDBRANCH  45  47
BRANCH  45  51
ATOM     51  C   LIG d   1      12.645   2.618  -8.141  0.00  0.00    -0.060 C 
ATOM     52  H   LIG d   1      12.708   1.802  -8.860  0.00  0.00     0.023 H 
ATOM     53  H   LIG d   1      11.624   3.001  -8.115  0.00  0.00     0.023 H 
ATOM     54  H   LIG d   1      13.324   3.419  -8.438  0.00  0.00     0.023 H 
ENDBRANCH  45  51
ENDBRANCH  22  45
ENDBRANCH  19  22
ENDBRANCH   1  18
BRANCH   7  55
ATOM     55  C   LIG d   1       3.739  -0.140  -7.382  0.00  0.00     0.103 C 
ATOM     56  H   LIG d   1       4.251  -1.102  -7.340  0.00  0.00     0.060 H 
BRANCH  55  57
ATOM     57  C   LIG d   1       2.426  -0.295  -8.153  0.00  0.00    -0.017 C 
ATOM     58  H   LIG d   1       1.622  -0.531  -7.455  0.00  0.00     0.030 H 
ATOM     59  H   LIG d   1       2.197   0.635  -8.671  0.00  0.00     0.030 H 
BRANCH  57  60
ATOM     60  C   LIG d   1       2.564  -1.427  -9.173  0.00  0.00    -0.004 C 
ATOM     61  H   LIG d   1       3.600  -1.764  -9.204  0.00  0.00     0.038 H 
ATOM     62  H   LIG d   1       1.921  -2.257  -8.884  0.00  0.00     0.038 H 
BRANCH  60  63
ATOM     63  S   LIG d   1       2.074  -0.826 -10.813  0.00  0.00    -0.164 SA
BRANCH  63  64
ATOM     64  C   LIG d   1       3.572  -0.028 -11.453  0.00  0.00    -0.018 C 
ATOM     65  H   LIG d   1       4.452  -0.528 -11.047  0.00  0.00     0.034 H 
ATOM     66  H   LIG d   1       3.585  -0.098 -12.541  0.00  0.00     0.034 H 
ATOM     67  H   LIG d   1       3.581   1.021 -11.156  0.00  0.00     0.034 H 
ENDBRANCH  63  64
ENDBRANCH  60  63
ENDBRANCH  57  60
ENDBRANCH  55  57
BRANCH  55  68
ATOM     68  N   LIG d   1       3.455   0.320  -6.022  0.00  0.00    -0.270 N 
ATOM     69  C   LIG d   1       3.721  -0.478  -4.969  0.00  0.00     0.401 C 
ATOM     70  O   LIG d   1       4.198  -1.581  -5.149  0.00  0.00    -0.226 OA
ATOM     71  H   LIG d   1       3.075   1.201  -5.877  0.00  0.00     0.153 HD
BRANCH  69  72
ATOM     72  O   LIG d   1       3.460  -0.054  -3.718  0.00  0.00    -0.445 OA
BRANCH  72  73
ATOM     73  C   LIG d   1       4.530  -0.119  -2.775  0.00  0.00     0.107 C 
BRANCH  73  74
ATOM     74  C   LIG d   1       4.398   1.029  -1.772  0.00  0.00    -0.025 C 
ATOM     75  H   LIG d   1       4.636   1.972  -2.265  0.00  0.00     0.027 H 
ATOM     76  H   LIG d   1       3.376   1.065  -1.392  0.00  0.00     0.027 H 
ATOM     77  H   LIG d   1       5.088   0.868  -0.944  0.00  0.00     0.027 H 
ENDBRANCH  73  74
BRANCH  73  78
ATOM     78  C   LIG d   1       4.472  -1.454  -2.030  0.00  0.00    -0.025 C 
ATOM     79  H   LIG d   1       4.417  -1.270  -0.956  0.00  0.00     0.027 H 
ATOM     80  H   LIG d   1       3.591  -2.011  -2.348  0.00  0.00     0.027 H 
ATOM     81  H   LIG d   1       5.368  -2.034  -2.253  0.00  0.00     0.027 H 
ENDBRANCH  73  78
BRANCH  73  82
ATOM     82  C   LIG d   1       5.867  -0.003  -3.510  0.00  0.00    -0.025 C 
ATOM     83  H   LIG d   1       6.659   0.208  -2.791  0.00  0.00     0.027 H 
ATOM     84  H   LIG d   1       6.082  -0.940  -4.022  0.00  0.00     0.027 H 
ATOM     85  H   LIG d   1       5.812   0.806  -4.239  0.00  0.00     0.027 H 
ENDBRANCH  73  82
ENDBRANCH  72  73
ENDBRANCH  69  72
ENDBRANCH  55  68
ENDBRANCH   7  55
TORSDOF 20
ENDMDL
MODEL 7
REMARK VINA RESULT:      -5.5      3.615      5.152
REMARK  20 active torsions:
REMARK  status: ('A' for Active; 'I' for Inactive)
REMARK    1  A    between atoms: C_1  and  C_2 
REMARK    2  A    between atoms: C_2  and  C_3 
REMARK    3  A    between atoms: C_6  and  N_9 
REMARK       I    between atoms: N_9  and  C_10 
REMARK    4  A    between atoms: C_10  and  C_12 
REMARK    5  A    between atoms: C_12  and  C_14 
REMARK    6  A    between atoms: C_12  and  N_17 
REMARK    7  A    between atoms: C_14  and  C_15 
REMARK    8  A    between atoms: C_14  and  C_16 
REMARK       I    between atoms: N_17  and  C_18 
REMARK    9  A    between atoms: C_18  and  C_20 
REMARK       I    between atoms: N_23  and  C_26 
REMARK   10  A    between atoms: C_26  and  C_28 
REMARK   11  A    between atoms: C_28  and  C_30 
REMARK   12  A    between atoms: C_28  and  N_34 
REMARK   13  A    between atoms: C_30  and  C_31 
REMARK   14  A    between atoms: C_31  and  S_32 
REMARK   15  A    between atoms: S_32  and  C_33 
REMARK       I    between atoms: N_34  and  C_35 
REMARK   16  A    between atoms: C_35  and  O_37 
REMARK   17  A    between atoms: O_37  and  C_38 
REMARK   18  A    between atoms: C_38  and  C_39 
REMARK   19  A    between atoms: C_38  and  C_40 
REMARK   20  A    between atoms: C_38  and  C_41 
ROOT
ATOM      1  C   LIG d   1       8.926   1.481  -5.168  0.00  0.00     0.038 C 
ATOM      2  C   LIG d   1      10.246   1.232  -4.434  0.00  0.00    -0.026 C 
ATOM      3  C   LIG d   1      11.239   2.344  -4.786  0.00  0.00     0.015 C 
ATOM      4  N   LIG d   1      10.620   3.643  -4.490  0.00  0.00    -0.300 N 
ATOM      5  C   LIG d   1       9.305   3.948  -5.074  0.00  0.00     0.015 C 
ATOM      6  C   LIG d   1       8.334   2.818  -4.717  0.00  0.00    -0.026 C 
ATOM      7  C   LIG d   1      11.245   4.537  -3.699  0.00  0.00     0.236 C 
ATOM      8  O   LIG d   1      12.377   4.326  -3.322  0.00  0.00    -0.274 OA
ATOM      9  H   LIG d   1       9.108   1.508  -6.243  0.00  0.00     0.040 H 
ATOM     10  H   LIG d   1      10.069   1.230  -3.358  0.00  0.00     0.029 H 
ATOM     11  H   LIG d   1      10.655   0.269  -4.738  0.00  0.00     0.029 H 
ATOM     12  H   LIG d   1      12.144   2.227  -4.192  0.00  0.00     0.046 H 
ATOM     13  H   LIG d   1      11.486   2.290  -5.846  0.00  0.00     0.046 H 
ATOM     14  H   LIG d   1       8.936   4.889  -4.667  0.00  0.00     0.046 H 
ATOM     15  H   LIG d   1       9.395   4.026  -6.156  0.00  0.00     0.046 H 
ATOM     16  H   LIG d   1       7.383   2.984  -5.223  0.00  0.00     0.029 H 
ATOM     17  H   LIG d   1       8.175   2.801  -3.639  0.00  0.00     0.029 H 
ENDROOT
BRANCH   1  18
ATOM     18  C   LIG d   1       7.958   0.370  -4.850  0.00  0.00     0.217 C 
ATOM     19  N   LIG d   1       6.652   0.647  -4.664  0.00  0.00    -0.303 N 
ATOM     20  H   LIG d   1       6.335   1.561  -4.735  0.00  0.00     0.149 HD
ATOM     21  O   LIG d   1       8.355  -0.773  -4.763  0.00  0.00    -0.276 OA
BRANCH  19  22
ATOM     22  C   LIG d   1       5.712  -0.434  -4.355  0.00  0.00     0.102 C 
ATOM     23  H   LIG d   1       6.263  -1.304  -3.996  0.00  0.00     0.060 H 
BRANCH  22  24
ATOM     24  C   LIG d   1       4.944  -0.802  -5.598  0.00  0.00     0.238 C 
ATOM     25  N   LIG d   1       4.814   0.091  -6.599  0.00  0.00    -0.284 N 
ATOM     26  H   LIG d   1       5.223   0.967  -6.523  0.00  0.00     0.155 HD
ATOM     27  O   LIG d   1       4.442  -1.903  -5.697  0.00  0.00    -0.273 OA
BRANCH  25  28
ATOM     28  C   LIG d   1       4.091  -0.248  -7.748  0.00  0.00     0.034 A 
ATOM     29  C   LIG d   1       2.726   0.002  -7.809  0.00  0.00    -0.040 A 
ATOM     30  C   LIG d   1       2.013  -0.331  -8.944  0.00  0.00    -0.057 A 
ATOM     31  H   LIG d   1       2.221   0.458  -6.969  0.00  0.00     0.064 H 
ATOM     32  C   LIG d   1       2.658  -0.914 -10.020  0.00  0.00    -0.048 A 
ATOM     33  H   LIG d   1       0.952  -0.137  -8.992  0.00  0.00     0.062 H 
ATOM     34  C   LIG d   1       4.016  -1.169  -9.961  0.00  0.00    -0.057 A 
ATOM     35  C   LIG d   1       4.734  -0.833  -8.830  0.00  0.00    -0.040 A 
ATOM     36  H   LIG d   1       4.516  -1.628 -10.801  0.00  0.00     0.062 H 
ATOM     37  H   LIG d   1       5.796  -1.028  -8.786  0.00  0.00     0.064 H 
BRANCH  32  38
ATOM     38  C   LIG d   1       1.878  -1.278 -11.257  0.00  0.00    -0.030 C 
ATOM     39  H   LIG d   1       1.038  -0.594 -11.372  0.00  0.00     0.031 H 
ATOM     40  H   LIG d   1       1.506  -2.298 -11.165  0.00  0.00     0.031 H 
BRANCH  38  41
ATOM     41  C   LIG d   1       2.789  -1.176 -12.482  0.00  0.00    -0.061 C 
ATOM     42  H   LIG d   1       2.181  -1.144 -13.385  0.00  0.00     0.023 H 
ATOM     43  H   LIG d   1       3.389  -0.269 -12.415  0.00  0.00     0.023 H 
ATOM     44  H   LIG d   1       3.447  -2.044 -12.517  0.00  0.00     0.023 H 
ENDBRANCH  38  41
ENDBRANCH  32  38
ENDBRANCH  25  28
ENDBRANCH  22  24
BRANCH  22  45
ATOM     45  C   LIG d   1       4.737   0.034  -3.273  0.00  0.00    -0.020 C 
ATOM     46  H   LIG d   1       3.763   0.229  -3.721  0.00  0.00     0.032 H 
BRANCH  45  47
ATOM     47  C   LIG d   1       4.599  -1.052  -2.206  0.00  0.00    -0.060 C 
ATOM     48  H   LIG d   1       5.469  -1.707  -2.239  0.00  0.00     0.023 H 
ATOM     49  H   LIG d   1       4.531  -0.588  -1.222  0.00  0.00     0.023 H 
ATOM     50  H   LIG d   1       3.698  -1.635  -2.395  0.00  0.00     0.023 H 
ENDBRANCH  45  47
BRANCH  45  51
ATOM     51  C   LIG d   1       5.268   1.317  -2.630  0.00  0.00    -0.060 C 
ATOM     52  H   LIG d   1       5.539   1.119  -1.593  0.00  0.00     0.023 H 
ATOM     53  H   LIG d   1       6.146   1.662  -3.176  0.00  0.00     0.023 H 
ATOM     54  H   LIG d   1       4.496   2.087  -2.664  0.00  0.00     0.023 H 
ENDBRANCH  45  51
ENDBRANCH  22  45
ENDBRANCH  19  22
ENDBRANCH   1  18
BRANCH   7  55
ATOM     55  C   LIG d   1      10.535   5.800  -3.283  0.00  0.00     0.103 C 
ATOM     56  H   LIG d   1       9.457   5.644  -3.330  0.00  0.00     0.060 H 
BRANCH  55  57
ATOM     57  C   LIG d   1      10.926   6.940  -4.227  0.00  0.00    -0.017 C 
ATOM     58  H   LIG d   1      11.414   7.731  -3.657  0.00  0.00     0.030 H 
ATOM     59  H   LIG d   1      11.611   6.564  -4.986  0.00  0.00     0.030 H 
BRANCH  57  60
ATOM     60  C   LIG d   1       9.671   7.497  -4.902  0.00  0.00    -0.004 C 
ATOM     61  H   LIG d   1       9.533   7.010  -5.868  0.00  0.00     0.038 H 
ATOM     62  H   LIG d   1       8.804   7.304  -4.272  0.00  0.00     0.038 H 
BRANCH  60  63
ATOM     63  S   LIG d   1       9.858   9.284  -5.145  0.00  0.00    -0.164 SA
BRANCH  63  64
ATOM     64  C   LIG d   1       9.772   9.494  -6.945  0.00  0.00    -0.018 C 
ATOM     65  H   LIG d   1       9.761   8.514  -7.424  0.00  0.00     0.034 H 
ATOM     66  H   LIG d   1       8.862  10.034  -7.205  0.00  0.00     0.034 H 
ATOM     67  H   LIG d   1      10.641  10.056  -7.288  0.00  0.00     0.034 H 
ENDBRANCH  63  64
ENDBRANCH  60  63
ENDBRANCH  57  60
ENDBRANCH  55  57
BRANCH  55  68
ATOM     68  N   LIG d   1      10.919   6.147  -1.913  0.00  0.00    -0.270 N 
ATOM     69  C   LIG d   1      10.044   6.778  -1.106  0.00  0.00     0.401 C 
ATOM     70  O   LIG d   1       8.934   7.060  -1.516  0.00  0.00    -0.226 OA
ATOM     71  H   LIG d   1      11.804   5.923  -1.586  0.00  0.00     0.153 HD
BRANCH  69  72
ATOM     72  O   LIG d   1      10.397   7.098   0.153  0.00  0.00    -0.445 OA
BRANCH  72  73
ATOM     73  C   LIG d   1      11.116   8.318   0.335  0.00  0.00     0.107 C 
BRANCH  73  74
ATOM     74  C   LIG d   1      12.387   8.294  -0.516  0.00  0.00    -0.025 C 
ATOM     75  H   LIG d   1      13.173   8.855  -0.012  0.00  0.00     0.027 H 
ATOM     76  H   LIG d   1      12.710   7.262  -0.659  0.00  0.00     0.027 H 
ATOM     77  H   LIG d   1      12.183   8.748  -1.486  0.00  0.00     0.027 H 
ENDBRANCH  73  74
BRANCH  73  78
ATOM     78  C   LIG d   1      10.238   9.496  -0.094  0.00  0.00    -0.025 C 
ATOM     79  H   LIG d   1      10.451   9.748  -1.134  0.00  0.00     0.027 H 
ATOM     80  H   LIG d   1       9.188   9.222   0.006  0.00  0.00     0.027 H 
ATOM     81  H   LIG d   1      10.451  10.357   0.539  0.00  0.00     0.027 H 
ENDBRANCH  73  78
BRANCH  73  82
ATOM     82  C   LIG d   1      11.492   8.475   1.810  0.00  0.00    -0.025 C 
ATOM     83  H   LIG d   1      11.784   7.506   2.214  0.00  0.00     0.027 H 
ATOM     84  H   LIG d   1      12.325   9.172   1.901  0.00  0.00     0.027 H 
ATOM     85  H   LIG d   1      10.635   8.857   2.365  0.00  0.00     0.027 H 
ENDBRANCH  73  82
ENDBRANCH  72  73
ENDBRANCH  69  72
ENDBRANCH  55  68
ENDBRANCH   7  55
TORSDOF 20
ENDMDL
MODEL 8
REMARK VINA RESULT:      -5.5      3.161     10.222
REMARK  20 active torsions:
REMARK  status: ('A' for Active; 'I' for Inactive)
REMARK    1  A    between atoms: C_1  and  C_2 
REMARK    2  A    between atoms: C_2  and  C_3 
REMARK    3  A    between atoms: C_6  and  N_9 
REMARK       I    between atoms: N_9  and  C_10 
REMARK    4  A    between atoms: C_10  and  C_12 
REMARK    5  A    between atoms: C_12  and  C_14 
REMARK    6  A    between atoms: C_12  and  N_17 
REMARK    7  A    between atoms: C_14  and  C_15 
REMARK    8  A    between atoms: C_14  and  C_16 
REMARK       I    between atoms: N_17  and  C_18 
REMARK    9  A    between atoms: C_18  and  C_20 
REMARK       I    between atoms: N_23  and  C_26 
REMARK   10  A    between atoms: C_26  and  C_28 
REMARK   11  A    between atoms: C_28  and  C_30 
REMARK   12  A    between atoms: C_28  and  N_34 
REMARK   13  A    between atoms: C_30  and  C_31 
REMARK   14  A    between atoms: C_31  and  S_32 
REMARK   15  A    between atoms: S_32  and  C_33 
REMARK       I    between atoms: N_34  and  C_35 
REMARK   16  A    between atoms: C_35  and  O_37 
REMARK   17  A    between atoms: O_37  and  C_38 
REMARK   18  A    between atoms: C_38  and  C_39 
REMARK   19  A    between atoms: C_38  and  C_40 
REMARK   20  A    between atoms: C_38  and  C_41 
ROOT
ATOM      1  C   LIG d   1      10.328   4.702  -3.900  0.00  0.00     0.038 C 
ATOM      2  C   LIG d   1       9.630   4.710  -5.262  0.00  0.00    -0.026 C 
ATOM      3  C   LIG d   1      10.019   3.449  -6.039  0.00  0.00     0.015 C 
ATOM      4  N   LIG d   1       9.717   2.272  -5.213  0.00  0.00    -0.300 N 
ATOM      5  C   LIG d   1      10.265   2.205  -3.851  0.00  0.00     0.015 C 
ATOM      6  C   LIG d   1       9.871   3.481  -3.099  0.00  0.00    -0.026 C 
ATOM      7  C   LIG d   1       8.951   1.273  -5.696  0.00  0.00     0.236 C 
ATOM      8  O   LIG d   1       8.605   1.281  -6.857  0.00  0.00    -0.274 OA
ATOM      9  H   LIG d   1      11.407   4.659  -4.046  0.00  0.00     0.040 H 
ATOM     10  H   LIG d   1       8.549   4.728  -5.118  0.00  0.00     0.029 H 
ATOM     11  H   LIG d   1       9.936   5.592  -5.823  0.00  0.00     0.029 H 
ATOM     12  H   LIG d   1       9.449   3.401  -6.967  0.00  0.00     0.046 H 
ATOM     13  H   LIG d   1      11.085   3.473  -6.264  0.00  0.00     0.046 H 
ATOM     14  H   LIG d   1       9.856   1.337  -3.335  0.00  0.00     0.046 H 
ATOM     15  H   LIG d   1      11.351   2.128  -3.898  0.00  0.00     0.046 H 
ATOM     16  H   LIG d   1      10.352   3.489  -2.120  0.00  0.00     0.029 H 
ATOM     17  H   LIG d   1       8.789   3.511  -2.974  0.00  0.00     0.029 H 
ENDROOT
BRANCH   1  18
ATOM     18  C   LIG d   1       9.973   5.959  -3.147  0.00  0.00     0.217 C 
ATOM     19  N   LIG d   1      10.798   6.426  -2.190  0.00  0.00    -0.303 N 
ATOM     20  H   LIG d   1      11.620   5.954  -1.985  0.00  0.00     0.149 HD
ATOM     21  O   LIG d   1       8.945   6.549  -3.404  0.00  0.00    -0.276 OA
BRANCH  19  22
ATOM     22  C   LIG d   1      10.452   7.647  -1.458  0.00  0.00     0.102 C 
ATOM     23  H   LIG d   1       9.432   7.569  -1.082  0.00  0.00     0.060 H 
BRANCH  22  24
ATOM     24  C   LIG d   1      10.558   8.833  -2.381  0.00  0.00     0.238 C 
ATOM     25  N   LIG d   1       9.457   9.547  -2.690  0.00  0.00    -0.284 N 
ATOM     26  H   LIG d   1       8.599   9.303  -2.311  0.00  0.00     0.155 HD
ATOM     27  O   LIG d   1      11.634   9.145  -2.847  0.00  0.00    -0.273 OA
BRANCH  25  28
ATOM     28  C   LIG d   1       9.554  10.640  -3.558  0.00  0.00     0.034 A 
ATOM     29  C   LIG d   1       9.467  10.449  -4.931  0.00  0.00    -0.040 A 
ATOM     30  C   LIG d   1       9.561  11.529  -5.786  0.00  0.00    -0.057 A 
ATOM     31  H   LIG d   1       9.325   9.454  -5.330  0.00  0.00     0.064 H 
ATOM     32  C   LIG d   1       9.743  12.801  -5.275  0.00  0.00    -0.048 A 
ATOM     33  H   LIG d   1       9.494  11.381  -6.853  0.00  0.00     0.062 H 
ATOM     34  C   LIG d   1       9.835  12.995  -3.910  0.00  0.00    -0.057 A 
ATOM     35  C   LIG d   1       9.736  11.920  -3.050  0.00  0.00    -0.040 A 
ATOM     36  H   LIG d   1       9.982  13.990  -3.515  0.00  0.00     0.062 H 
ATOM     37  H   LIG d   1       9.804  12.072  -1.983  0.00  0.00     0.064 H 
BRANCH  32  38
ATOM     38  C   LIG d   1       9.846  13.979  -6.211  0.00  0.00    -0.030 C 
ATOM     39  H   LIG d   1      10.806  14.475  -6.067  0.00  0.00     0.031 H 
ATOM     40  H   LIG d   1       9.040  14.682  -6.000  0.00  0.00     0.031 H 
BRANCH  38  41
ATOM     41  C   LIG d   1       9.735  13.493  -7.657  0.00  0.00    -0.061 C 
ATOM     42  H   LIG d   1      10.639  13.766  -8.202  0.00  0.00     0.023 H 
ATOM     43  H   LIG d   1       9.617  12.409  -7.668  0.00  0.00     0.023 H 
ATOM     44  H   LIG d   1       8.871  13.958  -8.130  0.00  0.00     0.023 H 
ENDBRANCH  38  41
ENDBRANCH  32  38
ENDBRANCH  25  28
ENDBRANCH  22  24
BRANCH  22  45
ATOM     45  C   LIG d   1      11.416   7.827  -0.284  0.00  0.00    -0.020 C 
ATOM     46  H   LIG d   1      12.427   7.978  -0.662  0.00  0.00     0.032 H 
BRANCH  45  47
ATOM     47  C   LIG d   1      10.994   9.043   0.542  0.00  0.00    -0.060 C 
ATOM     48  H   LIG d   1      10.454   8.711   1.428  0.00  0.00     0.023 H 
ATOM     49  H   LIG d   1      11.880   9.602   0.845  0.00  0.00     0.023 H 
ATOM     50  H   LIG d   1      10.348   9.684  -0.059  0.00  0.00     0.023 H 
ENDBRANCH  45  47
BRANCH  45  51
ATOM     51  C   LIG d   1      11.384   6.576   0.598  0.00  0.00    -0.060 C 
ATOM     52  H   LIG d   1      11.838   5.743   0.063  0.00  0.00     0.023 H 
ATOM     53  H   LIG d   1      11.939   6.765   1.517  0.00  0.00     0.023 H 
ATOM     54  H   LIG d   1      10.350   6.332   0.843  0.00  0.00     0.023 H 
ENDBRANCH  45  51
ENDBRANCH  22  45
ENDBRANCH  19  22
ENDBRANCH   1  18
BRANCH   7  55
ATOM     55  C   LIG d   1       8.526   0.146  -4.790  0.00  0.00     0.103 C 
ATOM     56  H   LIG d   1       8.854   0.355  -3.771  0.00  0.00     0.060 H 
BRANCH  55  57
ATOM     57  C   LIG d   1       9.160  -1.162  -5.271  0.00  0.00    -0.017 C 
ATOM     58  H   LIG d   1       9.079  -1.226  -6.357  0.00  0.00     0.030 H 
ATOM     59  H   LIG d   1      10.210  -1.184  -4.983  0.00  0.00     0.030 H 
BRANCH  57  60
ATOM     60  C   LIG d   1       8.431  -2.347  -4.634  0.00  0.00    -0.004 C 
ATOM     61  H   LIG d   1       9.114  -2.877  -3.969  0.00  0.00     0.038 H 
ATOM     62  H   LIG d   1       7.578  -1.984  -4.063  0.00  0.00     0.038 H 
BRANCH  60  63
ATOM     63  S   LIG d   1       7.856  -3.473  -5.935  0.00  0.00    -0.164 SA
BRANCH  63  64
ATOM     64  C   LIG d   1       6.308  -4.150  -5.274  0.00  0.00    -0.018 C 
ATOM     65  H   LIG d   1       5.639  -3.332  -5.006  0.00  0.00     0.034 H 
ATOM     66  H   LIG d   1       5.833  -4.775  -6.031  0.00  0.00     0.034 H 
ATOM     67  H   LIG d   1       6.522  -4.750  -4.389  0.00  0.00     0.034 H 
ENDBRANCH  63  64
ENDBRANCH  60  63
ENDBRANCH  57  60
ENDBRANCH  55  57
BRANCH  55  68
ATOM     68  N   LIG d   1       7.068   0.020  -4.818  0.00  0.00    -0.270 N 
ATOM     69  C   LIG d   1       6.313   0.722  -3.950  0.00  0.00     0.401 C 
ATOM     70  O   LIG d   1       6.843   1.460  -3.143  0.00  0.00    -0.226 OA
ATOM     71  H   LIG d   1       6.644  -0.568  -5.463  0.00  0.00     0.153 HD
BRANCH  69  72
ATOM     72  O   LIG d   1       4.972   0.607  -3.976  0.00  0.00    -0.445 OA
BRANCH  72  73
ATOM     73  C   LIG d   1       4.358  -0.073  -2.880  0.00  0.00     0.107 C 
BRANCH  73  74
ATOM     74  C   LIG d   1       4.443   0.799  -1.626  0.00  0.00    -0.025 C 
ATOM     75  H   LIG d   1       4.107   1.809  -1.862  0.00  0.00     0.027 H 
ATOM     76  H   LIG d   1       3.809   0.377  -0.846  0.00  0.00     0.027 H 
ATOM     77  H   LIG d   1       5.475   0.832  -1.276  0.00  0.00     0.027 H 
ENDBRANCH  73  74
BRANCH  73  78
ATOM     78  C   LIG d   1       2.890  -0.350  -3.209  0.00  0.00    -0.025 C 
ATOM     79  H   LIG d   1       2.585   0.266  -4.056  0.00  0.00     0.027 H 
ATOM     80  H   LIG d   1       2.766  -1.403  -3.462  0.00  0.00     0.027 H 
ATOM     81  H   LIG d   1       2.272  -0.109  -2.344  0.00  0.00     0.027 H 
ENDBRANCH  73  78
BRANCH  73  82
ATOM     82  C   LIG d   1       5.082  -1.398  -2.630  0.00  0.00    -0.025 C 
ATOM     83  H   LIG d   1       5.158  -1.951  -3.566  0.00  0.00     0.027 H 
ATOM     84  H   LIG d   1       6.082  -1.199  -2.244  0.00  0.00     0.027 H 
ATOM     85  H   LIG d   1       4.522  -1.987  -1.904  0.00  0.00     0.027 H 
ENDBRANCH  73  82
ENDBRANCH  72  73
ENDBRANCH  69  72
ENDBRANCH  55  68
ENDBRANCH   7  55
TORSDOF 20
ENDMDL
MODEL 9
REMARK VINA RESULT:      -5.5      8.954     12.446
REMARK  20 active torsions:
REMARK  status: ('A' for Active; 'I' for Inactive)
REMARK    1  A    between atoms: C_1  and  C_2 
REMARK    2  A    between atoms: C_2  and  C_3 
REMARK    3  A    between atoms: C_6  and  N_9 
REMARK       I    between atoms: N_9  and  C_10 
REMARK    4  A    between atoms: C_10  and  C_12 
REMARK    5  A    between atoms: C_12  and  C_14 
REMARK    6  A    between atoms: C_12  and  N_17 
REMARK    7  A    between atoms: C_14  and  C_15 
REMARK    8  A    between atoms: C_14  and  C_16 
REMARK       I    between atoms: N_17  and  C_18 
REMARK    9  A    between atoms: C_18  and  C_20 
REMARK       I    between atoms: N_23  and  C_26 
REMARK   10  A    between atoms: C_26  and  C_28 
REMARK   11  A    between atoms: C_28  and  C_30 
REMARK   12  A    between atoms: C_28  and  N_34 
REMARK   13  A    between atoms: C_30  and  C_31 
REMARK   14  A    between atoms: C_31  and  S_32 
REMARK   15  A    between atoms: S_32  and  C_33 
REMARK       I    between atoms: N_34  and  C_35 
REMARK   16  A    between atoms: C_35  and  O_37 
REMARK   17  A    between atoms: O_37  and  C_38 
REMARK   18  A    between atoms: C_38  and  C_39 
REMARK   19  A    between atoms: C_38  and  C_40 
REMARK   20  A    between atoms: C_38  and  C_41 
ROOT
ATOM      1  C   LIG d   1       4.107   0.147  -8.137  0.00  0.00     0.038 C 
ATOM      2  C   LIG d   1       2.587  -0.027  -8.189  0.00  0.00    -0.026 C 
ATOM      3  C   LIG d   1       2.079   0.371  -9.578  0.00  0.00     0.015 C 
ATOM      4  N   LIG d   1       2.810  -0.404 -10.590  0.00  0.00    -0.300 N 
ATOM      5  C   LIG d   1       4.279  -0.379 -10.573  0.00  0.00     0.015 C 
ATOM      6  C   LIG d   1       4.762  -0.770  -9.172  0.00  0.00    -0.026 C 
ATOM      7  C   LIG d   1       2.145  -1.124 -11.515  0.00  0.00     0.236 C 
ATOM      8  O   LIG d   1       0.938  -1.042 -11.595  0.00  0.00    -0.274 OA
ATOM      9  H   LIG d   1       4.361   1.184  -8.356  0.00  0.00     0.040 H 
ATOM     10  H   LIG d   1       2.333  -1.069  -7.994  0.00  0.00     0.029 H 
ATOM     11  H   LIG d   1       2.122   0.608  -7.435  0.00  0.00     0.029 H 
ATOM     12  H   LIG d   1       1.013   0.156  -9.652  0.00  0.00     0.046 H 
ATOM     13  H   LIG d   1       2.251   1.436  -9.738  0.00  0.00     0.046 H 
ATOM     14  H   LIG d   1       4.664  -1.090 -11.303  0.00  0.00     0.046 H 
ATOM     15  H   LIG d   1       4.630   0.624 -10.814  0.00  0.00     0.046 H 
ATOM     16  H   LIG d   1       5.846  -0.662  -9.118  0.00  0.00     0.029 H 
ATOM     17  H   LIG d   1       4.489  -1.805  -8.968  0.00  0.00     0.029 H 
ENDROOT
BRANCH   1  18
ATOM     18  C   LIG d   1       4.606  -0.212  -6.761  0.00  0.00     0.217 C 
ATOM     19  N   LIG d   1       3.840  -0.953  -5.938  0.00  0.00    -0.303 N 
ATOM     20  H   LIG d   1       2.966  -1.257  -6.231  0.00  0.00     0.149 HD
ATOM     21  O   LIG d   1       5.699   0.168  -6.395  0.00  0.00    -0.276 OA
BRANCH  19  22
ATOM     22  C   LIG d   1       4.325  -1.301  -4.600  0.00  0.00     0.102 C 
ATOM     23  H   LIG d   1       5.219  -0.718  -4.374  0.00  0.00     0.060 H 
BRANCH  22  24
ATOM     24  C   LIG d   1       4.660  -2.770  -4.553  0.00  0.00     0.238 C 
ATOM     25  N   LIG d   1       5.282  -3.353  -5.598  0.00  0.00    -0.284 N 
ATOM     26  H   LIG d   1       5.522  -2.825  -6.374  0.00  0.00     0.155 HD
ATOM     27  O   LIG d   1       4.368  -3.428  -3.576  0.00  0.00    -0.273 OA
BRANCH  25  28
ATOM     28  C   LIG d   1       5.580  -4.719  -5.559  0.00  0.00     0.034 A 
ATOM     29  C   LIG d   1       4.563  -5.657  -5.678  0.00  0.00    -0.040 A 
ATOM     30  C   LIG d   1       4.859  -7.005  -5.641  0.00  0.00    -0.057 A 
ATOM     31  H   LIG d   1       3.539  -5.332  -5.799  0.00  0.00     0.064 H 
ATOM     32  C   LIG d   1       6.169  -7.421  -5.486  0.00  0.00    -0.048 A 
ATOM     33  H   LIG d   1       4.069  -7.735  -5.733  0.00  0.00     0.062 H 
ATOM     34  C   LIG d   1       7.184  -6.491  -5.363  0.00  0.00    -0.057 A 
ATOM     35  C   LIG d   1       6.894  -5.142  -5.404  0.00  0.00    -0.040 A 
ATOM     36  H   LIG d   1       8.205  -6.820  -5.237  0.00  0.00     0.062 H 
ATOM     37  H   LIG d   1       7.687  -4.414  -5.312  0.00  0.00     0.064 H 
BRANCH  32  38
ATOM     38  C   LIG d   1       6.491  -8.894  -5.445  0.00  0.00    -0.030 C 
ATOM     39  H   LIG d   1       7.555  -9.039  -5.626  0.00  0.00     0.031 H 
ATOM     40  H   LIG d   1       5.918  -9.412  -6.215  0.00  0.00     0.031 H 
BRANCH  38  41
ATOM     41  C   LIG d   1       6.125  -9.458  -4.071  0.00  0.00    -0.061 C 
ATOM     42  H   LIG d   1       5.229  -8.960  -3.701  0.00  0.00     0.023 H 
ATOM     43  H   LIG d   1       5.939 -10.529  -4.155  0.00  0.00     0.023 H 
ATOM     44  H   LIG d   1       6.949  -9.286  -3.378  0.00  0.00     0.023 H 
ENDBRANCH  38  41
ENDBRANCH  32  38
ENDBRANCH  25  28
ENDBRANCH  22  24
BRANCH  22  45
ATOM     45  C   LIG d   1       3.240  -0.992  -3.568  0.00  0.00    -0.020 C 
ATOM     46  H   LIG d   1       2.779  -1.922  -3.235  0.00  0.00     0.032 H 
BRANCH  45  47
ATOM     47  C   LIG d   1       3.863  -0.275  -2.370  0.00  0.00    -0.060 C 
ATOM     48  H   LIG d   1       4.069  -0.997  -1.580  0.00  0.00     0.023 H 
ATOM     49  H   LIG d   1       4.794   0.203  -2.676  0.00  0.00     0.023 H 
ATOM     50  H   LIG d   1       3.171   0.482  -1.999  0.00  0.00     0.023 H 
ENDBRANCH  45  47
BRANCH  45  51
ATOM     51  C   LIG d   1       2.175  -0.095  -4.202  0.00  0.00    -0.060 C 
ATOM     52  H   LIG d   1       1.550  -0.688  -4.870  0.00  0.00     0.023 H 
ATOM     53  H   LIG d   1       1.556   0.344  -3.420  0.00  0.00     0.023 H 
ATOM     54  H   LIG d   1       2.660   0.700  -4.769  0.00  0.00     0.023 H 
ENDBRANCH  45  51
ENDBRANCH  22  45
ENDBRANCH  19  22
ENDBRANCH   1  18
BRANCH   7  55
ATOM     55  C   LIG d   1       2.903  -2.031 -12.450  0.00  0.00     0.103 C 
ATOM     56  H   LIG d   1       3.928  -1.674 -12.551  0.00  0.00     0.060 H 
BRANCH  55  57
ATOM     57  C   LIG d   1       2.226  -2.028 -13.823  0.00  0.00    -0.017 C 
ATOM     58  H   LIG d   1       1.668  -2.956 -13.954  0.00  0.00     0.030 H 
ATOM     59  H   LIG d   1       1.543  -1.182 -13.890  0.00  0.00     0.030 H 
BRANCH  57  60
ATOM     60  C   LIG d   1       3.290  -1.914 -14.916  0.00  0.00    -0.004 C 
ATOM     61  H   LIG d   1       3.738  -2.893 -15.089  0.00  0.00     0.038 H 
ATOM     62  H   LIG d   1       2.827  -1.559 -15.837  0.00  0.00     0.038 H 
BRANCH  60  63
ATOM     63  S   LIG d   1       4.573  -0.744 -14.393  0.00  0.00    -0.164 SA
BRANCH  63  64
ATOM     64  C   LIG d   1       5.395  -0.274 -15.940  0.00  0.00    -0.018 C 
ATOM     65  H   LIG d   1       6.173   0.461 -15.729  0.00  0.00     0.034 H 
ATOM     66  H   LIG d   1       5.843  -1.156 -16.396  0.00  0.00     0.034 H 
ATOM     67  H   LIG d   1       4.664   0.158 -16.624  0.00  0.00     0.034 H 
ENDBRANCH  63  64
ENDBRANCH  60  63
ENDBRANCH  57  60
ENDBRANCH  55  57
BRANCH  55  68
ATOM     68  N   LIG d   1       2.909  -3.392 -11.912  0.00  0.00    -0.270 N 
ATOM     69  C   LIG d   1       4.076  -3.984 -11.589  0.00  0.00     0.401 C 
ATOM     70  O   LIG d   1       5.123  -3.388 -11.745  0.00  0.00    -0.226 OA
ATOM     71  H   LIG d   1       2.074  -3.868 -11.787  0.00  0.00     0.153 HD
BRANCH  69  72
ATOM     72  O   LIG d   1       4.082  -5.236 -11.094  0.00  0.00    -0.445 OA
BRANCH  72  73
ATOM     73  C   LIG d   1       4.172  -5.372  -9.674  0.00  0.00     0.107 C 
BRANCH  73  74
ATOM     74  C   LIG d   1       5.644  -5.398  -9.256  0.00  0.00    -0.025 C 
ATOM     75  H   LIG d   1       6.162  -6.190  -9.797  0.00  0.00     0.027 H 
ATOM     76  H   LIG d   1       6.105  -4.437  -9.489  0.00  0.00     0.027 H 
ATOM     77  H   LIG d   1       5.713  -5.584  -8.185  0.00  0.00     0.027 H 
ENDBRANCH  73  74
BRANCH  73  78
ATOM     78  C   LIG d   1       3.473  -4.187  -9.004  0.00  0.00    -0.025 C 
ATOM     79  H   LIG d   1       2.399  -4.255  -9.176  0.00  0.00     0.027 H 
ATOM     80  H   LIG d   1       3.671  -4.208  -7.932  0.00  0.00     0.027 H 
ATOM     81  H   LIG d   1       3.852  -3.256  -9.425  0.00  0.00     0.027 H 
ENDBRANCH  73  78
BRANCH  73  82
ATOM     82  C   LIG d   1       3.496  -6.674  -9.242  0.00  0.00    -0.025 C 
ATOM     83  H   LIG d   1       2.519  -6.752  -9.719  0.00  0.00     0.027 H 
ATOM     84  H   LIG d   1       4.114  -7.521  -9.539  0.00  0.00     0.027 H 
ATOM     85  H   LIG d   1       3.372  -6.677  -8.158  0.00  0.00     0.027 H 
ENDBRANCH  73  82
ENDBRANCH  72  73
ENDBRANCH  69  72
ENDBRANCH  55  68
ENDBRANCH   7  55
TORSDOF 20
ENDMDL
