MODEL 1
REMARK VINA RESULT:      -6.4      0.000      0.000
REMARK  7 active torsions:
REMARK  status: ('A' for Active; 'I' for Inactive)
REMARK    1  A    between atoms: C_1  and  C_2 
REMARK    2  A    between atoms: C_2  and  C_3 
REMARK    3  A    between atoms: C_3  and  C_4 
REMARK    4  A    between atoms: C_5  and  C_14 
REMARK    5  A    between atoms: C_11  and  C_13 
REMARK    6  A    between atoms: C_14  and  N_15 
REMARK    7  A    between atoms: C_19  and  C_20 
ROOT
ATOM      1  C   LIG d   1       3.096  -0.230  -8.280  0.00  0.00     0.020 A 
ATOM      2  C   LIG d   1       3.921  -0.933  -7.456  0.00  0.00     0.070 A 
ATOM      3  N   LIG d   1       4.112  -2.241  -7.646  0.00  0.00    -0.238 NA
ATOM      4  C   LIG d   1       3.534  -2.888  -8.621  0.00  0.00     0.120 A 
ATOM      5  N   LIG d   1       2.703  -2.254  -9.484  0.00  0.00    -0.202 N 
ATOM      6  C   LIG d   1       2.463  -0.914  -9.337  0.00  0.00     0.163 A 
ATOM      7  N   LIG d   1       1.627  -0.551 -10.298  0.00  0.00    -0.211 NA
ATOM      8  C   LIG d   1       1.327  -1.604 -11.048  0.00  0.00     0.149 A 
ATOM      9  N   LIG d   1       1.955  -2.663 -10.595  0.00  0.00    -0.149 NA
ATOM     10  H   LIG d   1       3.719  -3.945  -8.742  0.00  0.00     0.105 H 
ENDROOT
BRANCH   2  11
ATOM     11  C   LIG d   1       4.618  -0.232  -6.319  0.00  0.00     0.071 C 
ATOM     12  H   LIG d   1       5.672  -0.548  -6.284  0.00  0.00     0.056 H 
ATOM     13  H   LIG d   1       4.568   0.856  -6.473  0.00  0.00     0.056 H 
BRANCH  11  14
ATOM     14  N   LIG d   1       3.962  -0.578  -5.057  0.00  0.00    -0.282 N 
ATOM     15  C   LIG d   1       4.383  -1.508  -4.151  0.00  0.00     0.313 A 
ATOM     16  N   LIG d   1       3.531  -1.525  -3.149  0.00  0.00    -0.193 N 
ATOM     17  C   LIG d   1       2.561  -0.635  -3.382  0.00  0.00     0.188 A 
ATOM     18  H   LIG d   1       3.517  -2.125  -2.228  0.00  0.00     0.455 HD
ATOM     19  C   LIG d   1       2.808  -0.033  -4.563  0.00  0.00     0.074 A 
ATOM     20  H   LIG d   1       1.721  -0.432  -2.733  0.00  0.00     0.139 H 
ATOM     21  H   LIG d   1       2.208   0.734  -5.032  0.00  0.00     0.087 H 
BRANCH  15  22
ATOM     22  C   LIG d   1       5.591  -2.351  -4.274  0.00  0.00     0.189 A 
ATOM     23  N   LIG d   1       5.540  -3.478  -4.976  0.00  0.00    -0.245 NA
ATOM     24  C   LIG d   1       6.592  -4.257  -5.109  0.00  0.00     0.029 A 
ATOM     25  C   LIG d   1       7.801  -3.929  -4.520  0.00  0.00    -0.041 A 
ATOM     26  H   LIG d   1       6.513  -5.165  -5.688  0.00  0.00     0.083 H 
ATOM     27  C   LIG d   1       7.901  -2.761  -3.777  0.00  0.00    -0.023 A 
ATOM     28  H   LIG d   1       8.658  -4.575  -4.637  0.00  0.00     0.063 H 
ATOM     29  C   LIG d   1       6.779  -1.956  -3.656  0.00  0.00     0.157 A 
ATOM     30  H   LIG d   1       8.833  -2.484  -3.307  0.00  0.00     0.065 H 
ATOM     31  F   LIG d   1       6.834  -0.807  -2.946  0.00  0.00    -0.203 F 
ENDBRANCH  15  22
ENDBRANCH  11  14
ENDBRANCH   2  11
BRANCH   1  32
ATOM     32  C   LIG d   1       2.869   1.244  -8.070  0.00  0.00    -0.023 C 
ATOM     33  H   LIG d   1       3.423   1.576  -7.180  0.00  0.00     0.032 H 
ATOM     34  H   LIG d   1       1.795   1.433  -7.924  0.00  0.00     0.032 H 
BRANCH  32  35
ATOM     35  C   LIG d   1       3.360   2.017  -9.295  0.00  0.00    -0.052 C 
ATOM     36  H   LIG d   1       2.854   2.993  -9.341  0.00  0.00     0.027 H 
ATOM     37  H   LIG d   1       3.133   1.443 -10.205  0.00  0.00     0.027 H 
BRANCH  35  38
ATOM     38  C   LIG d   1       4.871   2.231  -9.191  0.00  0.00    -0.065 C 
ATOM     39  H   LIG d   1       5.074   3.156  -8.631  0.00  0.00     0.023 H 
ATOM     40  H   LIG d   1       5.300   2.314 -10.201  0.00  0.00     0.023 H 
ATOM     41  H   LIG d   1       5.328   1.378  -8.667  0.00  0.00     0.023 H 
ENDBRANCH  35  38
ENDBRANCH  32  35
ENDBRANCH   1  32
BRANCH   8  42
ATOM     42  C   LIG d   1       0.405  -1.584 -12.240  0.00  0.00    -0.003 C 
ATOM     43  H   LIG d   1      -0.623  -1.385 -11.905  0.00  0.00     0.031 H 
ATOM     44  H   LIG d   1       0.442  -2.559 -12.749  0.00  0.00     0.031 H 
ATOM     45  H   LIG d   1       0.723  -0.795 -12.937  0.00  0.00     0.031 H 
ENDBRANCH   8  42
TORSDOF 7
ENDMDL
MODEL 2
REMARK VINA RESULT:      -6.3      2.274      4.048
REMARK  7 active torsions:
REMARK  status: ('A' for Active; 'I' for Inactive)
REMARK    1  A    between atoms: C_1  and  C_2 
REMARK    2  A    between atoms: C_2  and  C_3 
REMARK    3  A    between atoms: C_3  and  C_4 
REMARK    4  A    between atoms: C_5  and  C_14 
REMARK    5  A    between atoms: C_11  and  C_13 
REMARK    6  A    between atoms: C_14  and  N_15 
REMARK    7  A    between atoms: C_19  and  C_20 
ROOT
ATOM      1  C   LIG d   1       4.937  -1.225  -7.290  0.00  0.00     0.020 A 
ATOM      2  C   LIG d   1       6.038  -0.448  -7.089  0.00  0.00     0.070 A 
ATOM      3  N   LIG d   1       6.215   0.669  -7.800  0.00  0.00    -0.238 NA
ATOM      4  C   LIG d   1       5.348   1.062  -8.694  0.00  0.00     0.120 A 
ATOM      5  N   LIG d   1       4.228   0.343  -8.945  0.00  0.00    -0.202 N 
ATOM      6  C   LIG d   1       3.993  -0.815  -8.252  0.00  0.00     0.163 A 
ATOM      7  N   LIG d   1       2.846  -1.314  -8.686  0.00  0.00    -0.211 NA
ATOM      8  C   LIG d   1       2.342  -0.521  -9.624  0.00  0.00     0.149 A 
ATOM      9  N   LIG d   1       3.144   0.499  -9.817  0.00  0.00    -0.149 NA
ATOM     10  H   LIG d   1       5.528   1.974  -9.243  0.00  0.00     0.105 H 
ENDROOT
BRANCH   2  11
ATOM     11  C   LIG d   1       7.064  -0.854  -6.064  0.00  0.00     0.071 C 
ATOM     12  H   LIG d   1       6.696  -1.726  -5.502  0.00  0.00     0.056 H 
ATOM     13  H   LIG d   1       8.005  -1.115  -6.570  0.00  0.00     0.056 H 
BRANCH  11  14
ATOM     14  N   LIG d   1       7.297   0.258  -5.140  0.00  0.00    -0.282 N 
ATOM     15  C   LIG d   1       6.501   0.627  -4.096  0.00  0.00     0.313 A 
ATOM     16  N   LIG d   1       7.049   1.667  -3.505  0.00  0.00    -0.193 N 
ATOM     17  C   LIG d   1       8.178   1.991  -4.142  0.00  0.00     0.188 A 
ATOM     18  H   LIG d   1       6.723   2.251  -2.632  0.00  0.00     0.455 HD
ATOM     19  C   LIG d   1       8.354   1.127  -5.164  0.00  0.00     0.074 A 
ATOM     20  H   LIG d   1       8.838   2.805  -3.883  0.00  0.00     0.139 H 
ATOM     21  H   LIG d   1       9.173   1.123  -5.868  0.00  0.00     0.087 H 
BRANCH  15  22
ATOM     22  C   LIG d   1       5.239  -0.030  -3.694  0.00  0.00     0.189 A 
ATOM     23  N   LIG d   1       4.076   0.529  -4.008  0.00  0.00    -0.245 NA
ATOM     24  C   LIG d   1       2.930  -0.024  -3.670  0.00  0.00     0.029 A 
ATOM     25  C   LIG d   1       2.894  -1.218  -2.970  0.00  0.00    -0.041 A 
ATOM     26  H   LIG d   1       2.004   0.459  -3.943  0.00  0.00     0.083 H 
ATOM     27  C   LIG d   1       4.085  -1.838  -2.620  0.00  0.00    -0.023 A 
ATOM     28  H   LIG d   1       1.949  -1.662  -2.698  0.00  0.00     0.063 H 
ATOM     29  C   LIG d   1       5.278  -1.238  -2.992  0.00  0.00     0.157 A 
ATOM     30  H   LIG d   1       4.083  -2.769  -2.074  0.00  0.00     0.065 H 
ATOM     31  F   LIG d   1       6.461  -1.810  -2.677  0.00  0.00    -0.203 F 
ENDBRANCH  15  22
ENDBRANCH  11  14
ENDBRANCH   2  11
BRANCH   1  32
ATOM     32  C   LIG d   1       4.732  -2.490  -6.498  0.00  0.00    -0.023 C 
ATOM     33  H   LIG d   1       3.684  -2.553  -6.173  0.00  0.00     0.032 H 
ATOM     34  H   LIG d   1       5.389  -2.481  -5.615  0.00  0.00     0.032 H 
BRANCH  32  35
ATOM     35  C   LIG d   1       5.070  -3.700  -7.371  0.00  0.00    -0.052 C 
ATOM     36  H   LIG d   1       5.944  -4.221  -6.954  0.00  0.00     0.027 H 
ATOM     37  H   LIG d   1       5.298  -3.362  -8.393  0.00  0.00     0.027 H 
BRANCH  35  38
ATOM     38  C   LIG d   1       3.875  -4.655  -7.404  0.00  0.00    -0.065 C 
ATOM     39  H   LIG d   1       4.076  -5.470  -8.114  0.00  0.00     0.023 H 
ATOM     40  H   LIG d   1       2.976  -4.106  -7.721  0.00  0.00     0.023 H 
ATOM     41  H   LIG d   1       3.713  -5.075  -6.400  0.00  0.00     0.023 H 
ENDBRANCH  35  38
ENDBRANCH  32  35
ENDBRANCH   1  32
BRANCH   8  42
ATOM     42  C   LIG d   1       1.045  -0.758 -10.354  0.00  0.00    -0.003 C 
ATOM     43  H   LIG d   1       0.270  -1.062  -9.635  0.00  0.00     0.031 H 
ATOM     44  H   LIG d   1       1.185  -1.554 -11.100  0.00  0.00     0.031 H 
ATOM     45  H   LIG d   1       0.734   0.167 -10.860  0.00  0.00     0.031 H 
ENDBRANCH   8  42
TORSDOF 7
ENDMDL
MODEL 3
REMARK VINA RESULT:      -6.2      2.386      3.943
REMARK  7 active torsions:
REMARK  status: ('A' for Active; 'I' for Inactive)
REMARK    1  A    between atoms: C_1  and  C_2 
REMARK    2  A    between atoms: C_2  and  C_3 
REMARK    3  A    between atoms: C_3  and  C_4 
REMARK    4  A    between atoms: C_5  and  C_14 
REMARK    5  A    between atoms: C_11  and  C_13 
REMARK    6  A    between atoms: C_14  and  N_15 
REMARK    7  A    between atoms: C_19  and  C_20 
ROOT
ATOM      1  C   LIG d   1       4.004  -2.320  -8.193  0.00  0.00     0.020 A 
ATOM      2  C   LIG d   1       4.707  -2.174  -7.035  0.00  0.00     0.070 A 
ATOM      3  N   LIG d   1       4.931  -3.225  -6.243  0.00  0.00    -0.238 NA
ATOM      4  C   LIG d   1       4.503  -4.421  -6.546  0.00  0.00     0.120 A 
ATOM      5  N   LIG d   1       3.801  -4.644  -7.683  0.00  0.00    -0.202 N 
ATOM      6  C   LIG d   1       3.534  -3.604  -8.533  0.00  0.00     0.163 A 
ATOM      7  N   LIG d   1       2.843  -4.090  -9.553  0.00  0.00    -0.211 NA
ATOM      8  C   LIG d   1       2.660  -5.394  -9.386  0.00  0.00     0.149 A 
ATOM      9  N   LIG d   1       3.223  -5.779  -8.265  0.00  0.00    -0.149 NA
ATOM     10  H   LIG d   1       4.710  -5.245  -5.879  0.00  0.00     0.105 H 
ENDROOT
BRANCH   2  11
ATOM     11  C   LIG d   1       5.229  -0.816  -6.643  0.00  0.00     0.071 C 
ATOM     12  H   LIG d   1       5.301  -0.179  -7.538  0.00  0.00     0.056 H 
ATOM     13  H   LIG d   1       4.544  -0.355  -5.918  0.00  0.00     0.056 H 
BRANCH  11  14
ATOM     14  N   LIG d   1       6.556  -0.959  -6.039  0.00  0.00    -0.282 N 
ATOM     15  C   LIG d   1       6.885  -0.721  -4.737  0.00  0.00     0.313 A 
ATOM     16  N   LIG d   1       8.168  -0.965  -4.583  0.00  0.00    -0.193 N 
ATOM     17  C   LIG d   1       8.686  -1.350  -5.753  0.00  0.00     0.188 A 
ATOM     18  H   LIG d   1       8.810  -0.899  -3.693  0.00  0.00     0.455 HD
ATOM     19  C   LIG d   1       7.701  -1.354  -6.675  0.00  0.00     0.074 A 
ATOM     20  H   LIG d   1       9.719  -1.613  -5.931  0.00  0.00     0.139 H 
ATOM     21  H   LIG d   1       7.798  -1.619  -7.718  0.00  0.00     0.087 H 
BRANCH  15  22
ATOM     22  C   LIG d   1       5.958  -0.266  -3.678  0.00  0.00     0.189 A 
ATOM     23  N   LIG d   1       5.776   1.033  -3.475  0.00  0.00    -0.245 NA
ATOM     24  C   LIG d   1       4.959   1.479  -2.544  0.00  0.00     0.029 A 
ATOM     25  C   LIG d   1       4.255   0.604  -1.736  0.00  0.00    -0.041 A 
ATOM     26  H   LIG d   1       4.835   2.543  -2.408  0.00  0.00     0.083 H 
ATOM     27  C   LIG d   1       4.414  -0.763  -1.912  0.00  0.00    -0.023 A 
ATOM     28  H   LIG d   1       3.588   0.981  -0.975  0.00  0.00     0.063 H 
ATOM     29  C   LIG d   1       5.276  -1.207  -2.902  0.00  0.00     0.157 A 
ATOM     30  H   LIG d   1       3.876  -1.466  -1.293  0.00  0.00     0.065 H 
ATOM     31  F   LIG d   1       5.457  -2.529  -3.112  0.00  0.00    -0.203 F 
ENDBRANCH  15  22
ENDBRANCH  11  14
ENDBRANCH   2  11
BRANCH   1  32
ATOM     32  C   LIG d   1       3.741  -1.139  -9.089  0.00  0.00    -0.023 C 
ATOM     33  H   LIG d   1       3.801  -1.456 -10.140  0.00  0.00     0.032 H 
ATOM     34  H   LIG d   1       4.493  -0.359  -8.899  0.00  0.00     0.032 H 
BRANCH  32  35
ATOM     35  C   LIG d   1       2.345  -0.582  -8.803  0.00  0.00    -0.052 C 
ATOM     36  H   LIG d   1       2.427   0.467  -8.482  0.00  0.00     0.027 H 
ATOM     37  H   LIG d   1       1.871  -1.173  -8.006  0.00  0.00     0.027 H 
BRANCH  35  38
ATOM     38  C   LIG d   1       1.494  -0.661 -10.072  0.00  0.00    -0.065 C 
ATOM     39  H   LIG d   1       0.736  -1.449  -9.957  0.00  0.00     0.023 H 
ATOM     40  H   LIG d   1       2.139  -0.896 -10.932  0.00  0.00     0.023 H 
ATOM     41  H   LIG d   1       0.996   0.305 -10.241  0.00  0.00     0.023 H 
ENDBRANCH  35  38
ENDBRANCH  32  35
ENDBRANCH   1  32
BRANCH   8  42
ATOM     42  C   LIG d   1       1.919  -6.294 -10.341  0.00  0.00    -0.003 C 
ATOM     43  H   LIG d   1       1.340  -5.682 -11.047  0.00  0.00     0.031 H 
ATOM     44  H   LIG d   1       1.237  -6.946  -9.775  0.00  0.00     0.031 H 
ATOM     45  H   LIG d   1       2.639  -6.913 -10.896  0.00  0.00     0.031 H 
ENDBRANCH   8  42
TORSDOF 7
ENDMDL
MODEL 4
REMARK VINA RESULT:      -6.2      2.587      6.160
REMARK  7 active torsions:
REMARK  status: ('A' for Active; 'I' for Inactive)
REMARK    1  A    between atoms: C_1  and  C_2 
REMARK    2  A    between atoms: C_2  and  C_3 
REMARK    3  A    between atoms: C_3  and  C_4 
REMARK    4  A    between atoms: C_5  and  C_14 
REMARK    5  A    between atoms: C_11  and  C_13 
REMARK    6  A    between atoms: C_14  and  N_15 
REMARK    7  A    between atoms: C_19  and  C_20 
ROOT
ATOM      1  C   LIG d   1       7.370  -1.405  -5.003  0.00  0.00     0.020 A 
ATOM      2  C   LIG d   1       6.691  -1.316  -6.180  0.00  0.00     0.070 A 
ATOM      3  N   LIG d   1       6.537  -2.393  -6.955  0.00  0.00    -0.238 NA
ATOM      4  C   LIG d   1       7.014  -3.561  -6.615  0.00  0.00     0.120 A 
ATOM      5  N   LIG d   1       7.697  -3.726  -5.457  0.00  0.00    -0.202 N 
ATOM      6  C   LIG d   1       7.892  -2.657  -4.623  0.00  0.00     0.163 A 
ATOM      7  N   LIG d   1       8.579  -3.088  -3.577  0.00  0.00    -0.211 NA
ATOM      8  C   LIG d   1       8.828  -4.385  -3.710  0.00  0.00     0.149 A 
ATOM      9  N   LIG d   1       8.312  -4.820  -4.836  0.00  0.00    -0.149 NA
ATOM     10  H   LIG d   1       6.863  -4.407  -7.269  0.00  0.00     0.105 H 
ENDROOT
BRANCH   2  11
ATOM     11  C   LIG d   1       6.115   0.007  -6.614  0.00  0.00     0.071 C 
ATOM     12  H   LIG d   1       6.297   0.760  -5.833  0.00  0.00     0.056 H 
ATOM     13  H   LIG d   1       6.595   0.326  -7.550  0.00  0.00     0.056 H 
BRANCH  11  14
ATOM     14  N   LIG d   1       4.673  -0.136  -6.828  0.00  0.00    -0.282 N 
ATOM     15  C   LIG d   1       3.709  -0.175  -5.863  0.00  0.00     0.313 A 
ATOM     16  N   LIG d   1       2.540  -0.307  -6.451  0.00  0.00    -0.193 N 
ATOM     17  C   LIG d   1       2.718  -0.364  -7.775  0.00  0.00     0.188 A 
ATOM     18  H   LIG d   1       1.527  -0.372  -6.029  0.00  0.00     0.455 HD
ATOM     19  C   LIG d   1       4.037  -0.259  -8.033  0.00  0.00     0.074 A 
ATOM     20  H   LIG d   1       1.936  -0.475  -8.513  0.00  0.00     0.139 H 
ATOM     21  H   LIG d   1       4.505  -0.270  -9.007  0.00  0.00     0.087 H 
BRANCH  15  22
ATOM     22  C   LIG d   1       3.938  -0.081  -4.405  0.00  0.00     0.189 A 
ATOM     23  N   LIG d   1       4.021   1.111  -3.827  0.00  0.00    -0.245 NA
ATOM     24  C   LIG d   1       4.224   1.238  -2.532  0.00  0.00     0.029 A 
ATOM     25  C   LIG d   1       4.360   0.126  -1.720  0.00  0.00    -0.041 A 
ATOM     26  H   LIG d   1       4.286   2.224  -2.096  0.00  0.00     0.083 H 
ATOM     27  C   LIG d   1       4.281  -1.141  -2.281  0.00  0.00    -0.023 A 
ATOM     28  H   LIG d   1       4.526   0.241  -0.660  0.00  0.00     0.063 H 
ATOM     29  C   LIG d   1       4.061  -1.247  -3.646  0.00  0.00     0.157 A 
ATOM     30  H   LIG d   1       4.384  -2.024  -1.669  0.00  0.00     0.065 H 
ATOM     31  F   LIG d   1       3.972  -2.461  -4.233  0.00  0.00    -0.203 F 
ENDBRANCH  15  22
ENDBRANCH  11  14
ENDBRANCH   2  11
BRANCH   1  32
ATOM     32  C   LIG d   1       7.554  -0.194  -4.126  0.00  0.00    -0.023 C 
ATOM     33  H   LIG d   1       7.694  -0.514  -3.084  0.00  0.00     0.032 H 
ATOM     34  H   LIG d   1       6.663   0.448  -4.195  0.00  0.00     0.032 H 
BRANCH  32  35
ATOM     35  C   LIG d   1       8.784   0.590  -4.589  0.00  0.00    -0.052 C 
ATOM     36  H   LIG d   1       8.819   0.603  -5.688  0.00  0.00     0.027 H 
ATOM     37  H   LIG d   1       9.693   0.107  -4.199  0.00  0.00     0.027 H 
BRANCH  35  38
ATOM     38  C   LIG d   1       8.702   2.024  -4.064  0.00  0.00    -0.065 C 
ATOM     39  H   LIG d   1       9.144   2.710  -4.802  0.00  0.00     0.023 H 
ATOM     40  H   LIG d   1       9.255   2.100  -3.117  0.00  0.00     0.023 H 
ATOM     41  H   LIG d   1       7.649   2.294  -3.897  0.00  0.00     0.023 H 
ENDBRANCH  35  38
ENDBRANCH  32  35
ENDBRANCH   1  32
BRANCH   8  42
ATOM     42  C   LIG d   1       9.586  -5.229  -2.719  0.00  0.00    -0.003 C 
ATOM     43  H   LIG d   1      10.588  -5.449  -3.116  0.00  0.00     0.031 H 
ATOM     44  H   LIG d   1       9.044  -6.171  -2.548  0.00  0.00     0.031 H 
ATOM     45  H   LIG d   1       9.680  -4.684  -1.768  0.00  0.00     0.031 H 
ENDBRANCH   8  42
TORSDOF 7
ENDMDL
MODEL 5
REMARK VINA RESULT:      -6.1      2.351      6.419
REMARK  7 active torsions:
REMARK  status: ('A' for Active; 'I' for Inactive)
REMARK    1  A    between atoms: C_1  and  C_2 
REMARK    2  A    between atoms: C_2  and  C_3 
REMARK    3  A    between atoms: C_3  and  C_4 
REMARK    4  A    between atoms: C_5  and  C_14 
REMARK    5  A    between atoms: C_11  and  C_13 
REMARK    6  A    between atoms: C_14  and  N_15 
REMARK    7  A    between atoms: C_19  and  C_20 
ROOT
ATOM      1  C   LIG d   1       5.438  -0.834  -6.168  0.00  0.00     0.020 A 
ATOM      2  C   LIG d   1       5.227  -2.071  -6.699  0.00  0.00     0.070 A 
ATOM      3  N   LIG d   1       4.745  -3.058  -5.940  0.00  0.00    -0.238 NA
ATOM      4  C   LIG d   1       4.450  -2.879  -4.680  0.00  0.00     0.120 A 
ATOM      5  N   LIG d   1       4.629  -1.675  -4.085  0.00  0.00    -0.202 N 
ATOM      6  C   LIG d   1       5.126  -0.625  -4.811  0.00  0.00     0.163 A 
ATOM      7  N   LIG d   1       5.200   0.419  -4.000  0.00  0.00    -0.211 NA
ATOM      8  C   LIG d   1       4.772   0.077  -2.791  0.00  0.00     0.149 A 
ATOM      9  N   LIG d   1       4.413  -1.185  -2.791  0.00  0.00    -0.149 NA
ATOM     10  H   LIG d   1       4.058  -3.704  -4.104  0.00  0.00     0.105 H 
ENDROOT
BRANCH   2  11
ATOM     11  C   LIG d   1       5.545  -2.327  -8.149  0.00  0.00     0.071 C 
ATOM     12  H   LIG d   1       5.920  -1.402  -8.611  0.00  0.00     0.056 H 
ATOM     13  H   LIG d   1       6.313  -3.111  -8.223  0.00  0.00     0.056 H 
BRANCH  11  14
ATOM     14  N   LIG d   1       4.332  -2.764  -8.844  0.00  0.00    -0.282 N 
ATOM     15  C   LIG d   1       3.405  -1.960  -9.441  0.00  0.00     0.313 A 
ATOM     16  N   LIG d   1       2.467  -2.724  -9.958  0.00  0.00    -0.193 N 
ATOM     17  C   LIG d   1       2.756  -4.005  -9.708  0.00  0.00     0.188 A 
ATOM     18  H   LIG d   1       1.559  -2.465 -10.520  0.00  0.00     0.455 HD
ATOM     19  C   LIG d   1       3.913  -4.054  -9.016  0.00  0.00     0.074 A 
ATOM     20  H   LIG d   1       2.163  -4.856 -10.009  0.00  0.00     0.139 H 
ATOM     21  H   LIG d   1       4.413  -4.944  -8.663  0.00  0.00     0.087 H 
BRANCH  15  22
ATOM     22  C   LIG d   1       3.447  -0.483  -9.498  0.00  0.00     0.189 A 
ATOM     23  N   LIG d   1       4.091   0.120 -10.490  0.00  0.00    -0.245 NA
ATOM     24  C   LIG d   1       4.151   1.432 -10.578  0.00  0.00     0.029 A 
ATOM     25  C   LIG d   1       3.542   2.238  -9.632  0.00  0.00    -0.041 A 
ATOM     26  H   LIG d   1       4.684   1.887 -11.400  0.00  0.00     0.083 H 
ATOM     27  C   LIG d   1       2.858   1.651  -8.577  0.00  0.00    -0.023 A 
ATOM     28  H   LIG d   1       3.598   3.313  -9.714  0.00  0.00     0.063 H 
ATOM     29  C   LIG d   1       2.805   0.268  -8.510  0.00  0.00     0.157 A 
ATOM     30  H   LIG d   1       2.375   2.259  -7.826  0.00  0.00     0.065 H 
ATOM     31  F   LIG d   1       2.145  -0.345  -7.503  0.00  0.00    -0.203 F 
ENDBRANCH  15  22
ENDBRANCH  11  14
ENDBRANCH   2  11
BRANCH   1  32
ATOM     32  C   LIG d   1       5.988   0.284  -7.015  0.00  0.00    -0.023 C 
ATOM     33  H   LIG d   1       5.481   1.225  -6.753  0.00  0.00     0.032 H 
ATOM     34  H   LIG d   1       5.814   0.059  -8.078  0.00  0.00     0.032 H 
BRANCH  32  35
ATOM     35  C   LIG d   1       7.490   0.426  -6.762  0.00  0.00    -0.052 C 
ATOM     36  H   LIG d   1       8.029  -0.368  -7.301  0.00  0.00     0.027 H 
ATOM     37  H   LIG d   1       7.689   0.338  -5.684  0.00  0.00     0.027 H 
BRANCH  35  38
ATOM     38  C   LIG d   1       7.965   1.792  -7.260  0.00  0.00    -0.065 C 
ATOM     39  H   LIG d   1       8.606   1.659  -8.143  0.00  0.00     0.023 H 
ATOM     40  H   LIG d   1       8.536   2.293  -6.465  0.00  0.00     0.023 H 
ATOM     41  H   LIG d   1       7.093   2.408  -7.528  0.00  0.00     0.023 H 
ENDBRANCH  35  38
ENDBRANCH  32  35
ENDBRANCH   1  32
BRANCH   8  42
ATOM     42  C   LIG d   1       4.708   0.998  -1.601  0.00  0.00    -0.003 C 
ATOM     43  H   LIG d   1       3.982   1.801  -1.798  0.00  0.00     0.031 H 
ATOM     44  H   LIG d   1       5.701   1.437  -1.422  0.00  0.00     0.031 H 
ATOM     45  H   LIG d   1       4.394   0.430  -0.713  0.00  0.00     0.031 H 
ENDBRANCH   8  42
TORSDOF 7
ENDMDL
MODEL 6
REMARK VINA RESULT:      -6.0      2.590      6.208
REMARK  7 active torsions:
REMARK  status: ('A' for Active; 'I' for Inactive)
REMARK    1  A    between atoms: C_1  and  C_2 
REMARK    2  A    between atoms: C_2  and  C_3 
REMARK    3  A    between atoms: C_3  and  C_4 
REMARK    4  A    between atoms: C_5  and  C_14 
REMARK    5  A    between atoms: C_11  and  C_13 
REMARK    6  A    between atoms: C_14  and  N_15 
REMARK    7  A    between atoms: C_19  and  C_20 
ROOT
ATOM      1  C   LIG d   1       5.540  -3.765  -5.776  0.00  0.00     0.020 A 
ATOM      2  C   LIG d   1       5.022  -2.829  -6.619  0.00  0.00     0.070 A 
ATOM      3  N   LIG d   1       4.168  -3.185  -7.582  0.00  0.00    -0.238 NA
ATOM      4  C   LIG d   1       3.791  -4.425  -7.745  0.00  0.00     0.120 A 
ATOM      5  N   LIG d   1       4.261  -5.409  -6.942  0.00  0.00    -0.202 N 
ATOM      6  C   LIG d   1       5.144  -5.107  -5.940  0.00  0.00     0.163 A 
ATOM      7  N   LIG d   1       5.439  -6.236  -5.315  0.00  0.00    -0.211 NA
ATOM      8  C   LIG d   1       4.781  -7.242  -5.877  0.00  0.00     0.149 A 
ATOM      9  N   LIG d   1       4.051  -6.792  -6.869  0.00  0.00    -0.149 NA
ATOM     10  H   LIG d   1       3.095  -4.669  -8.534  0.00  0.00     0.105 H 
ENDROOT
BRANCH   2  11
ATOM     11  C   LIG d   1       5.420  -1.383  -6.469  0.00  0.00     0.071 C 
ATOM     12  H   LIG d   1       6.283  -1.310  -5.790  0.00  0.00     0.056 H 
ATOM     13  H   LIG d   1       5.691  -0.973  -7.453  0.00  0.00     0.056 H 
BRANCH  11  14
ATOM     14  N   LIG d   1       4.297  -0.624  -5.915  0.00  0.00    -0.282 N 
ATOM     15  C   LIG d   1       3.508   0.264  -6.585  0.00  0.00     0.313 A 
ATOM     16  N   LIG d   1       2.610   0.736  -5.747  0.00  0.00    -0.193 N 
ATOM     17  C   LIG d   1       2.799   0.183  -4.545  0.00  0.00     0.188 A 
ATOM     18  H   LIG d   1       1.798   1.461  -5.898  0.00  0.00     0.455 HD
ATOM     19  C   LIG d   1       3.844  -0.667  -4.625  0.00  0.00     0.074 A 
ATOM     20  H   LIG d   1       2.214   0.383  -3.659  0.00  0.00     0.139 H 
ATOM     21  H   LIG d   1       4.247  -1.267  -3.822  0.00  0.00     0.087 H 
BRANCH  15  22
ATOM     22  C   LIG d   1       3.637   0.633  -8.011  0.00  0.00     0.189 A 
ATOM     23  N   LIG d   1       4.490   1.586  -8.371  0.00  0.00    -0.245 NA
ATOM     24  C   LIG d   1       4.635   1.944  -9.629  0.00  0.00     0.029 A 
ATOM     25  C   LIG d   1       3.901   1.336 -10.632  0.00  0.00    -0.041 A 
ATOM     26  H   LIG d   1       5.339   2.723  -9.884  0.00  0.00     0.083 H 
ATOM     27  C   LIG d   1       2.997   0.336 -10.303  0.00  0.00    -0.023 A 
ATOM     28  H   LIG d   1       4.028   1.637 -11.661  0.00  0.00     0.063 H 
ATOM     29  C   LIG d   1       2.867  -0.026  -8.972  0.00  0.00     0.157 A 
ATOM     30  H   LIG d   1       2.412  -0.153 -11.068  0.00  0.00     0.065 H 
ATOM     31  F   LIG d   1       2.003  -1.000  -8.608  0.00  0.00    -0.203 F 
ENDBRANCH  15  22
ENDBRANCH  11  14
ENDBRANCH   2  11
BRANCH   1  32
ATOM     32  C   LIG d   1       6.509  -3.373  -4.692  0.00  0.00    -0.023 C 
ATOM     33  H   LIG d   1       6.276  -3.931  -3.773  0.00  0.00     0.032 H 
ATOM     34  H   LIG d   1       6.424  -2.293  -4.496  0.00  0.00     0.032 H 
BRANCH  32  35
ATOM     35  C   LIG d   1       7.935  -3.698  -5.139  0.00  0.00    -0.052 C 
ATOM     36  H   LIG d   1       8.474  -2.764  -5.356  0.00  0.00     0.027 H 
ATOM     37  H   LIG d   1       7.902  -4.321  -6.046  0.00  0.00     0.027 H 
BRANCH  35  38
ATOM     38  C   LIG d   1       8.659  -4.457  -4.025  0.00  0.00    -0.065 C 
ATOM     39  H   LIG d   1       9.484  -3.841  -3.637  0.00  0.00     0.023 H 
ATOM     40  H   LIG d   1       9.062  -5.399  -4.426  0.00  0.00     0.023 H 
ATOM     41  H   LIG d   1       7.952  -4.677  -3.212  0.00  0.00     0.023 H 
ENDBRANCH  35  38
ENDBRANCH  32  35
ENDBRANCH   1  32
BRANCH   8  42
ATOM     42  C   LIG d   1       4.861  -8.682  -5.439  0.00  0.00    -0.003 C 
ATOM     43  H   LIG d   1       4.654  -9.337  -6.297  0.00  0.00     0.031 H 
ATOM     44  H   LIG d   1       4.117  -8.867  -4.649  0.00  0.00     0.031 H 
ATOM     45  H   LIG d   1       5.868  -8.892  -5.050  0.00  0.00     0.031 H 
ENDBRANCH   8  42
TORSDOF 7
ENDMDL
MODEL 7
REMARK VINA RESULT:      -5.8      3.859      6.125
REMARK  7 active torsions:
REMARK  status: ('A' for Active; 'I' for Inactive)
REMARK    1  A    between atoms: C_1  and  C_2 
REMARK    2  A    between atoms: C_2  and  C_3 
REMARK    3  A    between atoms: C_3  and  C_4 
REMARK    4  A    between atoms: C_5  and  C_14 
REMARK    5  A    between atoms: C_11  and  C_13 
REMARK    6  A    between atoms: C_14  and  N_15 
REMARK    7  A    between atoms: C_19  and  C_20 
ROOT
ATOM      1  C   LIG d   1       8.434   1.526  -6.524  0.00  0.00     0.020 A 
ATOM      2  C   LIG d   1       7.423   0.615  -6.585  0.00  0.00     0.070 A 
ATOM      3  N   LIG d   1       6.541   0.650  -7.586  0.00  0.00    -0.238 NA
ATOM      4  C   LIG d   1       6.616   1.538  -8.541  0.00  0.00     0.120 A 
ATOM      5  N   LIG d   1       7.596   2.473  -8.550  0.00  0.00    -0.202 N 
ATOM      6  C   LIG d   1       8.527   2.492  -7.546  0.00  0.00     0.163 A 
ATOM      7  N   LIG d   1       9.360   3.491  -7.793  0.00  0.00    -0.211 NA
ATOM      8  C   LIG d   1       8.996   4.107  -8.911  0.00  0.00     0.149 A 
ATOM      9  N   LIG d   1       7.931   3.526  -9.409  0.00  0.00    -0.149 NA
ATOM     10  H   LIG d   1       5.884   1.527  -9.335  0.00  0.00     0.105 H 
ENDROOT
BRANCH   2  11
ATOM     11  C   LIG d   1       7.297  -0.435  -5.511  0.00  0.00     0.071 C 
ATOM     12  H   LIG d   1       8.220  -1.033  -5.473  0.00  0.00     0.056 H 
ATOM     13  H   LIG d   1       7.135   0.052  -4.539  0.00  0.00     0.056 H 
BRANCH  11  14
ATOM     14  N   LIG d   1       6.162  -1.309  -5.816  0.00  0.00    -0.282 N 
ATOM     15  C   LIG d   1       4.947  -1.309  -5.195  0.00  0.00     0.313 A 
ATOM     16  N   LIG d   1       4.197  -2.234  -5.752  0.00  0.00    -0.193 N 
ATOM     17  C   LIG d   1       4.894  -2.844  -6.716  0.00  0.00     0.188 A 
ATOM     18  H   LIG d   1       3.162  -2.542  -5.544  0.00  0.00     0.455 HD
ATOM     19  C   LIG d   1       6.120  -2.285  -6.774  0.00  0.00     0.074 A 
ATOM     20  H   LIG d   1       4.536  -3.648  -7.342  0.00  0.00     0.139 H 
ATOM     21  H   LIG d   1       6.919  -2.556  -7.449  0.00  0.00     0.087 H 
BRANCH  15  22
ATOM     22  C   LIG d   1       4.541  -0.419  -4.086  0.00  0.00     0.189 A 
ATOM     23  N   LIG d   1       3.848   0.684  -4.346  0.00  0.00    -0.245 NA
ATOM     24  C   LIG d   1       3.467   1.503  -3.388  0.00  0.00     0.029 A 
ATOM     25  C   LIG d   1       3.778   1.243  -2.065  0.00  0.00    -0.041 A 
ATOM     26  H   LIG d   1       2.904   2.389  -3.638  0.00  0.00     0.083 H 
ATOM     27  C   LIG d   1       4.501   0.104  -1.746  0.00  0.00    -0.023 A 
ATOM     28  H   LIG d   1       3.460   1.922  -1.287  0.00  0.00     0.063 H 
ATOM     29  C   LIG d   1       4.886  -0.745  -2.772  0.00  0.00     0.157 A 
ATOM     30  H   LIG d   1       4.756  -0.120  -0.721  0.00  0.00     0.065 H 
ATOM     31  F   LIG d   1       5.587  -1.869  -2.506  0.00  0.00    -0.203 F 
ENDBRANCH  15  22
ENDBRANCH  11  14
ENDBRANCH   2  11
BRANCH   1  32
ATOM     32  C   LIG d   1       9.430   1.499  -5.394  0.00  0.00    -0.023 C 
ATOM     33  H   LIG d   1      10.426   1.764  -5.777  0.00  0.00     0.032 H 
ATOM     34  H   LIG d   1       9.462   0.489  -4.958  0.00  0.00     0.032 H 
BRANCH  32  35
ATOM     35  C   LIG d   1       9.011   2.504  -4.320  0.00  0.00    -0.052 C 
ATOM     36  H   LIG d   1       8.067   2.178  -3.859  0.00  0.00     0.027 H 
ATOM     37  H   LIG d   1       8.872   3.494  -4.780  0.00  0.00     0.027 H 
BRANCH  35  38
ATOM     38  C   LIG d   1      10.099   2.589  -3.248  0.00  0.00    -0.065 C 
ATOM     39  H   LIG d   1      11.087   2.626  -3.730  0.00  0.00     0.023 H 
ATOM     40  H   LIG d   1      10.042   1.703  -2.598  0.00  0.00     0.023 H 
ATOM     41  H   LIG d   1       9.951   3.497  -2.645  0.00  0.00     0.023 H 
ENDBRANCH  35  38
ENDBRANCH  32  35
ENDBRANCH   1  32
BRANCH   8  42
ATOM     42  C   LIG d   1       9.702   5.293  -9.516  0.00  0.00    -0.003 C 
ATOM     43  H   LIG d   1      10.326   4.958 -10.357  0.00  0.00     0.031 H 
ATOM     44  H   LIG d   1      10.339   5.769  -8.755  0.00  0.00     0.031 H 
ATOM     45  H   LIG d   1       8.958   6.019  -9.877  0.00  0.00     0.031 H 
ENDBRANCH   8  42
TORSDOF 7
ENDMDL
MODEL 8
REMARK VINA RESULT:      -5.7      2.964      6.064
REMARK  7 active torsions:
REMARK  status: ('A' for Active; 'I' for Inactive)
REMARK    1  A    between atoms: C_1  and  C_2 
REMARK    2  A    between atoms: C_2  and  C_3 
REMARK    3  A    between atoms: C_3  and  C_4 
REMARK    4  A    between atoms: C_5  and  C_14 
REMARK    5  A    between atoms: C_11  and  C_13 
REMARK    6  A    between atoms: C_14  and  N_15 
REMARK    7  A    between atoms: C_19  and  C_20 
ROOT
ATOM      1  C   LIG d   1       5.827  -3.675  -4.942  0.00  0.00     0.020 A 
ATOM      2  C   LIG d   1       5.724  -2.743  -3.954  0.00  0.00     0.070 A 
ATOM      3  N   LIG d   1       6.821  -2.186  -3.435  0.00  0.00    -0.238 NA
ATOM      4  C   LIG d   1       8.018  -2.497  -3.853  0.00  0.00     0.120 A 
ATOM      5  N   LIG d   1       8.198  -3.413  -4.836  0.00  0.00    -0.202 N 
ATOM      6  C   LIG d   1       7.111  -4.023  -5.404  0.00  0.00     0.163 A 
ATOM      7  N   LIG d   1       7.562  -4.862  -6.325  0.00  0.00    -0.211 NA
ATOM      8  C   LIG d   1       8.887  -4.810  -6.365  0.00  0.00     0.149 A 
ATOM      9  N   LIG d   1       9.322  -3.944  -5.480  0.00  0.00    -0.149 NA
ATOM     10  H   LIG d   1       8.878  -2.019  -3.409  0.00  0.00     0.105 H 
ENDROOT
BRANCH   2  11
ATOM     11  C   LIG d   1       4.366  -2.343  -3.440  0.00  0.00     0.071 C 
ATOM     12  H   LIG d   1       3.613  -2.507  -4.227  0.00  0.00     0.056 H 
ATOM     13  H   LIG d   1       4.113  -2.951  -2.560  0.00  0.00     0.056 H 
BRANCH  11  14
ATOM     14  N   LIG d   1       4.382  -0.927  -3.068  0.00  0.00    -0.282 N 
ATOM     15  C   LIG d   1       4.291   0.137  -3.917  0.00  0.00     0.313 A 
ATOM     16  N   LIG d   1       4.340   1.241  -3.204  0.00  0.00    -0.193 N 
ATOM     17  C   LIG d   1       4.468   0.925  -1.912  0.00  0.00     0.188 A 
ATOM     18  H   LIG d   1       4.292   2.296  -3.510  0.00  0.00     0.455 HD
ATOM     19  C   LIG d   1       4.496  -0.419  -1.803  0.00  0.00     0.074 A 
ATOM     20  H   LIG d   1       4.536   1.627  -1.094  0.00  0.00     0.139 H 
ATOM     21  H   LIG d   1       4.592  -0.988  -0.889  0.00  0.00     0.087 H 
BRANCH  15  22
ATOM     22  C   LIG d   1       4.158   0.062  -5.388  0.00  0.00     0.189 A 
ATOM     23  N   LIG d   1       5.246  -0.037  -6.144  0.00  0.00    -0.245 NA
ATOM     24  C   LIG d   1       5.172  -0.107  -7.456  0.00  0.00     0.029 A 
ATOM     25  C   LIG d   1       3.948  -0.078  -8.102  0.00  0.00    -0.041 A 
ATOM     26  H   LIG d   1       6.078  -0.188  -8.038  0.00  0.00     0.083 H 
ATOM     27  C   LIG d   1       2.785   0.026  -7.354  0.00  0.00    -0.023 A 
ATOM     28  H   LIG d   1       3.899  -0.136  -9.180  0.00  0.00     0.063 H 
ATOM     29  C   LIG d   1       2.890   0.092  -5.973  0.00  0.00     0.157 A 
ATOM     30  H   LIG d   1       1.819   0.051  -7.835  0.00  0.00     0.065 H 
ATOM     31  F   LIG d   1       1.783   0.189  -5.205  0.00  0.00    -0.203 F 
ENDBRANCH  15  22
ENDBRANCH  11  14
ENDBRANCH   2  11
BRANCH   1  32
ATOM     32  C   LIG d   1       4.595  -4.314  -5.529  0.00  0.00    -0.023 C 
ATOM     33  H   LIG d   1       3.754  -4.199  -4.831  0.00  0.00     0.032 H 
ATOM     34  H   LIG d   1       4.784  -5.384  -5.702  0.00  0.00     0.032 H 
BRANCH  32  35
ATOM     35  C   LIG d   1       4.252  -3.637  -6.857  0.00  0.00    -0.052 C 
ATOM     36  H   LIG d   1       5.135  -3.098  -7.234  0.00  0.00     0.027 H 
ATOM     37  H   LIG d   1       3.427  -2.925  -6.703  0.00  0.00     0.027 H 
BRANCH  35  38
ATOM     38  C   LIG d   1       3.829  -4.696  -7.876  0.00  0.00    -0.065 C 
ATOM     39  H   LIG d   1       3.760  -5.675  -7.381  0.00  0.00     0.023 H 
ATOM     40  H   LIG d   1       4.573  -4.746  -8.684  0.00  0.00     0.023 H 
ATOM     41  H   LIG d   1       2.848  -4.429  -8.298  0.00  0.00     0.023 H 
ENDBRANCH  35  38
ENDBRANCH  32  35
ENDBRANCH   1  32
BRANCH   8  42
ATOM     42  C   LIG d   1       9.759  -5.621  -7.288  0.00  0.00    -0.003 C 
ATOM     43  H   LIG d   1       9.127  -6.260  -7.921  0.00  0.00     0.031 H 
ATOM     44  H   LIG d   1      10.437  -6.250  -6.693  0.00  0.00     0.031 H 
ATOM     45  H   LIG d   1      10.350  -4.945  -7.923  0.00  0.00     0.031 H 
ENDBRANCH   8  42
TORSDOF 7
ENDMDL
MODEL 9
REMARK VINA RESULT:      -5.6      4.252      6.783
REMARK  7 active torsions:
REMARK  status: ('A' for Active; 'I' for Inactive)
REMARK    1  A    between atoms: C_1  and  C_2 
REMARK    2  A    between atoms: C_2  and  C_3 
REMARK    3  A    between atoms: C_3  and  C_4 
REMARK    4  A    between atoms: C_5  and  C_14 
REMARK    5  A    between atoms: C_11  and  C_13 
REMARK    6  A    between atoms: C_14  and  N_15 
REMARK    7  A    between atoms: C_19  and  C_20 
ROOT
ATOM      1  C   LIG d   1       7.369  -3.560  -5.669  0.00  0.00     0.020 A 
ATOM      2  C   LIG d   1       7.881  -2.299  -5.625  0.00  0.00     0.070 A 
ATOM      3  N   LIG d   1       9.054  -2.067  -5.030  0.00  0.00    -0.238 NA
ATOM      4  C   LIG d   1       9.753  -3.026  -4.485  0.00  0.00     0.120 A 
ATOM      5  N   LIG d   1       9.308  -4.306  -4.494  0.00  0.00    -0.202 N 
ATOM      6  C   LIG d   1       8.109  -4.606  -5.084  0.00  0.00     0.163 A 
ATOM      7  N   LIG d   1       7.916  -5.909  -4.954  0.00  0.00    -0.211 NA
ATOM      8  C   LIG d   1       8.941  -6.449  -4.307  0.00  0.00     0.149 A 
ATOM      9  N   LIG d   1       9.814  -5.517  -4.006  0.00  0.00    -0.149 NA
ATOM     10  H   LIG d   1      10.698  -2.795  -4.018  0.00  0.00     0.105 H 
ENDROOT
BRANCH   2  11
ATOM     11  C   LIG d   1       7.118  -1.158  -6.246  0.00  0.00     0.071 C 
ATOM     12  H   LIG d   1       7.467  -1.002  -7.278  0.00  0.00     0.056 H 
ATOM     13  H   LIG d   1       6.044  -1.397  -6.254  0.00  0.00     0.056 H 
BRANCH  11  14
ATOM     14  N   LIG d   1       7.342   0.060  -5.465  0.00  0.00    -0.282 N 
ATOM     15  C   LIG d   1       6.587   0.505  -4.419  0.00  0.00     0.313 A 
ATOM     16  N   LIG d   1       7.109   1.630  -3.981  0.00  0.00    -0.193 N 
ATOM     17  C   LIG d   1       8.181   1.935  -4.719  0.00  0.00     0.188 A 
ATOM     18  H   LIG d   1       6.803   2.291  -3.158  0.00  0.00     0.455 HD
ATOM     19  C   LIG d   1       8.345   0.972  -5.650  0.00  0.00     0.074 A 
ATOM     20  H   LIG d   1       8.808   2.804  -4.593  0.00  0.00     0.139 H 
ATOM     21  H   LIG d   1       9.122   0.929  -6.400  0.00  0.00     0.087 H 
BRANCH  15  22
ATOM     22  C   LIG d   1       5.389  -0.165  -3.870  0.00  0.00     0.189 A 
ATOM     23  N   LIG d   1       4.179   0.271  -4.204  0.00  0.00    -0.245 NA
ATOM     24  C   LIG d   1       3.087  -0.297  -3.737  0.00  0.00     0.029 A 
ATOM     25  C   LIG d   1       3.159  -1.377  -2.875  0.00  0.00    -0.041 A 
ATOM     26  H   LIG d   1       2.121   0.084  -4.032  0.00  0.00     0.083 H 
ATOM     27  C   LIG d   1       4.401  -1.866  -2.498  0.00  0.00    -0.023 A 
ATOM     28  H   LIG d   1       2.256  -1.835  -2.499  0.00  0.00     0.063 H 
ATOM     29  C   LIG d   1       5.536  -1.253  -3.007  0.00  0.00     0.157 A 
ATOM     30  H   LIG d   1       4.483  -2.707  -1.826  0.00  0.00     0.065 H 
ATOM     31  F   LIG d   1       6.766  -1.701  -2.670  0.00  0.00    -0.203 F 
ENDBRANCH  15  22
ENDBRANCH  11  14
ENDBRANCH   2  11
BRANCH   1  32
ATOM     32  C   LIG d   1       6.043  -3.830  -6.332  0.00  0.00    -0.023 C 
ATOM     33  H   LIG d   1       6.149  -4.670  -7.034  0.00  0.00     0.032 H 
ATOM     34  H   LIG d   1       5.717  -2.934  -6.881  0.00  0.00     0.032 H 
BRANCH  32  35
ATOM     35  C   LIG d   1       5.002  -4.183  -5.268  0.00  0.00    -0.052 C 
ATOM     36  H   LIG d   1       4.187  -3.445  -5.293  0.00  0.00     0.027 H 
ATOM     37  H   LIG d   1       5.476  -4.173  -4.275  0.00  0.00     0.027 H 
BRANCH  35  38
ATOM     38  C   LIG d   1       4.437  -5.577  -5.549  0.00  0.00    -0.065 C 
ATOM     39  H   LIG d   1       5.223  -6.330  -5.396  0.00  0.00     0.023 H 
ATOM     40  H   LIG d   1       4.081  -5.625  -6.589  0.00  0.00     0.023 H 
ATOM     41  H   LIG d   1       3.598  -5.777  -4.865  0.00  0.00     0.023 H 
ENDBRANCH  35  38
ENDBRANCH  32  35
ENDBRANCH   1  32
BRANCH   8  42
ATOM     42  C   LIG d   1       9.081  -7.911  -3.970  0.00  0.00    -0.003 C 
ATOM     43  H   LIG d   1      10.075  -8.265  -4.280  0.00  0.00     0.031 H 
ATOM     44  H   LIG d   1       8.306  -8.486  -4.501  0.00  0.00     0.031 H 
ATOM     45  H   LIG d   1       8.962  -8.052  -2.886  0.00  0.00     0.031 H 
ENDBRANCH   8  42
TORSDOF 7
ENDMDL
MODEL 10
REMARK VINA RESULT:      -5.6      3.990      7.771
REMARK  7 active torsions:
REMARK  status: ('A' for Active; 'I' for Inactive)
REMARK    1  A    between atoms: C_1  and  C_2 
REMARK    2  A    between atoms: C_2  and  C_3 
REMARK    3  A    between atoms: C_3  and  C_4 
REMARK    4  A    between atoms: C_5  and  C_14 
REMARK    5  A    between atoms: C_11  and  C_13 
REMARK    6  A    between atoms: C_14  and  N_15 
REMARK    7  A    between atoms: C_19  and  C_20 
ROOT
ATOM      1  C   LIG d   1       7.283   0.915  -4.471  0.00  0.00     0.020 A 
ATOM      2  C   LIG d   1       7.002   0.542  -5.750  0.00  0.00     0.070 A 
ATOM      3  N   LIG d   1       7.624   1.127  -6.777  0.00  0.00    -0.238 NA
ATOM      4  C   LIG d   1       8.523   2.058  -6.599  0.00  0.00     0.120 A 
ATOM      5  N   LIG d   1       8.858   2.477  -5.355  0.00  0.00    -0.202 N 
ATOM      6  C   LIG d   1       8.250   1.919  -4.262  0.00  0.00     0.163 A 
ATOM      7  N   LIG d   1       8.754   2.501  -3.185  0.00  0.00    -0.211 NA
ATOM      8  C   LIG d   1       9.656   3.405  -3.547  0.00  0.00     0.149 A 
ATOM      9  N   LIG d   1       9.756   3.428  -4.856  0.00  0.00    -0.149 NA
ATOM     10  H   LIG d   1       9.006   2.501  -7.457  0.00  0.00     0.105 H 
ENDROOT
BRANCH   2  11
ATOM     11  C   LIG d   1       5.978  -0.532  -6.009  0.00  0.00     0.071 C 
ATOM     12  H   LIG d   1       5.997  -1.262  -5.186  0.00  0.00     0.056 H 
ATOM     13  H   LIG d   1       4.978  -0.078  -6.072  0.00  0.00     0.056 H 
BRANCH  11  14
ATOM     14  N   LIG d   1       6.288  -1.209  -7.270  0.00  0.00    -0.282 N 
ATOM     15  C   LIG d   1       5.760  -0.926  -8.495  0.00  0.00     0.313 A 
ATOM     16  N   LIG d   1       6.290  -1.748  -9.374  0.00  0.00    -0.193 N 
ATOM     17  C   LIG d   1       7.146  -2.565  -8.752  0.00  0.00     0.188 A 
ATOM     18  H   LIG d   1       6.132  -1.839 -10.458  0.00  0.00     0.455 HD
ATOM     19  C   LIG d   1       7.162  -2.248  -7.441  0.00  0.00     0.074 A 
ATOM     20  H   LIG d   1       7.726  -3.347  -9.220  0.00  0.00     0.139 H 
ATOM     21  H   LIG d   1       7.751  -2.725  -6.672  0.00  0.00     0.087 H 
BRANCH  15  22
ATOM     22  C   LIG d   1       4.762   0.126  -8.786  0.00  0.00     0.189 A 
ATOM     23  N   LIG d   1       5.169   1.342  -9.131  0.00  0.00    -0.245 NA
ATOM     24  C   LIG d   1       4.314   2.307  -9.398  0.00  0.00     0.029 A 
ATOM     25  C   LIG d   1       2.949   2.088  -9.330  0.00  0.00    -0.041 A 
ATOM     26  H   LIG d   1       4.682   3.283  -9.676  0.00  0.00     0.083 H 
ATOM     27  C   LIG d   1       2.478   0.833  -8.973  0.00  0.00    -0.023 A 
ATOM     28  H   LIG d   1       2.257   2.886  -9.551  0.00  0.00     0.063 H 
ATOM     29  C   LIG d   1       3.399  -0.167  -8.702  0.00  0.00     0.157 A 
ATOM     30  H   LIG d   1       1.418   0.637  -8.913  0.00  0.00     0.065 H 
ATOM     31  F   LIG d   1       2.984  -1.406  -8.356  0.00  0.00    -0.203 F 
ENDBRANCH  15  22
ENDBRANCH  11  14
ENDBRANCH   2  11
BRANCH   1  32
ATOM     32  C   LIG d   1       6.581   0.266  -3.307  0.00  0.00    -0.023 C 
ATOM     33  H   LIG d   1       7.302   0.092  -2.495  0.00  0.00     0.032 H 
ATOM     34  H   LIG d   1       6.151  -0.695  -3.627  0.00  0.00     0.032 H 
BRANCH  32  35
ATOM     35  C   LIG d   1       5.463   1.184  -2.808  0.00  0.00    -0.052 C 
ATOM     36  H   LIG d   1       4.866   1.533  -3.663  0.00  0.00     0.027 H 
ATOM     37  H   LIG d   1       5.903   2.049  -2.290  0.00  0.00     0.027 H 
BRANCH  35  38
ATOM     38  C   LIG d   1       4.564   0.413  -1.840  0.00  0.00    -0.065 C 
ATOM     39  H   LIG d   1       3.517   0.717  -1.990  0.00  0.00     0.023 H 
ATOM     40  H   LIG d   1       4.865   0.633  -0.806  0.00  0.00     0.023 H 
ATOM     41  H   LIG d   1       4.662  -0.667  -2.028  0.00  0.00     0.023 H 
ENDBRANCH  35  38
ENDBRANCH  32  35
ENDBRANCH   1  32
BRANCH   8  42
ATOM     42  C   LIG d   1      10.445   4.271  -2.600  0.00  0.00    -0.003 C 
ATOM     43  H   LIG d   1      10.859   3.648  -1.793  0.00  0.00     0.031 H 
ATOM     44  H   LIG d   1       9.785   5.038  -2.168  0.00  0.00     0.031 H 
ATOM     45  H   LIG d   1      11.265   4.759  -3.145  0.00  0.00     0.031 H 
ENDBRANCH   8  42
TORSDOF 7
ENDMDL
