MODEL 1
REMARK VINA RESULT:      -6.5      0.000      0.000
REMARK  11 active torsions:
REMARK  status: ('A' for Active; 'I' for Inactive)
REMARK    1  A    between atoms: C_1  and  C_2 
REMARK    2  A    between atoms: C_2  and  C_3 
REMARK    3  A    between atoms: C_3  and  C_4 
REMARK    4  A    between atoms: C_4  and  C_5 
REMARK    5  A    between atoms: C_5  and  C_6 
REMARK    6  A    between atoms: C_6  and  O_8 
REMARK    7  A    between atoms: O_8  and  C_9 
REMARK    8  A    between atoms: C_9  and  C_32 
REMARK    9  A    between atoms: C_14  and  C_31 
REMARK   10  A    between atoms: C_29  and  C_30 
REMARK   11  A    between atoms: C_32  and  C_34 
ROOT
ATOM      1  C   LIG d   1       4.755  -0.832  -4.165  0.00  0.00     0.176 C 
ATOM      2  C   LIG d   1       4.550   0.314  -3.144  0.00  0.00    -0.005 C 
ATOM      3  C   LIG d   1       5.936   0.988  -2.954  0.00  0.00    -0.045 C 
ATOM      4  C   LIG d   1       6.691   0.573  -4.226  0.00  0.00    -0.028 C 
ATOM      5  H   LIG d   1       6.288   1.155  -5.062  0.00  0.00     0.031 H 
ATOM      6  C   LIG d   1       6.275  -0.911  -4.364  0.00  0.00     0.018 C 
ATOM      7  C   LIG d   1       6.743  -1.419  -5.706  0.00  0.00    -0.043 C 
ATOM      8  C   LIG d   1       8.249  -1.237  -5.866  0.00  0.00    -0.049 C 
ATOM      9  C   LIG d   1       8.808   0.119  -5.461  0.00  0.00    -0.029 C 
ATOM     10  H   LIG d   1       9.887  -0.087  -5.198  0.00  0.00     0.031 H 
ATOM     11  C   LIG d   1       8.191   0.673  -4.187  0.00  0.00    -0.034 C 
ATOM     12  H   LIG d   1       8.562   0.052  -3.343  0.00  0.00     0.031 H 
ATOM     13  C   LIG d   1       8.653   2.088  -3.856  0.00  0.00    -0.046 C 
ATOM     14  C   LIG d   1       8.372   3.029  -5.030  0.00  0.00    -0.030 C 
ATOM     15  C   LIG d   1       9.157   2.480  -6.211  0.00  0.00    -0.060 C 
ATOM     16  C   LIG d   1      10.044   3.287  -6.792  0.00  0.00    -0.019 C 
ATOM     17  C   LIG d   1      10.816   2.757  -7.926  0.00  0.00     0.156 C 
ATOM     18  O   LIG d   1      11.171   3.444  -8.855  0.00  0.00    -0.293 OA
ATOM     19  C   LIG d   1      11.127   1.274  -7.837  0.00  0.00     0.011 C 
ATOM     20  C   LIG d   1       9.805   0.529  -7.711  0.00  0.00    -0.037 C 
ATOM     21  C   LIG d   1       8.878   1.076  -6.639  0.00  0.00    -0.007 C 
ATOM     22  H   LIG d   1       3.835   1.039  -3.538  0.00  0.00     0.031 H 
ATOM     23  H   LIG d   1       4.193  -0.086  -2.194  0.00  0.00     0.031 H 
ATOM     24  H   LIG d   1       6.434   0.628  -2.059  0.00  0.00     0.027 H 
ATOM     25  H   LIG d   1       5.830   2.075  -2.918  0.00  0.00     0.027 H 
ATOM     26  H   LIG d   1       6.508  -2.495  -5.769  0.00  0.00     0.027 H 
ATOM     27  H   LIG d   1       6.193  -0.933  -6.511  0.00  0.00     0.027 H 
ATOM     28  H   LIG d   1       8.764  -2.010  -5.270  0.00  0.00     0.027 H 
ATOM     29  H   LIG d   1       8.519  -1.443  -6.910  0.00  0.00     0.027 H 
ATOM     30  H   LIG d   1       9.724   2.075  -3.651  0.00  0.00     0.027 H 
ATOM     31  H   LIG d   1       8.126   2.443  -2.970  0.00  0.00     0.027 H 
ATOM     32  H   LIG d   1       8.726   4.033  -4.791  0.00  0.00     0.031 H 
ATOM     33  H   LIG d   1       7.310   3.052  -5.252  0.00  0.00     0.031 H 
ATOM     34  H   LIG d   1      10.191   4.295  -6.443  0.00  0.00     0.065 H 
ATOM     35  H   LIG d   1      11.704   1.102  -7.037  0.00  0.00     0.035 H 
ATOM     36  H   LIG d   1      11.652   0.955  -8.739  0.00  0.00     0.035 H 
ATOM     37  H   LIG d   1      10.015  -0.517  -7.481  0.00  0.00     0.028 H 
ATOM     38  H   LIG d   1       9.280   0.572  -8.667  0.00  0.00     0.028 H 
ENDROOT
BRANCH   1  39
ATOM     39  O   LIG d   1       4.100  -0.520  -5.419  0.00  0.00    -0.450 OA
BRANCH  39  40
ATOM     40  C   LIG d   1       2.957   0.181  -5.351  0.00  0.00     0.308 C 
ATOM     41  O   LIG d   1       2.101  -0.135  -4.558  0.00  0.00    -0.251 OA
BRANCH  40  42
ATOM     42  C   LIG d   1       2.740   1.359  -6.265  0.00  0.00     0.045 C 
ATOM     43  H   LIG d   1       3.403   2.173  -5.971  0.00  0.00     0.038 H 
ATOM     44  H   LIG d   1       1.704   1.690  -6.192  0.00  0.00     0.038 H 
BRANCH  42  45
ATOM     45  C   LIG d   1       3.044   0.950  -7.707  0.00  0.00    -0.043 C 
ATOM     46  H   LIG d   1       2.404   0.114  -7.990  0.00  0.00     0.027 H 
ATOM     47  H   LIG d   1       4.090   0.650  -7.787  0.00  0.00     0.027 H 
BRANCH  45  48
ATOM     48  C   LIG d   1       2.780   2.133  -8.640  0.00  0.00    -0.053 C 
ATOM     49  H   LIG d   1       1.944   1.897  -9.298  0.00  0.00     0.026 H 
ATOM     50  H   LIG d   1       2.538   3.016  -8.048  0.00  0.00     0.026 H 
BRANCH  48  51
ATOM     51  C   LIG d   1       4.029   2.409  -9.481  0.00  0.00    -0.056 C 
ATOM     52  H   LIG d   1       3.964   3.409  -9.909  0.00  0.00     0.026 H 
ATOM     53  H   LIG d   1       4.914   2.339  -8.850  0.00  0.00     0.026 H 
BRANCH  51  54
ATOM     54  C   LIG d   1       4.123   1.378 -10.608  0.00  0.00    -0.065 C 
ATOM     55  H   LIG d   1       4.007   0.377 -10.194  0.00  0.00     0.023 H 
ATOM     56  H   LIG d   1       3.334   1.564 -11.337  0.00  0.00     0.023 H 
ATOM     57  H   LIG d   1       5.094   1.460 -11.095  0.00  0.00     0.023 H 
ENDBRANCH  51  54
ENDBRANCH  48  51
ENDBRANCH  45  48
ENDBRANCH  42  45
ENDBRANCH  40  42
ENDBRANCH  39  40
ENDBRANCH   1  39
BRANCH   1  58
ATOM     58  C   LIG d   1       4.240  -2.132  -3.606  0.00  0.00     0.174 C 
ATOM     59  O   LIG d   1       4.195  -3.115  -4.307  0.00  0.00    -0.293 OA
BRANCH  58  60
ATOM     60  C   LIG d   1       3.782  -2.207  -2.172  0.00  0.00    -0.002 C 
ATOM     61  H   LIG d   1       2.811  -1.977  -2.121  0.00  0.00     0.031 H 
ATOM     62  H   LIG d   1       3.937  -3.217  -1.793  0.00  0.00     0.031 H 
ATOM     63  H   LIG d   1       4.355  -1.501  -1.571  0.00  0.00     0.031 H 
ENDBRANCH  58  60
ENDBRANCH   1  58
BRANCH   6  64
ATOM     64  C   LIG d   1       6.856  -1.775  -3.243  0.00  0.00    -0.055 C 
ATOM     65  H   LIG d   1       6.409  -1.486  -2.292  0.00  0.00     0.024 H 
ATOM     66  H   LIG d   1       6.637  -2.824  -3.443  0.00  0.00     0.024 H 
ATOM     67  H   LIG d   1       7.935  -1.631  -3.197  0.00  0.00     0.024 H 
ENDBRANCH   6  64
BRANCH  21  68
ATOM     68  C   LIG d   1       7.506   1.129  -7.325  0.00  0.00    -0.056 C 
ATOM     69  H   LIG d   1       7.267   2.160  -7.581  0.00  0.00     0.024 H 
ATOM     70  H   LIG d   1       7.531   0.526  -8.233  0.00  0.00     0.024 H 
ATOM     71  H   LIG d   1       6.747   0.735  -6.649  0.00  0.00     0.024 H 
ENDBRANCH  21  68
TORSDOF 11
ENDMDL
MODEL 2
REMARK VINA RESULT:      -6.3      3.415      7.035
REMARK  11 active torsions:
REMARK  status: ('A' for Active; 'I' for Inactive)
REMARK    1  A    between atoms: C_1  and  C_2 
REMARK    2  A    between atoms: C_2  and  C_3 
REMARK    3  A    between atoms: C_3  and  C_4 
REMARK    4  A    between atoms: C_4  and  C_5 
REMARK    5  A    between atoms: C_5  and  C_6 
REMARK    6  A    between atoms: C_6  and  O_8 
REMARK    7  A    between atoms: O_8  and  C_9 
REMARK    8  A    between atoms: C_9  and  C_32 
REMARK    9  A    between atoms: C_14  and  C_31 
REMARK   10  A    between atoms: C_29  and  C_30 
REMARK   11  A    between atoms: C_32  and  C_34 
ROOT
ATOM      1  C   LIG d   1       4.117   0.006  -7.895  0.00  0.00     0.176 C 
ATOM      2  C   LIG d   1       2.725  -0.471  -8.382  0.00  0.00    -0.005 C 
ATOM      3  C   LIG d   1       2.895  -1.952  -8.818  0.00  0.00    -0.045 C 
ATOM      4  C   LIG d   1       4.169  -2.380  -8.072  0.00  0.00    -0.028 C 
ATOM      5  H   LIG d   1       3.914  -2.501  -7.013  0.00  0.00     0.031 H 
ATOM      6  C   LIG d   1       5.072  -1.138  -8.261  0.00  0.00     0.018 C 
ATOM      7  C   LIG d   1       6.291  -1.292  -7.384  0.00  0.00    -0.043 C 
ATOM      8  C   LIG d   1       7.034  -2.584  -7.701  0.00  0.00    -0.049 C 
ATOM      9  C   LIG d   1       6.179  -3.835  -7.836  0.00  0.00    -0.029 C 
ATOM     10  H   LIG d   1       6.782  -4.520  -8.502  0.00  0.00     0.031 H 
ATOM     11  C   LIG d   1       4.878  -3.602  -8.588  0.00  0.00    -0.034 C 
ATOM     12  H   LIG d   1       5.140  -3.430  -9.655  0.00  0.00     0.031 H 
ATOM     13  C   LIG d   1       3.962  -4.819  -8.607  0.00  0.00    -0.046 C 
ATOM     14  C   LIG d   1       3.667  -5.288  -7.180  0.00  0.00    -0.030 C 
ATOM     15  C   LIG d   1       5.012  -5.648  -6.566  0.00  0.00    -0.060 C 
ATOM     16  C   LIG d   1       5.168  -6.888  -6.106  0.00  0.00    -0.019 C 
ATOM     17  C   LIG d   1       6.470  -7.247  -5.524  0.00  0.00     0.156 C 
ATOM     18  O   LIG d   1       6.587  -8.028  -4.609  0.00  0.00    -0.293 OA
ATOM     19  C   LIG d   1       7.658  -6.550  -6.163  0.00  0.00     0.011 C 
ATOM     20  C   LIG d   1       7.431  -5.048  -6.051  0.00  0.00    -0.037 C 
ATOM     21  C   LIG d   1       6.062  -4.586  -6.520  0.00  0.00    -0.007 C 
ATOM     22  H   LIG d   1       2.003  -0.404  -7.566  0.00  0.00     0.031 H 
ATOM     23  H   LIG d   1       2.393   0.134  -9.226  0.00  0.00     0.031 H 
ATOM     24  H   LIG d   1       3.015  -2.039  -9.893  0.00  0.00     0.027 H 
ATOM     25  H   LIG d   1       2.044  -2.549  -8.481  0.00  0.00     0.027 H 
ATOM     26  H   LIG d   1       6.965  -0.439  -7.578  0.00  0.00     0.027 H 
ATOM     27  H   LIG d   1       6.013  -1.236  -6.332  0.00  0.00     0.027 H 
ATOM     28  H   LIG d   1       7.593  -2.450  -8.642  0.00  0.00     0.027 H 
ATOM     29  H   LIG d   1       7.797  -2.750  -6.927  0.00  0.00     0.027 H 
ATOM     30  H   LIG d   1       4.449  -5.625  -9.159  0.00  0.00     0.027 H 
ATOM     31  H   LIG d   1       3.026  -4.562  -9.106  0.00  0.00     0.027 H 
ATOM     32  H   LIG d   1       3.029  -6.172  -7.206  0.00  0.00     0.031 H 
ATOM     33  H   LIG d   1       3.186  -4.498  -6.612  0.00  0.00     0.031 H 
ATOM     34  H   LIG d   1       4.368  -7.606  -6.157  0.00  0.00     0.065 H 
ATOM     35  H   LIG d   1       7.728  -6.823  -7.123  0.00  0.00     0.035 H 
ATOM     36  H   LIG d   1       8.573  -6.829  -5.638  0.00  0.00     0.035 H 
ATOM     37  H   LIG d   1       8.188  -4.535  -6.648  0.00  0.00     0.028 H 
ATOM     38  H   LIG d   1       7.552  -4.747  -5.010  0.00  0.00     0.028 H 
ENDROOT
BRANCH   1  39
ATOM     39  O   LIG d   1       4.109   0.215  -6.462  0.00  0.00    -0.450 OA
BRANCH  39  40
ATOM     40  C   LIG d   1       2.977   0.690  -5.920  0.00  0.00     0.308 C 
ATOM     41  O   LIG d   1       2.570   1.784  -6.234  0.00  0.00    -0.251 OA
BRANCH  40  42
ATOM     42  C   LIG d   1       2.213  -0.140  -4.921  0.00  0.00     0.045 C 
ATOM     43  H   LIG d   1       2.272  -1.192  -5.202  0.00  0.00     0.038 H 
ATOM     44  H   LIG d   1       1.170   0.175  -4.909  0.00  0.00     0.038 H 
BRANCH  42  45
ATOM     45  C   LIG d   1       2.820   0.051  -3.530  0.00  0.00    -0.043 C 
ATOM     46  H   LIG d   1       2.093   0.541  -2.881  0.00  0.00     0.027 H 
ATOM     47  H   LIG d   1       3.715   0.670  -3.605  0.00  0.00     0.027 H 
BRANCH  45  48
ATOM     48  C   LIG d   1       3.190  -1.312  -2.943  0.00  0.00    -0.053 C 
ATOM     49  H   LIG d   1       2.329  -1.728  -2.419  0.00  0.00     0.026 H 
ATOM     50  H   LIG d   1       3.486  -1.986  -3.747  0.00  0.00     0.026 H 
BRANCH  48  51
ATOM     51  C   LIG d   1       4.352  -1.147  -1.961  0.00  0.00    -0.056 C 
ATOM     52  H   LIG d   1       4.111  -1.653  -1.026  0.00  0.00     0.026 H 
ATOM     53  H   LIG d   1       5.253  -1.583  -2.389  0.00  0.00     0.026 H 
BRANCH  51  54
ATOM     54  C   LIG d   1       4.583   0.341  -1.690  0.00  0.00    -0.065 C 
ATOM     55  H   LIG d   1       4.371   0.912  -2.594  0.00  0.00     0.023 H 
ATOM     56  H   LIG d   1       3.923   0.672  -0.888  0.00  0.00     0.023 H 
ATOM     57  H   LIG d   1       5.620   0.500  -1.395  0.00  0.00     0.023 H 
ENDBRANCH  51  54
ENDBRANCH  48  51
ENDBRANCH  45  48
ENDBRANCH  42  45
ENDBRANCH  40  42
ENDBRANCH  39  40
ENDBRANCH   1  39
BRANCH   1  58
ATOM     58  C   LIG d   1       4.521   1.266  -8.614  0.00  0.00     0.174 C 
ATOM     59  O   LIG d   1       5.582   1.788  -8.368  0.00  0.00    -0.293 OA
BRANCH  58  60
ATOM     60  C   LIG d   1       3.603   1.875  -9.642  0.00  0.00    -0.002 C 
ATOM     61  H   LIG d   1       3.733   2.866  -9.659  0.00  0.00     0.031 H 
ATOM     62  H   LIG d   1       3.831   1.461 -10.625  0.00  0.00     0.031 H 
ATOM     63  H   LIG d   1       2.568   1.648  -9.384  0.00  0.00     0.031 H 
ENDBRANCH  58  60
ENDBRANCH   1  58
BRANCH   6  64
ATOM     64  C   LIG d   1       5.495  -0.955  -9.721  0.00  0.00    -0.055 C 
ATOM     65  H   LIG d   1       6.300  -0.222  -9.776  0.00  0.00     0.024 H 
ATOM     66  H   LIG d   1       5.843  -1.907 -10.120  0.00  0.00     0.024 H 
ATOM     67  H   LIG d   1       4.644  -0.605 -10.304  0.00  0.00     0.024 H 
ENDBRANCH   6  64
BRANCH  21  68
ATOM     68  C   LIG d   1       5.603  -3.612  -5.426  0.00  0.00    -0.056 C 
ATOM     69  H   LIG d   1       6.242  -3.722  -4.550  0.00  0.00     0.024 H 
ATOM     70  H   LIG d   1       5.670  -2.590  -5.799  0.00  0.00     0.024 H 
ATOM     71  H   LIG d   1       4.571  -3.832  -5.153  0.00  0.00     0.024 H 
ENDBRANCH  21  68
TORSDOF 11
ENDMDL
MODEL 3
REMARK VINA RESULT:      -6.2      3.161      7.167
REMARK  11 active torsions:
REMARK  status: ('A' for Active; 'I' for Inactive)
REMARK    1  A    between atoms: C_1  and  C_2 
REMARK    2  A    between atoms: C_2  and  C_3 
REMARK    3  A    between atoms: C_3  and  C_4 
REMARK    4  A    between atoms: C_4  and  C_5 
REMARK    5  A    between atoms: C_5  and  C_6 
REMARK    6  A    between atoms: C_6  and  O_8 
REMARK    7  A    between atoms: O_8  and  C_9 
REMARK    8  A    between atoms: C_9  and  C_32 
REMARK    9  A    between atoms: C_14  and  C_31 
REMARK   10  A    between atoms: C_29  and  C_30 
REMARK   11  A    between atoms: C_32  and  C_34 
ROOT
ATOM      1  C   LIG d   1       5.382  -0.884  -6.571  0.00  0.00     0.176 C 
ATOM      2  C   LIG d   1       4.076  -0.393  -5.898  0.00  0.00    -0.005 C 
ATOM      3  C   LIG d   1       3.202   0.219  -7.027  0.00  0.00    -0.045 C 
ATOM      4  C   LIG d   1       3.785  -0.427  -8.294  0.00  0.00    -0.028 C 
ATOM      5  H   LIG d   1       3.458  -1.472  -8.320  0.00  0.00     0.031 H 
ATOM      6  C   LIG d   1       5.304  -0.353  -8.009  0.00  0.00     0.018 C 
ATOM      7  C   LIG d   1       6.029  -1.163  -9.056  0.00  0.00    -0.043 C 
ATOM      8  C   LIG d   1       5.693  -0.671 -10.460  0.00  0.00    -0.049 C 
ATOM      9  C   LIG d   1       4.220  -0.420 -10.748  0.00  0.00    -0.029 C 
ATOM     10  H   LIG d   1       4.221   0.342 -11.582  0.00  0.00     0.031 H 
ATOM     11  C   LIG d   1       3.484   0.253  -9.601  0.00  0.00    -0.034 C 
ATOM     12  H   LIG d   1       3.851   1.301  -9.543  0.00  0.00     0.031 H 
ATOM     13  C   LIG d   1       1.984   0.383  -9.836  0.00  0.00    -0.046 C 
ATOM     14  C   LIG d   1       1.368  -0.989 -10.124  0.00  0.00    -0.030 C 
ATOM     15  C   LIG d   1       2.057  -1.508 -11.376  0.00  0.00    -0.060 C 
ATOM     16  C   LIG d   1       1.289  -1.814 -12.421  0.00  0.00    -0.019 C 
ATOM     17  C   LIG d   1       1.950  -2.305 -13.640  0.00  0.00     0.156 C 
ATOM     18  O   LIG d   1       1.444  -3.117 -14.378  0.00  0.00    -0.293 OA
ATOM     19  C   LIG d   1       3.324  -1.711 -13.893  0.00  0.00     0.011 C 
ATOM     20  C   LIG d   1       4.189  -2.006 -12.675  0.00  0.00    -0.037 C 
ATOM     21  C   LIG d   1       3.545  -1.642 -11.347  0.00  0.00    -0.007 C 
ATOM     22  H   LIG d   1       3.554  -1.236  -5.441  0.00  0.00     0.031 H 
ATOM     23  H   LIG d   1       4.300   0.362  -5.145  0.00  0.00     0.031 H 
ATOM     24  H   LIG d   1       3.289   1.300  -7.055  0.00  0.00     0.027 H 
ATOM     25  H   LIG d   1       2.157  -0.075  -6.903  0.00  0.00     0.027 H 
ATOM     26  H   LIG d   1       7.115  -1.048  -8.891  0.00  0.00     0.027 H 
ATOM     27  H   LIG d   1       5.808  -2.223  -8.939  0.00  0.00     0.027 H 
ATOM     28  H   LIG d   1       6.242   0.266 -10.647  0.00  0.00     0.027 H 
ATOM     29  H   LIG d   1       6.086  -1.393 -11.189  0.00  0.00     0.027 H 
ATOM     30  H   LIG d   1       1.812   1.043 -10.689  0.00  0.00     0.027 H 
ATOM     31  H   LIG d   1       1.514   0.815  -8.953  0.00  0.00     0.027 H 
ATOM     32  H   LIG d   1       0.299  -0.882 -10.312  0.00  0.00     0.031 H 
ATOM     33  H   LIG d   1       1.534  -1.661  -9.288  0.00  0.00     0.031 H 
ATOM     34  H   LIG d   1       0.219  -1.707 -12.376  0.00  0.00     0.065 H 
ATOM     35  H   LIG d   1       3.240  -0.723 -14.031  0.00  0.00     0.035 H 
ATOM     36  H   LIG d   1       3.763  -2.167 -14.782  0.00  0.00     0.035 H 
ATOM     37  H   LIG d   1       5.122  -1.447 -12.766  0.00  0.00     0.028 H 
ATOM     38  H   LIG d   1       4.425  -3.070 -12.656  0.00  0.00     0.028 H 
ENDROOT
BRANCH   1  39
ATOM     39  O   LIG d   1       5.441  -2.331  -6.573  0.00  0.00    -0.450 OA
BRANCH  39  40
ATOM     40  C   LIG d   1       4.888  -2.965  -5.526  0.00  0.00     0.308 C 
ATOM     41  O   LIG d   1       3.986  -3.750  -5.703  0.00  0.00    -0.251 OA
BRANCH  40  42
ATOM     42  C   LIG d   1       5.393  -2.699  -4.132  0.00  0.00     0.045 C 
ATOM     43  H   LIG d   1       5.968  -1.773  -4.124  0.00  0.00     0.038 H 
ATOM     44  H   LIG d   1       6.030  -3.524  -3.813  0.00  0.00     0.038 H 
BRANCH  42  45
ATOM     45  C   LIG d   1       4.207  -2.570  -3.175  0.00  0.00    -0.043 C 
ATOM     46  H   LIG d   1       3.994  -3.542  -2.729  0.00  0.00     0.027 H 
ATOM     47  H   LIG d   1       3.331  -2.224  -3.726  0.00  0.00     0.027 H 
BRANCH  45  48
ATOM     48  C   LIG d   1       4.546  -1.566  -2.072  0.00  0.00    -0.053 C 
ATOM     49  H   LIG d   1       4.278  -1.986  -1.103  0.00  0.00     0.026 H 
ATOM     50  H   LIG d   1       5.615  -1.352  -2.093  0.00  0.00     0.026 H 
BRANCH  48  51
ATOM     51  C   LIG d   1       3.762  -0.272  -2.301  0.00  0.00    -0.056 C 
ATOM     52  H   LIG d   1       3.604  -0.128  -3.370  0.00  0.00     0.026 H 
ATOM     53  H   LIG d   1       2.800  -0.337  -1.796  0.00  0.00     0.026 H 
BRANCH  51  54
ATOM     54  C   LIG d   1       4.555   0.910  -1.741  0.00  0.00    -0.065 C 
ATOM     55  H   LIG d   1       4.743   0.750  -0.679  0.00  0.00     0.023 H 
ATOM     56  H   LIG d   1       5.504   0.996  -2.269  0.00  0.00     0.023 H 
ATOM     57  H   LIG d   1       3.982   1.828  -1.874  0.00  0.00     0.023 H 
ENDBRANCH  51  54
ENDBRANCH  48  51
ENDBRANCH  45  48
ENDBRANCH  42  45
ENDBRANCH  40  42
ENDBRANCH  39  40
ENDBRANCH   1  39
BRANCH   1  58
ATOM     58  C   LIG d   1       6.583  -0.304  -5.872  0.00  0.00     0.174 C 
ATOM     59  O   LIG d   1       6.442   0.590  -5.072  0.00  0.00    -0.293 OA
BRANCH  58  60
ATOM     60  C   LIG d   1       7.960  -0.839  -6.170  0.00  0.00    -0.002 C 
ATOM     61  H   LIG d   1       7.917  -1.443  -6.966  0.00  0.00     0.031 H 
ATOM     62  H   LIG d   1       8.635  -0.010  -6.379  0.00  0.00     0.031 H 
ATOM     63  H   LIG d   1       8.326  -1.398  -5.308  0.00  0.00     0.031 H 
ENDBRANCH  58  60
ENDBRANCH   1  58
BRANCH   6  64
ATOM     64  C   LIG d   1       5.818   1.088  -8.012  0.00  0.00    -0.055 C 
ATOM     65  H   LIG d   1       6.549   1.214  -7.213  0.00  0.00     0.024 H 
ATOM     66  H   LIG d   1       6.287   1.305  -8.971  0.00  0.00     0.024 H 
ATOM     67  H   LIG d   1       4.984   1.771  -7.853  0.00  0.00     0.024 H 
ENDBRANCH   6  64
BRANCH  21  68
ATOM     68  C   LIG d   1       3.823  -2.858 -10.453  0.00  0.00    -0.056 C 
ATOM     69  H   LIG d   1       4.840  -3.210 -10.624  0.00  0.00     0.024 H 
ATOM     70  H   LIG d   1       3.709  -2.573  -9.407  0.00  0.00     0.024 H 
ATOM     71  H   LIG d   1       3.117  -3.654 -10.692  0.00  0.00     0.024 H 
ENDBRANCH  21  68
TORSDOF 11
ENDMDL
MODEL 4
REMARK VINA RESULT:      -6.0      3.065      6.294
REMARK  11 active torsions:
REMARK  status: ('A' for Active; 'I' for Inactive)
REMARK    1  A    between atoms: C_1  and  C_2 
REMARK    2  A    between atoms: C_2  and  C_3 
REMARK    3  A    between atoms: C_3  and  C_4 
REMARK    4  A    between atoms: C_4  and  C_5 
REMARK    5  A    between atoms: C_5  and  C_6 
REMARK    6  A    between atoms: C_6  and  O_8 
REMARK    7  A    between atoms: O_8  and  C_9 
REMARK    8  A    between atoms: C_9  and  C_32 
REMARK    9  A    between atoms: C_14  and  C_31 
REMARK   10  A    between atoms: C_29  and  C_30 
REMARK   11  A    between atoms: C_32  and  C_34 
ROOT
ATOM      1  C   LIG d   1       5.982  -0.554  -7.137  0.00  0.00     0.176 C 
ATOM      2  C   LIG d   1       4.969  -1.604  -7.656  0.00  0.00    -0.005 C 
ATOM      3  C   LIG d   1       5.734  -2.953  -7.734  0.00  0.00    -0.045 C 
ATOM      4  C   LIG d   1       6.915  -2.727  -6.777  0.00  0.00    -0.028 C 
ATOM      5  H   LIG d   1       6.530  -2.764  -5.752  0.00  0.00     0.031 H 
ATOM      6  C   LIG d   1       7.333  -1.281  -7.135  0.00  0.00     0.018 C 
ATOM      7  C   LIG d   1       8.342  -0.806  -6.117  0.00  0.00    -0.043 C 
ATOM      8  C   LIG d   1       9.543  -1.743  -6.058  0.00  0.00    -0.049 C 
ATOM      9  C   LIG d   1       9.232  -3.232  -6.007  0.00  0.00    -0.029 C 
ATOM     10  H   LIG d   1      10.152  -3.728  -6.436  0.00  0.00     0.031 H 
ATOM     11  C   LIG d   1       8.097  -3.645  -6.930  0.00  0.00    -0.034 C 
ATOM     12  H   LIG d   1       8.472  -3.562  -7.974  0.00  0.00     0.031 H 
ATOM     13  C   LIG d   1       7.696  -5.108  -6.781  0.00  0.00    -0.046 C 
ATOM     14  C   LIG d   1       7.331  -5.416  -5.326  0.00  0.00    -0.030 C 
ATOM     15  C   LIG d   1       8.577  -5.122  -4.505  0.00  0.00    -0.060 C 
ATOM     16  C   LIG d   1       9.079  -6.112  -3.768  0.00  0.00    -0.019 C 
ATOM     17  C   LIG d   1      10.291  -5.839  -2.983  0.00  0.00     0.156 C 
ATOM     18  O   LIG d   1      10.508  -6.354  -1.911  0.00  0.00    -0.293 OA
ATOM     19  C   LIG d   1      11.248  -4.850  -3.625  0.00  0.00     0.011 C 
ATOM     20  C   LIG d   1      10.482  -3.557  -3.873  0.00  0.00    -0.037 C 
ATOM     21  C   LIG d   1       9.150  -3.744  -4.579  0.00  0.00    -0.007 C 
ATOM     22  H   LIG d   1       4.133  -1.690  -6.959  0.00  0.00     0.031 H 
ATOM     23  H   LIG d   1       4.605  -1.321  -8.644  0.00  0.00     0.031 H 
ATOM     24  H   LIG d   1       6.073  -3.161  -8.743  0.00  0.00     0.027 H 
ATOM     25  H   LIG d   1       5.106  -3.769  -7.369  0.00  0.00     0.027 H 
ATOM     26  H   LIG d   1       8.690   0.197  -6.419  0.00  0.00     0.027 H 
ATOM     27  H   LIG d   1       7.873  -0.692  -5.141  0.00  0.00     0.027 H 
ATOM     28  H   LIG d   1      10.181  -1.558  -6.939  0.00  0.00     0.027 H 
ATOM     29  H   LIG d   1      10.158  -1.473  -5.188  0.00  0.00     0.027 H 
ATOM     30  H   LIG d   1       8.532  -5.740  -7.085  0.00  0.00     0.027 H 
ATOM     31  H   LIG d   1       6.841  -5.318  -7.423  0.00  0.00     0.027 H 
ATOM     32  H   LIG d   1       7.068  -6.470  -5.226  0.00  0.00     0.031 H 
ATOM     33  H   LIG d   1       6.503  -4.792  -5.003  0.00  0.00     0.031 H 
ATOM     34  H   LIG d   1       8.612  -7.082  -3.748  0.00  0.00     0.065 H 
ATOM     35  H   LIG d   1      11.586  -5.227  -4.488  0.00  0.00     0.035 H 
ATOM     36  H   LIG d   1      12.088  -4.664  -2.954  0.00  0.00     0.035 H 
ATOM     37  H   LIG d   1      11.102  -2.896  -4.481  0.00  0.00     0.028 H 
ATOM     38  H   LIG d   1      10.293  -3.068  -2.917  0.00  0.00     0.028 H 
ENDROOT
BRANCH   1  39
ATOM     39  O   LIG d   1       5.636  -0.133  -5.795  0.00  0.00    -0.450 OA
BRANCH  39  40
ATOM     40  C   LIG d   1       4.398  -0.424  -5.365  0.00  0.00     0.308 C 
ATOM     41  O   LIG d   1       3.464   0.262  -5.706  0.00  0.00    -0.251 OA
BRANCH  40  42
ATOM     42  C   LIG d   1       4.174  -1.605  -4.457  0.00  0.00     0.045 C 
ATOM     43  H   LIG d   1       4.415  -2.525  -4.991  0.00  0.00     0.038 H 
ATOM     44  H   LIG d   1       3.130  -1.630  -4.144  0.00  0.00     0.038 H 
BRANCH  42  45
ATOM     45  C   LIG d   1       5.073  -1.482  -3.226  0.00  0.00    -0.043 C 
ATOM     46  H   LIG d   1       5.868  -0.763  -3.428  0.00  0.00     0.027 H 
ATOM     47  H   LIG d   1       5.512  -2.454  -2.996  0.00  0.00     0.027 H 
BRANCH  45  48
ATOM     48  C   LIG d   1       4.244  -1.002  -2.034  0.00  0.00    -0.053 C 
ATOM     49  H   LIG d   1       3.185  -1.040  -2.289  0.00  0.00     0.026 H 
ATOM     50  H   LIG d   1       4.434  -1.647  -1.175  0.00  0.00     0.026 H 
BRANCH  48  51
ATOM     51  C   LIG d   1       4.633   0.437  -1.686  0.00  0.00    -0.056 C 
ATOM     52  H   LIG d   1       4.629   0.562  -0.604  0.00  0.00     0.026 H 
ATOM     53  H   LIG d   1       5.629   0.647  -2.074  0.00  0.00     0.026 H 
BRANCH  51  54
ATOM     54  C   LIG d   1       3.627   1.403  -2.314  0.00  0.00    -0.065 C 
ATOM     55  H   LIG d   1       2.702   0.871  -2.536  0.00  0.00     0.023 H 
ATOM     56  H   LIG d   1       3.420   2.217  -1.619  0.00  0.00     0.023 H 
ATOM     57  H   LIG d   1       4.041   1.810  -3.236  0.00  0.00     0.023 H 
ENDBRANCH  51  54
ENDBRANCH  48  51
ENDBRANCH  45  48
ENDBRANCH  42  45
ENDBRANCH  40  42
ENDBRANCH  39  40
ENDBRANCH   1  39
BRANCH   1  58
ATOM     58  C   LIG d   1       6.035   0.630  -8.068  0.00  0.00     0.174 C 
ATOM     59  O   LIG d   1       6.606   1.639  -7.729  0.00  0.00    -0.293 OA
BRANCH  58  60
ATOM     60  C   LIG d   1       5.377   0.554  -9.421  0.00  0.00    -0.002 C 
ATOM     61  H   LIG d   1       6.049   0.769 -10.130  0.00  0.00     0.031 H 
ATOM     62  H   LIG d   1       4.989  -0.452  -9.581  0.00  0.00     0.031 H 
ATOM     63  H   LIG d   1       4.558   1.272  -9.467  0.00  0.00     0.031 H 
ENDBRANCH  58  60
ENDBRANCH   1  58
BRANCH   6  64
ATOM     64  C   LIG d   1       7.925  -1.189  -8.544  0.00  0.00    -0.055 C 
ATOM     65  H   LIG d   1       7.397  -0.420  -9.109  0.00  0.00     0.024 H 
ATOM     66  H   LIG d   1       8.981  -0.929  -8.477  0.00  0.00     0.024 H 
ATOM     67  H   LIG d   1       7.817  -2.149  -9.046  0.00  0.00     0.024 H 
ENDBRANCH   6  64
BRANCH  21  68
ATOM     68  C   LIG d   1       8.180  -2.860  -3.784  0.00  0.00    -0.056 C 
ATOM     69  H   LIG d   1       7.192  -2.902  -4.241  0.00  0.00     0.024 H 
ATOM     70  H   LIG d   1       8.121  -3.221  -2.756  0.00  0.00     0.024 H 
ATOM     71  H   LIG d   1       8.540  -1.831  -3.787  0.00  0.00     0.024 H 
ENDBRANCH  21  68
TORSDOF 11
ENDMDL
MODEL 5
REMARK VINA RESULT:      -5.9      6.714      9.466
REMARK  11 active torsions:
REMARK  status: ('A' for Active; 'I' for Inactive)
REMARK    1  A    between atoms: C_1  and  C_2 
REMARK    2  A    between atoms: C_2  and  C_3 
REMARK    3  A    between atoms: C_3  and  C_4 
REMARK    4  A    between atoms: C_4  and  C_5 
REMARK    5  A    between atoms: C_5  and  C_6 
REMARK    6  A    between atoms: C_6  and  O_8 
REMARK    7  A    between atoms: O_8  and  C_9 
REMARK    8  A    between atoms: C_9  and  C_32 
REMARK    9  A    between atoms: C_14  and  C_31 
REMARK   10  A    between atoms: C_29  and  C_30 
REMARK   11  A    between atoms: C_32  and  C_34 
ROOT
ATOM      1  C   LIG d   1      11.737   6.588  -1.228  0.00  0.00     0.176 C 
ATOM      2  C   LIG d   1      11.510   5.060  -1.109  0.00  0.00    -0.005 C 
ATOM      3  C   LIG d   1      10.443   4.690  -2.176  0.00  0.00    -0.045 C 
ATOM      4  C   LIG d   1      10.532   5.864  -3.163  0.00  0.00    -0.028 C 
ATOM      5  H   LIG d   1      11.455   5.748  -3.742  0.00  0.00     0.031 H 
ATOM      6  C   LIG d   1      10.655   7.070  -2.202  0.00  0.00     0.018 C 
ATOM      7  C   LIG d   1      10.990   8.298  -3.013  0.00  0.00    -0.043 C 
ATOM      8  C   LIG d   1       9.945   8.543  -4.096  0.00  0.00    -0.049 C 
ATOM      9  C   LIG d   1       9.527   7.329  -4.912  0.00  0.00    -0.029 C 
ATOM     10  H   LIG d   1       8.488   7.579  -5.280  0.00  0.00     0.031 H 
ATOM     11  C   LIG d   1       9.356   6.068  -4.080  0.00  0.00    -0.034 C 
ATOM     12  H   LIG d   1       8.446   6.204  -3.457  0.00  0.00     0.031 H 
ATOM     13  C   LIG d   1       9.070   4.825  -4.914  0.00  0.00    -0.046 C 
ATOM     14  C   LIG d   1      10.168   4.620  -5.961  0.00  0.00    -0.030 C 
ATOM     15  C   LIG d   1      10.153   5.861  -6.840  0.00  0.00    -0.060 C 
ATOM     16  C   LIG d   1       9.960   5.691  -8.147  0.00  0.00    -0.019 C 
ATOM     17  C   LIG d   1       9.931   6.888  -9.000  0.00  0.00     0.156 C 
ATOM     18  O   LIG d   1      10.338   6.892 -10.138  0.00  0.00    -0.293 OA
ATOM     19  C   LIG d   1       9.351   8.122  -8.333  0.00  0.00     0.011 C 
ATOM     20  C   LIG d   1      10.166   8.396  -7.075  0.00  0.00    -0.037 C 
ATOM     21  C   LIG d   1      10.357   7.185  -6.177  0.00  0.00    -0.007 C 
ATOM     22  H   LIG d   1      12.441   4.529  -1.314  0.00  0.00     0.031 H 
ATOM     23  H   LIG d   1      11.147   4.809  -0.112  0.00  0.00     0.031 H 
ATOM     24  H   LIG d   1       9.453   4.611  -1.738  0.00  0.00     0.027 H 
ATOM     25  H   LIG d   1      10.713   3.757  -2.676  0.00  0.00     0.027 H 
ATOM     26  H   LIG d   1      11.005   9.167  -2.333  0.00  0.00     0.027 H 
ATOM     27  H   LIG d   1      11.992   8.215  -3.434  0.00  0.00     0.027 H 
ATOM     28  H   LIG d   1       9.041   8.965  -3.626  0.00  0.00     0.027 H 
ATOM     29  H   LIG d   1      10.316   9.324  -4.773  0.00  0.00     0.027 H 
ATOM     30  H   LIG d   1       8.109   4.946  -5.417  0.00  0.00     0.027 H 
ATOM     31  H   LIG d   1       9.022   3.953  -4.262  0.00  0.00     0.027 H 
ATOM     32  H   LIG d   1       9.942   3.741  -6.567  0.00  0.00     0.031 H 
ATOM     33  H   LIG d   1      11.134   4.503  -5.480  0.00  0.00     0.031 H 
ATOM     34  H   LIG d   1       9.831   4.708  -8.566  0.00  0.00     0.065 H 
ATOM     35  H   LIG d   1       8.393   7.955  -8.099  0.00  0.00     0.035 H 
ATOM     36  H   LIG d   1       9.418   8.972  -9.013  0.00  0.00     0.035 H 
ATOM     37  H   LIG d   1       9.665   9.175  -6.497  0.00  0.00     0.028 H 
ATOM     38  H   LIG d   1      11.152   8.762  -7.363  0.00  0.00     0.028 H 
ENDROOT
BRANCH   1  39
ATOM     39  O   LIG d   1      13.054   6.865  -1.763  0.00  0.00    -0.450 OA
BRANCH  39  40
ATOM     40  C   LIG d   1      14.053   6.054  -1.378  0.00  0.00     0.308 C 
ATOM     41  O   LIG d   1      14.534   6.170  -0.276  0.00  0.00    -0.251 OA
BRANCH  40  42
ATOM     42  C   LIG d   1      14.573   5.000  -2.320  0.00  0.00     0.045 C 
ATOM     43  H   LIG d   1      14.064   4.056  -2.126  0.00  0.00     0.038 H 
ATOM     44  H   LIG d   1      15.645   4.873  -2.168  0.00  0.00     0.038 H 
BRANCH  42  45
ATOM     45  C   LIG d   1      14.311   5.431  -3.764  0.00  0.00    -0.043 C 
ATOM     46  H   LIG d   1      15.259   5.659  -4.252  0.00  0.00     0.027 H 
ATOM     47  H   LIG d   1      13.677   6.319  -3.769  0.00  0.00     0.027 H 
BRANCH  45  48
ATOM     48  C   LIG d   1      13.609   4.299  -4.516  0.00  0.00    -0.053 C 
ATOM     49  H   LIG d   1      12.606   4.618  -4.799  0.00  0.00     0.026 H 
ATOM     50  H   LIG d   1      14.177   4.052  -5.413  0.00  0.00     0.026 H 
BRANCH  48  51
ATOM     51  C   LIG d   1      13.517   3.067  -3.614  0.00  0.00    -0.056 C 
ATOM     52  H   LIG d   1      14.449   2.503  -3.674  0.00  0.00     0.026 H 
ATOM     53  H   LIG d   1      13.348   3.382  -2.585  0.00  0.00     0.026 H 
BRANCH  51  54
ATOM     54  C   LIG d   1      12.357   2.183  -4.075  0.00  0.00    -0.065 C 
ATOM     55  H   LIG d   1      11.417   2.605  -3.721  0.00  0.00     0.023 H 
ATOM     56  H   LIG d   1      12.347   2.133  -5.164  0.00  0.00     0.023 H 
ATOM     57  H   LIG d   1      12.481   1.179  -3.667  0.00  0.00     0.023 H 
ENDBRANCH  51  54
ENDBRANCH  48  51
ENDBRANCH  45  48
ENDBRANCH  42  45
ENDBRANCH  40  42
ENDBRANCH  39  40
ENDBRANCH   1  39
BRANCH   1  58
ATOM     58  C   LIG d   1      11.558   7.252   0.112  0.00  0.00     0.174 C 
ATOM     59  O   LIG d   1      11.789   8.430   0.238  0.00  0.00    -0.293 OA
BRANCH  58  60
ATOM     60  C   LIG d   1      11.088   6.445   1.296  0.00  0.00    -0.002 C 
ATOM     61  H   LIG d   1      11.664   6.649   2.087  0.00  0.00     0.031 H 
ATOM     62  H   LIG d   1      10.053   6.702   1.523  0.00  0.00     0.031 H 
ATOM     63  H   LIG d   1      11.156   5.383   1.061  0.00  0.00     0.031 H 
ENDBRANCH  58  60
ENDBRANCH   1  58
BRANCH   6  64
ATOM     64  C   LIG d   1       9.368   7.301  -1.407  0.00  0.00    -0.055 C 
ATOM     65  H   LIG d   1       9.556   7.111  -0.350  0.00  0.00     0.024 H 
ATOM     66  H   LIG d   1       9.041   8.333  -1.537  0.00  0.00     0.024 H 
ATOM     67  H   LIG d   1       8.593   6.625  -1.766  0.00  0.00     0.024 H 
ENDBRANCH   6  64
BRANCH  21  68
ATOM     68  C   LIG d   1      11.845   7.226  -5.808  0.00  0.00    -0.056 C 
ATOM     69  H   LIG d   1      12.372   7.891  -6.493  0.00  0.00     0.024 H 
ATOM     70  H   LIG d   1      11.956   7.595  -4.788  0.00  0.00     0.024 H 
ATOM     71  H   LIG d   1      12.265   6.223  -5.879  0.00  0.00     0.024 H 
ENDBRANCH  21  68
TORSDOF 11
ENDMDL
MODEL 6
REMARK VINA RESULT:      -5.8      3.502      6.946
REMARK  11 active torsions:
REMARK  status: ('A' for Active; 'I' for Inactive)
REMARK    1  A    between atoms: C_1  and  C_2 
REMARK    2  A    between atoms: C_2  and  C_3 
REMARK    3  A    between atoms: C_3  and  C_4 
REMARK    4  A    between atoms: C_4  and  C_5 
REMARK    5  A    between atoms: C_5  and  C_6 
REMARK    6  A    between atoms: C_6  and  O_8 
REMARK    7  A    between atoms: O_8  and  C_9 
REMARK    8  A    between atoms: C_9  and  C_32 
REMARK    9  A    between atoms: C_14  and  C_31 
REMARK   10  A    between atoms: C_29  and  C_30 
REMARK   11  A    between atoms: C_32  and  C_34 
ROOT
ATOM      1  C   LIG d   1       7.024  -1.557  -5.898  0.00  0.00     0.176 C 
ATOM      2  C   LIG d   1       6.303  -0.235  -5.536  0.00  0.00    -0.005 C 
ATOM      3  C   LIG d   1       5.487   0.180  -6.790  0.00  0.00    -0.045 C 
ATOM      4  C   LIG d   1       5.350  -1.144  -7.557  0.00  0.00    -0.028 C 
ATOM      5  H   LIG d   1       4.619  -1.765  -7.029  0.00  0.00     0.031 H 
ATOM      6  C   LIG d   1       6.768  -1.742  -7.400  0.00  0.00     0.018 C 
ATOM      7  C   LIG d   1       6.746  -3.167  -7.899  0.00  0.00    -0.043 C 
ATOM      8  C   LIG d   1       6.262  -3.235  -9.343  0.00  0.00    -0.049 C 
ATOM      9  C   LIG d   1       5.020  -2.420  -9.674  0.00  0.00    -0.029 C 
ATOM     10  H   LIG d   1       5.104  -2.213 -10.782  0.00  0.00     0.031 H 
ATOM     11  C   LIG d   1       5.004  -1.048  -9.018  0.00  0.00    -0.034 C 
ATOM     12  H   LIG d   1       5.779  -0.431  -9.522  0.00  0.00     0.031 H 
ATOM     13  C   LIG d   1       3.702  -0.286  -9.240  0.00  0.00    -0.046 C 
ATOM     14  C   LIG d   1       2.509  -1.115  -8.756  0.00  0.00    -0.030 C 
ATOM     15  C   LIG d   1       2.520  -2.394  -9.580  0.00  0.00    -0.060 C 
ATOM     16  C   LIG d   1       1.431  -2.679 -10.291  0.00  0.00    -0.019 C 
ATOM     17  C   LIG d   1       1.440  -3.907 -11.101  0.00  0.00     0.156 C 
ATOM     18  O   LIG d   1       0.449  -4.571 -11.296  0.00  0.00    -0.293 OA
ATOM     19  C   LIG d   1       2.799  -4.277 -11.667  0.00  0.00     0.011 C 
ATOM     20  C   LIG d   1       3.768  -4.413 -10.500  0.00  0.00    -0.037 C 
ATOM     21  C   LIG d   1       3.750  -3.241  -9.533  0.00  0.00    -0.007 C 
ATOM     22  H   LIG d   1       5.630  -0.398  -4.692  0.00  0.00     0.031 H 
ATOM     23  H   LIG d   1       7.032   0.537  -5.289  0.00  0.00     0.031 H 
ATOM     24  H   LIG d   1       6.012   0.928  -7.376  0.00  0.00     0.027 H 
ATOM     25  H   LIG d   1       4.501   0.550  -6.499  0.00  0.00     0.027 H 
ATOM     26  H   LIG d   1       7.775  -3.565  -7.852  0.00  0.00     0.027 H 
ATOM     27  H   LIG d   1       6.141  -3.792  -7.243  0.00  0.00     0.027 H 
ATOM     28  H   LIG d   1       7.077  -2.899 -10.006  0.00  0.00     0.027 H 
ATOM     29  H   LIG d   1       6.084  -4.287  -9.606  0.00  0.00     0.027 H 
ATOM     30  H   LIG d   1       3.588  -0.075 -10.304  0.00  0.00     0.027 H 
ATOM     31  H   LIG d   1       3.736   0.657  -8.693  0.00  0.00     0.027 H 
ATOM     32  H   LIG d   1       1.582  -0.571  -8.939  0.00  0.00     0.031 H 
ATOM     33  H   LIG d   1       2.607  -1.340  -7.699  0.00  0.00     0.031 H 
ATOM     34  H   LIG d   1       0.570  -2.033 -10.274  0.00  0.00     0.065 H 
ATOM     35  H   LIG d   1       3.105  -3.559 -12.294  0.00  0.00     0.035 H 
ATOM     36  H   LIG d   1       2.727  -5.224 -12.204  0.00  0.00     0.035 H 
ATOM     37  H   LIG d   1       4.780  -4.514 -10.896  0.00  0.00     0.028 H 
ATOM     38  H   LIG d   1       3.525  -5.317  -9.940  0.00  0.00     0.028 H 
ENDROOT
BRANCH   1  39
ATOM     39  O   LIG d   1       6.460  -2.664  -5.153  0.00  0.00    -0.450 OA
BRANCH  39  40
ATOM     40  C   LIG d   1       5.903  -2.379  -3.965  0.00  0.00     0.308 C 
ATOM     41  O   LIG d   1       6.590  -1.970  -3.058  0.00  0.00    -0.251 OA
BRANCH  40  42
ATOM     42  C   LIG d   1       4.422  -2.567  -3.763  0.00  0.00     0.045 C 
ATOM     43  H   LIG d   1       4.203  -3.630  -3.652  0.00  0.00     0.038 H 
ATOM     44  H   LIG d   1       3.884  -2.173  -4.624  0.00  0.00     0.038 H 
BRANCH  42  45
ATOM     45  C   LIG d   1       3.980  -1.823  -2.501  0.00  0.00    -0.043 C 
ATOM     46  H   LIG d   1       4.832  -1.290  -2.077  0.00  0.00     0.027 H 
ATOM     47  H   LIG d   1       3.600  -2.539  -1.771  0.00  0.00     0.027 H 
BRANCH  45  48
ATOM     48  C   LIG d   1       2.879  -0.824  -2.857  0.00  0.00    -0.053 C 
ATOM     49  H   LIG d   1       2.541  -1.003  -3.878  0.00  0.00     0.026 H 
ATOM     50  H   LIG d   1       2.041  -0.946  -2.171  0.00  0.00     0.026 H 
BRANCH  48  51
ATOM     51  C   LIG d   1       3.426   0.601  -2.744  0.00  0.00    -0.056 C 
ATOM     52  H   LIG d   1       3.799   0.924  -3.716  0.00  0.00     0.026 H 
ATOM     53  H   LIG d   1       2.630   1.270  -2.419  0.00  0.00     0.026 H 
BRANCH  51  54
ATOM     54  C   LIG d   1       4.566   0.630  -1.725  0.00  0.00    -0.065 C 
ATOM     55  H   LIG d   1       4.706  -0.367  -1.308  0.00  0.00     0.023 H 
ATOM     56  H   LIG d   1       5.486   0.950  -2.217  0.00  0.00     0.023 H 
ATOM     57  H   LIG d   1       4.321   1.328  -0.925  0.00  0.00     0.023 H 
ENDBRANCH  51  54
ENDBRANCH  48  51
ENDBRANCH  45  48
ENDBRANCH  42  45
ENDBRANCH  40  42
ENDBRANCH  39  40
ENDBRANCH   1  39
BRANCH   1  58
ATOM     58  C   LIG d   1       8.502  -1.438  -5.638  0.00  0.00     0.174 C 
ATOM     59  O   LIG d   1       9.208  -2.416  -5.708  0.00  0.00    -0.293 OA
BRANCH  58  60
ATOM     60  C   LIG d   1       9.101  -0.100  -5.290  0.00  0.00    -0.002 C 
ATOM     61  H   LIG d   1       8.509   0.369  -4.634  0.00  0.00     0.031 H 
ATOM     62  H   LIG d   1      10.088  -0.245  -4.851  0.00  0.00     0.031 H 
ATOM     63  H   LIG d   1       9.191   0.504  -6.194  0.00  0.00     0.031 H 
ENDBRANCH  58  60
ENDBRANCH   1  58
BRANCH   6  64
ATOM     64  C   LIG d   1       7.819  -0.934  -8.164  0.00  0.00    -0.055 C 
ATOM     65  H   LIG d   1       7.332  -0.357  -8.950  0.00  0.00     0.024 H 
ATOM     66  H   LIG d   1       8.327  -0.257  -7.477  0.00  0.00     0.024 H 
ATOM     67  H   LIG d   1       8.545  -1.613  -8.609  0.00  0.00     0.024 H 
ENDBRANCH   6  64
BRANCH  21  68
ATOM     68  C   LIG d   1       3.731  -3.902  -8.148  0.00  0.00    -0.056 C 
ATOM     69  H   LIG d   1       3.944  -4.966  -8.249  0.00  0.00     0.024 H 
ATOM     70  H   LIG d   1       4.489  -3.439  -7.514  0.00  0.00     0.024 H 
ATOM     71  H   LIG d   1       2.749  -3.769  -7.695  0.00  0.00     0.024 H 
ENDBRANCH  21  68
TORSDOF 11
ENDMDL
MODEL 7
REMARK VINA RESULT:      -5.6      3.638      7.466
REMARK  11 active torsions:
REMARK  status: ('A' for Active; 'I' for Inactive)
REMARK    1  A    between atoms: C_1  and  C_2 
REMARK    2  A    between atoms: C_2  and  C_3 
REMARK    3  A    between atoms: C_3  and  C_4 
REMARK    4  A    between atoms: C_4  and  C_5 
REMARK    5  A    between atoms: C_5  and  C_6 
REMARK    6  A    between atoms: C_6  and  O_8 
REMARK    7  A    between atoms: O_8  and  C_9 
REMARK    8  A    between atoms: C_9  and  C_32 
REMARK    9  A    between atoms: C_14  and  C_31 
REMARK   10  A    between atoms: C_29  and  C_30 
REMARK   11  A    between atoms: C_32  and  C_34 
ROOT
ATOM      1  C   LIG d   1       8.137  -4.779  -6.820  0.00  0.00     0.176 C 
ATOM      2  C   LIG d   1       8.967  -3.754  -7.632  0.00  0.00    -0.005 C 
ATOM      3  C   LIG d   1       8.167  -2.423  -7.609  0.00  0.00    -0.045 C 
ATOM      4  C   LIG d   1       7.255  -2.598  -6.385  0.00  0.00    -0.028 C 
ATOM      5  H   LIG d   1       7.872  -2.487  -5.487  0.00  0.00     0.031 H 
ATOM      6  C   LIG d   1       6.805  -4.070  -6.541  0.00  0.00     0.018 C 
ATOM      7  C   LIG d   1       6.082  -4.488  -5.283  0.00  0.00    -0.043 C 
ATOM      8  C   LIG d   1       4.903  -3.564  -4.997  0.00  0.00    -0.049 C 
ATOM      9  C   LIG d   1       5.175  -2.072  -5.116  0.00  0.00    -0.029 C 
ATOM     10  H   LIG d   1       4.165  -1.617  -5.342  0.00  0.00     0.031 H 
ATOM     11  C   LIG d   1       6.045  -1.708  -6.308  0.00  0.00    -0.034 C 
ATOM     12  H   LIG d   1       5.434  -1.867  -7.224  0.00  0.00     0.031 H 
ATOM     13  C   LIG d   1       6.427  -0.233  -6.352  0.00  0.00    -0.046 C 
ATOM     14  C   LIG d   1       7.120   0.178  -5.049  0.00  0.00    -0.030 C 
ATOM     15  C   LIG d   1       6.114  -0.075  -3.937  0.00  0.00    -0.060 C 
ATOM     16  C   LIG d   1       5.774   0.956  -3.165  0.00  0.00    -0.019 C 
ATOM     17  C   LIG d   1       4.792   0.722  -2.096  0.00  0.00     0.156 C 
ATOM     18  O   LIG d   1       4.822   1.306  -1.039  0.00  0.00    -0.293 OA
ATOM     19  C   LIG d   1       3.739  -0.320  -2.427  0.00  0.00     0.011 C 
ATOM     20  C   LIG d   1       4.460  -1.617  -2.769  0.00  0.00    -0.037 C 
ATOM     21  C   LIG d   1       5.579  -1.462  -3.784  0.00  0.00    -0.007 C 
ATOM     22  H   LIG d   1       9.942  -3.610  -7.162  0.00  0.00     0.031 H 
ATOM     23  H   LIG d   1       9.093  -4.099  -8.659  0.00  0.00     0.031 H 
ATOM     24  H   LIG d   1       7.591  -2.289  -8.519  0.00  0.00     0.027 H 
ATOM     25  H   LIG d   1       8.840  -1.576  -7.458  0.00  0.00     0.027 H 
ATOM     26  H   LIG d   1       5.701  -5.513  -5.429  0.00  0.00     0.027 H 
ATOM     27  H   LIG d   1       6.773  -4.529  -4.442  0.00  0.00     0.027 H 
ATOM     28  H   LIG d   1       4.080  -3.817  -5.685  0.00  0.00     0.027 H 
ATOM     29  H   LIG d   1       4.521  -3.783  -3.990  0.00  0.00     0.027 H 
ATOM     30  H   LIG d   1       5.525   0.366  -6.486  0.00  0.00     0.027 H 
ATOM     31  H   LIG d   1       7.099  -0.056  -7.192  0.00  0.00     0.027 H 
ATOM     32  H   LIG d   1       7.369   1.239  -5.082  0.00  0.00     0.031 H 
ATOM     33  H   LIG d   1       8.018  -0.412  -4.896  0.00  0.00     0.031 H 
ATOM     34  H   LIG d   1       6.205   1.931  -3.318  0.00  0.00     0.065 H 
ATOM     35  H   LIG d   1       3.194  -0.007  -3.206  0.00  0.00     0.035 H 
ATOM     36  H   LIG d   1       3.088  -0.471  -1.564  0.00  0.00     0.035 H 
ATOM     37  H   LIG d   1       3.732  -2.327  -3.169  0.00  0.00     0.028 H 
ATOM     38  H   LIG d   1       4.886  -2.038  -1.857  0.00  0.00     0.028 H 
ENDROOT
BRANCH   1  39
ATOM     39  O   LIG d   1       8.805  -5.102  -5.576  0.00  0.00    -0.450 OA
BRANCH  39  40
ATOM     40  C   LIG d   1      10.086  -4.719  -5.454  0.00  0.00     0.308 C 
ATOM     41  O   LIG d   1      10.956  -5.328  -6.030  0.00  0.00    -0.251 OA
BRANCH  40  42
ATOM     42  C   LIG d   1      10.438  -3.531  -4.598  0.00  0.00     0.045 C 
ATOM     43  H   LIG d   1       9.565  -2.885  -4.495  0.00  0.00     0.038 H 
ATOM     44  H   LIG d   1      11.249  -2.973  -5.066  0.00  0.00     0.038 H 
BRANCH  42  45
ATOM     45  C   LIG d   1      10.882  -4.011  -3.215  0.00  0.00    -0.043 C 
ATOM     46  H   LIG d   1      11.434  -3.215  -2.715  0.00  0.00     0.027 H 
ATOM     47  H   LIG d   1      11.524  -4.886  -3.323  0.00  0.00     0.027 H 
BRANCH  45  48
ATOM     48  C   LIG d   1       9.653  -4.380  -2.383  0.00  0.00    -0.053 C 
ATOM     49  H   LIG d   1       9.475  -3.608  -1.635  0.00  0.00     0.026 H 
ATOM     50  H   LIG d   1       8.783  -4.461  -3.036  0.00  0.00     0.026 H 
BRANCH  48  51
ATOM     51  C   LIG d   1       9.892  -5.720  -1.684  0.00  0.00    -0.056 C 
ATOM     52  H   LIG d   1      10.962  -5.860  -1.525  0.00  0.00     0.026 H 
ATOM     53  H   LIG d   1       9.378  -5.726  -0.725  0.00  0.00     0.026 H 
BRANCH  51  54
ATOM     54  C   LIG d   1       9.355  -6.855  -2.559  0.00  0.00    -0.065 C 
ATOM     55  H   LIG d   1       8.279  -6.944  -2.417  0.00  0.00     0.023 H 
ATOM     56  H   LIG d   1       9.567  -6.638  -3.606  0.00  0.00     0.023 H 
ATOM     57  H   LIG d   1       9.838  -7.790  -2.277  0.00  0.00     0.023 H 
ENDBRANCH  51  54
ENDBRANCH  48  51
ENDBRANCH  45  48
ENDBRANCH  42  45
ENDBRANCH  40  42
ENDBRANCH  39  40
ENDBRANCH   1  39
BRANCH   1  58
ATOM     58  C   LIG d   1       7.898  -6.024  -7.634  0.00  0.00     0.174 C 
ATOM     59  O   LIG d   1       8.073  -6.006  -8.829  0.00  0.00    -0.293 OA
BRANCH  58  60
ATOM     60  C   LIG d   1       7.441  -7.290  -6.957  0.00  0.00    -0.002 C 
ATOM     61  H   LIG d   1       7.477  -7.169  -5.966  0.00  0.00     0.031 H 
ATOM     62  H   LIG d   1       6.418  -7.516  -7.260  0.00  0.00     0.031 H 
ATOM     63  H   LIG d   1       8.096  -8.113  -7.247  0.00  0.00     0.031 H 
ENDBRANCH  58  60
ENDBRANCH   1  58
BRANCH   6  64
ATOM     64  C   LIG d   1       5.898  -4.266  -7.758  0.00  0.00    -0.055 C 
ATOM     65  H   LIG d   1       4.861  -4.336  -7.429  0.00  0.00     0.024 H 
ATOM     66  H   LIG d   1       6.009  -3.418  -8.433  0.00  0.00     0.024 H 
ATOM     67  H   LIG d   1       6.179  -5.183  -8.275  0.00  0.00     0.024 H 
ENDBRANCH   6  64
BRANCH  21  68
ATOM     68  C   LIG d   1       6.736  -2.277  -3.190  0.00  0.00    -0.056 C 
ATOM     69  H   LIG d   1       7.155  -2.927  -3.958  0.00  0.00     0.024 H 
ATOM     70  H   LIG d   1       7.509  -1.599  -2.827  0.00  0.00     0.024 H 
ATOM     71  H   LIG d   1       6.366  -2.883  -2.363  0.00  0.00     0.024 H 
ENDBRANCH  21  68
TORSDOF 11
ENDMDL
MODEL 8
REMARK VINA RESULT:      -5.6      3.357      5.628
REMARK  11 active torsions:
REMARK  status: ('A' for Active; 'I' for Inactive)
REMARK    1  A    between atoms: C_1  and  C_2 
REMARK    2  A    between atoms: C_2  and  C_3 
REMARK    3  A    between atoms: C_3  and  C_4 
REMARK    4  A    between atoms: C_4  and  C_5 
REMARK    5  A    between atoms: C_5  and  C_6 
REMARK    6  A    between atoms: C_6  and  O_8 
REMARK    7  A    between atoms: O_8  and  C_9 
REMARK    8  A    between atoms: C_9  and  C_32 
REMARK    9  A    between atoms: C_14  and  C_31 
REMARK   10  A    between atoms: C_29  and  C_30 
REMARK   11  A    between atoms: C_32  and  C_34 
ROOT
ATOM      1  C   LIG d   1       4.940  -0.795  -4.445  0.00  0.00     0.176 C 
ATOM      2  C   LIG d   1       5.706   0.203  -5.348  0.00  0.00    -0.005 C 
ATOM      3  C   LIG d   1       6.658  -0.647  -6.234  0.00  0.00    -0.045 C 
ATOM      4  C   LIG d   1       6.013  -2.040  -6.183  0.00  0.00    -0.028 C 
ATOM      5  H   LIG d   1       5.112  -2.017  -6.807  0.00  0.00     0.031 H 
ATOM      6  C   LIG d   1       5.622  -2.147  -4.691  0.00  0.00     0.018 C 
ATOM      7  C   LIG d   1       4.756  -3.371  -4.507  0.00  0.00    -0.043 C 
ATOM      8  C   LIG d   1       5.470  -4.626  -4.996  0.00  0.00    -0.049 C 
ATOM      9  C   LIG d   1       6.159  -4.523  -6.349  0.00  0.00    -0.029 C 
ATOM     10  H   LIG d   1       6.974  -5.305  -6.311  0.00  0.00     0.031 H 
ATOM     11  C   LIG d   1       6.887  -3.205  -6.560  0.00  0.00    -0.034 C 
ATOM     12  H   LIG d   1       7.775  -3.208  -5.891  0.00  0.00     0.031 H 
ATOM     13  C   LIG d   1       7.461  -3.048  -7.963  0.00  0.00    -0.046 C 
ATOM     14  C   LIG d   1       6.360  -3.215  -9.013  0.00  0.00    -0.030 C 
ATOM     15  C   LIG d   1       5.803  -4.618  -8.823  0.00  0.00    -0.060 C 
ATOM     16  C   LIG d   1       5.841  -5.444  -9.868  0.00  0.00    -0.019 C 
ATOM     17  C   LIG d   1       5.317  -6.806  -9.688  0.00  0.00     0.156 C 
ATOM     18  O   LIG d   1       4.766  -7.419 -10.572  0.00  0.00    -0.293 OA
ATOM     19  C   LIG d   1       5.520  -7.379  -8.296  0.00  0.00     0.011 C 
ATOM     20  C   LIG d   1       4.863  -6.430  -7.303  0.00  0.00    -0.037 C 
ATOM     21  C   LIG d   1       5.250  -4.972  -7.481  0.00  0.00    -0.007 C 
ATOM     22  H   LIG d   1       5.001   0.750  -5.979  0.00  0.00     0.031 H 
ATOM     23  H   LIG d   1       6.281   0.900  -4.738  0.00  0.00     0.031 H 
ATOM     24  H   LIG d   1       7.667  -0.659  -5.834  0.00  0.00     0.027 H 
ATOM     25  H   LIG d   1       6.661  -0.271  -7.260  0.00  0.00     0.027 H 
ATOM     26  H   LIG d   1       4.540  -3.482  -3.430  0.00  0.00     0.027 H 
ATOM     27  H   LIG d   1       3.796  -3.236  -5.004  0.00  0.00     0.027 H 
ATOM     28  H   LIG d   1       6.228  -4.915  -4.248  0.00  0.00     0.027 H 
ATOM     29  H   LIG d   1       4.749  -5.454  -5.019  0.00  0.00     0.027 H 
ATOM     30  H   LIG d   1       8.230  -3.807  -8.121  0.00  0.00     0.027 H 
ATOM     31  H   LIG d   1       7.912  -2.060  -8.062  0.00  0.00     0.027 H 
ATOM     32  H   LIG d   1       6.785  -3.123 -10.013  0.00  0.00     0.031 H 
ATOM     33  H   LIG d   1       5.582  -2.472  -8.868  0.00  0.00     0.031 H 
ATOM     34  H   LIG d   1       6.242  -5.125 -10.815  0.00  0.00     0.065 H 
ATOM     35  H   LIG d   1       6.500  -7.459  -8.109  0.00  0.00     0.035 H 
ATOM     36  H   LIG d   1       5.056  -8.365  -8.235  0.00  0.00     0.035 H 
ATOM     37  H   LIG d   1       5.140  -6.736  -6.292  0.00  0.00     0.028 H 
ATOM     38  H   LIG d   1       3.780  -6.507  -7.401  0.00  0.00     0.028 H 
ENDROOT
BRANCH   1  39
ATOM     39  O   LIG d   1       3.544  -0.859  -4.827  0.00  0.00    -0.450 OA
BRANCH  39  40
ATOM     40  C   LIG d   1       3.072   0.143  -5.585  0.00  0.00     0.308 C 
ATOM     41  O   LIG d   1       2.788   1.202  -5.077  0.00  0.00    -0.251 OA
BRANCH  40  42
ATOM     42  C   LIG d   1       2.899  -0.051  -7.069  0.00  0.00     0.045 C 
ATOM     43  H   LIG d   1       1.880  -0.381  -7.276  0.00  0.00     0.038 H 
ATOM     44  H   LIG d   1       3.603  -0.804  -7.422  0.00  0.00     0.038 H 
BRANCH  42  45
ATOM     45  C   LIG d   1       3.161   1.271  -7.792  0.00  0.00    -0.043 C 
ATOM     46  H   LIG d   1       4.230   1.487  -7.776  0.00  0.00     0.027 H 
ATOM     47  H   LIG d   1       2.621   2.074  -7.289  0.00  0.00     0.027 H 
BRANCH  45  48
ATOM     48  C   LIG d   1       2.684   1.165  -9.241  0.00  0.00    -0.053 C 
ATOM     49  H   LIG d   1       2.457   0.125  -9.473  0.00  0.00     0.026 H 
ATOM     50  H   LIG d   1       1.788   1.771  -9.374  0.00  0.00     0.026 H 
BRANCH  48  51
ATOM     51  C   LIG d   1       3.784   1.668 -10.179  0.00  0.00    -0.056 C 
ATOM     52  H   LIG d   1       3.491   2.631 -10.598  0.00  0.00     0.026 H 
ATOM     53  H   LIG d   1       4.713   1.782  -9.621  0.00  0.00     0.026 H 
BRANCH  51  54
ATOM     54  C   LIG d   1       3.989   0.661 -11.312  0.00  0.00    -0.065 C 
ATOM     55  H   LIG d   1       3.144  -0.028 -11.342  0.00  0.00     0.023 H 
ATOM     56  H   LIG d   1       4.059   1.191 -12.262  0.00  0.00     0.023 H 
ATOM     57  H   LIG d   1       4.908   0.102 -11.139  0.00  0.00     0.023 H 
ENDBRANCH  51  54
ENDBRANCH  48  51
ENDBRANCH  45  48
ENDBRANCH  42  45
ENDBRANCH  40  42
ENDBRANCH  39  40
ENDBRANCH   1  39
BRANCH   1  58
ATOM     58  C   LIG d   1       5.076  -0.404  -2.997  0.00  0.00     0.174 C 
ATOM     59  O   LIG d   1       5.814   0.500  -2.683  0.00  0.00    -0.293 OA
BRANCH  58  60
ATOM     60  C   LIG d   1       4.293  -1.140  -1.940  0.00  0.00    -0.002 C 
ATOM     61  H   LIG d   1       4.868  -1.848  -1.533  0.00  0.00     0.031 H 
ATOM     62  H   LIG d   1       3.976  -0.438  -1.168  0.00  0.00     0.031 H 
ATOM     63  H   LIG d   1       3.415  -1.600  -2.395  0.00  0.00     0.031 H 
ENDBRANCH  58  60
ENDBRANCH   1  58
BRANCH   6  64
ATOM     64  C   LIG d   1       6.850  -2.232  -3.781  0.00  0.00    -0.055 C 
ATOM     65  H   LIG d   1       7.581  -2.910  -4.222  0.00  0.00     0.024 H 
ATOM     66  H   LIG d   1       7.291  -1.242  -3.674  0.00  0.00     0.024 H 
ATOM     67  H   LIG d   1       6.551  -2.606  -2.803  0.00  0.00     0.024 H 
ENDBRANCH   6  64
BRANCH  21  68
ATOM     68  C   LIG d   1       3.917  -4.219  -7.383  0.00  0.00    -0.056 C 
ATOM     69  H   LIG d   1       4.001  -3.262  -7.897  0.00  0.00     0.024 H 
ATOM     70  H   LIG d   1       3.129  -4.813  -7.847  0.00  0.00     0.024 H 
ATOM     71  H   LIG d   1       3.672  -4.048  -6.334  0.00  0.00     0.024 H 
ENDBRANCH  21  68
TORSDOF 11
ENDMDL
MODEL 9
REMARK VINA RESULT:      -5.4      7.752      9.944
REMARK  11 active torsions:
REMARK  status: ('A' for Active; 'I' for Inactive)
REMARK    1  A    between atoms: C_1  and  C_2 
REMARK    2  A    between atoms: C_2  and  C_3 
REMARK    3  A    between atoms: C_3  and  C_4 
REMARK    4  A    between atoms: C_4  and  C_5 
REMARK    5  A    between atoms: C_5  and  C_6 
REMARK    6  A    between atoms: C_6  and  O_8 
REMARK    7  A    between atoms: O_8  and  C_9 
REMARK    8  A    between atoms: C_9  and  C_32 
REMARK    9  A    between atoms: C_14  and  C_31 
REMARK   10  A    between atoms: C_29  and  C_30 
REMARK   11  A    between atoms: C_32  and  C_34 
ROOT
ATOM      1  C   LIG d   1      10.696   8.226  -1.992  0.00  0.00     0.176 C 
ATOM      2  C   LIG d   1      11.906   9.189  -1.905  0.00  0.00    -0.005 C 
ATOM      3  C   LIG d   1      12.734   8.974  -3.201  0.00  0.00    -0.045 C 
ATOM      4  C   LIG d   1      11.708   8.345  -4.157  0.00  0.00    -0.028 C 
ATOM      5  H   LIG d   1      11.019   9.133  -4.477  0.00  0.00     0.031 H 
ATOM      6  C   LIG d   1      10.980   7.351  -3.221  0.00  0.00     0.018 C 
ATOM      7  C   LIG d   1       9.771   6.808  -3.943  0.00  0.00    -0.043 C 
ATOM      8  C   LIG d   1      10.169   6.154  -5.262  0.00  0.00    -0.049 C 
ATOM      9  C   LIG d   1      11.140   6.936  -6.134  0.00  0.00    -0.029 C 
ATOM     10  H   LIG d   1      11.655   6.149  -6.760  0.00  0.00     0.031 H 
ATOM     11  C   LIG d   1      12.256   7.605  -5.347  0.00  0.00    -0.034 C 
ATOM     12  H   LIG d   1      12.930   6.801  -4.980  0.00  0.00     0.031 H 
ATOM     13  C   LIG d   1      13.149   8.497  -6.202  0.00  0.00    -0.046 C 
ATOM     14  C   LIG d   1      12.311   9.552  -6.929  0.00  0.00    -0.030 C 
ATOM     15  C   LIG d   1      11.334   8.785  -7.807  0.00  0.00    -0.060 C 
ATOM     16  C   LIG d   1      11.356   9.031  -9.116  0.00  0.00    -0.019 C 
ATOM     17  C   LIG d   1      10.423   8.284  -9.973  0.00  0.00     0.156 C 
ATOM     18  O   LIG d   1       9.927   8.755 -10.968  0.00  0.00    -0.293 OA
ATOM     19  C   LIG d   1      10.130   6.871  -9.500  0.00  0.00     0.011 C 
ATOM     20  C   LIG d   1       9.582   6.960  -8.082  0.00  0.00    -0.037 C 
ATOM     21  C   LIG d   1      10.416   7.813  -7.141  0.00  0.00    -0.007 C 
ATOM     22  H   LIG d   1      11.556  10.221  -1.854  0.00  0.00     0.031 H 
ATOM     23  H   LIG d   1      12.512   8.955  -1.029  0.00  0.00     0.031 H 
ATOM     24  H   LIG d   1      13.577   8.312  -3.030  0.00  0.00     0.027 H 
ATOM     25  H   LIG d   1      13.078   9.932  -3.597  0.00  0.00     0.027 H 
ATOM     26  H   LIG d   1       9.297   6.047  -3.299  0.00  0.00     0.027 H 
ATOM     27  H   LIG d   1       9.031   7.594  -4.092  0.00  0.00     0.027 H 
ATOM     28  H   LIG d   1      10.619   5.170  -5.047  0.00  0.00     0.027 H 
ATOM     29  H   LIG d   1       9.258   5.941  -5.837  0.00  0.00     0.027 H 
ATOM     30  H   LIG d   1      13.671   7.881  -6.936  0.00  0.00     0.027 H 
ATOM     31  H   LIG d   1      13.884   8.991  -5.566  0.00  0.00     0.027 H 
ATOM     32  H   LIG d   1      12.957  10.170  -7.554  0.00  0.00     0.031 H 
ATOM     33  H   LIG d   1      11.779  10.172  -6.215  0.00  0.00     0.031 H 
ATOM     34  H   LIG d   1      12.035   9.754  -9.535  0.00  0.00     0.065 H 
ATOM     35  H   LIG d   1      10.974   6.333  -9.516  0.00  0.00     0.035 H 
ATOM     36  H   LIG d   1       9.392   6.410 -10.158  0.00  0.00     0.035 H 
ATOM     37  H   LIG d   1       9.522   5.952  -7.667  0.00  0.00     0.028 H 
ATOM     38  H   LIG d   1       8.575   7.378  -8.116  0.00  0.00     0.028 H 
ENDROOT
BRANCH   1  39
ATOM     39  O   LIG d   1       9.467   8.969  -2.179  0.00  0.00    -0.450 OA
BRANCH  39  40
ATOM     40  C   LIG d   1       9.359  10.141  -1.533  0.00  0.00     0.308 C 
ATOM     41  O   LIG d   1       9.168  10.158  -0.340  0.00  0.00    -0.251 OA
BRANCH  40  42
ATOM     42  C   LIG d   1       9.477  11.436  -2.295  0.00  0.00     0.045 C 
ATOM     43  H   LIG d   1      10.487  11.831  -2.187  0.00  0.00     0.038 H 
ATOM     44  H   LIG d   1       8.761  12.156  -1.900  0.00  0.00     0.038 H 
BRANCH  42  45
ATOM     45  C   LIG d   1       9.185  11.184  -3.775  0.00  0.00    -0.043 C 
ATOM     46  H   LIG d   1       8.248  11.671  -4.048  0.00  0.00     0.027 H 
ATOM     47  H   LIG d   1       9.101  10.111  -3.953  0.00  0.00     0.027 H 
BRANCH  45  48
ATOM     48  C   LIG d   1      10.321  11.755  -4.625  0.00  0.00    -0.053 C 
ATOM     49  H   LIG d   1      11.075  12.196  -3.973  0.00  0.00     0.026 H 
ATOM     50  H   LIG d   1      10.773  10.955  -5.213  0.00  0.00     0.026 H 
BRANCH  48  51
ATOM     51  C   LIG d   1       9.768  12.828  -5.565  0.00  0.00    -0.056 C 
ATOM     52  H   LIG d   1       8.745  13.070  -5.277  0.00  0.00     0.026 H 
ATOM     53  H   LIG d   1      10.385  13.723  -5.497  0.00  0.00     0.026 H 
BRANCH  51  54
ATOM     54  C   LIG d   1       9.782  12.304  -7.002  0.00  0.00    -0.065 C 
ATOM     55  H   LIG d   1      10.699  12.625  -7.496  0.00  0.00     0.023 H 
ATOM     56  H   LIG d   1       9.736  11.215  -6.993  0.00  0.00     0.023 H 
ATOM     57  H   LIG d   1       8.922  12.700  -7.541  0.00  0.00     0.023 H 
ENDBRANCH  51  54
ENDBRANCH  48  51
ENDBRANCH  45  48
ENDBRANCH  42  45
ENDBRANCH  40  42
ENDBRANCH  39  40
ENDBRANCH   1  39
BRANCH   1  58
ATOM     58  C   LIG d   1      10.616   7.368  -0.756  0.00  0.00     0.174 C 
ATOM     59  O   LIG d   1       9.680   6.623  -0.598  0.00  0.00    -0.293 OA
BRANCH  58  60
ATOM     60  C   LIG d   1      11.706   7.441   0.282  0.00  0.00    -0.002 C 
ATOM     61  H   LIG d   1      12.561   7.722  -0.152  0.00  0.00     0.031 H 
ATOM     62  H   LIG d   1      11.431   8.167   1.047  0.00  0.00     0.031 H 
ATOM     63  H   LIG d   1      11.836   6.461   0.742  0.00  0.00     0.031 H 
ENDBRANCH  58  60
ENDBRANCH   1  58
BRANCH   6  64
ATOM     64  C   LIG d   1      11.892   6.202  -2.785  0.00  0.00    -0.055 C 
ATOM     65  H   LIG d   1      11.751   5.353  -3.455  0.00  0.00     0.024 H 
ATOM     66  H   LIG d   1      12.931   6.527  -2.824  0.00  0.00     0.024 H 
ATOM     67  H   LIG d   1      11.641   5.907  -1.767  0.00  0.00     0.024 H 
ENDBRANCH   6  64
BRANCH  21  68
ATOM     68  C   LIG d   1       9.381   8.674  -6.404  0.00  0.00    -0.056 C 
ATOM     69  H   LIG d   1       9.718   9.710  -6.385  0.00  0.00     0.024 H 
ATOM     70  H   LIG d   1       8.423   8.613  -6.922  0.00  0.00     0.024 H 
ATOM     71  H   LIG d   1       9.266   8.310  -5.383  0.00  0.00     0.024 H 
ENDBRANCH  21  68
TORSDOF 11
ENDMDL
