MODEL 1
REMARK VINA RESULT:      -6.3      0.000      0.000
REMARK  8 active torsions:
REMARK  status: ('A' for Active; 'I' for Inactive)
REMARK    1  A    between atoms: C_1  and  C_2 
REMARK    2  A    between atoms: C_2  and  C_3 
REMARK    3  A    between atoms: C_2  and  C_4 
REMARK    4  A    between atoms: C_6  and  C_9 
REMARK    5  A    between atoms: N_19  and  C_20 
REMARK    6  A    between atoms: C_20  and  C_21 
REMARK    7  A    between atoms: C_24  and  O_27 
REMARK    8  A    between atoms: O_27  and  C_28 
ROOT
ATOM      1  C   LIG d   1       3.937  -0.721  -7.819  0.00  0.00     0.065 C 
ATOM      2  H   LIG d   1       4.605  -0.165  -8.476  0.00  0.00     0.096 H 
ATOM      3  C   LIG d   1       2.487  -0.288  -8.077  0.00  0.00     0.042 C 
ATOM      4  C   LIG d   1       2.086  -0.816  -9.430  0.00  0.00     0.050 A 
ATOM      5  C   LIG d   1       2.780  -1.773 -10.088  0.00  0.00     0.106 A 
ATOM      6  N   LIG d   1       2.162  -2.003 -11.247  0.00  0.00    -0.235 NA
ATOM      7  H   LIG d   1       0.351   0.187 -10.011  0.00  0.00     0.167 HD
ATOM      8  C   LIG d   1       1.111  -1.230 -11.335  0.00  0.00     0.094 A 
ATOM      9  N   LIG d   1       1.031  -0.473 -10.214  0.00  0.00    -0.348 N 
ATOM     10  C   LIG d   1       4.025  -2.418  -9.533  0.00  0.00     0.014 C 
ATOM     11  N   LIG d   1       4.076  -2.160  -8.084  0.00  0.00     0.252 N 
ATOM     12  H   LIG d   1       1.835  -0.703  -7.310  0.00  0.00     0.039 H 
ATOM     13  H   LIG d   1       2.420   0.801  -8.069  0.00  0.00     0.039 H 
ATOM     14  H   LIG d   1       0.419  -1.200 -12.164  0.00  0.00     0.103 H 
ATOM     15  H   LIG d   1       3.992  -3.492  -9.712  0.00  0.00     0.088 H 
ATOM     16  H   LIG d   1       4.904  -1.990 -10.013  0.00  0.00     0.088 H 
ATOM     17  H   LIG d   1       3.326  -2.657  -7.628  0.00  0.00     0.205 HD
ENDROOT
BRANCH  11  18
ATOM     18  C   LIG d   1       5.362  -2.631  -7.552  0.00  0.00    -0.005 C 
ATOM     19  H   LIG d   1       6.089  -2.690  -8.361  0.00  0.00     0.087 H 
ATOM     20  H   LIG d   1       5.718  -1.933  -6.794  0.00  0.00     0.087 H 
BRANCH  18  21
ATOM     21  C   LIG d   1       5.182  -3.995  -6.937  0.00  0.00    -0.003 A 
ATOM     22  C   LIG d   1       5.500  -5.127  -7.663  0.00  0.00    -0.050 A 
ATOM     23  C   LIG d   1       5.341  -6.378  -7.099  0.00  0.00    -0.019 A 
ATOM     24  H   LIG d   1       5.878  -5.033  -8.671  0.00  0.00     0.062 H 
ATOM     25  C   LIG d   1       4.851  -6.497  -5.807  0.00  0.00     0.120 A 
ATOM     26  H   LIG d   1       5.594  -7.262  -7.666  0.00  0.00     0.065 H 
ATOM     27  C   LIG d   1       4.527  -5.360  -5.082  0.00  0.00    -0.019 A 
ATOM     28  C   LIG d   1       4.692  -4.111  -5.649  0.00  0.00    -0.050 A 
ATOM     29  H   LIG d   1       4.145  -5.451  -4.076  0.00  0.00     0.065 H 
ATOM     30  H   LIG d   1       4.440  -3.225  -5.086  0.00  0.00     0.062 H 
BRANCH  25  31
ATOM     31  O   LIG d   1       4.689  -7.727  -5.252  0.00  0.00    -0.495 OA
BRANCH  31  32
ATOM     32  C   LIG d   1       4.795  -8.853  -6.126  0.00  0.00     0.079 C 
ATOM     33  H   LIG d   1       4.716  -8.519  -7.161  0.00  0.00     0.066 H 
ATOM     34  H   LIG d   1       5.757  -9.341  -5.974  0.00  0.00     0.066 H 
ATOM     35  H   LIG d   1       3.992  -9.558  -5.910  0.00  0.00     0.066 H 
ENDBRANCH  31  32
ENDBRANCH  25  31
ENDBRANCH  18  21
ENDBRANCH  11  18
BRANCH   1  36
ATOM     36  C   LIG d   1       4.298  -0.440  -6.383  0.00  0.00     0.276 A 
ATOM     37  N   LIG d   1       3.568  -0.728  -5.341  0.00  0.00    -0.191 NA
ATOM     38  C   LIG d   1       4.191  -0.339  -4.223  0.00  0.00     0.174 A 
ATOM     39  N   LIG d   1       5.328   0.208  -4.541  0.00  0.00    -0.061 NA
ATOM     40  O   LIG d   1       5.423   0.149  -5.957  0.00  0.00    -0.332 OA
BRANCH  38  41
ATOM     41  C   LIG d   1       3.660  -0.504  -2.822  0.00  0.00     0.017 C 
ATOM     42  H   LIG d   1       2.587  -0.308  -2.815  0.00  0.00     0.037 H 
BRANCH  41  43
ATOM     43  C   LIG d   1       3.921  -1.933  -2.342  0.00  0.00    -0.056 C 
ATOM     44  H   LIG d   1       3.840  -1.971  -1.255  0.00  0.00     0.024 H 
ATOM     45  H   LIG d   1       3.186  -2.605  -2.785  0.00  0.00     0.024 H 
ATOM     46  H   LIG d   1       4.923  -2.239  -2.643  0.00  0.00     0.024 H 
ENDBRANCH  41  43
BRANCH  41  47
ATOM     47  C   LIG d   1       4.365   0.485  -1.890  0.00  0.00    -0.056 C 
ATOM     48  H   LIG d   1       4.620  -0.015  -0.956  0.00  0.00     0.024 H 
ATOM     49  H   LIG d   1       5.276   0.847  -2.368  0.00  0.00     0.024 H 
ATOM     50  H   LIG d   1       3.703   1.325  -1.685  0.00  0.00     0.024 H 
ENDBRANCH  41  47
ENDBRANCH  38  41
ENDBRANCH   1  36
TORSDOF 8
ENDMDL
MODEL 2
REMARK VINA RESULT:      -6.1      4.305      6.762
REMARK  8 active torsions:
REMARK  status: ('A' for Active; 'I' for Inactive)
REMARK    1  A    between atoms: C_1  and  C_2 
REMARK    2  A    between atoms: C_2  and  C_3 
REMARK    3  A    between atoms: C_2  and  C_4 
REMARK    4  A    between atoms: C_6  and  C_9 
REMARK    5  A    between atoms: N_19  and  C_20 
REMARK    6  A    between atoms: C_20  and  C_21 
REMARK    7  A    between atoms: C_24  and  O_27 
REMARK    8  A    between atoms: O_27  and  C_28 
ROOT
ATOM      1  C   LIG d   1       8.153   1.162  -4.854  0.00  0.00     0.065 C 
ATOM      2  H   LIG d   1       9.129   0.678  -4.868  0.00  0.00     0.096 H 
ATOM      3  C   LIG d   1       8.276   2.544  -4.196  0.00  0.00     0.042 C 
ATOM      4  C   LIG d   1       9.040   3.434  -5.141  0.00  0.00     0.050 A 
ATOM      5  C   LIG d   1       9.244   3.130  -6.444  0.00  0.00     0.106 A 
ATOM      6  N   LIG d   1       9.953   4.119  -6.989  0.00  0.00    -0.235 NA
ATOM      7  H   LIG d   1       9.662   5.111  -4.067  0.00  0.00     0.167 HD
ATOM      8  C   LIG d   1      10.196   5.026  -6.078  0.00  0.00     0.094 A 
ATOM      9  N   LIG d   1       9.638   4.630  -4.910  0.00  0.00    -0.348 N 
ATOM     10  C   LIG d   1       8.720   1.871  -7.089  0.00  0.00     0.014 C 
ATOM     11  N   LIG d   1       7.662   1.314  -6.230  0.00  0.00     0.252 N 
ATOM     12  H   LIG d   1       7.284   2.958  -4.017  0.00  0.00     0.039 H 
ATOM     13  H   LIG d   1       8.815   2.456  -3.251  0.00  0.00     0.039 H 
ATOM     14  H   LIG d   1      10.750   5.941  -6.234  0.00  0.00     0.103 H 
ATOM     15  H   LIG d   1       8.309   2.107  -8.070  0.00  0.00     0.088 H 
ATOM     16  H   LIG d   1       9.530   1.149  -7.191  0.00  0.00     0.088 H 
ATOM     17  H   LIG d   1       6.866   1.933  -6.235  0.00  0.00     0.205 HD
ENDROOT
BRANCH  11  18
ATOM     18  C   LIG d   1       7.257   0.000  -6.750  0.00  0.00    -0.005 C 
ATOM     19  H   LIG d   1       7.956  -0.315  -7.523  0.00  0.00     0.087 H 
ATOM     20  H   LIG d   1       7.260  -0.727  -5.939  0.00  0.00     0.087 H 
BRANCH  18  21
ATOM     21  C   LIG d   1       5.871   0.098  -7.335  0.00  0.00    -0.003 A 
ATOM     22  C   LIG d   1       4.799  -0.459  -6.664  0.00  0.00    -0.050 A 
ATOM     23  C   LIG d   1       3.527  -0.366  -7.195  0.00  0.00    -0.019 A 
ATOM     24  H   LIG d   1       4.954  -0.964  -5.722  0.00  0.00     0.062 H 
ATOM     25  C   LIG d   1       3.329   0.277  -8.408  0.00  0.00     0.120 A 
ATOM     26  H   LIG d   1       2.689  -0.798  -6.668  0.00  0.00     0.065 H 
ATOM     27  C   LIG d   1       4.407   0.830  -9.082  0.00  0.00    -0.019 A 
ATOM     28  C   LIG d   1       5.677   0.739  -8.544  0.00  0.00    -0.050 A 
ATOM     29  H   LIG d   1       4.255   1.331 -10.026  0.00  0.00     0.065 H 
ATOM     30  H   LIG d   1       6.517   1.169  -9.068  0.00  0.00     0.062 H 
BRANCH  25  31
ATOM     31  O   LIG d   1       2.079   0.365  -8.935  0.00  0.00    -0.495 OA
BRANCH  31  32
ATOM     32  C   LIG d   1       1.668  -0.685  -9.812  0.00  0.00     0.079 C 
ATOM     33  H   LIG d   1       2.181  -0.582 -10.768  0.00  0.00     0.066 H 
ATOM     34  H   LIG d   1       1.919  -1.648  -9.367  0.00  0.00     0.066 H 
ATOM     35  H   LIG d   1       0.590  -0.627  -9.969  0.00  0.00     0.066 H 
ENDBRANCH  31  32
ENDBRANCH  25  31
ENDBRANCH  18  21
ENDBRANCH  11  18
BRANCH   1  36
ATOM     36  C   LIG d   1       7.184   0.315  -4.068  0.00  0.00     0.276 A 
ATOM     37  N   LIG d   1       6.075   0.731  -3.522  0.00  0.00    -0.191 NA
ATOM     38  C   LIG d   1       5.461  -0.283  -2.902  0.00  0.00     0.174 A 
ATOM     39  N   LIG d   1       6.178  -1.360  -3.042  0.00  0.00    -0.061 NA
ATOM     40  O   LIG d   1       7.315  -0.992  -3.810  0.00  0.00    -0.332 OA
BRANCH  38  41
ATOM     41  C   LIG d   1       4.153  -0.192  -2.158  0.00  0.00     0.017 C 
ATOM     42  H   LIG d   1       4.321  -0.402  -1.102  0.00  0.00     0.037 H 
BRANCH  41  43
ATOM     43  C   LIG d   1       3.576   1.217  -2.312  0.00  0.00    -0.056 C 
ATOM     44  H   LIG d   1       2.572   1.154  -2.733  0.00  0.00     0.024 H 
ATOM     45  H   LIG d   1       3.532   1.701  -1.336  0.00  0.00     0.024 H 
ATOM     46  H   LIG d   1       4.213   1.799  -2.978  0.00  0.00     0.024 H 
ENDBRANCH  41  43
BRANCH  41  47
ATOM     47  C   LIG d   1       3.168  -1.212  -2.732  0.00  0.00    -0.056 C 
ATOM     48  H   LIG d   1       3.287  -1.264  -3.814  0.00  0.00     0.024 H 
ATOM     49  H   LIG d   1       3.366  -2.193  -2.298  0.00  0.00     0.024 H 
ATOM     50  H   LIG d   1       2.150  -0.908  -2.492  0.00  0.00     0.024 H 
ENDBRANCH  41  47
ENDBRANCH  38  41
ENDBRANCH   1  36
TORSDOF 8
ENDMDL
MODEL 3
REMARK VINA RESULT:      -6.0      4.951      8.389
REMARK  8 active torsions:
REMARK  status: ('A' for Active; 'I' for Inactive)
REMARK    1  A    between atoms: C_1  and  C_2 
REMARK    2  A    between atoms: C_2  and  C_3 
REMARK    3  A    between atoms: C_2  and  C_4 
REMARK    4  A    between atoms: C_6  and  C_9 
REMARK    5  A    between atoms: N_19  and  C_20 
REMARK    6  A    between atoms: C_20  and  C_21 
REMARK    7  A    between atoms: C_24  and  O_27 
REMARK    8  A    between atoms: O_27  and  C_28 
ROOT
ATOM      1  C   LIG d   1       8.173  -3.015  -4.403  0.00  0.00     0.065 C 
ATOM      2  H   LIG d   1       8.242  -3.635  -5.296  0.00  0.00     0.096 H 
ATOM      3  C   LIG d   1       8.835  -3.742  -3.223  0.00  0.00     0.042 C 
ATOM      4  C   LIG d   1      10.321  -3.754  -3.468  0.00  0.00     0.050 A 
ATOM      5  C   LIG d   1      10.929  -2.960  -4.381  0.00  0.00     0.106 A 
ATOM      6  N   LIG d   1      12.236  -3.223  -4.346  0.00  0.00    -0.235 NA
ATOM      7  H   LIG d   1      11.163  -5.163  -2.180  0.00  0.00     0.167 HD
ATOM      8  C   LIG d   1      12.465  -4.145  -3.447  0.00  0.00     0.094 A 
ATOM      9  N   LIG d   1      11.289  -4.501  -2.877  0.00  0.00    -0.348 N 
ATOM     10  C   LIG d   1      10.182  -1.974  -5.243  0.00  0.00     0.014 C 
ATOM     11  N   LIG d   1       8.859  -1.737  -4.641  0.00  0.00     0.252 N 
ATOM     12  H   LIG d   1       8.617  -3.214  -2.295  0.00  0.00     0.039 H 
ATOM     13  H   LIG d   1       8.460  -4.765  -3.163  0.00  0.00     0.039 H 
ATOM     14  H   LIG d   1      13.433  -4.556  -3.200  0.00  0.00     0.103 H 
ATOM     15  H   LIG d   1      10.736  -1.036  -5.290  0.00  0.00     0.088 H 
ATOM     16  H   LIG d   1      10.062  -2.382  -6.246  0.00  0.00     0.088 H 
ATOM     17  H   LIG d   1       8.972  -1.251  -3.765  0.00  0.00     0.205 HD
ENDROOT
BRANCH  11  18
ATOM     18  C   LIG d   1       8.052  -0.914  -5.552  0.00  0.00    -0.005 C 
ATOM     19  H   LIG d   1       8.303  -1.160  -6.582  0.00  0.00     0.087 H 
ATOM     20  H   LIG d   1       6.994  -1.112  -5.378  0.00  0.00     0.087 H 
BRANCH  18  21
ATOM     21  C   LIG d   1       8.339   0.544  -5.298  0.00  0.00    -0.003 A 
ATOM     22  C   LIG d   1       8.832   1.338  -6.317  0.00  0.00    -0.050 A 
ATOM     23  C   LIG d   1       9.089   2.675  -6.088  0.00  0.00    -0.019 A 
ATOM     24  H   LIG d   1       9.011   0.913  -7.294  0.00  0.00     0.062 H 
ATOM     25  C   LIG d   1       8.864   3.219  -4.832  0.00  0.00     0.120 A 
ATOM     26  H   LIG d   1       9.470   3.296  -6.886  0.00  0.00     0.065 H 
ATOM     27  C   LIG d   1       8.375   2.419  -3.810  0.00  0.00    -0.019 A 
ATOM     28  C   LIG d   1       8.114   1.083  -4.044  0.00  0.00    -0.050 A 
ATOM     29  H   LIG d   1       8.200   2.840  -2.831  0.00  0.00     0.065 H 
ATOM     30  H   LIG d   1       7.734   0.460  -3.250  0.00  0.00     0.062 H 
BRANCH  25  31
ATOM     31  O   LIG d   1       9.123   4.533  -4.604  0.00  0.00    -0.495 OA
BRANCH  31  32
ATOM     32  C   LIG d   1       9.901   4.851  -3.448  0.00  0.00     0.079 C 
ATOM     33  H   LIG d   1      10.958   4.865  -3.714  0.00  0.00     0.066 H 
ATOM     34  H   LIG d   1       9.608   5.830  -3.071  0.00  0.00     0.066 H 
ATOM     35  H   LIG d   1       9.730   4.099  -2.676  0.00  0.00     0.066 H 
ENDBRANCH  31  32
ENDBRANCH  25  31
ENDBRANCH  18  21
ENDBRANCH  11  18
BRANCH   1  36
ATOM     36  C   LIG d   1       6.724  -2.753  -4.084  0.00  0.00     0.276 A 
ATOM     37  N   LIG d   1       6.278  -1.942  -3.165  0.00  0.00    -0.191 NA
ATOM     38  C   LIG d   1       4.941  -1.952  -3.154  0.00  0.00     0.174 A 
ATOM     39  N   LIG d   1       4.517  -2.778  -4.067  0.00  0.00    -0.061 NA
ATOM     40  O   LIG d   1       5.672  -3.313  -4.696  0.00  0.00    -0.332 OA
BRANCH  38  41
ATOM     41  C   LIG d   1       4.066  -1.143  -2.231  0.00  0.00     0.017 C 
ATOM     42  H   LIG d   1       3.896  -1.701  -1.310  0.00  0.00     0.037 H 
BRANCH  41  43
ATOM     43  C   LIG d   1       4.759   0.182  -1.903  0.00  0.00    -0.056 C 
ATOM     44  H   LIG d   1       4.613   0.881  -2.727  0.00  0.00     0.024 H 
ATOM     45  H   LIG d   1       4.333   0.599  -0.991  0.00  0.00     0.024 H 
ATOM     46  H   LIG d   1       5.825   0.008  -1.760  0.00  0.00     0.024 H 
ENDBRANCH  41  43
BRANCH  41  47
ATOM     47  C   LIG d   1       2.726  -0.863  -2.914  0.00  0.00    -0.056 C 
ATOM     48  H   LIG d   1       2.329   0.088  -2.559  0.00  0.00     0.024 H 
ATOM     49  H   LIG d   1       2.871  -0.815  -3.993  0.00  0.00     0.024 H 
ATOM     50  H   LIG d   1       2.024  -1.661  -2.677  0.00  0.00     0.024 H 
ENDBRANCH  41  47
ENDBRANCH  38  41
ENDBRANCH   1  36
TORSDOF 8
ENDMDL
MODEL 4
REMARK VINA RESULT:      -5.8      2.390      6.561
REMARK  8 active torsions:
REMARK  status: ('A' for Active; 'I' for Inactive)
REMARK    1  A    between atoms: C_1  and  C_2 
REMARK    2  A    between atoms: C_2  and  C_3 
REMARK    3  A    between atoms: C_2  and  C_4 
REMARK    4  A    between atoms: C_6  and  C_9 
REMARK    5  A    between atoms: N_19  and  C_20 
REMARK    6  A    between atoms: C_20  and  C_21 
REMARK    7  A    between atoms: C_24  and  O_27 
REMARK    8  A    between atoms: O_27  and  C_28 
ROOT
ATOM      1  C   LIG d   1       5.242  -2.655  -4.591  0.00  0.00     0.065 C 
ATOM      2  H   LIG d   1       6.314  -2.562  -4.421  0.00  0.00     0.096 H 
ATOM      3  C   LIG d   1       4.493  -2.436  -3.268  0.00  0.00     0.042 C 
ATOM      4  C   LIG d   1       4.616  -0.978  -2.909  0.00  0.00     0.050 A 
ATOM      5  C   LIG d   1       5.013  -0.029  -3.788  0.00  0.00     0.106 A 
ATOM      6  N   LIG d   1       5.016   1.143  -3.151  0.00  0.00    -0.235 NA
ATOM      7  H   LIG d   1       4.076  -0.774  -0.904  0.00  0.00     0.167 HD
ATOM      8  C   LIG d   1       4.636   0.960  -1.913  0.00  0.00     0.094 A 
ATOM      9  N   LIG d   1       4.376  -0.356  -1.726  0.00  0.00    -0.348 N 
ATOM     10  C   LIG d   1       5.366  -0.329  -5.223  0.00  0.00     0.014 C 
ATOM     11  N   LIG d   1       4.813  -1.648  -5.572  0.00  0.00     0.252 N 
ATOM     12  H   LIG d   1       3.443  -2.701  -3.390  0.00  0.00     0.039 H 
ATOM     13  H   LIG d   1       4.940  -3.050  -2.485  0.00  0.00     0.039 H 
ATOM     14  H   LIG d   1       4.543   1.732  -1.163  0.00  0.00     0.103 H 
ATOM     15  H   LIG d   1       4.935   0.432  -5.873  0.00  0.00     0.088 H 
ATOM     16  H   LIG d   1       6.450  -0.343  -5.337  0.00  0.00     0.088 H 
ATOM     17  H   LIG d   1       3.805  -1.598  -5.580  0.00  0.00     0.205 HD
ENDROOT
BRANCH  11  18
ATOM     18  C   LIG d   1       5.289  -2.036  -6.907  0.00  0.00    -0.005 C 
ATOM     19  H   LIG d   1       6.091  -1.367  -7.215  0.00  0.00     0.087 H 
ATOM     20  H   LIG d   1       5.662  -3.060  -6.876  0.00  0.00     0.087 H 
BRANCH  18  21
ATOM     21  C   LIG d   1       4.152  -1.944  -7.892  0.00  0.00    -0.003 A 
ATOM     22  C   LIG d   1       3.867  -3.015  -8.719  0.00  0.00    -0.050 A 
ATOM     23  C   LIG d   1       2.821  -2.935  -9.618  0.00  0.00    -0.019 A 
ATOM     24  H   LIG d   1       4.460  -3.916  -8.659  0.00  0.00     0.062 H 
ATOM     25  C   LIG d   1       2.064  -1.776  -9.698  0.00  0.00     0.120 A 
ATOM     26  H   LIG d   1       2.597  -3.773 -10.261  0.00  0.00     0.065 H 
ATOM     27  C   LIG d   1       2.355  -0.701  -8.871  0.00  0.00    -0.019 A 
ATOM     28  C   LIG d   1       3.399  -0.787  -7.970  0.00  0.00    -0.050 A 
ATOM     29  H   LIG d   1       1.767   0.203  -8.932  0.00  0.00     0.065 H 
ATOM     30  H   LIG d   1       3.627   0.049  -7.326  0.00  0.00     0.062 H 
BRANCH  25  31
ATOM     31  O   LIG d   1       1.038  -1.693 -10.586  0.00  0.00    -0.495 OA
BRANCH  31  32
ATOM     32  C   LIG d   1       1.362  -1.284 -11.916  0.00  0.00     0.079 C 
ATOM     33  H   LIG d   1       2.442  -1.176 -12.011  0.00  0.00     0.066 H 
ATOM     34  H   LIG d   1       1.008  -2.033 -12.623  0.00  0.00     0.066 H 
ATOM     35  H   LIG d   1       0.882  -0.328 -12.129  0.00  0.00     0.066 H 
ENDBRANCH  31  32
ENDBRANCH  25  31
ENDBRANCH  18  21
ENDBRANCH  11  18
BRANCH   1  36
ATOM     36  C   LIG d   1       4.935  -4.033  -5.121  0.00  0.00     0.276 A 
ATOM     37  N   LIG d   1       5.776  -5.026  -5.198  0.00  0.00    -0.191 NA
ATOM     38  C   LIG d   1       5.171  -6.101  -5.715  0.00  0.00     0.174 A 
ATOM     39  N   LIG d   1       3.932  -5.801  -5.980  0.00  0.00    -0.061 NA
ATOM     40  O   LIG d   1       3.752  -4.446  -5.592  0.00  0.00    -0.332 OA
BRANCH  38  41
ATOM     41  C   LIG d   1       5.819  -7.440  -5.958  0.00  0.00     0.017 C 
ATOM     42  H   LIG d   1       5.946  -7.592  -7.030  0.00  0.00     0.037 H 
BRANCH  41  43
ATOM     43  C   LIG d   1       7.186  -7.477  -5.271  0.00  0.00    -0.056 C 
ATOM     44  H   LIG d   1       7.499  -6.460  -5.031  0.00  0.00     0.024 H 
ATOM     45  H   LIG d   1       7.116  -8.062  -4.354  0.00  0.00     0.024 H 
ATOM     46  H   LIG d   1       7.915  -7.933  -5.939  0.00  0.00     0.024 H 
ENDBRANCH  41  43
BRANCH  41  47
ATOM     47  C   LIG d   1       4.930  -8.547  -5.387  0.00  0.00    -0.056 C 
ATOM     48  H   LIG d   1       4.160  -8.105  -4.755  0.00  0.00     0.024 H 
ATOM     49  H   LIG d   1       4.459  -9.093  -6.205  0.00  0.00     0.024 H 
ATOM     50  H   LIG d   1       5.538  -9.231  -4.796  0.00  0.00     0.024 H 
ENDBRANCH  41  47
ENDBRANCH  38  41
ENDBRANCH   1  36
TORSDOF 8
ENDMDL
MODEL 5
REMARK VINA RESULT:      -5.7      4.634      7.211
REMARK  8 active torsions:
REMARK  status: ('A' for Active; 'I' for Inactive)
REMARK    1  A    between atoms: C_1  and  C_2 
REMARK    2  A    between atoms: C_2  and  C_3 
REMARK    3  A    between atoms: C_2  and  C_4 
REMARK    4  A    between atoms: C_6  and  C_9 
REMARK    5  A    between atoms: N_19  and  C_20 
REMARK    6  A    between atoms: C_20  and  C_21 
REMARK    7  A    between atoms: C_24  and  O_27 
REMARK    8  A    between atoms: O_27  and  C_28 
ROOT
ATOM      1  C   LIG d   1       8.181   0.765  -3.972  0.00  0.00     0.065 C 
ATOM      2  H   LIG d   1       8.684  -0.033  -3.428  0.00  0.00     0.096 H 
ATOM      3  C   LIG d   1       8.881   2.101  -3.684  0.00  0.00     0.042 C 
ATOM      4  C   LIG d   1      10.223   2.071  -4.367  0.00  0.00     0.050 A 
ATOM      5  C   LIG d   1      10.548   1.169  -5.323  0.00  0.00     0.106 A 
ATOM      6  N   LIG d   1      11.800   1.418  -5.711  0.00  0.00    -0.235 NA
ATOM      7  H   LIG d   1      11.374   3.617  -3.568  0.00  0.00     0.167 HD
ATOM      8  C   LIG d   1      12.264   2.438  -5.037  0.00  0.00     0.094 A 
ATOM      9  N   LIG d   1      11.304   2.873  -4.188  0.00  0.00    -0.348 N 
ATOM     10  C   LIG d   1       9.598   0.104  -5.809  0.00  0.00     0.014 C 
ATOM     11  N   LIG d   1       8.232   0.483  -5.413  0.00  0.00     0.252 N 
ATOM     12  H   LIG d   1       8.284   2.923  -4.077  0.00  0.00     0.039 H 
ATOM     13  H   LIG d   1       9.015   2.223  -2.608  0.00  0.00     0.039 H 
ATOM     14  H   LIG d   1      13.252   2.864  -5.142  0.00  0.00     0.103 H 
ATOM     15  H   LIG d   1       9.657   0.030  -6.895  0.00  0.00     0.088 H 
ATOM     16  H   LIG d   1       9.860  -0.853  -5.359  0.00  0.00     0.088 H 
ATOM     17  H   LIG d   1       7.950   1.306  -5.924  0.00  0.00     0.205 HD
ENDROOT
BRANCH  11  18
ATOM     18  C   LIG d   1       7.312  -0.620  -5.725  0.00  0.00    -0.005 C 
ATOM     19  H   LIG d   1       7.871  -1.443  -6.170  0.00  0.00     0.087 H 
ATOM     20  H   LIG d   1       6.830  -0.961  -4.809  0.00  0.00     0.087 H 
BRANCH  18  21
ATOM     21  C   LIG d   1       6.265  -0.140  -6.697  0.00  0.00    -0.003 A 
ATOM     22  C   LIG d   1       6.630   0.655  -7.768  0.00  0.00    -0.050 A 
ATOM     23  C   LIG d   1       5.673   1.091  -8.663  0.00  0.00    -0.019 A 
ATOM     24  H   LIG d   1       7.665   0.933  -7.906  0.00  0.00     0.062 H 
ATOM     25  C   LIG d   1       4.343   0.740  -8.481  0.00  0.00     0.120 A 
ATOM     26  H   LIG d   1       5.959   1.709  -9.501  0.00  0.00     0.065 H 
ATOM     27  C   LIG d   1       3.979  -0.054  -7.403  0.00  0.00    -0.019 A 
ATOM     28  C   LIG d   1       4.941  -0.491  -6.513  0.00  0.00    -0.050 A 
ATOM     29  H   LIG d   1       2.945  -0.328  -7.259  0.00  0.00     0.065 H 
ATOM     30  H   LIG d   1       4.658  -1.108  -5.674  0.00  0.00     0.062 H 
BRANCH  25  31
ATOM     31  O   LIG d   1       3.400   1.172  -9.358  0.00  0.00    -0.495 OA
BRANCH  31  32
ATOM     32  C   LIG d   1       3.846   1.538 -10.665  0.00  0.00     0.079 C 
ATOM     33  H   LIG d   1       4.020   2.614 -10.701  0.00  0.00     0.066 H 
ATOM     34  H   LIG d   1       4.773   1.013 -10.892  0.00  0.00     0.066 H 
ATOM     35  H   LIG d   1       3.086   1.268 -11.398  0.00  0.00     0.066 H 
ENDBRANCH  31  32
ENDBRANCH  25  31
ENDBRANCH  18  21
ENDBRANCH  11  18
BRANCH   1  36
ATOM     36  C   LIG d   1       6.743   0.845  -3.527  0.00  0.00     0.276 A 
ATOM     37  N   LIG d   1       6.007  -0.158  -3.137  0.00  0.00    -0.191 NA
ATOM     38  C   LIG d   1       4.781   0.271  -2.814  0.00  0.00     0.174 A 
ATOM     39  N   LIG d   1       4.721   1.557  -3.001  0.00  0.00    -0.061 NA
ATOM     40  O   LIG d   1       6.002   1.959  -3.466  0.00  0.00    -0.332 OA
BRANCH  38  41
ATOM     41  C   LIG d   1       3.652  -0.597  -2.319  0.00  0.00     0.017 C 
ATOM     42  H   LIG d   1       3.322  -0.241  -1.343  0.00  0.00     0.037 H 
BRANCH  41  43
ATOM     43  C   LIG d   1       2.486  -0.529  -3.308  0.00  0.00    -0.056 C 
ATOM     44  H   LIG d   1       2.650   0.292  -4.007  0.00  0.00     0.024 H 
ATOM     45  H   LIG d   1       2.422  -1.468  -3.858  0.00  0.00     0.024 H 
ATOM     46  H   LIG d   1       1.558  -0.362  -2.763  0.00  0.00     0.024 H 
ENDBRANCH  41  43
BRANCH  41  47
ATOM     47  C   LIG d   1       4.136  -2.044  -2.198  0.00  0.00    -0.056 C 
ATOM     48  H   LIG d   1       3.868  -2.436  -1.217  0.00  0.00     0.024 H 
ATOM     49  H   LIG d   1       3.666  -2.650  -2.973  0.00  0.00     0.024 H 
ATOM     50  H   LIG d   1       5.219  -2.075  -2.319  0.00  0.00     0.024 H 
ENDBRANCH  41  47
ENDBRANCH  38  41
ENDBRANCH   1  36
TORSDOF 8
ENDMDL
MODEL 6
REMARK VINA RESULT:      -5.7      5.570      9.068
REMARK  8 active torsions:
REMARK  status: ('A' for Active; 'I' for Inactive)
REMARK    1  A    between atoms: C_1  and  C_2 
REMARK    2  A    between atoms: C_2  and  C_3 
REMARK    3  A    between atoms: C_2  and  C_4 
REMARK    4  A    between atoms: C_6  and  C_9 
REMARK    5  A    between atoms: N_19  and  C_20 
REMARK    6  A    between atoms: C_20  and  C_21 
REMARK    7  A    between atoms: C_24  and  O_27 
REMARK    8  A    between atoms: O_27  and  C_28 
ROOT
ATOM      1  C   LIG d   1       8.496  -0.258  -5.644  0.00  0.00     0.065 C 
ATOM      2  H   LIG d   1       8.377  -0.392  -6.719  0.00  0.00     0.096 H 
ATOM      3  C   LIG d   1       9.129  -1.518  -5.038  0.00  0.00     0.042 C 
ATOM      4  C   LIG d   1      10.563  -1.575  -5.494  0.00  0.00     0.050 A 
ATOM      5  C   LIG d   1      11.211  -0.517  -6.037  0.00  0.00     0.106 A 
ATOM      6  N   LIG d   1      12.453  -0.905  -6.331  0.00  0.00    -0.235 NA
ATOM      7  H   LIG d   1      11.268  -3.504  -5.127  0.00  0.00     0.167 HD
ATOM      8  C   LIG d   1      12.603  -2.159  -5.992  0.00  0.00     0.094 A 
ATOM      9  N   LIG d   1      11.441  -2.610  -5.463  0.00  0.00    -0.348 N 
ATOM     10  C   LIG d   1      10.567   0.832  -6.234  0.00  0.00     0.014 C 
ATOM     11  N   LIG d   1       9.363   0.901  -5.389  0.00  0.00     0.252 N 
ATOM     12  H   LIG d   1       9.088  -1.466  -3.950  0.00  0.00     0.039 H 
ATOM     13  H   LIG d   1       8.594  -2.404  -5.385  0.00  0.00     0.039 H 
ATOM     14  H   LIG d   1      13.507  -2.739  -6.112  0.00  0.00     0.103 H 
ATOM     15  H   LIG d   1      11.264   1.617  -5.942  0.00  0.00     0.088 H 
ATOM     16  H   LIG d   1      10.289   0.955  -7.281  0.00  0.00     0.088 H 
ATOM     17  H   LIG d   1       9.636   0.906  -4.418  0.00  0.00     0.205 HD
ENDROOT
BRANCH  11  18
ATOM     18  C   LIG d   1       8.627   2.136  -5.692  0.00  0.00    -0.005 C 
ATOM     19  H   LIG d   1       8.772   2.396  -6.740  0.00  0.00     0.087 H 
ATOM     20  H   LIG d   1       7.565   1.982  -5.499  0.00  0.00     0.087 H 
BRANCH  18  21
ATOM     21  C   LIG d   1       9.141   3.253  -4.820  0.00  0.00    -0.003 A 
ATOM     22  C   LIG d   1       9.281   4.526  -5.342  0.00  0.00    -0.050 A 
ATOM     23  C   LIG d   1       9.746   5.553  -4.543  0.00  0.00    -0.019 A 
ATOM     24  H   LIG d   1       9.023   4.719  -6.373  0.00  0.00     0.062 H 
ATOM     25  C   LIG d   1      10.083   5.303  -3.220  0.00  0.00     0.120 A 
ATOM     26  H   LIG d   1       9.852   6.547  -4.949  0.00  0.00     0.065 H 
ATOM     27  C   LIG d   1       9.946   4.024  -2.702  0.00  0.00    -0.019 A 
ATOM     28  C   LIG d   1       9.476   3.001  -3.503  0.00  0.00    -0.050 A 
ATOM     29  H   LIG d   1      10.208   3.827  -1.672  0.00  0.00     0.065 H 
ATOM     30  H   LIG d   1       9.370   2.005  -3.100  0.00  0.00     0.062 H 
BRANCH  25  31
ATOM     31  O   LIG d   1      10.545   6.310  -2.434  0.00  0.00    -0.495 OA
BRANCH  31  32
ATOM     32  C   LIG d   1       9.574   7.063  -1.705  0.00  0.00     0.079 C 
ATOM     33  H   LIG d   1       9.611   8.106  -2.020  0.00  0.00     0.066 H 
ATOM     34  H   LIG d   1       8.581   6.660  -1.900  0.00  0.00     0.066 H 
ATOM     35  H   LIG d   1       9.789   6.997  -0.638  0.00  0.00     0.066 H 
ENDBRANCH  31  32
ENDBRANCH  25  31
ENDBRANCH  18  21
ENDBRANCH  11  18
BRANCH   1  36
ATOM     36  C   LIG d   1       7.146  -0.021  -5.016  0.00  0.00     0.276 A 
ATOM     37  N   LIG d   1       6.885  -0.036  -3.739  0.00  0.00    -0.191 NA
ATOM     38  C   LIG d   1       5.587   0.214  -3.533  0.00  0.00     0.174 A 
ATOM     39  N   LIG d   1       5.003   0.386  -4.683  0.00  0.00    -0.061 NA
ATOM     40  O   LIG d   1       6.010   0.242  -5.675  0.00  0.00    -0.332 OA
BRANCH  38  41
ATOM     41  C   LIG d   1       4.910   0.279  -2.188  0.00  0.00     0.017 C 
ATOM     42  H   LIG d   1       5.629   0.599  -1.435  0.00  0.00     0.037 H 
BRANCH  41  43
ATOM     43  C   LIG d   1       3.753   1.278  -2.247  0.00  0.00    -0.056 C 
ATOM     44  H   LIG d   1       2.835   0.791  -1.918  0.00  0.00     0.024 H 
ATOM     45  H   LIG d   1       3.970   2.124  -1.595  0.00  0.00     0.024 H 
ATOM     46  H   LIG d   1       3.630   1.630  -3.271  0.00  0.00     0.024 H 
ENDBRANCH  41  43
BRANCH  41  47
ATOM     47  C   LIG d   1       4.370  -1.106  -1.822  0.00  0.00    -0.056 C 
ATOM     48  H   LIG d   1       4.871  -1.465  -0.923  0.00  0.00     0.024 H 
ATOM     49  H   LIG d   1       3.297  -1.041  -1.639  0.00  0.00     0.024 H 
ATOM     50  H   LIG d   1       4.557  -1.797  -2.643  0.00  0.00     0.024 H 
ENDBRANCH  41  47
ENDBRANCH  38  41
ENDBRANCH   1  36
TORSDOF 8
ENDMDL
MODEL 7
REMARK VINA RESULT:      -5.6      3.652      5.701
REMARK  8 active torsions:
REMARK  status: ('A' for Active; 'I' for Inactive)
REMARK    1  A    between atoms: C_1  and  C_2 
REMARK    2  A    between atoms: C_2  and  C_3 
REMARK    3  A    between atoms: C_2  and  C_4 
REMARK    4  A    between atoms: C_6  and  C_9 
REMARK    5  A    between atoms: N_19  and  C_20 
REMARK    6  A    between atoms: C_20  and  C_21 
REMARK    7  A    between atoms: C_24  and  O_27 
REMARK    8  A    between atoms: O_27  and  C_28 
ROOT
ATOM      1  C   LIG d   1       7.509   0.223  -6.126  0.00  0.00     0.065 C 
ATOM      2  H   LIG d   1       8.332  -0.409  -6.461  0.00  0.00     0.096 H 
ATOM      3  C   LIG d   1       8.023   1.652  -5.897  0.00  0.00     0.042 C 
ATOM      4  C   LIG d   1       8.331   2.249  -7.245  0.00  0.00     0.050 A 
ATOM      5  C   LIG d   1       7.892   1.718  -8.410  0.00  0.00     0.106 A 
ATOM      6  N   LIG d   1       8.344   2.483  -9.404  0.00  0.00    -0.235 NA
ATOM      7  H   LIG d   1       9.499   3.950  -6.930  0.00  0.00     0.167 HD
ATOM      8  C   LIG d   1       9.043   3.469  -8.905  0.00  0.00     0.094 A 
ATOM      9  N   LIG d   1       9.056   3.355  -7.556  0.00  0.00    -0.348 N 
ATOM     10  C   LIG d   1       7.040   0.476  -8.480  0.00  0.00     0.014 C 
ATOM     11  N   LIG d   1       6.455   0.236  -7.150  0.00  0.00     0.252 N 
ATOM     12  H   LIG d   1       7.256   2.244  -5.396  0.00  0.00     0.039 H 
ATOM     13  H   LIG d   1       8.926   1.626  -5.286  0.00  0.00     0.039 H 
ATOM     14  H   LIG d   1       9.530   4.247  -9.475  0.00  0.00     0.103 H 
ATOM     15  H   LIG d   1       6.243   0.619  -9.209  0.00  0.00     0.088 H 
ATOM     16  H   LIG d   1       7.657  -0.375  -8.769  0.00  0.00     0.088 H 
ATOM     17  H   LIG d   1       5.794   0.968  -6.938  0.00  0.00     0.205 HD
ENDROOT
BRANCH  11  18
ATOM     18  C   LIG d   1       5.761  -1.058  -7.151  0.00  0.00    -0.005 C 
ATOM     19  H   LIG d   1       6.413  -1.819  -7.579  0.00  0.00     0.087 H 
ATOM     20  H   LIG d   1       5.505  -1.333  -6.127  0.00  0.00     0.087 H 
BRANCH  18  21
ATOM     21  C   LIG d   1       4.503  -0.953  -7.973  0.00  0.00    -0.003 A 
ATOM     22  C   LIG d   1       4.273  -1.850  -9.000  0.00  0.00    -0.050 A 
ATOM     23  C   LIG d   1       3.117  -1.760  -9.751  0.00  0.00    -0.019 A 
ATOM     24  H   LIG d   1       4.994  -2.626  -9.211  0.00  0.00     0.062 H 
ATOM     25  C   LIG d   1       2.193  -0.760  -9.483  0.00  0.00     0.120 A 
ATOM     26  H   LIG d   1       2.936  -2.463 -10.550  0.00  0.00     0.065 H 
ATOM     27  C   LIG d   1       2.429   0.143  -8.456  0.00  0.00    -0.019 A 
ATOM     28  C   LIG d   1       3.584   0.045  -7.704  0.00  0.00    -0.050 A 
ATOM     29  H   LIG d   1       1.712   0.922  -8.246  0.00  0.00     0.065 H 
ATOM     30  H   LIG d   1       3.769   0.747  -6.905  0.00  0.00     0.062 H 
BRANCH  25  31
ATOM     31  O   LIG d   1       1.059  -0.665 -10.224  0.00  0.00    -0.495 OA
BRANCH  31  32
ATOM     32  C   LIG d   1       1.122  -1.137 -11.572  0.00  0.00     0.079 C 
ATOM     33  H   LIG d   1       1.335  -0.303 -12.240  0.00  0.00     0.066 H 
ATOM     34  H   LIG d   1       1.913  -1.882 -11.658  0.00  0.00     0.066 H 
ATOM     35  H   LIG d   1       0.167  -1.587 -11.845  0.00  0.00     0.066 H 
ENDBRANCH  31  32
ENDBRANCH  25  31
ENDBRANCH  18  21
ENDBRANCH  11  18
BRANCH   1  36
ATOM     36  C   LIG d   1       6.949  -0.323  -4.838  0.00  0.00     0.276 A 
ATOM     37  N   LIG d   1       5.895   0.122  -4.213  0.00  0.00    -0.191 NA
ATOM     38  C   LIG d   1       5.682  -0.594  -3.104  0.00  0.00     0.174 A 
ATOM     39  N   LIG d   1       6.606  -1.505  -3.005  0.00  0.00    -0.061 NA
ATOM     40  O   LIG d   1       7.449  -1.350  -4.138  0.00  0.00    -0.332 OA
BRANCH  38  41
ATOM     41  C   LIG d   1       4.558  -0.377  -2.124  0.00  0.00     0.017 C 
ATOM     42  H   LIG d   1       4.770  -0.919  -1.202  0.00  0.00     0.037 H 
BRANCH  41  43
ATOM     43  C   LIG d   1       4.427   1.117  -1.820  0.00  0.00    -0.056 C 
ATOM     44  H   LIG d   1       4.950   1.345  -0.890  0.00  0.00     0.024 H 
ATOM     45  H   LIG d   1       4.865   1.694  -2.634  0.00  0.00     0.024 H 
ATOM     46  H   LIG d   1       3.373   1.375  -1.716  0.00  0.00     0.024 H 
ENDBRANCH  41  43
BRANCH  41  47
ATOM     47  C   LIG d   1       3.249  -0.891  -2.728  0.00  0.00    -0.056 C 
ATOM     48  H   LIG d   1       2.858  -0.154  -3.430  0.00  0.00     0.024 H 
ATOM     49  H   LIG d   1       3.434  -1.829  -3.252  0.00  0.00     0.024 H 
ATOM     50  H   LIG d   1       2.523  -1.057  -1.933  0.00  0.00     0.024 H 
ENDBRANCH  41  47
ENDBRANCH  38  41
ENDBRANCH   1  36
TORSDOF 8
ENDMDL
MODEL 8
REMARK VINA RESULT:      -5.5      3.404      6.543
REMARK  8 active torsions:
REMARK  status: ('A' for Active; 'I' for Inactive)
REMARK    1  A    between atoms: C_1  and  C_2 
REMARK    2  A    between atoms: C_2  and  C_3 
REMARK    3  A    between atoms: C_2  and  C_4 
REMARK    4  A    between atoms: C_6  and  C_9 
REMARK    5  A    between atoms: N_19  and  C_20 
REMARK    6  A    between atoms: C_20  and  C_21 
REMARK    7  A    between atoms: C_24  and  O_27 
REMARK    8  A    between atoms: O_27  and  C_28 
ROOT
ATOM      1  C   LIG d   1       6.237  -1.951  -4.128  0.00  0.00     0.065 C 
ATOM      2  H   LIG d   1       5.701  -2.379  -3.282  0.00  0.00     0.096 H 
ATOM      3  C   LIG d   1       7.563  -2.699  -4.327  0.00  0.00     0.042 C 
ATOM      4  C   LIG d   1       7.239  -4.076  -4.843  0.00  0.00     0.050 A 
ATOM      5  C   LIG d   1       6.029  -4.413  -5.348  0.00  0.00     0.106 A 
ATOM      6  N   LIG d   1       6.079  -5.697  -5.706  0.00  0.00    -0.235 NA
ATOM      7  H   LIG d   1       8.947  -5.253  -4.618  0.00  0.00     0.167 HD
ATOM      8  C   LIG d   1       7.270  -6.170  -5.445  0.00  0.00     0.094 A 
ATOM      9  N   LIG d   1       8.023  -5.183  -4.905  0.00  0.00    -0.348 N 
ATOM     10  C   LIG d   1       4.881  -3.442  -5.456  0.00  0.00     0.014 C 
ATOM     11  N   LIG d   1       5.415  -2.075  -5.340  0.00  0.00     0.252 N 
ATOM     12  H   LIG d   1       8.181  -2.168  -5.051  0.00  0.00     0.039 H 
ATOM     13  H   LIG d   1       8.091  -2.773  -3.375  0.00  0.00     0.039 H 
ATOM     14  H   LIG d   1       7.599  -7.183  -5.632  0.00  0.00     0.103 H 
ATOM     15  H   LIG d   1       4.389  -3.563  -6.421  0.00  0.00     0.088 H 
ATOM     16  H   LIG d   1       4.169  -3.627  -4.652  0.00  0.00     0.088 H 
ATOM     17  H   LIG d   1       5.981  -1.867  -6.150  0.00  0.00     0.205 HD
ENDROOT
BRANCH  11  18
ATOM     18  C   LIG d   1       4.299  -1.122  -5.272  0.00  0.00    -0.005 C 
ATOM     19  H   LIG d   1       3.372  -1.662  -5.082  0.00  0.00     0.087 H 
ATOM     20  H   LIG d   1       4.478  -0.412  -4.464  0.00  0.00     0.087 H 
BRANCH  18  21
ATOM     21  C   LIG d   1       4.190  -0.380  -6.579  0.00  0.00    -0.003 A 
ATOM     22  C   LIG d   1       2.966   0.110  -6.995  0.00  0.00    -0.050 A 
ATOM     23  C   LIG d   1       2.866   0.795  -8.190  0.00  0.00    -0.019 A 
ATOM     24  H   LIG d   1       2.089  -0.038  -6.382  0.00  0.00     0.062 H 
ATOM     25  C   LIG d   1       3.992   0.980  -8.979  0.00  0.00     0.120 A 
ATOM     26  H   LIG d   1       1.910   1.182  -8.512  0.00  0.00     0.065 H 
ATOM     27  C   LIG d   1       5.217   0.482  -8.563  0.00  0.00    -0.019 A 
ATOM     28  C   LIG d   1       5.314  -0.198  -7.364  0.00  0.00    -0.050 A 
ATOM     29  H   LIG d   1       6.095   0.624  -9.176  0.00  0.00     0.065 H 
ATOM     30  H   LIG d   1       6.267  -0.587  -7.039  0.00  0.00     0.062 H 
BRANCH  25  31
ATOM     31  O   LIG d   1       3.894   1.649 -10.158  0.00  0.00    -0.495 OA
BRANCH  31  32
ATOM     32  C   LIG d   1       3.969   0.871 -11.354  0.00  0.00     0.079 C 
ATOM     33  H   LIG d   1       3.298   1.291 -12.103  0.00  0.00     0.066 H 
ATOM     34  H   LIG d   1       4.991   0.885 -11.732  0.00  0.00     0.066 H 
ATOM     35  H   LIG d   1       3.676  -0.157 -11.138  0.00  0.00     0.066 H 
ENDBRANCH  31  32
ENDBRANCH  25  31
ENDBRANCH  18  21
ENDBRANCH  11  18
BRANCH   1  36
ATOM     36  C   LIG d   1       6.516  -0.494  -3.860  0.00  0.00     0.276 A 
ATOM     37  N   LIG d   1       7.461   0.217  -4.410  0.00  0.00    -0.191 NA
ATOM     38  C   LIG d   1       7.421   1.470  -3.945  0.00  0.00     0.174 A 
ATOM     39  N   LIG d   1       6.450   1.571  -3.084  0.00  0.00    -0.061 NA
ATOM     40  O   LIG d   1       5.836   0.292  -3.016  0.00  0.00    -0.332 OA
BRANCH  38  41
ATOM     41  C   LIG d   1       8.355   2.583  -4.347  0.00  0.00     0.017 C 
ATOM     42  H   LIG d   1       7.842   3.541  -4.247  0.00  0.00     0.037 H 
BRANCH  41  43
ATOM     43  C   LIG d   1       9.588   2.568  -3.441  0.00  0.00    -0.056 C 
ATOM     44  H   LIG d   1      10.487   2.661  -4.051  0.00  0.00     0.024 H 
ATOM     45  H   LIG d   1       9.535   3.401  -2.741  0.00  0.00     0.024 H 
ATOM     46  H   LIG d   1       9.620   1.629  -2.889  0.00  0.00     0.024 H 
ENDBRANCH  41  43
BRANCH  41  47
ATOM     47  C   LIG d   1       8.787   2.385  -5.802  0.00  0.00    -0.056 C 
ATOM     48  H   LIG d   1       9.646   3.022  -6.016  0.00  0.00     0.024 H 
ATOM     49  H   LIG d   1       9.060   1.342  -5.961  0.00  0.00     0.024 H 
ATOM     50  H   LIG d   1       7.964   2.650  -6.464  0.00  0.00     0.024 H 
ENDBRANCH  41  47
ENDBRANCH  38  41
ENDBRANCH   1  36
TORSDOF 8
ENDMDL
MODEL 9
REMARK VINA RESULT:      -5.5      3.325      7.605
REMARK  8 active torsions:
REMARK  status: ('A' for Active; 'I' for Inactive)
REMARK    1  A    between atoms: C_1  and  C_2 
REMARK    2  A    between atoms: C_2  and  C_3 
REMARK    3  A    between atoms: C_2  and  C_4 
REMARK    4  A    between atoms: C_6  and  C_9 
REMARK    5  A    between atoms: N_19  and  C_20 
REMARK    6  A    between atoms: C_20  and  C_21 
REMARK    7  A    between atoms: C_24  and  O_27 
REMARK    8  A    between atoms: O_27  and  C_28 
ROOT
ATOM      1  C   LIG d   1       4.694  -1.005  -5.616  0.00  0.00     0.065 C 
ATOM      2  H   LIG d   1       5.056  -1.874  -5.067  0.00  0.00     0.096 H 
ATOM      3  C   LIG d   1       3.510  -0.381  -4.863  0.00  0.00     0.042 C 
ATOM      4  C   LIG d   1       4.051   0.259  -3.610  0.00  0.00     0.050 A 
ATOM      5  C   LIG d   1       5.366   0.511  -3.415  0.00  0.00     0.106 A 
ATOM      6  N   LIG d   1       5.501   1.072  -2.212  0.00  0.00    -0.235 NA
ATOM      7  H   LIG d   1       2.435   0.637  -2.346  0.00  0.00     0.167 HD
ATOM      8  C   LIG d   1       4.323   1.181  -1.654  0.00  0.00     0.094 A 
ATOM      9  N   LIG d   1       3.391   0.682  -2.502  0.00  0.00    -0.348 N 
ATOM     10  C   LIG d   1       6.429   0.186  -4.434  0.00  0.00     0.014 C 
ATOM     11  N   LIG d   1       5.776  -0.018  -5.738  0.00  0.00     0.252 N 
ATOM     12  H   LIG d   1       3.032   0.374  -5.487  0.00  0.00     0.039 H 
ATOM     13  H   LIG d   1       2.789  -1.156  -4.602  0.00  0.00     0.039 H 
ATOM     14  H   LIG d   1       4.126   1.600  -0.678  0.00  0.00     0.103 H 
ATOM     15  H   LIG d   1       7.134   1.014  -4.504  0.00  0.00     0.088 H 
ATOM     16  H   LIG d   1       6.953  -0.723  -4.139  0.00  0.00     0.088 H 
ATOM     17  H   LIG d   1       5.394   0.858  -6.062  0.00  0.00     0.205 HD
ENDROOT
BRANCH  11  18
ATOM     18  C   LIG d   1       6.768  -0.501  -6.708  0.00  0.00    -0.005 C 
ATOM     19  H   LIG d   1       7.587  -0.986  -6.177  0.00  0.00     0.087 H 
ATOM     20  H   LIG d   1       6.298  -1.217  -7.382  0.00  0.00     0.087 H 
BRANCH  18  21
ATOM     21  C   LIG d   1       7.303   0.663  -7.502  0.00  0.00    -0.003 A 
ATOM     22  C   LIG d   1       8.604   1.088  -7.312  0.00  0.00    -0.050 A 
ATOM     23  C   LIG d   1       9.098   2.151  -8.043  0.00  0.00    -0.019 A 
ATOM     24  H   LIG d   1       9.237   0.587  -6.594  0.00  0.00     0.062 H 
ATOM     25  C   LIG d   1       8.283   2.798  -8.960  0.00  0.00     0.120 A 
ATOM     26  H   LIG d   1      10.116   2.481  -7.897  0.00  0.00     0.065 H 
ATOM     27  C   LIG d   1       6.976   2.373  -9.145  0.00  0.00    -0.019 A 
ATOM     28  C   LIG d   1       6.488   1.306  -8.415  0.00  0.00    -0.050 A 
ATOM     29  H   LIG d   1       6.340   2.875  -9.859  0.00  0.00     0.065 H 
ATOM     30  H   LIG d   1       5.471   0.974  -8.558  0.00  0.00     0.062 H 
BRANCH  25  31
ATOM     31  O   LIG d   1       8.765   3.847  -9.677  0.00  0.00    -0.495 OA
BRANCH  31  32
ATOM     32  C   LIG d   1       9.327   4.934  -8.939  0.00  0.00     0.079 C 
ATOM     33  H   LIG d   1      10.253   5.257  -9.415  0.00  0.00     0.066 H 
ATOM     34  H   LIG d   1       8.621   5.763  -8.919  0.00  0.00     0.066 H 
ATOM     35  H   LIG d   1       9.537   4.611  -7.919  0.00  0.00     0.066 H 
ENDBRANCH  31  32
ENDBRANCH  25  31
ENDBRANCH  18  21
ENDBRANCH  11  18
BRANCH   1  36
ATOM     36  C   LIG d   1       4.247  -1.431  -6.991  0.00  0.00     0.276 A 
ATOM     37  N   LIG d   1       3.708  -0.658  -7.893  0.00  0.00    -0.191 NA
ATOM     38  C   LIG d   1       3.435  -1.362  -8.996  0.00  0.00     0.174 A 
ATOM     39  N   LIG d   1       3.793  -2.599  -8.807  0.00  0.00    -0.061 NA
ATOM     40  O   LIG d   1       4.336  -2.668  -7.496  0.00  0.00    -0.332 OA
BRANCH  38  41
ATOM     41  C   LIG d   1       2.808  -0.814 -10.252  0.00  0.00     0.017 C 
ATOM     42  H   LIG d   1       2.991  -1.500 -11.079  0.00  0.00     0.037 H 
BRANCH  41  43
ATOM     43  C   LIG d   1       1.300  -0.657 -10.044  0.00  0.00    -0.056 C 
ATOM     44  H   LIG d   1       0.779  -0.898 -10.971  0.00  0.00     0.024 H 
ATOM     45  H   LIG d   1       0.970  -1.333  -9.255  0.00  0.00     0.024 H 
ATOM     46  H   LIG d   1       1.078   0.371  -9.759  0.00  0.00     0.024 H 
ENDBRANCH  41  43
BRANCH  41  47
ATOM     47  C   LIG d   1       3.423   0.550 -10.575  0.00  0.00    -0.056 C 
ATOM     48  H   LIG d   1       2.774   1.087 -11.267  0.00  0.00     0.024 H 
ATOM     49  H   LIG d   1       3.530   1.127  -9.656  0.00  0.00     0.024 H 
ATOM     50  H   LIG d   1       4.402   0.407 -11.031  0.00  0.00     0.024 H 
ENDBRANCH  41  47
ENDBRANCH  38  41
ENDBRANCH   1  36
TORSDOF 8
ENDMDL
MODEL 10
REMARK VINA RESULT:      -5.4      3.285      5.619
REMARK  8 active torsions:
REMARK  status: ('A' for Active; 'I' for Inactive)
REMARK    1  A    between atoms: C_1  and  C_2 
REMARK    2  A    between atoms: C_2  and  C_3 
REMARK    3  A    between atoms: C_2  and  C_4 
REMARK    4  A    between atoms: C_6  and  C_9 
REMARK    5  A    between atoms: N_19  and  C_20 
REMARK    6  A    between atoms: C_20  and  C_21 
REMARK    7  A    between atoms: C_24  and  O_27 
REMARK    8  A    between atoms: O_27  and  C_28 
ROOT
ATOM      1  C   LIG d   1       4.540  -1.220  -7.498  0.00  0.00     0.065 C 
ATOM      2  H   LIG d   1       4.015  -0.906  -8.399  0.00  0.00     0.096 H 
ATOM      3  C   LIG d   1       4.392  -2.739  -7.321  0.00  0.00     0.042 C 
ATOM      4  C   LIG d   1       5.212  -3.406  -8.394  0.00  0.00     0.050 A 
ATOM      5  C   LIG d   1       6.152  -2.757  -9.120  0.00  0.00     0.106 A 
ATOM      6  N   LIG d   1       6.682  -3.631  -9.978  0.00  0.00    -0.235 NA
ATOM      7  H   LIG d   1       4.613  -5.402  -8.497  0.00  0.00     0.167 HD
ATOM      8  C   LIG d   1       6.110  -4.796  -9.812  0.00  0.00     0.094 A 
ATOM      9  N   LIG d   1       5.186  -4.692  -8.829  0.00  0.00    -0.348 N 
ATOM     10  C   LIG d   1       6.484  -1.299  -8.925  0.00  0.00     0.014 C 
ATOM     11  N   LIG d   1       5.963  -0.875  -7.615  0.00  0.00     0.252 N 
ATOM     12  H   LIG d   1       4.758  -3.034  -6.338  0.00  0.00     0.039 H 
ATOM     13  H   LIG d   1       3.344  -3.022  -7.425  0.00  0.00     0.039 H 
ATOM     14  H   LIG d   1       6.339  -5.693 -10.369  0.00  0.00     0.103 H 
ATOM     15  H   LIG d   1       7.565  -1.164  -8.951  0.00  0.00     0.088 H 
ATOM     16  H   LIG d   1       6.019  -0.710  -9.714  0.00  0.00     0.088 H 
ATOM     17  H   LIG d   1       6.481  -1.337  -6.883  0.00  0.00     0.205 HD
ENDROOT
BRANCH  11  18
ATOM     18  C   LIG d   1       6.124   0.579  -7.477  0.00  0.00    -0.005 C 
ATOM     19  H   LIG d   1       6.276   1.022  -8.460  0.00  0.00     0.087 H 
ATOM     20  H   LIG d   1       5.228   1.002  -7.023  0.00  0.00     0.087 H 
BRANCH  18  21
ATOM     21  C   LIG d   1       7.317   0.872  -6.603  0.00  0.00    -0.003 A 
ATOM     22  C   LIG d   1       7.403   0.312  -5.342  0.00  0.00    -0.050 A 
ATOM     23  C   LIG d   1       8.498   0.573  -4.543  0.00  0.00    -0.019 A 
ATOM     24  H   LIG d   1       6.615  -0.335  -4.984  0.00  0.00     0.062 H 
ATOM     25  C   LIG d   1       9.507   1.409  -5.001  0.00  0.00     0.120 A 
ATOM     26  H   LIG d   1       8.567   0.132  -3.559  0.00  0.00     0.065 H 
ATOM     27  C   LIG d   1       9.415   1.974  -6.265  0.00  0.00    -0.019 A 
ATOM     28  C   LIG d   1       8.320   1.705  -7.063  0.00  0.00    -0.050 A 
ATOM     29  H   LIG d   1      10.199   2.624  -6.624  0.00  0.00     0.065 H 
ATOM     30  H   LIG d   1       8.248   2.145  -8.046  0.00  0.00     0.062 H 
BRANCH  25  31
ATOM     31  O   LIG d   1      10.582   1.672  -4.214  0.00  0.00    -0.495 OA
BRANCH  31  32
ATOM     32  C   LIG d   1      10.384   2.573  -3.123  0.00  0.00     0.079 C 
ATOM     33  H   LIG d   1      11.067   3.417  -3.220  0.00  0.00     0.066 H 
ATOM     34  H   LIG d   1       9.356   2.935  -3.134  0.00  0.00     0.066 H 
ATOM     35  H   LIG d   1      10.577   2.055  -2.183  0.00  0.00     0.066 H 
ENDBRANCH  31  32
ENDBRANCH  25  31
ENDBRANCH  18  21
ENDBRANCH  11  18
BRANCH   1  36
ATOM     36  C   LIG d   1       3.951  -0.515  -6.303  0.00  0.00     0.276 A 
ATOM     37  N   LIG d   1       4.053  -0.900  -5.061  0.00  0.00    -0.191 NA
ATOM     38  C   LIG d   1       3.412  -0.042  -4.260  0.00  0.00     0.174 A 
ATOM     39  N   LIG d   1       2.887   0.901  -4.987  0.00  0.00    -0.061 NA
ATOM     40  O   LIG d   1       3.232   0.614  -6.334  0.00  0.00    -0.332 OA
BRANCH  38  41
ATOM     41  C   LIG d   1       3.310  -0.153  -2.761  0.00  0.00     0.017 C 
ATOM     42  H   LIG d   1       2.265  -0.068  -2.460  0.00  0.00     0.037 H 
BRANCH  41  43
ATOM     43  C   LIG d   1       3.862  -1.507  -2.310  0.00  0.00    -0.056 C 
ATOM     44  H   LIG d   1       4.048  -2.132  -3.184  0.00  0.00     0.024 H 
ATOM     45  H   LIG d   1       4.793  -1.357  -1.765  0.00  0.00     0.024 H 
ATOM     46  H   LIG d   1       3.136  -1.997  -1.662  0.00  0.00     0.024 H 
ENDBRANCH  41  43
BRANCH  41  47
ATOM     47  C   LIG d   1       4.121   0.970  -2.110  0.00  0.00    -0.056 C 
ATOM     48  H   LIG d   1       5.142   0.950  -2.492  0.00  0.00     0.024 H 
ATOM     49  H   LIG d   1       3.664   1.932  -2.347  0.00  0.00     0.024 H 
ATOM     50  H   LIG d   1       4.134   0.830  -1.030  0.00  0.00     0.024 H 
ENDBRANCH  41  47
ENDBRANCH  38  41
ENDBRANCH   1  36
TORSDOF 8
ENDMDL
