MODEL 1
REMARK VINA RESULT:      -7.0      0.000      0.000
REMARK  10 active torsions:
REMARK  status: ('A' for Active; 'I' for Inactive)
REMARK    1  A    between atoms: C_1  and  C_2 
REMARK    2  A    between atoms: C_4  and  O_26 
REMARK    3  A    between atoms: C_5  and  C_25 
REMARK    4  A    between atoms: C_10  and  C_13 
REMARK    5  A    between atoms: C_13  and  C_15 
REMARK    6  A    between atoms: C_13  and  C_16 
REMARK       I    between atoms: C_16  and  N_18 
REMARK    7  A    between atoms: N_18  and  C_19 
REMARK    8  A    between atoms: O_26  and  C_27 
REMARK    9  A    between atoms: C_27  and  C_28 
REMARK   10  A    between atoms: C_28  and  N_29 
ROOT
ATOM      1  C   LIG d   1       2.113  -4.662 -10.755  0.00  0.00    -0.043 A 
ATOM      2  C   LIG d   1       1.254  -4.817 -11.824  0.00  0.00    -0.017 A 
ATOM      3  C   LIG d   1       0.554  -3.721 -12.308  0.00  0.00     0.124 A 
ATOM      4  C   LIG d   1       0.735  -2.480 -11.722  0.00  0.00    -0.005 A 
ATOM      5  C   LIG d   1       1.601  -2.326 -10.649  0.00  0.00    -0.037 A 
ATOM      6  C   LIG d   1       2.286  -3.417 -10.163  0.00  0.00    -0.041 A 
ATOM      7  C   LIG d   1       3.229  -3.326  -8.991  0.00  0.00    -0.027 C 
ATOM      8  C   LIG d   1       3.642  -1.875  -8.747  0.00  0.00    -0.045 C 
ATOM      9  C   LIG d   1       2.373  -1.018  -8.672  0.00  0.00    -0.026 C 
ATOM     10  H   LIG d   1       1.655  -1.460  -7.966  0.00  0.00     0.031 H 
ATOM     11  C   LIG d   1       1.756  -0.946 -10.066  0.00  0.00    -0.024 C 
ATOM     12  H   LIG d   1       1.125  -5.787 -12.278  0.00  0.00     0.066 H 
ATOM     13  H   LIG d   1       2.732  -3.711  -8.089  0.00  0.00     0.031 H 
ATOM     14  H   LIG d   1       4.130  -3.922  -9.198  0.00  0.00     0.031 H 
ATOM     15  H   LIG d   1       4.199  -1.806  -7.800  0.00  0.00     0.027 H 
ATOM     16  H   LIG d   1       4.280  -1.531  -9.574  0.00  0.00     0.027 H 
ATOM     17  H   LIG d   1       2.410  -0.345 -10.715  0.00  0.00     0.032 H 
ATOM     18  H   LIG d   1       0.770  -0.464  -9.995  0.00  0.00     0.032 H 
ENDROOT
BRANCH   3  19
ATOM     19  O   LIG d   1      -0.299  -3.865 -13.355  0.00  0.00    -0.490 OA
BRANCH  19  20
ATOM     20  C   LIG d   1      -1.435  -4.710 -13.155  0.00  0.00     0.102 C 
ATOM     21  H   LIG d   1      -1.499  -5.438 -13.977  0.00  0.00     0.071 H 
ATOM     22  H   LIG d   1      -1.332  -5.244 -12.199  0.00  0.00     0.071 H 
BRANCH  20  23
ATOM     23  C   LIG d   1      -2.706  -3.858 -13.129  0.00  0.00     0.033 C 
ATOM     24  H   LIG d   1      -2.433  -2.798 -13.026  0.00  0.00     0.046 H 
ATOM     25  H   LIG d   1      -3.265  -4.005 -14.065  0.00  0.00     0.046 H 
BRANCH  23  26
ATOM     26  N   LIG d   1      -3.542  -4.262 -11.990  0.00  0.00    -0.295 N 
ATOM     27  C   LIG d   1      -2.714  -4.667 -10.846  0.00  0.00     0.022 C 
ATOM     28  C   LIG d   1      -3.623  -5.136  -9.706  0.00  0.00     0.060 C 
ATOM     29  H   LIG d   1      -2.048  -5.490 -11.148  0.00  0.00     0.045 H 
ATOM     30  H   LIG d   1      -2.110  -3.813 -10.508  0.00  0.00     0.045 H 
ATOM     31  O   LIG d   1      -4.535  -4.088  -9.369  0.00  0.00    -0.377 OA
ATOM     32  H   LIG d   1      -3.010  -5.387  -8.826  0.00  0.00     0.057 H 
ATOM     33  H   LIG d   1      -4.186  -6.024 -10.025  0.00  0.00     0.057 H 
ATOM     34  C   LIG d   1      -5.358  -3.668 -10.461  0.00  0.00     0.060 C 
ATOM     35  C   LIG d   1      -4.467  -3.185 -11.609  0.00  0.00     0.022 C 
ATOM     36  H   LIG d   1      -6.013  -2.847 -10.134  0.00  0.00     0.057 H 
ATOM     37  H   LIG d   1      -5.973  -4.513 -10.805  0.00  0.00     0.057 H 
ATOM     38  H   LIG d   1      -3.892  -2.306 -11.283  0.00  0.00     0.045 H 
ATOM     39  H   LIG d   1      -5.093  -2.915 -12.472  0.00  0.00     0.045 H 
ENDBRANCH  23  26
ENDBRANCH  20  23
ENDBRANCH  19  20
ENDBRANCH   3  19
BRANCH   4  40
ATOM     40  C   LIG d   1      -0.021  -1.287 -12.251  0.00  0.00    -0.036 C 
ATOM     41  H   LIG d   1      -0.116  -0.532 -11.456  0.00  0.00     0.028 H 
ATOM     42  H   LIG d   1      -1.023  -1.604 -12.577  0.00  0.00     0.028 H 
ATOM     43  H   LIG d   1       0.523  -0.857 -13.103  0.00  0.00     0.028 H 
ENDBRANCH   4  40
BRANCH   1  44
ATOM     44  C   LIG d   1       2.868  -5.853 -10.226  0.00  0.00    -0.039 C 
ATOM     45  H   LIG d   1       3.281  -5.615  -9.234  0.00  0.00     0.028 H 
ATOM     46  H   LIG d   1       3.690  -6.102 -10.914  0.00  0.00     0.028 H 
ATOM     47  H   LIG d   1       2.187  -6.712 -10.142  0.00  0.00     0.028 H 
ENDBRANCH   1  44
BRANCH   9  48
ATOM     48  C   LIG d   1       2.731   0.391  -8.194  0.00  0.00     0.036 C 
ATOM     49  H   LIG d   1       1.827   1.016  -8.159  0.00  0.00     0.039 H 
BRANCH  48  50
ATOM     50  C   LIG d   1       3.756   1.008  -9.148  0.00  0.00    -0.054 C 
ATOM     51  H   LIG d   1       3.595   2.095  -9.205  0.00  0.00     0.024 H 
ATOM     52  H   LIG d   1       3.636   0.567 -10.148  0.00  0.00     0.024 H 
ATOM     53  H   LIG d   1       4.771   0.807  -8.777  0.00  0.00     0.024 H 
ENDBRANCH  48  50
BRANCH  48  54
ATOM     54  C   LIG d   1       3.318   0.317  -6.807  0.00  0.00     0.221 C 
ATOM     55  O   LIG d   1       4.516   0.421  -6.650  0.00  0.00    -0.275 OA
ATOM     56  N   LIG d   1       2.512   0.137  -5.743  0.00  0.00    -0.270 N 
ATOM     57  H   LIG d   1       1.436  -0.041  -5.891  0.00  0.00     0.156 HD
BRANCH  56  58
ATOM     58  C   LIG d   1       3.041   0.173  -4.454  0.00  0.00     0.125 A 
ATOM     59  N   LIG d   1       3.322   1.339  -3.893  0.00  0.00    -0.240 NA
ATOM     60  C   LIG d   1       3.818   1.418  -2.672  0.00  0.00     0.030 A 
ATOM     61  C   LIG d   1       4.074   0.278  -1.937  0.00  0.00    -0.043 A 
ATOM     62  H   LIG d   1       4.030   2.387  -2.246  0.00  0.00     0.083 H 
ATOM     63  C   LIG d   1       3.799  -0.964  -2.492  0.00  0.00    -0.057 A 
ATOM     64  H   LIG d   1       4.485   0.352  -0.941  0.00  0.00     0.063 H 
ATOM     65  C   LIG d   1       3.275  -1.016  -3.770  0.00  0.00    -0.021 A 
ATOM     66  H   LIG d   1       3.991  -1.871  -1.937  0.00  0.00     0.062 H 
ATOM     67  H   LIG d   1       3.049  -1.965  -4.233  0.00  0.00     0.065 H 
ENDBRANCH  56  58
ENDBRANCH  48  54
ENDBRANCH   9  48
TORSDOF 10
ENDMDL
MODEL 2
REMARK VINA RESULT:      -6.9      8.252     15.130
REMARK  10 active torsions:
REMARK  status: ('A' for Active; 'I' for Inactive)
REMARK    1  A    between atoms: C_1  and  C_2 
REMARK    2  A    between atoms: C_4  and  O_26 
REMARK    3  A    between atoms: C_5  and  C_25 
REMARK    4  A    between atoms: C_10  and  C_13 
REMARK    5  A    between atoms: C_13  and  C_15 
REMARK    6  A    between atoms: C_13  and  C_16 
REMARK       I    between atoms: C_16  and  N_18 
REMARK    7  A    between atoms: N_18  and  C_19 
REMARK    8  A    between atoms: O_26  and  C_27 
REMARK    9  A    between atoms: C_27  and  C_28 
REMARK   10  A    between atoms: C_28  and  N_29 
ROOT
ATOM      1  C   LIG d   1      10.110   6.648  -5.646  0.00  0.00    -0.043 A 
ATOM      2  C   LIG d   1      10.487   7.584  -4.705  0.00  0.00    -0.017 A 
ATOM      3  C   LIG d   1      10.545   7.226  -3.365  0.00  0.00     0.124 A 
ATOM      4  C   LIG d   1      10.237   5.930  -2.988  0.00  0.00    -0.005 A 
ATOM      5  C   LIG d   1       9.862   4.990  -3.937  0.00  0.00    -0.037 A 
ATOM      6  C   LIG d   1       9.794   5.350  -5.265  0.00  0.00    -0.041 A 
ATOM      7  C   LIG d   1       9.378   4.386  -6.346  0.00  0.00    -0.027 C 
ATOM      8  C   LIG d   1       9.494   2.945  -5.853  0.00  0.00    -0.045 C 
ATOM      9  C   LIG d   1       8.756   2.831  -4.514  0.00  0.00    -0.026 C 
ATOM     10  H   LIG d   1       7.743   3.251  -4.600  0.00  0.00     0.031 H 
ATOM     11  C   LIG d   1       9.550   3.597  -3.458  0.00  0.00    -0.024 C 
ATOM     12  H   LIG d   1      10.731   8.590  -5.009  0.00  0.00     0.066 H 
ATOM     13  H   LIG d   1       8.333   4.582  -6.630  0.00  0.00     0.031 H 
ATOM     14  H   LIG d   1      10.028   4.516  -7.223  0.00  0.00     0.031 H 
ATOM     15  H   LIG d   1       9.040   2.267  -6.591  0.00  0.00     0.027 H 
ATOM     16  H   LIG d   1      10.555   2.687  -5.720  0.00  0.00     0.027 H 
ATOM     17  H   LIG d   1      10.488   3.059  -3.258  0.00  0.00     0.032 H 
ATOM     18  H   LIG d   1       8.955   3.651  -2.535  0.00  0.00     0.032 H 
ENDROOT
BRANCH   3  19
ATOM     19  O   LIG d   1      10.907   8.142  -2.429  0.00  0.00    -0.490 OA
BRANCH  19  20
ATOM     20  C   LIG d   1      10.039   9.264  -2.249  0.00  0.00     0.102 C 
ATOM     21  H   LIG d   1      10.560  10.183  -2.556  0.00  0.00     0.071 H 
ATOM     22  H   LIG d   1       9.135   9.131  -2.862  0.00  0.00     0.071 H 
BRANCH  20  23
ATOM     23  C   LIG d   1       9.644   9.370  -0.775  0.00  0.00     0.033 C 
ATOM     24  H   LIG d   1       8.699   9.927  -0.688  0.00  0.00     0.046 H 
ATOM     25  H   LIG d   1       9.514   8.361  -0.356  0.00  0.00     0.046 H 
BRANCH  23  26
ATOM     26  N   LIG d   1      10.698  10.076  -0.034  0.00  0.00    -0.295 N 
ATOM     27  C   LIG d   1      10.215  11.371   0.465  0.00  0.00     0.022 C 
ATOM     28  C   LIG d   1      11.360  12.097   1.177  0.00  0.00     0.060 C 
ATOM     29  H   LIG d   1       9.860  11.980  -0.380  0.00  0.00     0.045 H 
ATOM     30  H   LIG d   1       9.388  11.207   1.171  0.00  0.00     0.045 H 
ATOM     31  O   LIG d   1      11.865  11.268   2.226  0.00  0.00    -0.377 OA
ATOM     32  H   LIG d   1      10.988  13.042   1.602  0.00  0.00     0.057 H 
ATOM     33  H   LIG d   1      12.163  12.311   0.458  0.00  0.00     0.057 H 
ATOM     34  C   LIG d   1      12.345   9.998   1.775  0.00  0.00     0.060 C 
ATOM     35  C   LIG d   1      11.210   9.250   1.069  0.00  0.00     0.022 C 
ATOM     36  H   LIG d   1      12.693   9.408   2.636  0.00  0.00     0.057 H 
ATOM     37  H   LIG d   1      13.178  10.147   1.072  0.00  0.00     0.057 H 
ATOM     38  H   LIG d   1      10.399   9.051   1.785  0.00  0.00     0.045 H 
ATOM     39  H   LIG d   1      11.589   8.298   0.670  0.00  0.00     0.045 H 
ENDBRANCH  23  26
ENDBRANCH  20  23
ENDBRANCH  19  20
ENDBRANCH   3  19
BRANCH   4  40
ATOM     40  C   LIG d   1      10.305   5.539  -1.534  0.00  0.00    -0.036 C 
ATOM     41  H   LIG d   1      11.103   6.112  -1.037  0.00  0.00     0.028 H 
ATOM     42  H   LIG d   1      10.521   4.464  -1.453  0.00  0.00     0.028 H 
ATOM     43  H   LIG d   1       9.342   5.758  -1.050  0.00  0.00     0.028 H 
ENDBRANCH   4  40
BRANCH   1  44
ATOM     44  C   LIG d   1      10.041   7.038  -7.099  0.00  0.00    -0.039 C 
ATOM     45  H   LIG d   1       9.115   6.643  -7.542  0.00  0.00     0.028 H 
ATOM     46  H   LIG d   1      10.909   6.621  -7.632  0.00  0.00     0.028 H 
ATOM     47  H   LIG d   1      10.050   8.134  -7.186  0.00  0.00     0.028 H 
ENDBRANCH   1  44
BRANCH   9  48
ATOM     48  C   LIG d   1       8.647   1.359  -4.109  0.00  0.00     0.036 C 
ATOM     49  H   LIG d   1       9.295   1.160  -3.243  0.00  0.00     0.039 H 
BRANCH  48  50
ATOM     50  C   LIG d   1       9.065   0.475  -5.286  0.00  0.00    -0.054 C 
ATOM     51  H   LIG d   1       8.168   0.102  -5.801  0.00  0.00     0.024 H 
ATOM     52  H   LIG d   1       9.653  -0.377  -4.913  0.00  0.00     0.024 H 
ATOM     53  H   LIG d   1       9.674   1.062  -5.989  0.00  0.00     0.024 H 
ENDBRANCH  48  50
BRANCH  48  54
ATOM     54  C   LIG d   1       7.223   1.047  -3.728  0.00  0.00     0.221 C 
ATOM     55  O   LIG d   1       6.537   1.895  -3.199  0.00  0.00    -0.275 OA
ATOM     56  N   LIG d   1       6.712  -0.176  -3.974  0.00  0.00    -0.270 N 
ATOM     57  H   LIG d   1       7.357  -0.971  -4.377  0.00  0.00     0.156 HD
BRANCH  56  58
ATOM     58  C   LIG d   1       5.366  -0.433  -3.718  0.00  0.00     0.125 A 
ATOM     59  N   LIG d   1       4.436   0.123  -4.477  0.00  0.00    -0.240 NA
ATOM     60  C   LIG d   1       3.151  -0.099  -4.272  0.00  0.00     0.030 A 
ATOM     61  C   LIG d   1       2.729  -0.917  -3.242  0.00  0.00    -0.043 A 
ATOM     62  H   LIG d   1       2.421   0.368  -4.916  0.00  0.00     0.083 H 
ATOM     63  C   LIG d   1       3.674  -1.514  -2.419  0.00  0.00    -0.057 A 
ATOM     64  H   LIG d   1       1.676  -1.089  -3.080  0.00  0.00     0.063 H 
ATOM     65  C   LIG d   1       5.013  -1.267  -2.662  0.00  0.00    -0.021 A 
ATOM     66  H   LIG d   1       3.370  -2.158  -1.607  0.00  0.00     0.062 H 
ATOM     67  H   LIG d   1       5.774  -1.715  -2.041  0.00  0.00     0.065 H 
ENDBRANCH  56  58
ENDBRANCH  48  54
ENDBRANCH   9  48
TORSDOF 10
ENDMDL
MODEL 3
REMARK VINA RESULT:      -6.9      8.385     14.181
REMARK  10 active torsions:
REMARK  status: ('A' for Active; 'I' for Inactive)
REMARK    1  A    between atoms: C_1  and  C_2 
REMARK    2  A    between atoms: C_4  and  O_26 
REMARK    3  A    between atoms: C_5  and  C_25 
REMARK    4  A    between atoms: C_10  and  C_13 
REMARK    5  A    between atoms: C_13  and  C_15 
REMARK    6  A    between atoms: C_13  and  C_16 
REMARK       I    between atoms: C_16  and  N_18 
REMARK    7  A    between atoms: N_18  and  C_19 
REMARK    8  A    between atoms: O_26  and  C_27 
REMARK    9  A    between atoms: C_27  and  C_28 
REMARK   10  A    between atoms: C_28  and  N_29 
ROOT
ATOM      1  C   LIG d   1       9.918   6.214  -7.013  0.00  0.00    -0.043 A 
ATOM      2  C   LIG d   1      10.051   7.411  -6.341  0.00  0.00    -0.017 A 
ATOM      3  C   LIG d   1       9.923   7.443  -4.960  0.00  0.00     0.124 A 
ATOM      4  C   LIG d   1       9.677   6.269  -4.268  0.00  0.00    -0.005 A 
ATOM      5  C   LIG d   1       9.546   5.065  -4.946  0.00  0.00    -0.037 A 
ATOM      6  C   LIG d   1       9.662   5.038  -6.318  0.00  0.00    -0.041 A 
ATOM      7  C   LIG d   1       9.515   3.771  -7.119  0.00  0.00    -0.027 C 
ATOM      8  C   LIG d   1       9.680   2.546  -6.220  0.00  0.00    -0.045 C 
ATOM      9  C   LIG d   1       8.748   2.704  -5.013  0.00  0.00    -0.026 C 
ATOM     10  H   LIG d   1       7.728   2.947  -5.348  0.00  0.00     0.031 H 
ATOM     11  C   LIG d   1       9.288   3.826  -4.130  0.00  0.00    -0.024 C 
ATOM     12  H   LIG d   1      10.249   8.320  -6.888  0.00  0.00     0.066 H 
ATOM     13  H   LIG d   1       8.518   3.742  -7.581  0.00  0.00     0.031 H 
ATOM     14  H   LIG d   1      10.285   3.742  -7.904  0.00  0.00     0.031 H 
ATOM     15  H   LIG d   1       9.415   1.639  -6.784  0.00  0.00     0.027 H 
ATOM     16  H   LIG d   1      10.724   2.477  -5.882  0.00  0.00     0.027 H 
ATOM     17  H   LIG d   1      10.226   3.492  -3.663  0.00  0.00     0.032 H 
ATOM     18  H   LIG d   1       8.549   4.050  -3.346  0.00  0.00     0.032 H 
ENDROOT
BRANCH   3  19
ATOM     19  O   LIG d   1      10.045   8.618  -4.289  0.00  0.00    -0.490 OA
BRANCH  19  20
ATOM     20  C   LIG d   1       9.617   9.801  -4.970  0.00  0.00     0.102 C 
ATOM     21  H   LIG d   1       9.792   9.686  -6.049  0.00  0.00     0.071 H 
ATOM     22  H   LIG d   1       8.544   9.961  -4.786  0.00  0.00     0.071 H 
BRANCH  20  23
ATOM     23  C   LIG d   1      10.407  11.003  -4.449  0.00  0.00     0.033 C 
ATOM     24  H   LIG d   1       9.954  11.361  -3.513  0.00  0.00     0.046 H 
ATOM     25  H   LIG d   1      11.449  10.702  -4.261  0.00  0.00     0.046 H 
BRANCH  23  26
ATOM     26  N   LIG d   1      10.380  12.077  -5.450  0.00  0.00    -0.295 N 
ATOM     27  C   LIG d   1       9.918  11.574  -6.751  0.00  0.00     0.022 C 
ATOM     28  C   LIG d   1       9.962  12.709  -7.778  0.00  0.00     0.060 C 
ATOM     29  H   LIG d   1      10.574  10.754  -7.081  0.00  0.00     0.045 H 
ATOM     30  H   LIG d   1       8.887  11.203  -6.656  0.00  0.00     0.045 H 
ATOM     31  O   LIG d   1       9.168  13.801  -7.307  0.00  0.00    -0.377 OA
ATOM     32  H   LIG d   1       9.563  12.352  -8.739  0.00  0.00     0.057 H 
ATOM     33  H   LIG d   1      11.001  13.043  -7.913  0.00  0.00     0.057 H 
ATOM     34  C   LIG d   1       9.591  14.317  -6.041  0.00  0.00     0.060 C 
ATOM     35  C   LIG d   1       9.543  13.197  -4.998  0.00  0.00     0.022 C 
ATOM     36  H   LIG d   1       8.921  15.134  -5.734  0.00  0.00     0.057 H 
ATOM     37  H   LIG d   1      10.619  14.698  -6.124  0.00  0.00     0.057 H 
ATOM     38  H   LIG d   1       8.505  12.853  -4.874  0.00  0.00     0.045 H 
ATOM     39  H   LIG d   1       9.921  13.574  -4.037  0.00  0.00     0.045 H 
ENDBRANCH  23  26
ENDBRANCH  20  23
ENDBRANCH  19  20
ENDBRANCH   3  19
BRANCH   4  40
ATOM     40  C   LIG d   1       9.543   6.301  -2.766  0.00  0.00    -0.036 C 
ATOM     41  H   LIG d   1      10.498   6.006  -2.307  0.00  0.00     0.028 H 
ATOM     42  H   LIG d   1       8.755   5.600  -2.454  0.00  0.00     0.028 H 
ATOM     43  H   LIG d   1       9.279   7.318  -2.444  0.00  0.00     0.028 H 
ENDBRANCH   4  40
BRANCH   1  44
ATOM     44  C   LIG d   1      10.051   6.181  -8.513  0.00  0.00    -0.039 C 
ATOM     45  H   LIG d   1       9.239   5.574  -8.940  0.00  0.00     0.028 H 
ATOM     46  H   LIG d   1      11.021   5.740  -8.786  0.00  0.00     0.028 H 
ATOM     47  H   LIG d   1       9.989   7.205  -8.909  0.00  0.00     0.028 H 
ENDBRANCH   1  44
BRANCH   9  48
ATOM     48  C   LIG d   1       8.708   1.397  -4.219  0.00  0.00     0.036 C 
ATOM     49  H   LIG d   1       9.321   1.492  -3.311  0.00  0.00     0.039 H 
BRANCH  48  50
ATOM     50  C   LIG d   1       9.239   0.255  -5.089  0.00  0.00    -0.054 C 
ATOM     51  H   LIG d   1       9.989   0.648  -5.791  0.00  0.00     0.024 H 
ATOM     52  H   LIG d   1       8.408  -0.193  -5.653  0.00  0.00     0.024 H 
ATOM     53  H   LIG d   1       9.702  -0.510  -4.448  0.00  0.00     0.024 H 
ENDBRANCH  48  50
BRANCH  48  54
ATOM     54  C   LIG d   1       7.288   1.098  -3.812  0.00  0.00     0.221 C 
ATOM     55  O   LIG d   1       6.613   1.961  -3.292  0.00  0.00    -0.275 OA
ATOM     56  N   LIG d   1       6.768  -0.126  -4.027  0.00  0.00    -0.270 N 
ATOM     57  H   LIG d   1       7.405  -0.933  -4.422  0.00  0.00     0.156 HD
BRANCH  56  58
ATOM     58  C   LIG d   1       5.425  -0.372  -3.748  0.00  0.00     0.125 A 
ATOM     59  N   LIG d   1       4.488   0.129  -4.537  0.00  0.00    -0.240 NA
ATOM     60  C   LIG d   1       3.206  -0.085  -4.312  0.00  0.00     0.030 A 
ATOM     61  C   LIG d   1       2.793  -0.835  -3.228  0.00  0.00    -0.043 A 
ATOM     62  H   LIG d   1       2.470   0.336  -4.981  0.00  0.00     0.083 H 
ATOM     63  C   LIG d   1       3.744  -1.373  -2.373  0.00  0.00    -0.057 A 
ATOM     64  H   LIG d   1       1.741  -1.001  -3.049  0.00  0.00     0.063 H 
ATOM     65  C   LIG d   1       5.081  -1.137  -2.638  0.00  0.00    -0.021 A 
ATOM     66  H   LIG d   1       3.447  -1.963  -1.518  0.00  0.00     0.062 H 
ATOM     67  H   LIG d   1       5.847  -1.540  -1.993  0.00  0.00     0.065 H 
ENDBRANCH  56  58
ENDBRANCH  48  54
ENDBRANCH   9  48
TORSDOF 10
ENDMDL
MODEL 4
REMARK VINA RESULT:      -6.8      7.857     14.370
REMARK  10 active torsions:
REMARK  status: ('A' for Active; 'I' for Inactive)
REMARK    1  A    between atoms: C_1  and  C_2 
REMARK    2  A    between atoms: C_4  and  O_26 
REMARK    3  A    between atoms: C_5  and  C_25 
REMARK    4  A    between atoms: C_10  and  C_13 
REMARK    5  A    between atoms: C_13  and  C_15 
REMARK    6  A    between atoms: C_13  and  C_16 
REMARK       I    between atoms: C_16  and  N_18 
REMARK    7  A    between atoms: N_18  and  C_19 
REMARK    8  A    between atoms: O_26  and  C_27 
REMARK    9  A    between atoms: C_27  and  C_28 
REMARK   10  A    between atoms: C_28  and  N_29 
ROOT
ATOM      1  C   LIG d   1       9.916   6.354  -6.564  0.00  0.00    -0.043 A 
ATOM      2  C   LIG d   1      10.090   7.457  -5.754  0.00  0.00    -0.017 A 
ATOM      3  C   LIG d   1      10.009   7.318  -4.376  0.00  0.00     0.124 A 
ATOM      4  C   LIG d   1       9.769   6.070  -3.826  0.00  0.00    -0.005 A 
ATOM      5  C   LIG d   1       9.597   4.962  -4.643  0.00  0.00    -0.037 A 
ATOM      6  C   LIG d   1       9.666   5.104  -6.011  0.00  0.00    -0.041 A 
ATOM      7  C   LIG d   1       9.473   3.947  -6.957  0.00  0.00    -0.027 C 
ATOM      8  C   LIG d   1       9.649   2.619  -6.223  0.00  0.00    -0.045 C 
ATOM      9  C   LIG d   1       8.761   2.636  -4.974  0.00  0.00    -0.026 C 
ATOM     10  H   LIG d   1       7.735   2.929  -5.239  0.00  0.00     0.031 H 
ATOM     11  C   LIG d   1       9.348   3.634  -3.978  0.00  0.00    -0.024 C 
ATOM     12  H   LIG d   1      10.284   8.425  -6.191  0.00  0.00     0.066 H 
ATOM     13  H   LIG d   1       8.460   3.987  -7.383  0.00  0.00     0.031 H 
ATOM     14  H   LIG d   1      10.216   4.007  -7.766  0.00  0.00     0.031 H 
ATOM     15  H   LIG d   1       9.352   1.792  -6.884  0.00  0.00     0.027 H 
ATOM     16  H   LIG d   1      10.703   2.497  -5.933  0.00  0.00     0.027 H 
ATOM     17  H   LIG d   1      10.296   3.234  -3.589  0.00  0.00     0.032 H 
ATOM     18  H   LIG d   1       8.639   3.766  -3.147  0.00  0.00     0.032 H 
ENDROOT
BRANCH   3  19
ATOM     19  O   LIG d   1      10.172   8.400  -3.570  0.00  0.00    -0.490 OA
BRANCH  19  20
ATOM     20  C   LIG d   1      11.301   9.238  -3.828  0.00  0.00     0.102 C 
ATOM     21  H   LIG d   1      12.018   8.699  -4.466  0.00  0.00     0.071 H 
ATOM     22  H   LIG d   1      10.970  10.153  -4.340  0.00  0.00     0.071 H 
BRANCH  20  23
ATOM     23  C   LIG d   1      11.974   9.609  -2.505  0.00  0.00     0.033 C 
ATOM     24  H   LIG d   1      13.043   9.801  -2.679  0.00  0.00     0.046 H 
ATOM     25  H   LIG d   1      11.500  10.513  -2.094  0.00  0.00     0.046 H 
BRANCH  23  26
ATOM     26  N   LIG d   1      11.824   8.501  -1.552  0.00  0.00    -0.295 N 
ATOM     27  C   LIG d   1      13.058   7.706  -1.471  0.00  0.00     0.022 C 
ATOM     28  C   LIG d   1      12.839   6.530  -0.515  0.00  0.00     0.060 C 
ATOM     29  H   LIG d   1      13.315   7.325  -2.471  0.00  0.00     0.045 H 
ATOM     30  H   LIG d   1      13.877   8.337  -1.098  0.00  0.00     0.045 H 
ATOM     31  O   LIG d   1      12.433   7.029   0.762  0.00  0.00    -0.377 OA
ATOM     32  H   LIG d   1      13.777   5.964  -0.406  0.00  0.00     0.057 H 
ATOM     33  H   LIG d   1      12.058   5.869  -0.916  0.00  0.00     0.057 H 
ATOM     34  C   LIG d   1      11.234   7.809   0.720  0.00  0.00     0.060 C 
ATOM     35  C   LIG d   1      11.437   8.997  -0.224  0.00  0.00     0.022 C 
ATOM     36  H   LIG d   1      10.998   8.178   1.729  0.00  0.00     0.057 H 
ATOM     37  H   LIG d   1      10.403   7.187   0.354  0.00  0.00     0.057 H 
ATOM     38  H   LIG d   1      12.230   9.649   0.170  0.00  0.00     0.045 H 
ATOM     39  H   LIG d   1      10.499   9.567  -0.304  0.00  0.00     0.045 H 
ENDBRANCH  23  26
ENDBRANCH  20  23
ENDBRANCH  19  20
ENDBRANCH   3  19
BRANCH   4  40
ATOM     40  C   LIG d   1       9.686   5.917  -2.329  0.00  0.00    -0.036 C 
ATOM     41  H   LIG d   1      10.123   6.803  -1.845  0.00  0.00     0.028 H 
ATOM     42  H   LIG d   1      10.243   5.020  -2.021  0.00  0.00     0.028 H 
ATOM     43  H   LIG d   1       8.634   5.817  -2.028  0.00  0.00     0.028 H 
ENDBRANCH   4  40
BRANCH   1  44
ATOM     44  C   LIG d   1       9.998   6.506  -8.060  0.00  0.00    -0.039 C 
ATOM     45  H   LIG d   1       9.801   7.553  -8.334  0.00  0.00     0.028 H 
ATOM     46  H   LIG d   1       9.248   5.857  -8.536  0.00  0.00     0.028 H 
ATOM     47  H   LIG d   1      11.002   6.220  -8.404  0.00  0.00     0.028 H 
ENDBRANCH   1  44
BRANCH   9  48
ATOM     48  C   LIG d   1       8.729   1.241  -4.346  0.00  0.00     0.036 C 
ATOM     49  H   LIG d   1       9.418   1.199  -3.490  0.00  0.00     0.039 H 
BRANCH  48  50
ATOM     50  C   LIG d   1       9.134   0.201  -5.393  0.00  0.00    -0.054 C 
ATOM     51  H   LIG d   1       9.590  -0.665  -4.892  0.00  0.00     0.024 H 
ATOM     52  H   LIG d   1       9.860   0.646  -6.089  0.00  0.00     0.024 H 
ATOM     53  H   LIG d   1       8.244  -0.125  -5.951  0.00  0.00     0.024 H 
ENDBRANCH  48  50
BRANCH  48  54
ATOM     54  C   LIG d   1       7.335   0.942  -3.856  0.00  0.00     0.221 C 
ATOM     55  O   LIG d   1       6.758   1.740  -3.149  0.00  0.00    -0.275 OA
ATOM     56  N   LIG d   1       6.731  -0.211  -4.204  0.00  0.00    -0.270 N 
ATOM     57  H   LIG d   1       7.284  -0.972  -4.775  0.00  0.00     0.156 HD
BRANCH  56  58
ATOM     58  C   LIG d   1       5.405  -0.441  -3.838  0.00  0.00     0.125 A 
ATOM     59  N   LIG d   1       4.428   0.144  -4.512  0.00  0.00    -0.240 NA
ATOM     60  C   LIG d   1       3.160  -0.051  -4.203  0.00  0.00     0.030 A 
ATOM     61  C   LIG d   1       2.807  -0.871  -3.149  0.00  0.00    -0.043 A 
ATOM     62  H   LIG d   1       2.390   0.439  -4.779  0.00  0.00     0.083 H 
ATOM     63  C   LIG d   1       3.802  -1.498  -2.413  0.00  0.00    -0.057 A 
ATOM     64  H   LIG d   1       1.767  -1.021  -2.901  0.00  0.00     0.063 H 
ATOM     65  C   LIG d   1       5.122  -1.279  -2.765  0.00  0.00    -0.021 A 
ATOM     66  H   LIG d   1       3.552  -2.144  -1.584  0.00  0.00     0.062 H 
ATOM     67  H   LIG d   1       5.922  -1.751  -2.214  0.00  0.00     0.065 H 
ENDBRANCH  56  58
ENDBRANCH  48  54
ENDBRANCH   9  48
TORSDOF 10
ENDMDL
MODEL 5
REMARK VINA RESULT:      -6.6      8.349     14.560
REMARK  10 active torsions:
REMARK  status: ('A' for Active; 'I' for Inactive)
REMARK    1  A    between atoms: C_1  and  C_2 
REMARK    2  A    between atoms: C_4  and  O_26 
REMARK    3  A    between atoms: C_5  and  C_25 
REMARK    4  A    between atoms: C_10  and  C_13 
REMARK    5  A    between atoms: C_13  and  C_15 
REMARK    6  A    between atoms: C_13  and  C_16 
REMARK       I    between atoms: C_16  and  N_18 
REMARK    7  A    between atoms: N_18  and  C_19 
REMARK    8  A    between atoms: O_26  and  C_27 
REMARK    9  A    between atoms: C_27  and  C_28 
REMARK   10  A    between atoms: C_28  and  N_29 
ROOT
ATOM      1  C   LIG d   1       9.938   6.471  -6.795  0.00  0.00    -0.043 A 
ATOM      2  C   LIG d   1      10.070   7.624  -6.050  0.00  0.00    -0.017 A 
ATOM      3  C   LIG d   1       9.942   7.569  -4.669  0.00  0.00     0.124 A 
ATOM      4  C   LIG d   1       9.697   6.353  -4.052  0.00  0.00    -0.005 A 
ATOM      5  C   LIG d   1       9.568   5.195  -4.804  0.00  0.00    -0.037 A 
ATOM      6  C   LIG d   1       9.684   5.254  -6.175  0.00  0.00    -0.041 A 
ATOM      7  C   LIG d   1       9.538   4.039  -7.054  0.00  0.00    -0.027 C 
ATOM      8  C   LIG d   1       9.704   2.760  -6.233  0.00  0.00    -0.045 C 
ATOM      9  C   LIG d   1       8.772   2.841  -5.019  0.00  0.00    -0.026 C 
ATOM     10  H   LIG d   1       7.752   3.103  -5.337  0.00  0.00     0.031 H 
ATOM     11  C   LIG d   1       9.311   3.907  -4.067  0.00  0.00    -0.024 C 
ATOM     12  H   LIG d   1      10.267   8.565  -6.539  0.00  0.00     0.066 H 
ATOM     13  H   LIG d   1       8.541   4.037  -7.516  0.00  0.00     0.031 H 
ATOM     14  H   LIG d   1      10.308   4.059  -7.839  0.00  0.00     0.031 H 
ATOM     15  H   LIG d   1       9.440   1.890  -6.852  0.00  0.00     0.027 H 
ATOM     16  H   LIG d   1      10.749   2.671  -5.900  0.00  0.00     0.027 H 
ATOM     17  H   LIG d   1      10.250   3.545  -3.622  0.00  0.00     0.032 H 
ATOM     18  H   LIG d   1       8.572   4.080  -3.271  0.00  0.00     0.032 H 
ENDROOT
BRANCH   3  19
ATOM     19  O   LIG d   1      10.062   8.700  -3.926  0.00  0.00    -0.490 OA
BRANCH  19  20
ATOM     20  C   LIG d   1      10.219   9.930  -4.639  0.00  0.00     0.102 C 
ATOM     21  H   LIG d   1      11.193  10.376  -4.389  0.00  0.00     0.071 H 
ATOM     22  H   LIG d   1      10.170   9.736  -5.720  0.00  0.00     0.071 H 
BRANCH  20  23
ATOM     23  C   LIG d   1       9.100  10.895  -4.242  0.00  0.00     0.033 C 
ATOM     24  H   LIG d   1       8.604  11.272  -5.149  0.00  0.00     0.046 H 
ATOM     25  H   LIG d   1       8.365  10.366  -3.616  0.00  0.00     0.046 H 
BRANCH  23  26
ATOM     26  N   LIG d   1       9.667  12.020  -3.488  0.00  0.00    -0.295 N 
ATOM     27  C   LIG d   1       8.660  13.069  -3.271  0.00  0.00     0.022 C 
ATOM     28  C   LIG d   1       9.308  14.247  -2.537  0.00  0.00     0.060 C 
ATOM     29  H   LIG d   1       8.271  13.410  -4.242  0.00  0.00     0.045 H 
ATOM     30  H   LIG d   1       7.835  12.666  -2.667  0.00  0.00     0.045 H 
ATOM     31  O   LIG d   1       9.877  13.781  -1.310  0.00  0.00    -0.377 OA
ATOM     32  H   LIG d   1       8.545  15.010  -2.321  0.00  0.00     0.057 H 
ATOM     33  H   LIG d   1      10.096  14.684  -3.165  0.00  0.00     0.057 H 
ATOM     34  C   LIG d   1      10.863  12.759  -1.485  0.00  0.00     0.060 C 
ATOM     35  C   LIG d   1      10.231  11.567  -2.209  0.00  0.00     0.022 C 
ATOM     36  H   LIG d   1      11.236  12.435  -0.502  0.00  0.00     0.057 H 
ATOM     37  H   LIG d   1      11.698  13.151  -2.084  0.00  0.00     0.057 H 
ATOM     38  H   LIG d   1       9.431  11.139  -1.587  0.00  0.00     0.045 H 
ATOM     39  H   LIG d   1      10.998  10.802  -2.397  0.00  0.00     0.045 H 
ENDBRANCH  23  26
ENDBRANCH  20  23
ENDBRANCH  19  20
ENDBRANCH   3  19
BRANCH   4  40
ATOM     40  C   LIG d   1       9.563   6.291  -2.551  0.00  0.00    -0.036 C 
ATOM     41  H   LIG d   1      10.097   7.141  -2.101  0.00  0.00     0.028 H 
ATOM     42  H   LIG d   1       9.996   5.350  -2.184  0.00  0.00     0.028 H 
ATOM     43  H   LIG d   1       8.500   6.339  -2.276  0.00  0.00     0.028 H 
ENDBRANCH   4  40
BRANCH   1  44
ATOM     44  C   LIG d   1      10.071   6.532  -8.294  0.00  0.00    -0.039 C 
ATOM     45  H   LIG d   1      10.374   5.546  -8.676  0.00  0.00     0.028 H 
ATOM     46  H   LIG d   1      10.831   7.280  -8.565  0.00  0.00     0.028 H 
ATOM     47  H   LIG d   1       9.105   6.815  -8.737  0.00  0.00     0.028 H 
ENDBRANCH   1  44
BRANCH   9  48
ATOM     48  C   LIG d   1       8.734   1.487  -4.308  0.00  0.00     0.036 C 
ATOM     49  H   LIG d   1       9.077   1.599  -3.269  0.00  0.00     0.039 H 
BRANCH  48  50
ATOM     50  C   LIG d   1       9.635   0.496  -5.049  0.00  0.00    -0.054 C 
ATOM     51  H   LIG d   1       9.953  -0.297  -4.357  0.00  0.00     0.024 H 
ATOM     52  H   LIG d   1      10.520   1.024  -5.434  0.00  0.00     0.024 H 
ATOM     53  H   LIG d   1       9.079   0.051  -5.887  0.00  0.00     0.024 H 
ENDBRANCH  48  50
BRANCH  48  54
ATOM     54  C   LIG d   1       7.320   0.965  -4.294  0.00  0.00     0.221 C 
ATOM     55  O   LIG d   1       6.796   0.607  -5.327  0.00  0.00    -0.275 OA
ATOM     56  N   LIG d   1       6.638   0.897  -3.134  0.00  0.00    -0.270 N 
ATOM     57  H   LIG d   1       7.081   1.299  -2.210  0.00  0.00     0.156 HD
BRANCH  56  58
ATOM     58  C   LIG d   1       5.370   0.319  -3.104  0.00  0.00     0.125 A 
ATOM     59  N   LIG d   1       4.325   1.005  -3.538  0.00  0.00    -0.240 NA
ATOM     60  C   LIG d   1       3.109   0.493  -3.533  0.00  0.00     0.030 A 
ATOM     61  C   LIG d   1       2.881  -0.784  -3.058  0.00  0.00    -0.043 A 
ATOM     62  H   LIG d   1       2.282   1.081  -3.900  0.00  0.00     0.083 H 
ATOM     63  C   LIG d   1       3.950  -1.534  -2.588  0.00  0.00    -0.057 A 
ATOM     64  H   LIG d   1       1.882  -1.193  -3.053  0.00  0.00     0.063 H 
ATOM     65  C   LIG d   1       5.213  -0.973  -2.611  0.00  0.00    -0.021 A 
ATOM     66  H   LIG d   1       3.798  -2.535  -2.211  0.00  0.00     0.062 H 
ATOM     67  H   LIG d   1       6.067  -1.529  -2.253  0.00  0.00     0.065 H 
ENDBRANCH  56  58
ENDBRANCH  48  54
ENDBRANCH   9  48
TORSDOF 10
ENDMDL
MODEL 6
REMARK VINA RESULT:      -6.6      1.931      2.832
REMARK  10 active torsions:
REMARK  status: ('A' for Active; 'I' for Inactive)
REMARK    1  A    between atoms: C_1  and  C_2 
REMARK    2  A    between atoms: C_4  and  O_26 
REMARK    3  A    between atoms: C_5  and  C_25 
REMARK    4  A    between atoms: C_10  and  C_13 
REMARK    5  A    between atoms: C_13  and  C_15 
REMARK    6  A    between atoms: C_13  and  C_16 
REMARK       I    between atoms: C_16  and  N_18 
REMARK    7  A    between atoms: N_18  and  C_19 
REMARK    8  A    between atoms: O_26  and  C_27 
REMARK    9  A    between atoms: C_27  and  C_28 
REMARK   10  A    between atoms: C_28  and  N_29 
ROOT
ATOM      1  C   LIG d   1       3.644  -1.510 -12.847  0.00  0.00    -0.043 A 
ATOM      2  C   LIG d   1       3.084  -2.709 -13.233  0.00  0.00    -0.017 A 
ATOM      3  C   LIG d   1       2.196  -3.358 -12.387  0.00  0.00     0.124 A 
ATOM      4  C   LIG d   1       1.871  -2.788 -11.167  0.00  0.00    -0.005 A 
ATOM      5  C   LIG d   1       2.433  -1.580 -10.782  0.00  0.00    -0.037 A 
ATOM      6  C   LIG d   1       3.323  -0.943 -11.619  0.00  0.00    -0.041 A 
ATOM      7  C   LIG d   1       3.984   0.362 -11.258  0.00  0.00    -0.027 C 
ATOM      8  C   LIG d   1       3.222   1.055 -10.129  0.00  0.00    -0.045 C 
ATOM      9  C   LIG d   1       3.026   0.049  -8.989  0.00  0.00    -0.026 C 
ATOM     10  H   LIG d   1       3.985  -0.424  -8.730  0.00  0.00     0.031 H 
ATOM     11  C   LIG d   1       2.028  -1.012  -9.447  0.00  0.00    -0.024 C 
ATOM     12  H   LIG d   1       3.338  -3.143 -14.188  0.00  0.00     0.066 H 
ATOM     13  H   LIG d   1       5.015   0.172 -10.926  0.00  0.00     0.031 H 
ATOM     14  H   LIG d   1       3.996   1.023 -12.137  0.00  0.00     0.031 H 
ATOM     15  H   LIG d   1       3.800   1.920  -9.773  0.00  0.00     0.027 H 
ATOM     16  H   LIG d   1       2.244   1.395 -10.502  0.00  0.00     0.027 H 
ATOM     17  H   LIG d   1       1.033  -0.552  -9.531  0.00  0.00     0.032 H 
ATOM     18  H   LIG d   1       1.997  -1.818  -8.700  0.00  0.00     0.032 H 
ENDROOT
BRANCH   3  19
ATOM     19  O   LIG d   1       1.645  -4.544 -12.755  0.00  0.00    -0.490 OA
BRANCH  19  20
ATOM     20  C   LIG d   1       0.732  -4.521 -13.855  0.00  0.00     0.102 C 
ATOM     21  H   LIG d   1       0.247  -3.535 -13.908  0.00  0.00     0.071 H 
ATOM     22  H   LIG d   1       1.280  -4.713 -14.790  0.00  0.00     0.071 H 
BRANCH  20  23
ATOM     23  C   LIG d   1      -0.332  -5.603 -13.657  0.00  0.00     0.033 C 
ATOM     24  H   LIG d   1      -1.191  -5.395 -14.312  0.00  0.00     0.046 H 
ATOM     25  H   LIG d   1       0.093  -6.586 -13.910  0.00  0.00     0.046 H 
BRANCH  23  26
ATOM     26  N   LIG d   1      -0.773  -5.606 -12.256  0.00  0.00    -0.295 N 
ATOM     27  C   LIG d   1      -2.129  -5.052 -12.130  0.00  0.00     0.022 C 
ATOM     28  C   LIG d   1      -2.525  -5.018 -10.651  0.00  0.00     0.060 C 
ATOM     29  H   LIG d   1      -2.147  -4.031 -12.540  0.00  0.00     0.045 H 
ATOM     30  H   LIG d   1      -2.836  -5.683 -12.686  0.00  0.00     0.045 H 
ATOM     31  O   LIG d   1      -2.426  -6.336 -10.106  0.00  0.00    -0.377 OA
ATOM     32  H   LIG d   1      -3.560  -4.658 -10.555  0.00  0.00     0.057 H 
ATOM     33  H   LIG d   1      -1.850  -4.344 -10.105  0.00  0.00     0.057 H 
ATOM     34  C   LIG d   1      -1.118  -6.906 -10.212  0.00  0.00     0.060 C 
ATOM     35  C   LIG d   1      -0.708  -6.959 -11.686  0.00  0.00     0.022 C 
ATOM     36  H   LIG d   1      -1.125  -7.925  -9.796  0.00  0.00     0.057 H 
ATOM     37  H   LIG d   1      -0.400  -6.287  -9.654  0.00  0.00     0.057 H 
ATOM     38  H   LIG d   1      -1.392  -7.622 -12.236  0.00  0.00     0.045 H 
ATOM     39  H   LIG d   1       0.320  -7.343 -11.769  0.00  0.00     0.045 H 
ENDBRANCH  23  26
ENDBRANCH  20  23
ENDBRANCH  19  20
ENDBRANCH   3  19
BRANCH   4  40
ATOM     40  C   LIG d   1       0.903  -3.489 -10.249  0.00  0.00    -0.036 C 
ATOM     41  H   LIG d   1       1.459  -4.136  -9.555  0.00  0.00     0.028 H 
ATOM     42  H   LIG d   1       0.211  -4.102 -10.845  0.00  0.00     0.028 H 
ATOM     43  H   LIG d   1       0.333  -2.743  -9.678  0.00  0.00     0.028 H 
ENDBRANCH   4  40
BRANCH   1  44
ATOM     44  C   LIG d   1       4.612  -0.808 -13.763  0.00  0.00    -0.039 C 
ATOM     45  H   LIG d   1       5.225  -0.105 -13.180  0.00  0.00     0.028 H 
ATOM     46  H   LIG d   1       4.053  -0.256 -14.534  0.00  0.00     0.028 H 
ATOM     47  H   LIG d   1       5.264  -1.551 -14.245  0.00  0.00     0.028 H 
ENDBRANCH   1  44
BRANCH   9  48
ATOM     48  C   LIG d   1       2.481   0.770  -7.755  0.00  0.00     0.036 C 
ATOM     49  H   LIG d   1       1.400   0.590  -7.663  0.00  0.00     0.039 H 
BRANCH  48  50
ATOM     50  C   LIG d   1       2.751   2.271  -7.879  0.00  0.00    -0.054 C 
ATOM     51  H   LIG d   1       2.140   2.687  -8.694  0.00  0.00     0.024 H 
ATOM     52  H   LIG d   1       3.816   2.434  -8.100  0.00  0.00     0.024 H 
ATOM     53  H   LIG d   1       2.492   2.770  -6.935  0.00  0.00     0.024 H 
ENDBRANCH  48  50
BRANCH  48  54
ATOM     54  C   LIG d   1       3.164   0.238  -6.520  0.00  0.00     0.221 C 
ATOM     55  O   LIG d   1       4.343  -0.041  -6.553  0.00  0.00    -0.275 OA
ATOM     56  N   LIG d   1       2.464   0.075  -5.381  0.00  0.00    -0.270 N 
ATOM     57  H   LIG d   1       1.377   0.248  -5.372  0.00  0.00     0.156 HD
BRANCH  56  58
ATOM     58  C   LIG d   1       3.116  -0.317  -4.212  0.00  0.00     0.125 A 
ATOM     59  N   LIG d   1       3.325  -1.602  -3.977  0.00  0.00    -0.240 NA
ATOM     60  C   LIG d   1       3.944  -2.014  -2.886  0.00  0.00     0.030 A 
ATOM     61  C   LIG d   1       4.387  -1.112  -1.940  0.00  0.00    -0.043 A 
ATOM     62  H   LIG d   1       4.101  -3.071  -2.731  0.00  0.00     0.083 H 
ATOM     63  C   LIG d   1       4.182   0.245  -2.147  0.00  0.00    -0.057 A 
ATOM     64  H   LIG d   1       4.888  -1.459  -1.049  0.00  0.00     0.063 H 
ATOM     65  C   LIG d   1       3.535   0.647  -3.301  0.00  0.00    -0.021 A 
ATOM     66  H   LIG d   1       4.519   0.971  -1.421  0.00  0.00     0.062 H 
ATOM     67  H   LIG d   1       3.359   1.695  -3.494  0.00  0.00     0.065 H 
ENDBRANCH  56  58
ENDBRANCH  48  54
ENDBRANCH   9  48
TORSDOF 10
ENDMDL
MODEL 7
REMARK VINA RESULT:      -6.4      5.181      8.295
REMARK  10 active torsions:
REMARK  status: ('A' for Active; 'I' for Inactive)
REMARK    1  A    between atoms: C_1  and  C_2 
REMARK    2  A    between atoms: C_4  and  O_26 
REMARK    3  A    between atoms: C_5  and  C_25 
REMARK    4  A    between atoms: C_10  and  C_13 
REMARK    5  A    between atoms: C_13  and  C_15 
REMARK    6  A    between atoms: C_13  and  C_16 
REMARK       I    between atoms: C_16  and  N_18 
REMARK    7  A    between atoms: N_18  and  C_19 
REMARK    8  A    between atoms: O_26  and  C_27 
REMARK    9  A    between atoms: C_27  and  C_28 
REMARK   10  A    between atoms: C_28  and  N_29 
ROOT
ATOM      1  C   LIG d   1       8.035  -4.612  -4.592  0.00  0.00    -0.043 A 
ATOM      2  C   LIG d   1       7.619  -5.684  -5.352  0.00  0.00    -0.017 A 
ATOM      3  C   LIG d   1       6.352  -5.674  -5.918  0.00  0.00     0.124 A 
ATOM      4  C   LIG d   1       5.524  -4.581  -5.727  0.00  0.00    -0.005 A 
ATOM      5  C   LIG d   1       5.947  -3.502  -4.965  0.00  0.00    -0.037 A 
ATOM      6  C   LIG d   1       7.201  -3.519  -4.393  0.00  0.00    -0.041 A 
ATOM      7  C   LIG d   1       7.718  -2.389  -3.541  0.00  0.00    -0.027 C 
ATOM      8  C   LIG d   1       6.901  -1.120  -3.777  0.00  0.00    -0.045 C 
ATOM      9  C   LIG d   1       5.415  -1.467  -3.625  0.00  0.00    -0.026 C 
ATOM     10  H   LIG d   1       5.244  -2.005  -2.680  0.00  0.00     0.031 H 
ATOM     11  C   LIG d   1       5.000  -2.342  -4.805  0.00  0.00    -0.024 C 
ATOM     12  H   LIG d   1       8.273  -6.530  -5.501  0.00  0.00     0.066 H 
ATOM     13  H   LIG d   1       7.644  -2.667  -2.480  0.00  0.00     0.031 H 
ATOM     14  H   LIG d   1       8.769  -2.188  -3.796  0.00  0.00     0.031 H 
ATOM     15  H   LIG d   1       7.186  -0.356  -3.039  0.00  0.00     0.027 H 
ATOM     16  H   LIG d   1       7.096  -0.742  -4.792  0.00  0.00     0.027 H 
ATOM     17  H   LIG d   1       5.008  -1.732  -5.721  0.00  0.00     0.032 H 
ATOM     18  H   LIG d   1       3.983  -2.721  -4.628  0.00  0.00     0.032 H 
ENDROOT
BRANCH   3  19
ATOM     19  O   LIG d   1       5.929  -6.729  -6.662  0.00  0.00    -0.490 OA
BRANCH  19  20
ATOM     20  C   LIG d   1       5.188  -7.747  -5.983  0.00  0.00     0.102 C 
ATOM     21  H   LIG d   1       4.986  -7.425  -4.951  0.00  0.00     0.071 H 
ATOM     22  H   LIG d   1       4.236  -7.919  -6.508  0.00  0.00     0.071 H 
BRANCH  20  23
ATOM     23  C   LIG d   1       6.001  -9.043  -5.964  0.00  0.00     0.033 C 
ATOM     24  H   LIG d   1       6.245  -9.337  -6.995  0.00  0.00     0.046 H 
ATOM     25  H   LIG d   1       6.931  -8.883  -5.398  0.00  0.00     0.046 H 
BRANCH  23  26
ATOM     26  N   LIG d   1       5.215 -10.105  -5.324  0.00  0.00    -0.295 N 
ATOM     27  C   LIG d   1       4.384  -9.565  -4.239  0.00  0.00     0.022 C 
ATOM     28  C   LIG d   1       3.629 -10.712  -3.561  0.00  0.00     0.060 C 
ATOM     29  H   LIG d   1       5.028  -9.062  -3.501  0.00  0.00     0.045 H 
ATOM     30  H   LIG d   1       3.665  -8.843  -4.651  0.00  0.00     0.045 H 
ATOM     31  O   LIG d   1       2.853 -11.408  -4.540  0.00  0.00    -0.377 OA
ATOM     32  H   LIG d   1       2.962 -10.306  -2.785  0.00  0.00     0.057 H 
ATOM     33  H   LIG d   1       4.347 -11.405  -3.102  0.00  0.00     0.057 H 
ATOM     34  C   LIG d   1       3.631 -11.948  -5.613  0.00  0.00     0.060 C 
ATOM     35  C   LIG d   1       4.386 -10.814  -6.310  0.00  0.00     0.022 C 
ATOM     36  H   LIG d   1       2.967 -12.446  -6.336  0.00  0.00     0.057 H 
ATOM     37  H   LIG d   1       4.351 -12.678  -5.215  0.00  0.00     0.057 H 
ATOM     38  H   LIG d   1       3.666 -10.112  -6.757  0.00  0.00     0.045 H 
ATOM     39  H   LIG d   1       5.030 -11.231  -7.099  0.00  0.00     0.045 H 
ENDBRANCH  23  26
ENDBRANCH  20  23
ENDBRANCH  19  20
ENDBRANCH   3  19
BRANCH   4  40
ATOM     40  C   LIG d   1       4.150  -4.566  -6.347  0.00  0.00    -0.036 C 
ATOM     41  H   LIG d   1       3.516  -3.841  -5.816  0.00  0.00     0.028 H 
ATOM     42  H   LIG d   1       3.703  -5.568  -6.271  0.00  0.00     0.028 H 
ATOM     43  H   LIG d   1       4.229  -4.279  -7.405  0.00  0.00     0.028 H 
ENDBRANCH   4  40
BRANCH   1  44
ATOM     44  C   LIG d   1       9.408  -4.625  -3.971  0.00  0.00    -0.039 C 
ATOM     45  H   LIG d   1      10.051  -3.895  -4.486  0.00  0.00     0.028 H 
ATOM     46  H   LIG d   1       9.845  -5.631  -4.069  0.00  0.00     0.028 H 
ATOM     47  H   LIG d   1       9.332  -4.361  -2.907  0.00  0.00     0.028 H 
ENDBRANCH   1  44
BRANCH   9  48
ATOM     48  C   LIG d   1       4.585  -0.182  -3.619  0.00  0.00     0.036 C 
ATOM     49  H   LIG d   1       5.248   0.693  -3.556  0.00  0.00     0.039 H 
BRANCH  48  50
ATOM     50  C   LIG d   1       3.630  -0.197  -2.423  0.00  0.00    -0.054 C 
ATOM     51  H   LIG d   1       4.033  -0.856  -1.640  0.00  0.00     0.024 H 
ATOM     52  H   LIG d   1       2.646  -0.570  -2.745  0.00  0.00     0.024 H 
ATOM     53  H   LIG d   1       3.523   0.823  -2.025  0.00  0.00     0.024 H 
ENDBRANCH  48  50
BRANCH  48  54
ATOM     54  C   LIG d   1       3.789  -0.092  -4.896  0.00  0.00     0.221 C 
ATOM     55  O   LIG d   1       2.577  -0.100  -4.856  0.00  0.00    -0.275 OA
ATOM     56  N   LIG d   1       4.424  -0.001  -6.081  0.00  0.00    -0.270 N 
ATOM     57  H   LIG d   1       5.521  -0.078  -6.125  0.00  0.00     0.156 HD
BRANCH  56  58
ATOM     58  C   LIG d   1       3.691   0.188  -7.251  0.00  0.00     0.125 A 
ATOM     59  N   LIG d   1       3.400   1.415  -7.653  0.00  0.00    -0.240 NA
ATOM     60  C   LIG d   1       2.714   1.638  -8.758  0.00  0.00     0.030 A 
ATOM     61  C   LIG d   1       2.261   0.589  -9.533  0.00  0.00    -0.043 A 
ATOM     62  H   LIG d   1       2.501   2.653  -9.056  0.00  0.00     0.083 H 
ATOM     63  C   LIG d   1       2.540  -0.714  -9.143  0.00  0.00    -0.057 A 
ATOM     64  H   LIG d   1       1.697   0.781 -10.433  0.00  0.00     0.063 H 
ATOM     65  C   LIG d   1       3.266  -0.916  -7.984  0.00  0.00    -0.021 A 
ATOM     66  H   LIG d   1       2.196  -1.552  -9.733  0.00  0.00     0.062 H 
ATOM     67  H   LIG d   1       3.500  -1.916  -7.651  0.00  0.00     0.065 H 
ENDBRANCH  56  58
ENDBRANCH  48  54
ENDBRANCH   9  48
TORSDOF 10
ENDMDL
MODEL 8
REMARK VINA RESULT:      -6.4      8.681     14.107
REMARK  10 active torsions:
REMARK  status: ('A' for Active; 'I' for Inactive)
REMARK    1  A    between atoms: C_1  and  C_2 
REMARK    2  A    between atoms: C_4  and  O_26 
REMARK    3  A    between atoms: C_5  and  C_25 
REMARK    4  A    between atoms: C_10  and  C_13 
REMARK    5  A    between atoms: C_13  and  C_15 
REMARK    6  A    between atoms: C_13  and  C_16 
REMARK       I    between atoms: C_16  and  N_18 
REMARK    7  A    between atoms: N_18  and  C_19 
REMARK    8  A    between atoms: O_26  and  C_27 
REMARK    9  A    between atoms: C_27  and  C_28 
REMARK   10  A    between atoms: C_28  and  N_29 
ROOT
ATOM      1  C   LIG d   1      10.166   6.277  -3.538  0.00  0.00    -0.043 A 
ATOM      2  C   LIG d   1      10.295   7.330  -4.419  0.00  0.00    -0.017 A 
ATOM      3  C   LIG d   1      10.157   7.107  -5.782  0.00  0.00     0.124 A 
ATOM      4  C   LIG d   1       9.876   5.831  -6.242  0.00  0.00    -0.005 A 
ATOM      5  C   LIG d   1       9.743   4.775  -5.354  0.00  0.00    -0.037 A 
ATOM      6  C   LIG d   1       9.892   4.996  -4.002  0.00  0.00    -0.041 A 
ATOM      7  C   LIG d   1       9.778   3.892  -2.983  0.00  0.00    -0.027 C 
ATOM      8  C   LIG d   1       9.060   2.683  -3.579  0.00  0.00    -0.045 C 
ATOM      9  C   LIG d   1       9.741   2.322  -4.904  0.00  0.00    -0.026 C 
ATOM     10  H   LIG d   1      10.829   2.239  -4.764  0.00  0.00     0.031 H 
ATOM     11  C   LIG d   1       9.428   3.416  -5.922  0.00  0.00    -0.024 C 
ATOM     12  H   LIG d   1      10.508   8.321  -4.051  0.00  0.00     0.066 H 
ATOM     13  H   LIG d   1      10.783   3.586  -2.660  0.00  0.00     0.031 H 
ATOM     14  H   LIG d   1       9.207   4.252  -2.115  0.00  0.00     0.031 H 
ATOM     15  H   LIG d   1       9.124   1.836  -2.880  0.00  0.00     0.027 H 
ATOM     16  H   LIG d   1       8.004   2.934  -3.756  0.00  0.00     0.027 H 
ATOM     17  H   LIG d   1       8.361   3.365  -6.183  0.00  0.00     0.032 H 
ATOM     18  H   LIG d   1      10.033   3.247  -6.825  0.00  0.00     0.032 H 
ENDROOT
BRANCH   3  19
ATOM     19  O   LIG d   1      10.290   8.136  -6.659  0.00  0.00    -0.490 OA
BRANCH  19  20
ATOM     20  C   LIG d   1      10.761   9.379  -6.133  0.00  0.00     0.102 C 
ATOM     21  H   LIG d   1      10.597   9.402  -5.046  0.00  0.00     0.071 H 
ATOM     22  H   LIG d   1      11.835   9.484  -6.346  0.00  0.00     0.071 H 
BRANCH  20  23
ATOM     23  C   LIG d   1       9.997  10.532  -6.789  0.00  0.00     0.033 C 
ATOM     24  H   LIG d   1      10.637  11.013  -7.542  0.00  0.00     0.046 H 
ATOM     25  H   LIG d   1       9.090  10.141  -7.273  0.00  0.00     0.046 H 
BRANCH  23  26
ATOM     26  N   LIG d   1       9.621  11.515  -5.765  0.00  0.00    -0.295 N 
ATOM     27  C   LIG d   1       9.121  10.849  -4.553  0.00  0.00     0.022 C 
ATOM     28  C   LIG d   1       8.685  11.909  -3.538  0.00  0.00     0.060 C 
ATOM     29  H   LIG d   1       8.262  10.212  -4.813  0.00  0.00     0.045 H 
ATOM     30  H   LIG d   1       9.919  10.229  -4.120  0.00  0.00     0.045 H 
ATOM     31  O   LIG d   1       9.785  12.779  -3.262  0.00  0.00    -0.377 OA
ATOM     32  H   LIG d   1       8.363  11.417  -2.607  0.00  0.00     0.057 H 
ATOM     33  H   LIG d   1       7.850  12.493  -3.950  0.00  0.00     0.057 H 
ATOM     34  C   LIG d   1      10.297  13.445  -4.420  0.00  0.00     0.060 C 
ATOM     35  C   LIG d   1      10.749  12.400  -5.444  0.00  0.00     0.022 C 
ATOM     36  H   LIG d   1      11.154  14.074  -4.135  0.00  0.00     0.057 H 
ATOM     37  H   LIG d   1       9.510  14.074  -4.861  0.00  0.00     0.057 H 
ATOM     38  H   LIG d   1      11.574  11.806  -5.025  0.00  0.00     0.045 H 
ATOM     39  H   LIG d   1      11.090  12.907  -6.359  0.00  0.00     0.045 H 
ENDBRANCH  23  26
ENDBRANCH  20  23
ENDBRANCH  19  20
ENDBRANCH   3  19
BRANCH   4  40
ATOM     40  C   LIG d   1       9.720   5.589  -7.722  0.00  0.00    -0.036 C 
ATOM     41  H   LIG d   1       9.674   4.506  -7.913  0.00  0.00     0.028 H 
ATOM     42  H   LIG d   1      10.579   6.019  -8.257  0.00  0.00     0.028 H 
ATOM     43  H   LIG d   1       8.793   6.063  -8.075  0.00  0.00     0.028 H 
ENDBRANCH   4  40
BRANCH   1  44
ATOM     44  C   LIG d   1      10.322   6.517  -2.059  0.00  0.00    -0.039 C 
ATOM     45  H   LIG d   1      11.366   6.329  -1.765  0.00  0.00     0.028 H 
ATOM     46  H   LIG d   1       9.658   5.838  -1.505  0.00  0.00     0.028 H 
ATOM     47  H   LIG d   1      10.059   7.559  -1.827  0.00  0.00     0.028 H 
ENDBRANCH   1  44
BRANCH   9  48
ATOM     48  C   LIG d   1       9.206   0.980  -5.409  0.00  0.00     0.036 C 
ATOM     49  H   LIG d   1       9.866   0.165  -5.079  0.00  0.00     0.039 H 
BRANCH  48  50
ATOM     50  C   LIG d   1       9.132   1.003  -6.937  0.00  0.00    -0.054 C 
ATOM     51  H   LIG d   1      10.150   1.022  -7.353  0.00  0.00     0.024 H 
ATOM     52  H   LIG d   1       8.586   1.900  -7.264  0.00  0.00     0.024 H 
ATOM     53  H   LIG d   1       8.607   0.104  -7.293  0.00  0.00     0.024 H 
ENDBRANCH  48  50
BRANCH  48  54
ATOM     54  C   LIG d   1       7.829   0.743  -4.844  0.00  0.00     0.221 C 
ATOM     55  O   LIG d   1       6.850   1.099  -5.464  0.00  0.00    -0.275 OA
ATOM     56  N   LIG d   1       7.686   0.135  -3.650  0.00  0.00    -0.270 N 
ATOM     57  H   LIG d   1       8.574  -0.113  -3.048  0.00  0.00     0.156 HD
BRANCH  56  58
ATOM     58  C   LIG d   1       6.413  -0.178  -3.175  0.00  0.00     0.125 A 
ATOM     59  N   LIG d   1       5.948  -1.409  -3.310  0.00  0.00    -0.240 NA
ATOM     60  C   LIG d   1       4.751  -1.749  -2.869  0.00  0.00     0.030 A 
ATOM     61  C   LIG d   1       3.932  -0.821  -2.258  0.00  0.00    -0.043 A 
ATOM     62  H   LIG d   1       4.407  -2.765  -2.993  0.00  0.00     0.083 H 
ATOM     63  C   LIG d   1       4.381   0.483  -2.103  0.00  0.00    -0.057 A 
ATOM     64  H   LIG d   1       2.953  -1.107  -1.905  0.00  0.00     0.063 H 
ATOM     65  C   LIG d   1       5.642   0.808  -2.569  0.00  0.00    -0.021 A 
ATOM     66  H   LIG d   1       3.759   1.228  -1.628  0.00  0.00     0.062 H 
ATOM     67  H   LIG d   1       6.022   1.814  -2.465  0.00  0.00     0.065 H 
ENDBRANCH  56  58
ENDBRANCH  48  54
ENDBRANCH   9  48
TORSDOF 10
ENDMDL
MODEL 9
REMARK VINA RESULT:      -6.2      3.064      4.528
REMARK  10 active torsions:
REMARK  status: ('A' for Active; 'I' for Inactive)
REMARK    1  A    between atoms: C_1  and  C_2 
REMARK    2  A    between atoms: C_4  and  O_26 
REMARK    3  A    between atoms: C_5  and  C_25 
REMARK    4  A    between atoms: C_10  and  C_13 
REMARK    5  A    between atoms: C_13  and  C_15 
REMARK    6  A    between atoms: C_13  and  C_16 
REMARK       I    between atoms: C_16  and  N_18 
REMARK    7  A    between atoms: N_18  and  C_19 
REMARK    8  A    between atoms: O_26  and  C_27 
REMARK    9  A    between atoms: C_27  and  C_28 
REMARK   10  A    between atoms: C_28  and  N_29 
ROOT
ATOM      1  C   LIG d   1       4.124  -1.771 -12.801  0.00  0.00    -0.043 A 
ATOM      2  C   LIG d   1       3.522  -2.934 -13.235  0.00  0.00    -0.017 A 
ATOM      3  C   LIG d   1       2.495  -3.495 -12.491  0.00  0.00     0.124 A 
ATOM      4  C   LIG d   1       2.074  -2.875 -11.327  0.00  0.00    -0.005 A 
ATOM      5  C   LIG d   1       2.679  -1.705 -10.893  0.00  0.00    -0.037 A 
ATOM      6  C   LIG d   1       3.707  -1.155 -11.628  0.00  0.00    -0.041 A 
ATOM      7  C   LIG d   1       4.419   0.105 -11.208  0.00  0.00    -0.027 C 
ATOM      8  C   LIG d   1       3.586   0.877 -10.187  0.00  0.00    -0.045 C 
ATOM      9  C   LIG d   1       3.182  -0.086  -9.065  0.00  0.00    -0.026 C 
ATOM     10  H   LIG d   1       4.064  -0.623  -8.687  0.00  0.00     0.031 H 
ATOM     11  C   LIG d   1       2.165  -1.079  -9.623  0.00  0.00    -0.024 C 
ATOM     12  H   LIG d   1       3.852  -3.407 -14.147  0.00  0.00     0.066 H 
ATOM     13  H   LIG d   1       5.387  -0.155 -10.754  0.00  0.00     0.031 H 
ATOM     14  H   LIG d   1       4.585   0.743 -12.088  0.00  0.00     0.031 H 
ATOM     15  H   LIG d   1       4.184   1.704  -9.775  0.00  0.00     0.027 H 
ATOM     16  H   LIG d   1       2.688   1.282 -10.677  0.00  0.00     0.027 H 
ATOM     17  H   LIG d   1       1.225  -0.547  -9.830  0.00  0.00     0.032 H 
ATOM     18  H   LIG d   1       1.985  -1.863  -8.875  0.00  0.00     0.032 H 
ENDROOT
BRANCH   3  19
ATOM     19  O   LIG d   1       1.900  -4.644 -12.906  0.00  0.00    -0.490 OA
BRANCH  19  20
ATOM     20  C   LIG d   1       2.719  -5.815 -12.963  0.00  0.00     0.102 C 
ATOM     21  H   LIG d   1       2.754  -6.187 -13.998  0.00  0.00     0.071 H 
ATOM     22  H   LIG d   1       3.737  -5.567 -12.627  0.00  0.00     0.071 H 
BRANCH  20  23
ATOM     23  C   LIG d   1       2.130  -6.894 -12.052  0.00  0.00     0.033 C 
ATOM     24  H   LIG d   1       1.301  -6.468 -11.469  0.00  0.00     0.046 H 
ATOM     25  H   LIG d   1       1.757  -7.727 -12.666  0.00  0.00     0.046 H 
BRANCH  23  26
ATOM     26  N   LIG d   1       3.171  -7.386 -11.139  0.00  0.00    -0.295 N 
ATOM     27  C   LIG d   1       4.318  -6.468 -11.105  0.00  0.00     0.022 C 
ATOM     28  C   LIG d   1       5.401  -7.047 -10.190  0.00  0.00     0.060 C 
ATOM     29  H   LIG d   1       4.721  -6.347 -12.122  0.00  0.00     0.045 H 
ATOM     30  H   LIG d   1       3.995  -5.490 -10.721  0.00  0.00     0.045 H 
ATOM     31  O   LIG d   1       4.850  -7.271  -8.890  0.00  0.00    -0.377 OA
ATOM     32  H   LIG d   1       6.239  -6.336 -10.116  0.00  0.00     0.057 H 
ATOM     33  H   LIG d   1       5.763  -7.998 -10.605  0.00  0.00     0.057 H 
ATOM     34  C   LIG d   1       3.730  -8.161  -8.886  0.00  0.00     0.060 C 
ATOM     35  C   LIG d   1       2.630  -7.594  -9.789  0.00  0.00     0.022 C 
ATOM     36  H   LIG d   1       3.346  -8.266  -7.861  0.00  0.00     0.057 H 
ATOM     37  H   LIG d   1       4.041  -9.147  -9.264  0.00  0.00     0.057 H 
ATOM     38  H   LIG d   1       2.279  -6.634  -9.382  0.00  0.00     0.045 H 
ATOM     39  H   LIG d   1       1.790  -8.302  -9.834  0.00  0.00     0.045 H 
ENDBRANCH  23  26
ENDBRANCH  20  23
ENDBRANCH  19  20
ENDBRANCH   3  19
BRANCH   4  40
ATOM     40  C   LIG d   1       0.953  -3.482 -10.520  0.00  0.00    -0.036 C 
ATOM     41  H   LIG d   1       0.647  -2.778  -9.732  0.00  0.00     0.028 H 
ATOM     42  H   LIG d   1       1.298  -4.419 -10.061  0.00  0.00     0.028 H 
ATOM     43  H   LIG d   1       0.098  -3.688 -11.179  0.00  0.00     0.028 H 
ENDBRANCH   4  40
BRANCH   1  44
ATOM     44  C   LIG d   1       5.244  -1.165 -13.605  0.00  0.00    -0.039 C 
ATOM     45  H   LIG d   1       5.008  -1.240 -14.677  0.00  0.00     0.028 H 
ATOM     46  H   LIG d   1       6.179  -1.706 -13.398  0.00  0.00     0.028 H 
ATOM     47  H   LIG d   1       5.363  -0.108 -13.329  0.00  0.00     0.028 H 
ENDBRANCH   1  44
BRANCH   9  48
ATOM     48  C   LIG d   1       2.553   0.701  -7.913  0.00  0.00     0.036 C 
ATOM     49  H   LIG d   1       1.484   0.458  -7.833  0.00  0.00     0.039 H 
BRANCH  48  50
ATOM     50  C   LIG d   1       2.730   2.200  -8.163  0.00  0.00    -0.054 C 
ATOM     51  H   LIG d   1       1.966   2.758  -7.601  0.00  0.00     0.024 H 
ATOM     52  H   LIG d   1       2.619   2.408  -9.237  0.00  0.00     0.024 H 
ATOM     53  H   LIG d   1       3.731   2.513  -7.830  0.00  0.00     0.024 H 
ENDBRANCH  48  50
BRANCH  48  54
ATOM     54  C   LIG d   1       3.230   0.325  -6.619  0.00  0.00     0.221 C 
ATOM     55  O   LIG d   1       4.414   0.066  -6.608  0.00  0.00    -0.275 OA
ATOM     56  N   LIG d   1       2.519   0.278  -5.475  0.00  0.00    -0.270 N 
ATOM     57  H   LIG d   1       1.429   0.432  -5.498  0.00  0.00     0.156 HD
BRANCH  56  58
ATOM     58  C   LIG d   1       3.163   0.034  -4.264  0.00  0.00     0.125 A 
ATOM     59  N   LIG d   1       3.806   1.016  -3.653  0.00  0.00    -0.240 NA
ATOM     60  C   LIG d   1       4.424   0.828  -2.502  0.00  0.00     0.030 A 
ATOM     61  C   LIG d   1       4.430  -0.413  -1.896  0.00  0.00    -0.043 A 
ATOM     62  H   LIG d   1       4.933   1.655  -2.030  0.00  0.00     0.083 H 
ATOM     63  C   LIG d   1       3.773  -1.471  -2.508  0.00  0.00    -0.057 A 
ATOM     64  H   LIG d   1       4.942  -0.558  -0.957  0.00  0.00     0.063 H 
ATOM     65  C   LIG d   1       3.129  -1.242  -3.711  0.00  0.00    -0.021 A 
ATOM     66  H   LIG d   1       3.764  -2.451  -2.055  0.00  0.00     0.062 H 
ATOM     67  H   LIG d   1       2.608  -2.043  -4.214  0.00  0.00     0.065 H 
ENDBRANCH  56  58
ENDBRANCH  48  54
ENDBRANCH   9  48
TORSDOF 10
ENDMDL
