MODEL 1
REMARK VINA RESULT:      -6.0      0.000      0.000
REMARK  9 active torsions:
REMARK  status: ('A' for Active; 'I' for Inactive)
REMARK    1  A    between atoms: C_1  and  N_47 
REMARK    2  A    between atoms: C_7  and  O_10 
REMARK    3  A    between atoms: C_8  and  O_9 
REMARK    4  A    between atoms: O_10  and  C_11 
REMARK    5  A    between atoms: C_12  and  C_15 
REMARK    6  A    between atoms: C_15  and  C_16 
REMARK    7  A    between atoms: C_20  and  O_24 
REMARK    8  A    between atoms: C_21  and  O_22 
REMARK    9  A    between atoms: O_22  and  C_23 
ROOT
ATOM      1  C   LIG d   1       3.727  -3.810  -8.764  0.00  0.00    -0.002 C 
ATOM      2  C   LIG d   1       4.119  -4.717  -7.629  0.00  0.00     0.046 A 
ATOM      3  C   LIG d   1       4.458  -4.224  -6.386  0.00  0.00    -0.027 A 
ATOM      4  C   LIG d   1       4.818  -5.096  -5.369  0.00  0.00    -0.054 A 
ATOM      5  C   LIG d   1       4.833  -6.460  -5.588  0.00  0.00    -0.016 A 
ATOM      6  C   LIG d   1       4.486  -6.962  -6.831  0.00  0.00     0.162 A 
ATOM      7  C   LIG d   1       4.126  -6.090  -7.851  0.00  0.00     0.167 A 
ATOM      8  C   LIG d   1       4.451  -2.745  -6.094  0.00  0.00     0.029 C 
ATOM      9  H   LIG d   1       3.562  -2.494  -5.516  0.00  0.00     0.040 H 
ATOM     10  C   LIG d   1       4.447  -1.955  -7.402  0.00  0.00    -0.025 C 
ATOM     11  H   LIG d   1       2.872  -4.235  -9.290  0.00  0.00     0.087 H 
ATOM     12  H   LIG d   1       4.565  -3.721  -9.455  0.00  0.00     0.087 H 
ATOM     13  H   LIG d   1       5.088  -4.706  -4.400  0.00  0.00     0.062 H 
ATOM     14  H   LIG d   1       5.116  -7.132  -4.791  0.00  0.00     0.066 H 
ATOM     15  H   LIG d   1       4.267  -0.900  -7.193  0.00  0.00     0.082 H 
ATOM     16  H   LIG d   1       5.407  -2.070  -7.904  0.00  0.00     0.082 H 
ATOM     17  N   LIG d   1       3.353  -2.483  -8.245  0.00  0.00     0.237 N 
ATOM     18  H   LIG d   1       2.504  -2.572  -7.676  0.00  0.00     0.203 HD
ENDROOT
BRANCH   8  19
ATOM     19  C   LIG d   1       5.699  -2.382  -5.287  0.00  0.00    -0.012 C 
ATOM     20  H   LIG d   1       6.202  -3.294  -4.965  0.00  0.00     0.032 H 
ATOM     21  H   LIG d   1       6.375  -1.793  -5.907  0.00  0.00     0.032 H 
BRANCH  19  22
ATOM     22  C   LIG d   1       5.299  -1.577  -4.076  0.00  0.00    -0.001 A 
ATOM     23  C   LIG d   1       5.595  -0.226  -4.015  0.00  0.00     0.164 A 
ATOM     24  C   LIG d   1       5.219   0.516  -2.898  0.00  0.00     0.159 A 
ATOM     25  C   LIG d   1       4.561  -0.105  -1.849  0.00  0.00    -0.017 A 
ATOM     26  C   LIG d   1       4.274  -1.456  -1.915  0.00  0.00    -0.058 A 
ATOM     27  H   LIG d   1       4.273   0.467  -0.979  0.00  0.00     0.066 H 
ATOM     28  C   LIG d   1       4.642  -2.190  -3.025  0.00  0.00    -0.055 A 
ATOM     29  H   LIG d   1       3.760  -1.938  -1.095  0.00  0.00     0.062 H 
ATOM     30  H   LIG d   1       4.417  -3.245  -3.073  0.00  0.00     0.062 H 
BRANCH  23  31
ATOM     31  O   LIG d   1       6.246   0.377  -5.045  0.00  0.00    -0.491 OA
BRANCH  31  32
ATOM     32  C   LIG d   1       7.666   0.499  -4.932  0.00  0.00     0.079 C 
ATOM     33  H   LIG d   1       8.094   0.684  -5.916  0.00  0.00     0.066 H 
ATOM     34  H   LIG d   1       7.908   1.328  -4.267  0.00  0.00     0.066 H 
ATOM     35  H   LIG d   1       8.077  -0.426  -4.525  0.00  0.00     0.066 H 
ENDBRANCH  31  32
ENDBRANCH  23  31
BRANCH  24  36
ATOM     36  O   LIG d   1       5.502   1.844  -2.834  0.00  0.00    -0.503 OA
ATOM     37  H   LIG d   1       5.437   2.302  -3.683  0.00  0.00     0.292 HD
ENDBRANCH  24  36
ENDBRANCH  19  22
ENDBRANCH   8  19
BRANCH  17  38
ATOM     38  C   LIG d   1       3.084  -1.556  -9.367  0.00  0.00    -0.043 C 
ATOM     39  H   LIG d   1       2.938  -2.114 -10.291  0.00  0.00     0.078 H 
ATOM     40  H   LIG d   1       2.186  -0.979  -9.145  0.00  0.00     0.078 H 
ATOM     41  H   LIG d   1       3.932  -0.880  -9.480  0.00  0.00     0.078 H 
ENDBRANCH  17  38
BRANCH   7  42
ATOM     42  O   LIG d   1       3.784  -6.579  -9.073  0.00  0.00    -0.503 OA
ATOM     43  H   LIG d   1       3.892  -7.537  -9.158  0.00  0.00     0.292 HD
ENDBRANCH   7  42
BRANCH   6  44
ATOM     44  O   LIG d   1       4.497  -8.304  -7.052  0.00  0.00    -0.491 OA
BRANCH  44  45
ATOM     45  C   LIG d   1       4.816  -9.143  -5.940  0.00  0.00     0.079 C 
ATOM     46  H   LIG d   1       5.843  -8.955  -5.626  0.00  0.00     0.066 H 
ATOM     47  H   LIG d   1       4.138  -8.924  -5.114  0.00  0.00     0.066 H 
ATOM     48  H   LIG d   1       4.709 -10.187  -6.231  0.00  0.00     0.066 H 
ENDBRANCH  44  45
ENDBRANCH   6  44
TORSDOF 9
ENDMDL
MODEL 2
REMARK VINA RESULT:      -5.5      4.154      7.635
REMARK  9 active torsions:
REMARK  status: ('A' for Active; 'I' for Inactive)
REMARK    1  A    between atoms: C_1  and  N_47 
REMARK    2  A    between atoms: C_7  and  O_10 
REMARK    3  A    between atoms: C_8  and  O_9 
REMARK    4  A    between atoms: O_10  and  C_11 
REMARK    5  A    between atoms: C_12  and  C_15 
REMARK    6  A    between atoms: C_15  and  C_16 
REMARK    7  A    between atoms: C_20  and  O_24 
REMARK    8  A    between atoms: C_21  and  O_22 
REMARK    9  A    between atoms: O_22  and  C_23 
ROOT
ATOM      1  C   LIG d   1       9.972   3.501  -5.226  0.00  0.00    -0.002 C 
ATOM      2  C   LIG d   1       9.089   2.729  -6.170  0.00  0.00     0.046 A 
ATOM      3  C   LIG d   1       8.109   1.872  -5.714  0.00  0.00    -0.027 A 
ATOM      4  C   LIG d   1       7.322   1.176  -6.618  0.00  0.00    -0.054 A 
ATOM      5  C   LIG d   1       7.505   1.338  -7.978  0.00  0.00    -0.016 A 
ATOM      6  C   LIG d   1       8.482   2.203  -8.443  0.00  0.00     0.162 A 
ATOM      7  C   LIG d   1       9.272   2.901  -7.538  0.00  0.00     0.167 A 
ATOM      8  C   LIG d   1       7.864   1.664  -4.241  0.00  0.00     0.029 C 
ATOM      9  H   LIG d   1       6.972   2.213  -3.941  0.00  0.00     0.040 H 
ATOM     10  C   LIG d   1       9.064   2.165  -3.437  0.00  0.00    -0.025 C 
ATOM     11  H   LIG d   1      10.086   4.523  -5.590  0.00  0.00     0.087 H 
ATOM     12  H   LIG d   1      10.950   3.025  -5.182  0.00  0.00     0.087 H 
ATOM     13  H   LIG d   1       6.559   0.502  -6.258  0.00  0.00     0.062 H 
ATOM     14  H   LIG d   1       6.888   0.792  -8.676  0.00  0.00     0.066 H 
ATOM     15  H   LIG d   1       8.815   2.175  -2.375  0.00  0.00     0.082 H 
ATOM     16  H   LIG d   1       9.919   1.511  -3.607  0.00  0.00     0.082 H 
ATOM     17  N   LIG d   1       9.365   3.541  -3.884  0.00  0.00     0.237 N 
ATOM     18  H   LIG d   1       8.492   4.079  -3.927  0.00  0.00     0.203 HD
ENDROOT
BRANCH   8  19
ATOM     19  C   LIG d   1       7.657   0.173  -3.967  0.00  0.00    -0.012 C 
ATOM     20  H   LIG d   1       7.682  -0.377  -4.908  0.00  0.00     0.032 H 
ATOM     21  H   LIG d   1       8.450  -0.191  -3.313  0.00  0.00     0.032 H 
BRANCH  19  22
ATOM     22  C   LIG d   1       6.321  -0.035  -3.300  0.00  0.00    -0.001 A 
ATOM     23  C   LIG d   1       5.731  -1.288  -3.308  0.00  0.00     0.164 A 
ATOM     24  C   LIG d   1       4.500  -1.478  -2.687  0.00  0.00     0.159 A 
ATOM     25  C   LIG d   1       3.865  -0.409  -2.074  0.00  0.00    -0.017 A 
ATOM     26  C   LIG d   1       4.458   0.840  -2.076  0.00  0.00    -0.058 A 
ATOM     27  H   LIG d   1       2.907  -0.553  -1.597  0.00  0.00     0.066 H 
ATOM     28  C   LIG d   1       5.682   1.027  -2.687  0.00  0.00    -0.055 A 
ATOM     29  H   LIG d   1       3.961   1.672  -1.597  0.00  0.00     0.062 H 
ATOM     30  H   LIG d   1       6.141   2.005  -2.687  0.00  0.00     0.062 H 
BRANCH  23  31
ATOM     31  O   LIG d   1       6.356  -2.332  -3.916  0.00  0.00    -0.491 OA
BRANCH  31  32
ATOM     32  C   LIG d   1       5.981  -2.614  -5.266  0.00  0.00     0.079 C 
ATOM     33  H   LIG d   1       6.214  -3.653  -5.499  0.00  0.00     0.066 H 
ATOM     34  H   LIG d   1       4.911  -2.445  -5.389  0.00  0.00     0.066 H 
ATOM     35  H   LIG d   1       6.533  -1.958  -5.940  0.00  0.00     0.066 H 
ENDBRANCH  31  32
ENDBRANCH  23  31
BRANCH  24  36
ATOM     36  O   LIG d   1       3.918  -2.706  -2.687  0.00  0.00    -0.503 OA
ATOM     37  H   LIG d   1       3.709  -3.044  -1.805  0.00  0.00     0.292 HD
ENDBRANCH  24  36
ENDBRANCH  19  22
ENDBRANCH   8  19
BRANCH  17  38
ATOM     38  C   LIG d   1      10.287   4.195  -2.930  0.00  0.00    -0.043 C 
ATOM     39  H   LIG d   1      10.825   5.006  -3.420  0.00  0.00     0.078 H 
ATOM     40  H   LIG d   1       9.711   4.594  -2.094  0.00  0.00     0.078 H 
ATOM     41  H   LIG d   1      10.999   3.457  -2.561  0.00  0.00     0.078 H 
ENDBRANCH  17  38
BRANCH   7  42
ATOM     42  O   LIG d   1      10.232   3.752  -7.990  0.00  0.00    -0.503 OA
ATOM     43  H   LIG d   1       9.934   4.668  -8.082  0.00  0.00     0.292 HD
ENDBRANCH   7  42
BRANCH   6  44
ATOM     44  O   LIG d   1       8.666   2.369  -9.780  0.00  0.00    -0.491 OA
BRANCH  44  45
ATOM     45  C   LIG d   1       9.380   1.341 -10.470  0.00  0.00     0.079 C 
ATOM     46  H   LIG d   1       9.805   0.646  -9.746  0.00  0.00     0.066 H 
ATOM     47  H   LIG d   1       8.698   0.806 -11.131  0.00  0.00     0.066 H 
ATOM     48  H   LIG d   1      10.181   1.788 -11.058  0.00  0.00     0.066 H 
ENDBRANCH  44  45
ENDBRANCH   6  44
TORSDOF 9
ENDMDL
MODEL 3
REMARK VINA RESULT:      -5.5      3.351      4.595
REMARK  9 active torsions:
REMARK  status: ('A' for Active; 'I' for Inactive)
REMARK    1  A    between atoms: C_1  and  N_47 
REMARK    2  A    between atoms: C_7  and  O_10 
REMARK    3  A    between atoms: C_8  and  O_9 
REMARK    4  A    between atoms: O_10  and  C_11 
REMARK    5  A    between atoms: C_12  and  C_15 
REMARK    6  A    between atoms: C_15  and  C_16 
REMARK    7  A    between atoms: C_20  and  O_24 
REMARK    8  A    between atoms: C_21  and  O_22 
REMARK    9  A    between atoms: O_22  and  C_23 
ROOT
ATOM      1  C   LIG d   1       6.928  -6.531  -5.902  0.00  0.00    -0.002 C 
ATOM      2  C   LIG d   1       7.714  -5.457  -5.198  0.00  0.00     0.046 A 
ATOM      3  C   LIG d   1       7.135  -4.268  -4.808  0.00  0.00    -0.027 A 
ATOM      4  C   LIG d   1       7.898  -3.303  -4.167  0.00  0.00    -0.054 A 
ATOM      5  C   LIG d   1       9.236  -3.527  -3.906  0.00  0.00    -0.016 A 
ATOM      6  C   LIG d   1       9.821  -4.723  -4.286  0.00  0.00     0.162 A 
ATOM      7  C   LIG d   1       9.059  -5.690  -4.930  0.00  0.00     0.167 A 
ATOM      8  C   LIG d   1       5.678  -3.976  -5.064  0.00  0.00     0.029 C 
ATOM      9  H   LIG d   1       5.117  -4.098  -4.138  0.00  0.00     0.040 H 
ATOM     10  C   LIG d   1       5.132  -4.938  -6.120  0.00  0.00    -0.025 C 
ATOM     11  H   LIG d   1       7.194  -7.505  -5.490  0.00  0.00     0.087 H 
ATOM     12  H   LIG d   1       7.170  -6.512  -6.963  0.00  0.00     0.087 H 
ATOM     13  H   LIG d   1       7.443  -2.371  -3.869  0.00  0.00     0.062 H 
ATOM     14  H   LIG d   1       9.824  -2.770  -3.406  0.00  0.00     0.066 H 
ATOM     15  H   LIG d   1       4.047  -4.842  -6.176  0.00  0.00     0.082 H 
ATOM     16  H   LIG d   1       5.570  -4.705  -7.090  0.00  0.00     0.082 H 
ATOM     17  N   LIG d   1       5.484  -6.312  -5.705  0.00  0.00     0.237 N 
ATOM     18  H   LIG d   1       5.259  -6.431  -4.711  0.00  0.00     0.203 HD
ENDROOT
BRANCH   8  19
ATOM     19  C   LIG d   1       5.528  -2.537  -5.563  0.00  0.00    -0.012 C 
ATOM     20  H   LIG d   1       6.507  -2.058  -5.590  0.00  0.00     0.032 H 
ATOM     21  H   LIG d   1       5.098  -2.542  -6.564  0.00  0.00     0.032 H 
BRANCH  19  22
ATOM     22  C   LIG d   1       4.623  -1.774  -4.630  0.00  0.00    -0.001 A 
ATOM     23  C   LIG d   1       4.135  -0.532  -5.001  0.00  0.00     0.164 A 
ATOM     24  C   LIG d   1       3.295   0.168  -4.139  0.00  0.00     0.159 A 
ATOM     25  C   LIG d   1       2.961  -0.377  -2.910  0.00  0.00    -0.017 A 
ATOM     26  C   LIG d   1       3.456  -1.614  -2.544  0.00  0.00    -0.058 A 
ATOM     27  H   LIG d   1       2.313   0.167  -2.237  0.00  0.00     0.066 H 
ATOM     28  C   LIG d   1       4.285  -2.312  -3.401  0.00  0.00    -0.055 A 
ATOM     29  H   LIG d   1       3.194  -2.038  -1.584  0.00  0.00     0.062 H 
ATOM     30  H   LIG d   1       4.671  -3.277  -3.111  0.00  0.00     0.062 H 
BRANCH  23  31
ATOM     31  O   LIG d   1       4.471   0.000  -6.207  0.00  0.00    -0.491 OA
BRANCH  31  32
ATOM     32  C   LIG d   1       3.541  -0.181  -7.277  0.00  0.00     0.079 C 
ATOM     33  H   LIG d   1       4.084  -0.363  -8.203  0.00  0.00     0.066 H 
ATOM     34  H   LIG d   1       2.897  -1.034  -7.058  0.00  0.00     0.066 H 
ATOM     35  H   LIG d   1       2.931   0.717  -7.383  0.00  0.00     0.066 H 
ENDBRANCH  31  32
ENDBRANCH  23  31
BRANCH  24  36
ATOM     36  O   LIG d   1       2.809   1.385  -4.500  0.00  0.00    -0.503 OA
ATOM     37  H   LIG d   1       2.459   1.419  -5.401  0.00  0.00     0.292 HD
ENDBRANCH  24  36
ENDBRANCH  19  22
ENDBRANCH   8  19
BRANCH  17  38
ATOM     38  C   LIG d   1       4.710  -7.295  -6.494  0.00  0.00    -0.043 C 
ATOM     39  H   LIG d   1       3.649  -7.218  -6.258  0.00  0.00     0.078 H 
ATOM     40  H   LIG d   1       4.860  -7.097  -7.556  0.00  0.00     0.078 H 
ATOM     41  H   LIG d   1       5.063  -8.298  -6.258  0.00  0.00     0.078 H 
ENDBRANCH  17  38
BRANCH   7  42
ATOM     42  O   LIG d   1       9.630  -6.866  -5.305  0.00  0.00    -0.503 OA
ATOM     43  H   LIG d   1      10.009  -7.370  -4.572  0.00  0.00     0.292 HD
ENDBRANCH   7  42
BRANCH   6  44
ATOM     44  O   LIG d   1      11.138  -4.950  -4.030  0.00  0.00    -0.491 OA
BRANCH  44  45
ATOM     45  C   LIG d   1      11.897  -3.855  -3.513  0.00  0.00     0.079 C 
ATOM     46  H   LIG d   1      12.490  -4.194  -2.664  0.00  0.00     0.066 H 
ATOM     47  H   LIG d   1      12.560  -3.475  -4.291  0.00  0.00     0.066 H 
ATOM     48  H   LIG d   1      11.220  -3.064  -3.193  0.00  0.00     0.066 H 
ENDBRANCH  44  45
ENDBRANCH   6  44
TORSDOF 9
ENDMDL
MODEL 4
REMARK VINA RESULT:      -5.5      3.858      4.552
REMARK  9 active torsions:
REMARK  status: ('A' for Active; 'I' for Inactive)
REMARK    1  A    between atoms: C_1  and  N_47 
REMARK    2  A    between atoms: C_7  and  O_10 
REMARK    3  A    between atoms: C_8  and  O_9 
REMARK    4  A    between atoms: O_10  and  C_11 
REMARK    5  A    between atoms: C_12  and  C_15 
REMARK    6  A    between atoms: C_15  and  C_16 
REMARK    7  A    between atoms: C_20  and  O_24 
REMARK    8  A    between atoms: C_21  and  O_22 
REMARK    9  A    between atoms: O_22  and  C_23 
ROOT
ATOM      1  C   LIG d   1       8.153  -5.303  -6.329  0.00  0.00    -0.002 C 
ATOM      2  C   LIG d   1       8.771  -4.998  -4.991  0.00  0.00     0.046 A 
ATOM      3  C   LIG d   1       8.277  -4.005  -4.170  0.00  0.00    -0.027 A 
ATOM      4  C   LIG d   1       8.880  -3.754  -2.947  0.00  0.00    -0.054 A 
ATOM      5  C   LIG d   1       9.970  -4.497  -2.537  0.00  0.00    -0.016 A 
ATOM      6  C   LIG d   1      10.465  -5.501  -3.352  0.00  0.00     0.162 A 
ATOM      7  C   LIG d   1       9.863  -5.753  -4.578  0.00  0.00     0.167 A 
ATOM      8  C   LIG d   1       7.086  -3.170  -4.568  0.00  0.00     0.029 C 
ATOM      9  H   LIG d   1       6.206  -3.513  -4.023  0.00  0.00     0.040 H 
ATOM     10  C   LIG d   1       6.837  -3.300  -6.070  0.00  0.00    -0.025 C 
ATOM     11  H   LIG d   1       8.092  -6.384  -6.463  0.00  0.00     0.087 H 
ATOM     12  H   LIG d   1       8.776  -4.879  -7.115  0.00  0.00     0.087 H 
ATOM     13  H   LIG d   1       8.495  -2.972  -2.310  0.00  0.00     0.062 H 
ATOM     14  H   LIG d   1      10.435  -4.295  -1.583  0.00  0.00     0.066 H 
ATOM     15  H   LIG d   1       5.881  -2.840  -6.324  0.00  0.00     0.082 H 
ATOM     16  H   LIG d   1       7.638  -2.805  -6.619  0.00  0.00     0.082 H 
ATOM     17  N   LIG d   1       6.793  -4.740  -6.399  0.00  0.00     0.237 N 
ATOM     18  H   LIG d   1       6.195  -5.222  -5.718  0.00  0.00     0.203 HD
ENDROOT
BRANCH   8  19
ATOM     19  C   LIG d   1       7.356  -1.704  -4.223  0.00  0.00    -0.012 C 
ATOM     20  H   LIG d   1       8.233  -1.639  -3.577  0.00  0.00     0.032 H 
ATOM     21  H   LIG d   1       7.537  -1.142  -5.139  0.00  0.00     0.032 H 
BRANCH  19  22
ATOM     22  C   LIG d   1       6.162  -1.128  -3.506  0.00  0.00    -0.001 A 
ATOM     23  C   LIG d   1       5.836   0.208  -3.668  0.00  0.00     0.164 A 
ATOM     24  C   LIG d   1       4.729   0.736  -3.009  0.00  0.00     0.159 A 
ATOM     25  C   LIG d   1       3.966  -0.075  -2.185  0.00  0.00    -0.017 A 
ATOM     26  C   LIG d   1       4.302  -1.407  -2.023  0.00  0.00    -0.058 A 
ATOM     27  H   LIG d   1       3.110   0.333  -1.668  0.00  0.00     0.066 H 
ATOM     28  C   LIG d   1       5.396  -1.932  -2.682  0.00  0.00    -0.055 A 
ATOM     29  H   LIG d   1       3.705  -2.039  -1.380  0.00  0.00     0.062 H 
ATOM     30  H   LIG d   1       5.655  -2.973  -2.552  0.00  0.00     0.062 H 
BRANCH  23  31
ATOM     31  O   LIG d   1       6.592   1.002  -4.474  0.00  0.00    -0.491 OA
BRANCH  31  32
ATOM     32  C   LIG d   1       7.680   1.698  -3.862  0.00  0.00     0.079 C 
ATOM     33  H   LIG d   1       8.556   1.050  -3.835  0.00  0.00     0.066 H 
ATOM     34  H   LIG d   1       7.907   2.595  -4.439  0.00  0.00     0.066 H 
ATOM     35  H   LIG d   1       7.404   1.979  -2.845  0.00  0.00     0.066 H 
ENDBRANCH  31  32
ENDBRANCH  23  31
BRANCH  24  36
ATOM     36  O   LIG d   1       4.401   2.045  -3.168  0.00  0.00    -0.503 OA
ATOM     37  H   LIG d   1       5.162   2.642  -3.200  0.00  0.00     0.292 HD
ENDBRANCH  24  36
ENDBRANCH  19  22
ENDBRANCH   8  19
BRANCH  17  38
ATOM     38  C   LIG d   1       6.232  -4.935  -7.754  0.00  0.00    -0.043 C 
ATOM     39  H   LIG d   1       6.912  -4.534  -8.506  0.00  0.00     0.078 H 
ATOM     40  H   LIG d   1       6.084  -6.001  -7.929  0.00  0.00     0.078 H 
ATOM     41  H   LIG d   1       5.273  -4.419  -7.819  0.00  0.00     0.078 H 
ENDBRANCH  17  38
BRANCH   7  42
ATOM     42  O   LIG d   1      10.346  -6.739  -5.382  0.00  0.00    -0.503 OA
ATOM     43  H   LIG d   1      10.863  -6.416  -6.133  0.00  0.00     0.292 HD
ENDBRANCH   7  42
BRANCH   6  44
ATOM     44  O   LIG d   1      11.537  -6.238  -2.953  0.00  0.00    -0.491 OA
BRANCH  44  45
ATOM     45  C   LIG d   1      11.298  -7.260  -1.984  0.00  0.00     0.079 C 
ATOM     46  H   LIG d   1      11.689  -8.208  -2.353  0.00  0.00     0.066 H 
ATOM     47  H   LIG d   1      11.799  -6.999  -1.051  0.00  0.00     0.066 H 
ATOM     48  H   LIG d   1      10.227  -7.351  -1.809  0.00  0.00     0.066 H 
ENDBRANCH  44  45
ENDBRANCH   6  44
TORSDOF 9
ENDMDL
MODEL 5
REMARK VINA RESULT:      -5.4      3.691      5.363
REMARK  9 active torsions:
REMARK  status: ('A' for Active; 'I' for Inactive)
REMARK    1  A    between atoms: C_1  and  N_47 
REMARK    2  A    between atoms: C_7  and  O_10 
REMARK    3  A    between atoms: C_8  and  O_9 
REMARK    4  A    between atoms: O_10  and  C_11 
REMARK    5  A    between atoms: C_12  and  C_15 
REMARK    6  A    between atoms: C_15  and  C_16 
REMARK    7  A    between atoms: C_20  and  O_24 
REMARK    8  A    between atoms: C_21  and  O_22 
REMARK    9  A    between atoms: O_22  and  C_23 
ROOT
ATOM      1  C   LIG d   1       5.600   0.874  -9.951  0.00  0.00    -0.002 C 
ATOM      2  C   LIG d   1       4.256   0.198  -9.920  0.00  0.00     0.046 A 
ATOM      3  C   LIG d   1       3.644  -0.153  -8.735  0.00  0.00    -0.027 A 
ATOM      4  C   LIG d   1       2.406  -0.779  -8.753  0.00  0.00    -0.054 A 
ATOM      5  C   LIG d   1       1.774  -1.049  -9.951  0.00  0.00    -0.016 A 
ATOM      6  C   LIG d   1       2.379  -0.691 -11.145  0.00  0.00     0.162 A 
ATOM      7  C   LIG d   1       3.619  -0.065 -11.128  0.00  0.00     0.167 A 
ATOM      8  C   LIG d   1       4.288   0.124  -7.400  0.00  0.00     0.029 C 
ATOM      9  H   LIG d   1       3.806   0.985  -6.938  0.00  0.00     0.040 H 
ATOM     10  C   LIG d   1       5.776   0.416  -7.590  0.00  0.00    -0.025 C 
ATOM     11  H   LIG d   1       5.588   1.673 -10.693  0.00  0.00     0.087 H 
ATOM     12  H   LIG d   1       6.361   0.143 -10.223  0.00  0.00     0.087 H 
ATOM     13  H   LIG d   1       1.933  -1.057  -7.823  0.00  0.00     0.062 H 
ATOM     14  H   LIG d   1       0.811  -1.537  -9.957  0.00  0.00     0.066 H 
ATOM     15  H   LIG d   1       6.200   0.784  -6.656  0.00  0.00     0.082 H 
ATOM     16  H   LIG d   1       6.293  -0.495  -7.893  0.00  0.00     0.082 H 
ATOM     17  N   LIG d   1       5.904   1.457  -8.632  0.00  0.00     0.237 N 
ATOM     18  H   LIG d   1       5.236   2.211  -8.437  0.00  0.00     0.203 HD
ENDROOT
BRANCH   8  19
ATOM     19  C   LIG d   1       4.122  -1.097  -6.494  0.00  0.00    -0.012 C 
ATOM     20  H   LIG d   1       3.276  -1.692  -6.837  0.00  0.00     0.032 H 
ATOM     21  H   LIG d   1       5.029  -1.701  -6.527  0.00  0.00     0.032 H 
BRANCH  19  22
ATOM     22  C   LIG d   1       3.873  -0.642  -5.078  0.00  0.00    -0.001 A 
ATOM     23  C   LIG d   1       4.271  -1.436  -4.016  0.00  0.00     0.164 A 
ATOM     24  C   LIG d   1       4.044  -1.011  -2.710  0.00  0.00     0.159 A 
ATOM     25  C   LIG d   1       3.412   0.200  -2.479  0.00  0.00    -0.017 A 
ATOM     26  C   LIG d   1       3.012   0.985  -3.545  0.00  0.00    -0.058 A 
ATOM     27  H   LIG d   1       3.230   0.530  -1.467  0.00  0.00     0.066 H 
ATOM     28  C   LIG d   1       3.242   0.566  -4.841  0.00  0.00    -0.055 A 
ATOM     29  H   LIG d   1       2.519   1.930  -3.364  0.00  0.00     0.062 H 
ATOM     30  H   LIG d   1       2.928   1.181  -5.671  0.00  0.00     0.062 H 
BRANCH  23  31
ATOM     31  O   LIG d   1       4.887  -2.627  -4.247  0.00  0.00    -0.491 OA
BRANCH  31  32
ATOM     32  C   LIG d   1       6.316  -2.629  -4.242  0.00  0.00     0.079 C 
ATOM     33  H   LIG d   1       6.683  -2.450  -5.252  0.00  0.00     0.066 H 
ATOM     34  H   LIG d   1       6.678  -1.844  -3.578  0.00  0.00     0.066 H 
ATOM     35  H   LIG d   1       6.675  -3.597  -3.891  0.00  0.00     0.066 H 
ENDBRANCH  31  32
ENDBRANCH  23  31
BRANCH  24  36
ATOM     36  O   LIG d   1       4.437  -1.784  -1.663  0.00  0.00    -0.503 OA
ATOM     37  H   LIG d   1       5.344  -1.620  -1.370  0.00  0.00     0.292 HD
ENDBRANCH  24  36
ENDBRANCH  19  22
ENDBRANCH   8  19
BRANCH  17  38
ATOM     38  C   LIG d   1       7.274   2.015  -8.627  0.00  0.00    -0.043 C 
ATOM     39  H   LIG d   1       7.239   3.103  -8.575  0.00  0.00     0.078 H 
ATOM     40  H   LIG d   1       7.814   1.627  -7.763  0.00  0.00     0.078 H 
ATOM     41  H   LIG d   1       7.785   1.711  -9.541  0.00  0.00     0.078 H 
ENDBRANCH  17  38
BRANCH   7  42
ATOM     42  O   LIG d   1       4.217   0.289 -12.299  0.00  0.00    -0.503 OA
ATOM     43  H   LIG d   1       5.171   0.428 -12.226  0.00  0.00     0.292 HD
ENDBRANCH   7  42
BRANCH   6  44
ATOM     44  O   LIG d   1       1.761  -0.951 -12.328  0.00  0.00    -0.491 OA
BRANCH  44  45
ATOM     45  C   LIG d   1       0.703  -1.913 -12.310  0.00  0.00     0.079 C 
ATOM     46  H   LIG d   1       0.557  -2.273 -11.292  0.00  0.00     0.066 H 
ATOM     47  H   LIG d   1      -0.216  -1.447 -12.666  0.00  0.00     0.066 H 
ATOM     48  H   LIG d   1       0.962  -2.749 -12.959  0.00  0.00     0.066 H 
ENDBRANCH  44  45
ENDBRANCH   6  44
TORSDOF 9
ENDMDL
MODEL 6
REMARK VINA RESULT:      -5.4      4.535      7.862
REMARK  9 active torsions:
REMARK  status: ('A' for Active; 'I' for Inactive)
REMARK    1  A    between atoms: C_1  and  N_47 
REMARK    2  A    between atoms: C_7  and  O_10 
REMARK    3  A    between atoms: C_8  and  O_9 
REMARK    4  A    between atoms: O_10  and  C_11 
REMARK    5  A    between atoms: C_12  and  C_15 
REMARK    6  A    between atoms: C_15  and  C_16 
REMARK    7  A    between atoms: C_20  and  O_24 
REMARK    8  A    between atoms: C_21  and  O_22 
REMARK    9  A    between atoms: O_22  and  C_23 
ROOT
ATOM      1  C   LIG d   1      10.713  -0.440  -5.258  0.00  0.00    -0.002 C 
ATOM      2  C   LIG d   1      10.012   0.853  -4.937  0.00  0.00     0.046 A 
ATOM      3  C   LIG d   1       8.670   0.894  -4.621  0.00  0.00    -0.027 A 
ATOM      4  C   LIG d   1       8.062   2.108  -4.337  0.00  0.00    -0.054 A 
ATOM      5  C   LIG d   1       8.793   3.280  -4.360  0.00  0.00    -0.016 A 
ATOM      6  C   LIG d   1      10.143   3.244  -4.667  0.00  0.00     0.162 A 
ATOM      7  C   LIG d   1      10.752   2.029  -4.953  0.00  0.00     0.167 A 
ATOM      8  C   LIG d   1       7.829  -0.357  -4.577  0.00  0.00     0.029 C 
ATOM      9  H   LIG d   1       7.661  -0.643  -3.539  0.00  0.00     0.040 H 
ATOM     10  C   LIG d   1       8.544  -1.492  -5.308  0.00  0.00    -0.025 C 
ATOM     11  H   LIG d   1      11.687  -0.456  -4.767  0.00  0.00     0.087 H 
ATOM     12  H   LIG d   1      10.853  -0.512  -6.336  0.00  0.00     0.087 H 
ATOM     13  H   LIG d   1       7.010   2.137  -4.096  0.00  0.00     0.062 H 
ATOM     14  H   LIG d   1       8.312   4.222  -4.138  0.00  0.00     0.066 H 
ATOM     15  H   LIG d   1       8.022  -2.432  -5.126  0.00  0.00     0.082 H 
ATOM     16  H   LIG d   1       8.564  -1.285  -6.378  0.00  0.00     0.082 H 
ATOM     17  N   LIG d   1       9.918  -1.581  -4.771  0.00  0.00     0.237 N 
ATOM     18  H   LIG d   1       9.881  -1.551  -3.746  0.00  0.00     0.203 HD
ENDROOT
BRANCH   8  19
ATOM     19  C   LIG d   1       6.482  -0.087  -5.251  0.00  0.00    -0.012 C 
ATOM     20  H   LIG d   1       6.385   0.980  -5.454  0.00  0.00     0.032 H 
ATOM     21  H   LIG d   1       6.427  -0.642  -6.188  0.00  0.00     0.032 H 
BRANCH  19  22
ATOM     22  C   LIG d   1       5.366  -0.528  -4.340  0.00  0.00    -0.001 A 
ATOM     23  C   LIG d   1       4.049  -0.282  -4.689  0.00  0.00     0.164 A 
ATOM     24  C   LIG d   1       3.020  -0.695  -3.848  0.00  0.00     0.159 A 
ATOM     25  C   LIG d   1       3.319  -1.340  -2.658  0.00  0.00    -0.017 A 
ATOM     26  C   LIG d   1       4.637  -1.578  -2.314  0.00  0.00    -0.058 A 
ATOM     27  H   LIG d   1       2.523  -1.657  -2.001  0.00  0.00     0.066 H 
ATOM     28  C   LIG d   1       5.658  -1.173  -3.151  0.00  0.00    -0.055 A 
ATOM     29  H   LIG d   1       4.869  -2.082  -1.386  0.00  0.00     0.062 H 
ATOM     30  H   LIG d   1       6.686  -1.359  -2.878  0.00  0.00     0.062 H 
BRANCH  23  31
ATOM     31  O   LIG d   1       3.760   0.358  -5.855  0.00  0.00    -0.491 OA
BRANCH  31  32
ATOM     32  C   LIG d   1       3.544  -0.461  -7.006  0.00  0.00     0.079 C 
ATOM     33  H   LIG d   1       4.408  -0.397  -7.666  0.00  0.00     0.066 H 
ATOM     34  H   LIG d   1       3.399  -1.496  -6.694  0.00  0.00     0.066 H 
ATOM     35  H   LIG d   1       2.656  -0.114  -7.536  0.00  0.00     0.066 H 
ENDBRANCH  31  32
ENDBRANCH  23  31
BRANCH  24  36
ATOM     36  O   LIG d   1       1.725  -0.460  -4.187  0.00  0.00    -0.503 OA
ATOM     37  H   LIG d   1       1.237  -1.252  -4.452  0.00  0.00     0.292 HD
ENDBRANCH  24  36
ENDBRANCH  19  22
ENDBRANCH   8  19
BRANCH  17  38
ATOM     38  C   LIG d   1      10.546  -2.853  -5.191  0.00  0.00    -0.043 C 
ATOM     39  H   LIG d   1      11.315  -3.150  -4.477  0.00  0.00     0.078 H 
ATOM     40  H   LIG d   1       9.781  -3.628  -5.244  0.00  0.00     0.078 H 
ATOM     41  H   LIG d   1      10.996  -2.719  -6.175  0.00  0.00     0.078 H 
ENDBRANCH  17  38
BRANCH   7  42
ATOM     42  O   LIG d   1      12.078   1.990  -5.256  0.00  0.00    -0.503 OA
ATOM     43  H   LIG d   1      12.533   1.200  -4.930  0.00  0.00     0.292 HD
ENDBRANCH   7  42
BRANCH   6  44
ATOM     44  O   LIG d   1      10.868   4.395  -4.689  0.00  0.00    -0.491 OA
BRANCH  44  45
ATOM     45  C   LIG d   1      11.156   5.005  -3.429  0.00  0.00     0.079 C 
ATOM     46  H   LIG d   1      11.509   6.023  -3.592  0.00  0.00     0.066 H 
ATOM     47  H   LIG d   1      10.251   5.028  -2.822  0.00  0.00     0.066 H 
ATOM     48  H   LIG d   1      11.925   4.430  -2.915  0.00  0.00     0.066 H 
ENDBRANCH  44  45
ENDBRANCH   6  44
TORSDOF 9
ENDMDL
MODEL 7
REMARK VINA RESULT:      -5.3      2.304      3.379
REMARK  9 active torsions:
REMARK  status: ('A' for Active; 'I' for Inactive)
REMARK    1  A    between atoms: C_1  and  N_47 
REMARK    2  A    between atoms: C_7  and  O_10 
REMARK    3  A    between atoms: C_8  and  O_9 
REMARK    4  A    between atoms: O_10  and  C_11 
REMARK    5  A    between atoms: C_12  and  C_15 
REMARK    6  A    between atoms: C_15  and  C_16 
REMARK    7  A    between atoms: C_20  and  O_24 
REMARK    8  A    between atoms: C_21  and  O_22 
REMARK    9  A    between atoms: O_22  and  C_23 
ROOT
ATOM      1  C   LIG d   1       8.159  -4.260  -5.228  0.00  0.00    -0.002 C 
ATOM      2  C   LIG d   1       6.786  -4.775  -5.566  0.00  0.00     0.046 A 
ATOM      3  C   LIG d   1       5.645  -4.062  -5.261  0.00  0.00    -0.027 A 
ATOM      4  C   LIG d   1       4.399  -4.576  -5.586  0.00  0.00    -0.054 A 
ATOM      5  C   LIG d   1       4.288  -5.796  -6.223  0.00  0.00    -0.016 A 
ATOM      6  C   LIG d   1       5.430  -6.513  -6.541  0.00  0.00     0.162 A 
ATOM      7  C   LIG d   1       6.679  -6.001  -6.214  0.00  0.00     0.167 A 
ATOM      8  C   LIG d   1       5.711  -2.723  -4.571  0.00  0.00     0.029 C 
ATOM      9  H   LIG d   1       5.536  -1.932  -5.300  0.00  0.00     0.040 H 
ATOM     10  C   LIG d   1       7.088  -2.531  -3.934  0.00  0.00    -0.025 C 
ATOM     11  H   LIG d   1       8.832  -4.442  -6.067  0.00  0.00     0.087 H 
ATOM     12  H   LIG d   1       8.531  -4.787  -4.350  0.00  0.00     0.087 H 
ATOM     13  H   LIG d   1       3.508  -4.018  -5.339  0.00  0.00     0.062 H 
ATOM     14  H   LIG d   1       3.314  -6.190  -6.473  0.00  0.00     0.066 H 
ATOM     15  H   LIG d   1       7.193  -1.502  -3.590  0.00  0.00     0.082 H 
ATOM     16  H   LIG d   1       7.199  -3.212  -3.091  0.00  0.00     0.082 H 
ATOM     17  N   LIG d   1       8.107  -2.811  -4.967  0.00  0.00     0.237 N 
ATOM     18  H   LIG d   1       7.850  -2.324  -5.833  0.00  0.00     0.203 HD
ENDROOT
BRANCH   8  19
ATOM     19  C   LIG d   1       4.636  -2.658  -3.485  0.00  0.00    -0.012 C 
ATOM     20  H   LIG d   1       3.730  -3.148  -3.841  0.00  0.00     0.032 H 
ATOM     21  H   LIG d   1       4.994  -3.163  -2.588  0.00  0.00     0.032 H 
BRANCH  19  22
ATOM     22  C   LIG d   1       4.333  -1.216  -3.163  0.00  0.00    -0.001 A 
ATOM     23  C   LIG d   1       3.666  -0.427  -4.086  0.00  0.00     0.164 A 
ATOM     24  C   LIG d   1       3.384   0.902  -3.784  0.00  0.00     0.159 A 
ATOM     25  C   LIG d   1       3.781   1.432  -2.566  0.00  0.00    -0.017 A 
ATOM     26  C   LIG d   1       4.451   0.639  -1.653  0.00  0.00    -0.058 A 
ATOM     27  H   LIG d   1       3.567   2.465  -2.332  0.00  0.00     0.066 H 
ATOM     28  C   LIG d   1       4.727  -0.681  -1.950  0.00  0.00    -0.055 A 
ATOM     29  H   LIG d   1       4.760   1.054  -0.704  0.00  0.00     0.062 H 
ATOM     30  H   LIG d   1       5.252  -1.297  -1.235  0.00  0.00     0.062 H 
BRANCH  23  31
ATOM     31  O   LIG d   1       3.283  -0.950  -5.281  0.00  0.00    -0.491 OA
BRANCH  31  32
ATOM     32  C   LIG d   1       3.984  -0.496  -6.441  0.00  0.00     0.079 C 
ATOM     33  H   LIG d   1       3.558  -0.962  -7.329  0.00  0.00     0.066 H 
ATOM     34  H   LIG d   1       3.893   0.588  -6.519  0.00  0.00     0.066 H 
ATOM     35  H   LIG d   1       5.037  -0.767  -6.358  0.00  0.00     0.066 H 
ENDBRANCH  31  32
ENDBRANCH  23  31
BRANCH  24  36
ATOM     36  O   LIG d   1       2.725   1.681  -4.682  0.00  0.00    -0.503 OA
ATOM     37  H   LIG d   1       2.535   2.574  -4.365  0.00  0.00     0.292 HD
ENDBRANCH  24  36
ENDBRANCH  19  22
ENDBRANCH   8  19
BRANCH  17  38
ATOM     38  C   LIG d   1       9.431  -2.328  -4.518  0.00  0.00    -0.043 C 
ATOM     39  H   LIG d   1      10.210  -3.031  -4.812  0.00  0.00     0.078 H 
ATOM     40  H   LIG d   1       9.629  -1.357  -4.971  0.00  0.00     0.078 H 
ATOM     41  H   LIG d   1       9.423  -2.228  -3.432  0.00  0.00     0.078 H 
ENDBRANCH  17  38
BRANCH   7  42
ATOM     42  O   LIG d   1       7.803  -6.702  -6.525  0.00  0.00    -0.503 OA
ATOM     43  H   LIG d   1       7.816  -7.043  -7.430  0.00  0.00     0.292 HD
ENDBRANCH   7  42
BRANCH   6  44
ATOM     44  O   LIG d   1       5.328  -7.715  -7.170  0.00  0.00    -0.491 OA
BRANCH  44  45
ATOM     45  C   LIG d   1       4.209  -7.899  -8.041  0.00  0.00     0.079 C 
ATOM     46  H   LIG d   1       4.187  -8.932  -8.389  0.00  0.00     0.066 H 
ATOM     47  H   LIG d   1       3.289  -7.679  -7.499  0.00  0.00     0.066 H 
ATOM     48  H   LIG d   1       4.299  -7.228  -8.894  0.00  0.00     0.066 H 
ENDBRANCH  44  45
ENDBRANCH   6  44
TORSDOF 9
ENDMDL
MODEL 8
REMARK VINA RESULT:      -5.1     10.363     12.985
REMARK  9 active torsions:
REMARK  status: ('A' for Active; 'I' for Inactive)
REMARK    1  A    between atoms: C_1  and  N_47 
REMARK    2  A    between atoms: C_7  and  O_10 
REMARK    3  A    between atoms: C_8  and  O_9 
REMARK    4  A    between atoms: O_10  and  C_11 
REMARK    5  A    between atoms: C_12  and  C_15 
REMARK    6  A    between atoms: C_15  and  C_16 
REMARK    7  A    between atoms: C_20  and  O_24 
REMARK    8  A    between atoms: C_21  and  O_22 
REMARK    9  A    between atoms: O_22  and  C_23 
ROOT
ATOM      1  C   LIG d   1       9.562   6.474  -7.954  0.00  0.00    -0.002 C 
ATOM      2  C   LIG d   1       9.789   7.758  -7.202  0.00  0.00     0.046 A 
ATOM      3  C   LIG d   1      10.082   7.769  -5.854  0.00  0.00    -0.027 A 
ATOM      4  C   LIG d   1      10.280   8.976  -5.199  0.00  0.00    -0.054 A 
ATOM      5  C   LIG d   1      10.192  10.170  -5.887  0.00  0.00    -0.016 A 
ATOM      6  C   LIG d   1       9.907  10.165  -7.242  0.00  0.00     0.162 A 
ATOM      7  C   LIG d   1       9.708   8.957  -7.900  0.00  0.00     0.167 A 
ATOM      8  C   LIG d   1      10.195   6.494  -5.058  0.00  0.00     0.029 C 
ATOM      9  H   LIG d   1      11.246   6.268  -4.883  0.00  0.00     0.040 H 
ATOM     10  C   LIG d   1       9.547   5.342  -5.826  0.00  0.00    -0.025 C 
ATOM     11  H   LIG d   1      10.066   6.525  -8.919  0.00  0.00     0.087 H 
ATOM     12  H   LIG d   1       8.493   6.339  -8.114  0.00  0.00     0.087 H 
ATOM     13  H   LIG d   1      10.503   8.981  -4.142  0.00  0.00     0.062 H 
ATOM     14  H   LIG d   1      10.346  11.106  -5.369  0.00  0.00     0.066 H 
ATOM     15  H   LIG d   1       9.781   4.397  -5.335  0.00  0.00     0.082 H 
ATOM     16  H   LIG d   1       8.467   5.481  -5.856  0.00  0.00     0.082 H 
ATOM     17  N   LIG d   1      10.109   5.337  -7.193  0.00  0.00     0.237 N 
ATOM     18  H   LIG d   1      11.130   5.431  -7.137  0.00  0.00     0.203 HD
ENDROOT
BRANCH   8  19
ATOM     19  C   LIG d   1       9.484   6.670  -3.714  0.00  0.00    -0.012 C 
ATOM     20  H   LIG d   1       9.219   7.719  -3.578  0.00  0.00     0.032 H 
ATOM     21  H   LIG d   1       8.580   6.061  -3.698  0.00  0.00     0.032 H 
BRANCH  19  22
ATOM     22  C   LIG d   1      10.403   6.237  -2.600  0.00  0.00    -0.001 A 
ATOM     23  C   LIG d   1      10.108   6.576  -1.289  0.00  0.00     0.164 A 
ATOM     24  C   LIG d   1      10.955   6.170  -0.262  0.00  0.00     0.159 A 
ATOM     25  C   LIG d   1      12.095   5.440  -0.557  0.00  0.00    -0.017 A 
ATOM     26  C   LIG d   1      12.386   5.111  -1.868  0.00  0.00    -0.058 A 
ATOM     27  H   LIG d   1      12.757   5.128   0.238  0.00  0.00     0.066 H 
ATOM     28  C   LIG d   1      11.542   5.508  -2.887  0.00  0.00    -0.055 A 
ATOM     29  H   LIG d   1      13.275   4.540  -2.096  0.00  0.00     0.062 H 
ATOM     30  H   LIG d   1      11.773   5.250  -3.910  0.00  0.00     0.062 H 
BRANCH  23  31
ATOM     31  O   LIG d   1       8.991   7.298  -1.006  0.00  0.00    -0.491 OA
BRANCH  31  32
ATOM     32  C   LIG d   1       9.134   8.719  -0.956  0.00  0.00     0.079 C 
ATOM     33  H   LIG d   1       8.715   9.094  -0.022  0.00  0.00     0.066 H 
ATOM     34  H   LIG d   1      10.191   8.980  -1.012  0.00  0.00     0.066 H 
ATOM     35  H   LIG d   1       8.604   9.167  -1.797  0.00  0.00     0.066 H 
ENDBRANCH  31  32
ENDBRANCH  23  31
BRANCH  24  36
ATOM     36  O   LIG d   1      10.669   6.495   1.026  0.00  0.00    -0.503 OA
ATOM     37  H   LIG d   1      10.890   5.804   1.666  0.00  0.00     0.292 HD
ENDBRANCH  24  36
ENDBRANCH  19  22
ENDBRANCH   8  19
BRANCH  17  38
ATOM     38  C   LIG d   1       9.780   4.066  -7.873  0.00  0.00    -0.043 C 
ATOM     39  H   LIG d   1      10.237   4.036  -8.862  0.00  0.00     0.078 H 
ATOM     40  H   LIG d   1      10.155   3.234  -7.276  0.00  0.00     0.078 H 
ATOM     41  H   LIG d   1       8.698   3.984  -7.970  0.00  0.00     0.078 H 
ENDBRANCH  17  38
BRANCH   7  42
ATOM     42  O   LIG d   1       9.428   8.948  -9.231  0.00  0.00    -0.503 OA
ATOM     43  H   LIG d   1       8.695   8.366  -9.474  0.00  0.00     0.292 HD
ENDBRANCH   7  42
BRANCH   6  44
ATOM     44  O   LIG d   1       9.822  11.337  -7.926  0.00  0.00    -0.491 OA
BRANCH  44  45
ATOM     45  C   LIG d   1       9.608  12.523  -7.158  0.00  0.00     0.079 C 
ATOM     46  H   LIG d   1       8.600  12.510  -6.744  0.00  0.00     0.066 H 
ATOM     47  H   LIG d   1      10.334  12.565  -6.345  0.00  0.00     0.066 H 
ATOM     48  H   LIG d   1       9.728  13.397  -7.798  0.00  0.00     0.066 H 
ENDBRANCH  44  45
ENDBRANCH   6  44
TORSDOF 9
ENDMDL
MODEL 9
REMARK VINA RESULT:      -5.1      1.910      6.618
REMARK  9 active torsions:
REMARK  status: ('A' for Active; 'I' for Inactive)
REMARK    1  A    between atoms: C_1  and  N_47 
REMARK    2  A    between atoms: C_7  and  O_10 
REMARK    3  A    between atoms: C_8  and  O_9 
REMARK    4  A    between atoms: O_10  and  C_11 
REMARK    5  A    between atoms: C_12  and  C_15 
REMARK    6  A    between atoms: C_15  and  C_16 
REMARK    7  A    between atoms: C_20  and  O_24 
REMARK    8  A    between atoms: C_21  and  O_22 
REMARK    9  A    between atoms: O_22  and  C_23 
ROOT
ATOM      1  C   LIG d   1       3.973  -0.786  -7.017  0.00  0.00    -0.002 C 
ATOM      2  C   LIG d   1       4.127  -1.178  -5.572  0.00  0.00     0.046 A 
ATOM      3  C   LIG d   1       4.664  -2.393  -5.200  0.00  0.00    -0.027 A 
ATOM      4  C   LIG d   1       4.783  -2.715  -3.856  0.00  0.00    -0.054 A 
ATOM      5  C   LIG d   1       4.374  -1.824  -2.883  0.00  0.00    -0.016 A 
ATOM      6  C   LIG d   1       3.842  -0.599  -3.249  0.00  0.00     0.162 A 
ATOM      7  C   LIG d   1       3.721  -0.275  -4.595  0.00  0.00     0.167 A 
ATOM      8  C   LIG d   1       5.130  -3.398  -6.223  0.00  0.00     0.029 C 
ATOM      9  H   LIG d   1       6.218  -3.379  -6.278  0.00  0.00     0.040 H 
ATOM     10  C   LIG d   1       4.545  -3.056  -7.593  0.00  0.00    -0.025 C 
ATOM     11  H   LIG d   1       4.270   0.255  -7.145  0.00  0.00     0.087 H 
ATOM     12  H   LIG d   1       2.929  -0.900  -7.308  0.00  0.00     0.087 H 
ATOM     13  H   LIG d   1       5.198  -3.669  -3.569  0.00  0.00     0.062 H 
ATOM     14  H   LIG d   1       4.469  -2.083  -1.838  0.00  0.00     0.066 H 
ATOM     15  H   LIG d   1       5.018  -3.674  -8.357  0.00  0.00     0.082 H 
ATOM     16  H   LIG d   1       3.471  -3.238  -7.589  0.00  0.00     0.082 H 
ATOM     17  N   LIG d   1       4.831  -1.632  -7.865  0.00  0.00     0.237 N 
ATOM     18  H   LIG d   1       5.815  -1.439  -7.644  0.00  0.00     0.203 HD
ENDROOT
BRANCH   8  19
ATOM     19  C   LIG d   1       4.668  -4.796  -5.807  0.00  0.00    -0.012 C 
ATOM     20  H   LIG d   1       4.081  -4.727  -4.891  0.00  0.00     0.032 H 
ATOM     21  H   LIG d   1       4.055  -5.227  -6.600  0.00  0.00     0.032 H 
BRANCH  19  22
ATOM     22  C   LIG d   1       5.870  -5.672  -5.568  0.00  0.00    -0.001 A 
ATOM     23  C   LIG d   1       5.752  -7.049  -5.660  0.00  0.00     0.164 A 
ATOM     24  C   LIG d   1       6.866  -7.856  -5.443  0.00  0.00     0.159 A 
ATOM     25  C   LIG d   1       8.085  -7.277  -5.126  0.00  0.00    -0.017 A 
ATOM     26  C   LIG d   1       8.193  -5.903  -5.030  0.00  0.00    -0.058 A 
ATOM     27  H   LIG d   1       8.949  -7.902  -4.952  0.00  0.00     0.066 H 
ATOM     28  C   LIG d   1       7.089  -5.102  -5.251  0.00  0.00    -0.055 A 
ATOM     29  H   LIG d   1       9.145  -5.453  -4.783  0.00  0.00     0.062 H 
ATOM     30  H   LIG d   1       7.178  -4.028  -5.174  0.00  0.00     0.062 H 
BRANCH  23  31
ATOM     31  O   LIG d   1       4.553  -7.612  -5.966  0.00  0.00    -0.491 OA
BRANCH  31  32
ATOM     32  C   LIG d   1       4.343  -7.990  -7.329  0.00  0.00     0.079 C 
ATOM     33  H   LIG d   1       4.015  -7.122  -7.900  0.00  0.00     0.066 H 
ATOM     34  H   LIG d   1       5.275  -8.371  -7.748  0.00  0.00     0.066 H 
ATOM     35  H   LIG d   1       3.579  -8.766  -7.376  0.00  0.00     0.066 H 
ENDBRANCH  31  32
ENDBRANCH  23  31
BRANCH  24  36
ATOM     36  O   LIG d   1       6.758  -9.208  -5.537  0.00  0.00    -0.503 OA
ATOM     37  H   LIG d   1       7.585  -9.682  -5.374  0.00  0.00     0.292 HD
ENDBRANCH  24  36
ENDBRANCH  19  22
ENDBRANCH   8  19
BRANCH  17  38
ATOM     38  C   LIG d   1       4.591  -1.329  -9.293  0.00  0.00    -0.043 C 
ATOM     39  H   LIG d   1       4.980  -0.342  -9.541  0.00  0.00     0.078 H 
ATOM     40  H   LIG d   1       5.089  -2.081  -9.905  0.00  0.00     0.078 H 
ATOM     41  H   LIG d   1       3.518  -1.356  -9.486  0.00  0.00     0.078 H 
ENDBRANCH  17  38
BRANCH   7  42
ATOM     42  O   LIG d   1       3.200   0.927  -4.959  0.00  0.00    -0.503 OA
ATOM     43  H   LIG d   1       3.855   1.555  -5.295  0.00  0.00     0.292 HD
ENDBRANCH   7  42
BRANCH   6  44
ATOM     44  O   LIG d   1       3.440   0.283  -2.295  0.00  0.00    -0.491 OA
BRANCH  44  45
ATOM     45  C   LIG d   1       4.461   1.028  -1.628  0.00  0.00     0.079 C 
ATOM     46  H   LIG d   1       4.392   2.077  -1.915  0.00  0.00     0.066 H 
ATOM     47  H   LIG d   1       4.329   0.937  -0.549  0.00  0.00     0.066 H 
ATOM     48  H   LIG d   1       5.438   0.637  -1.909  0.00  0.00     0.066 H 
ENDBRANCH  44  45
ENDBRANCH   6  44
TORSDOF 9
ENDMDL
MODEL 10
REMARK VINA RESULT:      -5.1     11.518     13.257
REMARK  9 active torsions:
REMARK  status: ('A' for Active; 'I' for Inactive)
REMARK    1  A    between atoms: C_1  and  N_47 
REMARK    2  A    between atoms: C_7  and  O_10 
REMARK    3  A    between atoms: C_8  and  O_9 
REMARK    4  A    between atoms: O_10  and  C_11 
REMARK    5  A    between atoms: C_12  and  C_15 
REMARK    6  A    between atoms: C_15  and  C_16 
REMARK    7  A    between atoms: C_20  and  O_24 
REMARK    8  A    between atoms: C_21  and  O_22 
REMARK    9  A    between atoms: O_22  and  C_23 
ROOT
ATOM      1  C   LIG d   1       9.239  10.441  -5.435  0.00  0.00    -0.002 C 
ATOM      2  C   LIG d   1       9.550   8.999  -5.739  0.00  0.00     0.046 A 
ATOM      3  C   LIG d   1      10.009   8.133  -4.768  0.00  0.00    -0.027 A 
ATOM      4  C   LIG d   1      10.287   6.814  -5.093  0.00  0.00    -0.054 A 
ATOM      5  C   LIG d   1      10.102   6.355  -6.382  0.00  0.00    -0.016 A 
ATOM      6  C   LIG d   1       9.632   7.217  -7.359  0.00  0.00     0.162 A 
ATOM      7  C   LIG d   1       9.354   8.539  -7.036  0.00  0.00     0.167 A 
ATOM      8  C   LIG d   1      10.223   8.582  -3.345  0.00  0.00     0.029 C 
ATOM      9  H   LIG d   1       9.404   8.220  -2.724  0.00  0.00     0.040 H 
ATOM     10  C   LIG d   1      10.271  10.109  -3.282  0.00  0.00    -0.025 C 
ATOM     11  H   LIG d   1       8.310  10.724  -5.930  0.00  0.00     0.087 H 
ATOM     12  H   LIG d   1      10.050  11.066  -5.807  0.00  0.00     0.087 H 
ATOM     13  H   LIG d   1      10.652   6.141  -4.332  0.00  0.00     0.062 H 
ATOM     14  H   LIG d   1      10.321   5.326  -6.627  0.00  0.00     0.066 H 
ATOM     15  H   LIG d   1      10.251  10.433  -2.241  0.00  0.00     0.082 H 
ATOM     16  H   LIG d   1      11.183  10.467  -3.759  0.00  0.00     0.082 H 
ATOM     17  N   LIG d   1       9.078  10.628  -3.983  0.00  0.00     0.237 N 
ATOM     18  H   LIG d   1       8.251  10.110  -3.667  0.00  0.00     0.203 HD
ENDROOT
BRANCH   8  19
ATOM     19  C   LIG d   1      11.544   8.011  -2.826  0.00  0.00    -0.012 C 
ATOM     20  H   LIG d   1      11.733   7.046  -3.297  0.00  0.00     0.032 H 
ATOM     21  H   LIG d   1      12.356   8.697  -3.065  0.00  0.00     0.032 H 
BRANCH  19  22
ATOM     22  C   LIG d   1      11.461   7.831  -1.332  0.00  0.00    -0.001 A 
ATOM     23  C   LIG d   1      11.009   6.634  -0.802  0.00  0.00     0.164 A 
ATOM     24  C   LIG d   1      10.938   6.469   0.578  0.00  0.00     0.159 A 
ATOM     25  C   LIG d   1      11.310   7.509   1.416  0.00  0.00    -0.017 A 
ATOM     26  C   LIG d   1      11.755   8.703   0.880  0.00  0.00    -0.058 A 
ATOM     27  H   LIG d   1      11.251   7.385   2.487  0.00  0.00     0.066 H 
ATOM     28  C   LIG d   1      11.830   8.865  -0.490  0.00  0.00    -0.055 A 
ATOM     29  H   LIG d   1      12.045   9.513   1.535  0.00  0.00     0.062 H 
ATOM     30  H   LIG d   1      12.177   9.800  -0.904  0.00  0.00     0.062 H 
BRANCH  23  31
ATOM     31  O   LIG d   1      10.640   5.619  -1.629  0.00  0.00    -0.491 OA
BRANCH  31  32
ATOM     32  C   LIG d   1      11.662   4.701  -2.024  0.00  0.00     0.079 C 
ATOM     33  H   LIG d   1      12.639   5.132  -1.812  0.00  0.00     0.066 H 
ATOM     34  H   LIG d   1      11.546   3.768  -1.471  0.00  0.00     0.066 H 
ATOM     35  H   LIG d   1      11.577   4.502  -3.093  0.00  0.00     0.066 H 
ENDBRANCH  31  32
ENDBRANCH  23  31
BRANCH  24  36
ATOM     36  O   LIG d   1      10.500   5.295   1.104  0.00  0.00    -0.503 OA
ATOM     37  H   LIG d   1       9.994   4.751   0.485  0.00  0.00     0.292 HD
ENDBRANCH  24  36
ENDBRANCH  19  22
ENDBRANCH   8  19
BRANCH  17  38
ATOM     38  C   LIG d   1       8.893  12.063  -3.674  0.00  0.00    -0.043 C 
ATOM     39  H   LIG d   1       9.856  12.572  -3.647  0.00  0.00     0.078 H 
ATOM     40  H   LIG d   1       8.265  12.515  -4.442  0.00  0.00     0.078 H 
ATOM     41  H   LIG d   1       8.405  12.158  -2.704  0.00  0.00     0.078 H 
ENDBRANCH  17  38
BRANCH   7  42
ATOM     42  O   LIG d   1       8.893   9.389  -7.993  0.00  0.00    -0.503 OA
ATOM     43  H   LIG d   1       8.939   9.033  -8.891  0.00  0.00     0.292 HD
ENDBRANCH   7  42
BRANCH   6  44
ATOM     44  O   LIG d   1       9.445   6.770  -8.631  0.00  0.00    -0.491 OA
BRANCH  44  45
ATOM     45  C   LIG d   1      10.616   6.541  -9.417  0.00  0.00     0.079 C 
ATOM     46  H   LIG d   1      10.441   6.886 -10.436  0.00  0.00     0.066 H 
ATOM     47  H   LIG d   1      11.455   7.090  -8.987  0.00  0.00     0.066 H 
ATOM     48  H   LIG d   1      10.844   5.476  -9.426  0.00  0.00     0.066 H 
ENDBRANCH  44  45
ENDBRANCH   6  44
TORSDOF 9
ENDMDL
