MODEL 1
REMARK VINA RESULT:      -6.3      0.000      0.000
REMARK  7 active torsions:
REMARK  status: ('A' for Active; 'I' for Inactive)
REMARK    1  A    between atoms: C_1  and  C_2 
REMARK    2  A    between atoms: C_3  and  O_22 
REMARK    3  A    between atoms: C_9  and  O_13 
REMARK    4  A    between atoms: O_13  and  C_14 
REMARK       I    between atoms: C_14  and  N_16 
REMARK    5  A    between atoms: O_22  and  C_23 
REMARK    6  A    between atoms: C_26  and  O_29 
REMARK    7  A    between atoms: O_29  and  C_30 
ROOT
ATOM      1  C   LIG d   1       6.344   0.647  -3.651  0.00  0.00     0.148 A 
ATOM      2  C   LIG d   1       6.437  -0.048  -4.801  0.00  0.00     0.213 A 
ATOM      3  C   LIG d   1       7.414   0.322  -5.769  0.00  0.00     0.235 A 
ATOM      4  O   LIG d   1       7.526  -0.283  -6.822  0.00  0.00    -0.283 OA
ATOM      5  C   LIG d   1       8.281   1.467  -5.446  0.00  0.00     0.068 A 
ATOM      6  C   LIG d   1       9.267   1.907  -6.331  0.00  0.00    -0.044 A 
ATOM      7  C   LIG d   1      10.051   2.972  -5.997  0.00  0.00    -0.018 A 
ATOM      8  C   LIG d   1       9.874   3.624  -4.777  0.00  0.00     0.137 A 
ATOM      9  C   LIG d   1       8.901   3.200  -3.888  0.00  0.00     0.024 A 
ATOM     10  C   LIG d   1       8.094   2.119  -4.213  0.00  0.00     0.142 A 
ATOM     11  O   LIG d   1       7.136   1.690  -3.369  0.00  0.00    -0.456 OA
ATOM     12  H   LIG d   1       9.408   1.404  -7.276  0.00  0.00     0.063 H 
ATOM     13  H   LIG d   1      10.815   3.313  -6.680  0.00  0.00     0.065 H 
ATOM     14  H   LIG d   1       8.769   3.711  -2.945  0.00  0.00     0.069 H 
ENDROOT
BRANCH   8  15
ATOM     15  O   LIG d   1      10.663   4.681  -4.459  0.00  0.00    -0.411 OA
BRANCH  15  16
ATOM     16  C   LIG d   1      11.295   4.664  -3.269  0.00  0.00     0.408 C 
ATOM     17  O   LIG d   1      12.003   3.722  -2.972  0.00  0.00    -0.226 OA
ATOM     18  N   LIG d   1      11.141   5.690  -2.408  0.00  0.00    -0.263 N 
ATOM     19  C   LIG d   1      11.821   5.692  -1.103  0.00  0.00     0.041 C 
ATOM     20  C   LIG d   1      10.283   6.837  -2.743  0.00  0.00     0.041 C 
ATOM     21  C   LIG d   1      10.790   5.993  -0.016  0.00  0.00     0.064 C 
ATOM     22  H   LIG d   1      12.269   4.715  -0.922  0.00  0.00     0.049 H 
ATOM     23  H   LIG d   1      12.595   6.459  -1.094  0.00  0.00     0.049 H 
ATOM     24  O   LIG d   1      10.072   7.181  -0.361  0.00  0.00    -0.377 OA
ATOM     25  H   LIG d   1      11.297   6.138   0.938  0.00  0.00     0.058 H 
ATOM     26  H   LIG d   1      10.094   5.158   0.063  0.00  0.00     0.058 H 
ATOM     27  C   LIG d   1       9.322   7.080  -1.573  0.00  0.00     0.064 C 
ATOM     28  H   LIG d   1       8.774   8.007  -1.740  0.00  0.00     0.058 H 
ATOM     29  H   LIG d   1       8.621   6.249  -1.500  0.00  0.00     0.058 H 
ATOM     30  H   LIG d   1      10.900   7.722  -2.902  0.00  0.00     0.049 H 
ATOM     31  H   LIG d   1       9.714   6.618  -3.646  0.00  0.00     0.049 H 
ENDBRANCH  15  16
ENDBRANCH   8  15
BRANCH   1  32
ATOM     32  C   LIG d   1       5.304   0.237  -2.641  0.00  0.00    -0.003 C 
ATOM     33  H   LIG d   1       5.206  -0.849  -2.638  0.00  0.00     0.031 H 
ATOM     34  H   LIG d   1       5.606   0.576  -1.649  0.00  0.00     0.031 H 
ATOM     35  H   LIG d   1       4.346   0.687  -2.901  0.00  0.00     0.031 H 
ENDBRANCH   1  32
BRANCH   2  36
ATOM     36  O   LIG d   1       5.603  -1.099  -5.037  0.00  0.00    -0.449 OA
BRANCH  36  37
ATOM     37  C   LIG d   1       4.690  -0.979  -6.036  0.00  0.00     0.129 A 
ATOM     38  C   LIG d   1       3.742   0.032  -5.993  0.00  0.00    -0.016 A 
ATOM     39  C   LIG d   1       2.819   0.157  -7.013  0.00  0.00    -0.017 A 
ATOM     40  H   LIG d   1       3.727   0.724  -5.164  0.00  0.00     0.066 H 
ATOM     41  C   LIG d   1       2.832  -0.735  -8.075  0.00  0.00     0.120 A 
ATOM     42  H   LIG d   1       2.083   0.948  -6.981  0.00  0.00     0.066 H 
ATOM     43  C   LIG d   1       3.778  -1.750  -8.116  0.00  0.00    -0.017 A 
ATOM     44  C   LIG d   1       4.705  -1.871  -7.099  0.00  0.00    -0.016 A 
ATOM     45  H   LIG d   1       3.788  -2.444  -8.943  0.00  0.00     0.066 H 
ATOM     46  H   LIG d   1       5.440  -2.661  -7.131  0.00  0.00     0.066 H 
BRANCH  41  47
ATOM     47  O   LIG d   1       1.920  -0.615  -9.076  0.00  0.00    -0.495 OA
BRANCH  47  48
ATOM     48  C   LIG d   1       1.734  -1.748  -9.926  0.00  0.00     0.079 C 
ATOM     49  H   LIG d   1       1.346  -2.581  -9.342  0.00  0.00     0.066 H 
ATOM     50  H   LIG d   1       1.025  -1.496 -10.716  0.00  0.00     0.066 H 
ATOM     51  H   LIG d   1       2.688  -2.028 -10.371  0.00  0.00     0.066 H 
ENDBRANCH  47  48
ENDBRANCH  41  47
ENDBRANCH  36  37
ENDBRANCH   2  36
TORSDOF 7
ENDMDL
MODEL 2
REMARK VINA RESULT:      -6.2      4.609      7.611
REMARK  7 active torsions:
REMARK  status: ('A' for Active; 'I' for Inactive)
REMARK    1  A    between atoms: C_1  and  C_2 
REMARK    2  A    between atoms: C_3  and  O_22 
REMARK    3  A    between atoms: C_9  and  O_13 
REMARK    4  A    between atoms: O_13  and  C_14 
REMARK       I    between atoms: C_14  and  N_16 
REMARK    5  A    between atoms: O_22  and  C_23 
REMARK    6  A    between atoms: C_26  and  O_29 
REMARK    7  A    between atoms: O_29  and  C_30 
ROOT
ATOM      1  C   LIG d   1       3.357   0.177  -9.325  0.00  0.00     0.148 A 
ATOM      2  C   LIG d   1       2.949  -0.852 -10.094  0.00  0.00     0.213 A 
ATOM      3  C   LIG d   1       3.125  -2.187  -9.633  0.00  0.00     0.235 A 
ATOM      4  O   LIG d   1       2.769  -3.142 -10.302  0.00  0.00    -0.283 OA
ATOM      5  C   LIG d   1       3.757  -2.367  -8.315  0.00  0.00     0.068 A 
ATOM      6  C   LIG d   1       3.974  -3.636  -7.778  0.00  0.00    -0.044 A 
ATOM      7  C   LIG d   1       4.563  -3.763  -6.553  0.00  0.00    -0.018 A 
ATOM      8  C   LIG d   1       4.949  -2.631  -5.836  0.00  0.00     0.137 A 
ATOM      9  C   LIG d   1       4.740  -1.365  -6.354  0.00  0.00     0.024 A 
ATOM     10  C   LIG d   1       4.143  -1.219  -7.599  0.00  0.00     0.142 A 
ATOM     11  O   LIG d   1       3.934   0.002  -8.129  0.00  0.00    -0.456 OA
ATOM     12  H   LIG d   1       3.675  -4.516  -8.330  0.00  0.00     0.063 H 
ATOM     13  H   LIG d   1       4.730  -4.745  -6.136  0.00  0.00     0.065 H 
ATOM     14  H   LIG d   1       5.042  -0.493  -5.793  0.00  0.00     0.069 H 
ENDROOT
BRANCH   8  15
ATOM     15  O   LIG d   1       5.532  -2.773  -4.619  0.00  0.00    -0.411 OA
BRANCH  15  16
ATOM     16  C   LIG d   1       4.856  -2.337  -3.538  0.00  0.00     0.408 C 
ATOM     17  O   LIG d   1       3.852  -2.917  -3.175  0.00  0.00    -0.226 OA
ATOM     18  N   LIG d   1       5.293  -1.256  -2.860  0.00  0.00    -0.263 N 
ATOM     19  C   LIG d   1       4.571  -0.762  -1.677  0.00  0.00     0.041 C 
ATOM     20  C   LIG d   1       6.502  -0.534  -3.285  0.00  0.00     0.041 C 
ATOM     21  C   LIG d   1       4.332   0.739  -1.843  0.00  0.00     0.064 C 
ATOM     22  H   LIG d   1       3.614  -1.277  -1.590  0.00  0.00     0.049 H 
ATOM     23  H   LIG d   1       5.167  -0.939  -0.782  0.00  0.00     0.049 H 
ATOM     24  O   LIG d   1       5.571   1.384  -2.148  0.00  0.00    -0.377 OA
ATOM     25  H   LIG d   1       3.925   1.149  -0.919  0.00  0.00     0.058 H 
ATOM     26  H   LIG d   1       3.626   0.904  -2.658  0.00  0.00     0.058 H 
ATOM     27  C   LIG d   1       6.166   0.959  -3.376  0.00  0.00     0.064 C 
ATOM     28  H   LIG d   1       7.079   1.528  -3.554  0.00  0.00     0.058 H 
ATOM     29  H   LIG d   1       5.467   1.125  -4.196  0.00  0.00     0.058 H 
ATOM     30  H   LIG d   1       7.297  -0.687  -2.555  0.00  0.00     0.049 H 
ATOM     31  H   LIG d   1       6.823  -0.898  -4.260  0.00  0.00     0.049 H 
ENDBRANCH  15  16
ENDBRANCH   8  15
BRANCH   1  32
ATOM     32  C   LIG d   1       3.159   1.582  -9.833  0.00  0.00    -0.003 C 
ATOM     33  H   LIG d   1       3.602   2.288  -9.131  0.00  0.00     0.031 H 
ATOM     34  H   LIG d   1       3.641   1.687 -10.806  0.00  0.00     0.031 H 
ATOM     35  H   LIG d   1       2.093   1.787  -9.932  0.00  0.00     0.031 H 
ENDBRANCH   1  32
BRANCH   2  36
ATOM     36  O   LIG d   1       2.370  -0.615 -11.304  0.00  0.00    -0.449 OA
BRANCH  36  37
ATOM     37  C   LIG d   1       3.071  -0.942 -12.422  0.00  0.00     0.129 A 
ATOM     38  C   LIG d   1       2.511  -1.786 -13.370  0.00  0.00    -0.016 A 
ATOM     39  C   LIG d   1       3.222  -2.113 -14.508  0.00  0.00    -0.017 A 
ATOM     40  H   LIG d   1       1.519  -2.185 -13.219  0.00  0.00     0.066 H 
ATOM     41  C   LIG d   1       4.499  -1.607 -14.699  0.00  0.00     0.120 A 
ATOM     42  H   LIG d   1       2.783  -2.767 -15.248  0.00  0.00     0.066 H 
ATOM     43  C   LIG d   1       5.061  -0.767 -13.748  0.00  0.00    -0.017 A 
ATOM     44  C   LIG d   1       4.348  -0.435 -12.612  0.00  0.00    -0.016 A 
ATOM     45  H   LIG d   1       6.055  -0.373 -13.897  0.00  0.00     0.066 H 
ATOM     46  H   LIG d   1       4.786   0.219 -11.873  0.00  0.00     0.066 H 
BRANCH  41  47
ATOM     47  O   LIG d   1       5.200  -1.934 -15.818  0.00  0.00    -0.495 OA
BRANCH  47  48
ATOM     48  C   LIG d   1       4.478  -2.575 -16.872  0.00  0.00     0.079 C 
ATOM     49  H   LIG d   1       4.435  -1.914 -17.736  0.00  0.00     0.066 H 
ATOM     50  H   LIG d   1       4.986  -3.500 -17.147  0.00  0.00     0.066 H 
ATOM     51  H   LIG d   1       3.467  -2.801 -16.535  0.00  0.00     0.066 H 
ENDBRANCH  47  48
ENDBRANCH  41  47
ENDBRANCH  36  37
ENDBRANCH   2  36
TORSDOF 7
ENDMDL
MODEL 3
REMARK VINA RESULT:      -6.2      6.358     12.316
REMARK  7 active torsions:
REMARK  status: ('A' for Active; 'I' for Inactive)
REMARK    1  A    between atoms: C_1  and  C_2 
REMARK    2  A    between atoms: C_3  and  O_22 
REMARK    3  A    between atoms: C_9  and  O_13 
REMARK    4  A    between atoms: O_13  and  C_14 
REMARK       I    between atoms: C_14  and  N_16 
REMARK    5  A    between atoms: O_22  and  C_23 
REMARK    6  A    between atoms: C_26  and  O_29 
REMARK    7  A    between atoms: O_29  and  C_30 
ROOT
ATOM      1  C   LIG d   1       3.665  -2.805  -8.466  0.00  0.00     0.148 A 
ATOM      2  C   LIG d   1       3.801  -1.479  -8.664  0.00  0.00     0.213 A 
ATOM      3  C   LIG d   1       3.023  -0.835  -9.668  0.00  0.00     0.235 A 
ATOM      4  O   LIG d   1       3.120   0.362  -9.876  0.00  0.00    -0.283 OA
ATOM      5  C   LIG d   1       2.099  -1.677 -10.447  0.00  0.00     0.068 A 
ATOM      6  C   LIG d   1       1.297  -1.138 -11.454  0.00  0.00    -0.044 A 
ATOM      7  C   LIG d   1       0.452  -1.950 -12.155  0.00  0.00    -0.018 A 
ATOM      8  C   LIG d   1       0.387  -3.313 -11.871  0.00  0.00     0.137 A 
ATOM      9  C   LIG d   1       1.176  -3.863 -10.875  0.00  0.00     0.024 A 
ATOM     10  C   LIG d   1       2.040  -3.051 -10.153  0.00  0.00     0.142 A 
ATOM     11  O   LIG d   1       2.824  -3.562  -9.183  0.00  0.00    -0.456 OA
ATOM     12  H   LIG d   1       1.343  -0.082 -11.677  0.00  0.00     0.063 H 
ATOM     13  H   LIG d   1      -0.170  -1.534 -12.934  0.00  0.00     0.065 H 
ATOM     14  H   LIG d   1       1.120  -4.920 -10.661  0.00  0.00     0.069 H 
ENDROOT
BRANCH   8  15
ATOM     15  O   LIG d   1      -0.458  -4.107 -12.576  0.00  0.00    -0.411 OA
BRANCH  15  16
ATOM     16  C   LIG d   1      -1.777  -4.018 -12.314  0.00  0.00     0.408 C 
ATOM     17  O   LIG d   1      -2.443  -3.150 -12.842  0.00  0.00    -0.226 OA
ATOM     18  N   LIG d   1      -2.357  -4.891 -11.466  0.00  0.00    -0.263 N 
ATOM     19  C   LIG d   1      -3.795  -4.812 -11.165  0.00  0.00     0.041 C 
ATOM     20  C   LIG d   1      -1.569  -5.946 -10.810  0.00  0.00     0.041 C 
ATOM     21  C   LIG d   1      -3.978  -4.825  -9.648  0.00  0.00     0.064 C 
ATOM     22  H   LIG d   1      -4.206  -3.889 -11.576  0.00  0.00     0.049 H 
ATOM     23  H   LIG d   1      -4.309  -5.669 -11.602  0.00  0.00     0.049 H 
ATOM     24  O   LIG d   1      -3.273  -5.941  -9.096  0.00  0.00    -0.377 OA
ATOM     25  H   LIG d   1      -5.038  -4.910  -9.408  0.00  0.00     0.058 H 
ATOM     26  H   LIG d   1      -3.581  -3.901  -9.228  0.00  0.00     0.058 H 
ATOM     27  C   LIG d   1      -1.859  -5.901  -9.305  0.00  0.00     0.064 C 
ATOM     28  H   LIG d   1      -1.395  -6.758  -8.819  0.00  0.00     0.058 H 
ATOM     29  H   LIG d   1      -1.454  -4.980  -8.884  0.00  0.00     0.058 H 
ATOM     30  H   LIG d   1      -1.855  -6.920 -11.209  0.00  0.00     0.049 H 
ATOM     31  H   LIG d   1      -0.507  -5.774 -10.984  0.00  0.00     0.049 H 
ENDBRANCH  15  16
ENDBRANCH   8  15
BRANCH   1  32
ATOM     32  C   LIG d   1       4.497  -3.465  -7.397  0.00  0.00    -0.003 C 
ATOM     33  H   LIG d   1       5.391  -3.897  -7.846  0.00  0.00     0.031 H 
ATOM     34  H   LIG d   1       4.787  -2.722  -6.652  0.00  0.00     0.031 H 
ATOM     35  H   LIG d   1       3.914  -4.251  -6.916  0.00  0.00     0.031 H 
ENDBRANCH   1  32
BRANCH   2  36
ATOM     36  O   LIG d   1       4.674  -0.759  -7.907  0.00  0.00    -0.449 OA
BRANCH  36  37
ATOM     37  C   LIG d   1       4.299  -0.423  -6.645  0.00  0.00     0.129 A 
ATOM     38  C   LIG d   1       3.031   0.088  -6.410  0.00  0.00    -0.016 A 
ATOM     39  C   LIG d   1       2.648   0.424  -5.126  0.00  0.00    -0.017 A 
ATOM     40  H   LIG d   1       2.341   0.219  -7.231  0.00  0.00     0.066 H 
ATOM     41  C   LIG d   1       3.536   0.263  -4.073  0.00  0.00     0.120 A 
ATOM     42  H   LIG d   1       1.659   0.818  -4.944  0.00  0.00     0.066 H 
ATOM     43  C   LIG d   1       4.806  -0.243  -4.308  0.00  0.00    -0.017 A 
ATOM     44  C   LIG d   1       5.187  -0.585  -5.591  0.00  0.00    -0.016 A 
ATOM     45  H   LIG d   1       5.497  -0.369  -3.487  0.00  0.00     0.066 H 
ATOM     46  H   LIG d   1       6.175  -0.978  -5.773  0.00  0.00     0.066 H 
BRANCH  41  47
ATOM     47  O   LIG d   1       3.160   0.599  -2.810  0.00  0.00    -0.495 OA
BRANCH  47  48
ATOM     48  C   LIG d   1       4.201   0.932  -1.889  0.00  0.00     0.079 C 
ATOM     49  H   LIG d   1       3.767   1.377  -0.995  0.00  0.00     0.066 H 
ATOM     50  H   LIG d   1       4.748   0.029  -1.617  0.00  0.00     0.066 H 
ATOM     51  H   LIG d   1       4.884   1.643  -2.355  0.00  0.00     0.066 H 
ENDBRANCH  47  48
ENDBRANCH  41  47
ENDBRANCH  36  37
ENDBRANCH   2  36
TORSDOF 7
ENDMDL
MODEL 4
REMARK VINA RESULT:      -6.2      2.864      8.779
REMARK  7 active torsions:
REMARK  status: ('A' for Active; 'I' for Inactive)
REMARK    1  A    between atoms: C_1  and  C_2 
REMARK    2  A    between atoms: C_3  and  O_22 
REMARK    3  A    between atoms: C_9  and  O_13 
REMARK    4  A    between atoms: O_13  and  C_14 
REMARK       I    between atoms: C_14  and  N_16 
REMARK    5  A    between atoms: O_22  and  C_23 
REMARK    6  A    between atoms: C_26  and  O_29 
REMARK    7  A    between atoms: O_29  and  C_30 
ROOT
ATOM      1  C   LIG d   1      10.134   4.806  -2.993  0.00  0.00     0.148 A 
ATOM      2  C   LIG d   1      10.706   5.192  -4.151  0.00  0.00     0.213 A 
ATOM      3  C   LIG d   1      10.512   4.409  -5.325  0.00  0.00     0.235 A 
ATOM      4  O   LIG d   1      11.014   4.727  -6.390  0.00  0.00    -0.283 OA
ATOM      5  C   LIG d   1       9.682   3.199  -5.199  0.00  0.00     0.068 A 
ATOM      6  C   LIG d   1       9.437   2.368  -6.293  0.00  0.00    -0.044 A 
ATOM      7  C   LIG d   1       8.662   1.255  -6.137  0.00  0.00    -0.018 A 
ATOM      8  C   LIG d   1       8.116   0.944  -4.893  0.00  0.00     0.137 A 
ATOM      9  C   LIG d   1       8.350   1.758  -3.798  0.00  0.00     0.024 A 
ATOM     10  C   LIG d   1       9.136   2.894  -3.940  0.00  0.00     0.142 A 
ATOM     11  O   LIG d   1       9.384   3.701  -2.889  0.00  0.00    -0.456 OA
ATOM     12  H   LIG d   1       9.857   2.606  -7.259  0.00  0.00     0.063 H 
ATOM     13  H   LIG d   1       8.470   0.611  -6.983  0.00  0.00     0.065 H 
ATOM     14  H   LIG d   1       7.924   1.511  -2.837  0.00  0.00     0.069 H 
ENDROOT
BRANCH   8  15
ATOM     15  O   LIG d   1       7.348  -0.166  -4.754  0.00  0.00    -0.411 OA
BRANCH  15  16
ATOM     16  C   LIG d   1       6.042  -0.076  -5.074  0.00  0.00     0.408 C 
ATOM     17  O   LIG d   1       5.709   0.044  -6.237  0.00  0.00    -0.226 OA
ATOM     18  N   LIG d   1       5.105  -0.118  -4.106  0.00  0.00    -0.263 N 
ATOM     19  C   LIG d   1       3.673  -0.022  -4.432  0.00  0.00     0.041 C 
ATOM     20  C   LIG d   1       5.485  -0.256  -2.691  0.00  0.00     0.041 C 
ATOM     21  C   LIG d   1       3.042   1.052  -3.546  0.00  0.00     0.064 C 
ATOM     22  H   LIG d   1       3.554   0.252  -5.481  0.00  0.00     0.049 H 
ATOM     23  H   LIG d   1       3.189  -0.980  -4.245  0.00  0.00     0.049 H 
ATOM     24  O   LIG d   1       3.367   0.787  -2.179  0.00  0.00    -0.377 OA
ATOM     25  H   LIG d   1       1.960   1.041  -3.673  0.00  0.00     0.058 H 
ATOM     26  H   LIG d   1       3.433   2.030  -3.830  0.00  0.00     0.058 H 
ATOM     27  C   LIG d   1       4.766   0.835  -1.889  0.00  0.00     0.064 C 
ATOM     28  H   LIG d   1       4.922   0.666  -0.824  0.00  0.00     0.058 H 
ATOM     29  H   LIG d   1       5.162   1.811  -2.166  0.00  0.00     0.058 H 
ATOM     30  H   LIG d   1       5.185  -1.239  -2.325  0.00  0.00     0.049 H 
ATOM     31  H   LIG d   1       6.563  -0.138  -2.587  0.00  0.00     0.049 H 
ENDBRANCH  15  16
ENDBRANCH   8  15
BRANCH   1  32
ATOM     32  C   LIG d   1      10.352   5.649  -1.764  0.00  0.00    -0.003 C 
ATOM     33  H   LIG d   1      10.957   6.518  -2.020  0.00  0.00     0.031 H 
ATOM     34  H   LIG d   1       9.388   5.981  -1.376  0.00  0.00     0.031 H 
ATOM     35  H   LIG d   1      10.865   5.059  -1.004  0.00  0.00     0.031 H 
ENDBRANCH   1  32
BRANCH   2  36
ATOM     36  O   LIG d   1      11.462   6.323  -4.198  0.00  0.00    -0.449 OA
BRANCH  36  37
ATOM     37  C   LIG d   1      10.821   7.514  -4.334  0.00  0.00     0.129 A 
ATOM     38  C   LIG d   1       9.932   7.709  -5.380  0.00  0.00    -0.016 A 
ATOM     39  C   LIG d   1       9.277   8.918  -5.514  0.00  0.00    -0.017 A 
ATOM     40  H   LIG d   1       9.749   6.914  -6.088  0.00  0.00     0.066 H 
ATOM     41  C   LIG d   1       9.517   9.941  -4.609  0.00  0.00     0.120 A 
ATOM     42  H   LIG d   1       8.581   9.067  -6.326  0.00  0.00     0.066 H 
ATOM     43  C   LIG d   1      10.411   9.748  -3.565  0.00  0.00    -0.017 A 
ATOM     44  C   LIG d   1      11.061   8.538  -3.428  0.00  0.00    -0.016 A 
ATOM     45  H   LIG d   1      10.598  10.545  -2.861  0.00  0.00     0.066 H 
ATOM     46  H   LIG d   1      11.757   8.388  -2.616  0.00  0.00     0.066 H 
BRANCH  41  47
ATOM     47  O   LIG d   1       8.876  11.133  -4.744  0.00  0.00    -0.495 OA
BRANCH  47  48
ATOM     48  C   LIG d   1       8.508  11.813  -3.542  0.00  0.00     0.079 C 
ATOM     49  H   LIG d   1       9.060  12.749  -3.472  0.00  0.00     0.066 H 
ATOM     50  H   LIG d   1       7.438  12.022  -3.557  0.00  0.00     0.066 H 
ATOM     51  H   LIG d   1       8.744  11.185  -2.683  0.00  0.00     0.066 H 
ENDBRANCH  47  48
ENDBRANCH  41  47
ENDBRANCH  36  37
ENDBRANCH   2  36
TORSDOF 7
ENDMDL
MODEL 5
REMARK VINA RESULT:      -6.1      6.555     12.291
REMARK  7 active torsions:
REMARK  status: ('A' for Active; 'I' for Inactive)
REMARK    1  A    between atoms: C_1  and  C_2 
REMARK    2  A    between atoms: C_3  and  O_22 
REMARK    3  A    between atoms: C_9  and  O_13 
REMARK    4  A    between atoms: O_13  and  C_14 
REMARK       I    between atoms: C_14  and  N_16 
REMARK    5  A    between atoms: O_22  and  C_23 
REMARK    6  A    between atoms: C_26  and  O_29 
REMARK    7  A    between atoms: O_29  and  C_30 
ROOT
ATOM      1  C   LIG d   1       2.644  -0.186  -9.478  0.00  0.00     0.148 A 
ATOM      2  C   LIG d   1       3.548  -0.825  -8.709  0.00  0.00     0.213 A 
ATOM      3  C   LIG d   1       3.616  -2.247  -8.740  0.00  0.00     0.235 A 
ATOM      4  O   LIG d   1       4.420  -2.859  -8.058  0.00  0.00    -0.283 OA
ATOM      5  C   LIG d   1       2.674  -2.948  -9.629  0.00  0.00     0.068 A 
ATOM      6  C   LIG d   1       2.663  -4.340  -9.727  0.00  0.00    -0.044 A 
ATOM      7  C   LIG d   1       1.774  -4.954 -10.561  0.00  0.00    -0.018 A 
ATOM      8  C   LIG d   1       0.879  -4.199 -11.316  0.00  0.00     0.137 A 
ATOM      9  C   LIG d   1       0.877  -2.817 -11.231  0.00  0.00     0.024 A 
ATOM     10  C   LIG d   1       1.773  -2.177 -10.387  0.00  0.00     0.142 A 
ATOM     11  O   LIG d   1       1.789  -0.834 -10.280  0.00  0.00    -0.456 OA
ATOM     12  H   LIG d   1       3.356  -4.929  -9.144  0.00  0.00     0.063 H 
ATOM     13  H   LIG d   1       1.766  -6.031 -10.638  0.00  0.00     0.065 H 
ATOM     14  H   LIG d   1       0.179  -2.239 -11.819  0.00  0.00     0.069 H 
ENDROOT
BRANCH   8  15
ATOM     15  O   LIG d   1       0.002  -4.823 -12.143  0.00  0.00    -0.411 OA
BRANCH  15  16
ATOM     16  C   LIG d   1      -1.308  -4.537 -12.009  0.00  0.00     0.408 C 
ATOM     17  O   LIG d   1      -1.788  -3.598 -12.613  0.00  0.00    -0.226 OA
ATOM     18  N   LIG d   1      -2.085  -5.290 -11.205  0.00  0.00    -0.263 N 
ATOM     19  C   LIG d   1      -3.518  -4.995 -11.044  0.00  0.00     0.041 C 
ATOM     20  C   LIG d   1      -1.524  -6.427 -10.459  0.00  0.00     0.041 C 
ATOM     21  C   LIG d   1      -3.839  -4.935  -9.551  0.00  0.00     0.064 C 
ATOM     22  H   LIG d   1      -3.749  -4.036 -11.507  0.00  0.00     0.049 H 
ATOM     23  H   LIG d   1      -4.109  -5.782 -11.513  0.00  0.00     0.049 H 
ATOM     24  O   LIG d   1      -3.358  -6.123  -8.916  0.00  0.00    -0.377 OA
ATOM     25  H   LIG d   1      -4.917  -4.859  -9.412  0.00  0.00     0.058 H 
ATOM     26  H   LIG d   1      -3.351  -4.065  -9.112  0.00  0.00     0.058 H 
ATOM     27  C   LIG d   1      -1.941  -6.294  -8.990  0.00  0.00     0.064 C 
ATOM     28  H   LIG d   1      -1.654  -7.194  -8.447  0.00  0.00     0.058 H 
ATOM     29  H   LIG d   1      -1.446  -5.429  -8.548  0.00  0.00     0.058 H 
ATOM     30  H   LIG d   1      -1.911  -7.361 -10.867  0.00  0.00     0.049 H 
ATOM     31  H   LIG d   1      -0.437  -6.415 -10.535  0.00  0.00     0.049 H 
ENDBRANCH  15  16
ENDBRANCH   8  15
BRANCH   1  32
ATOM     32  C   LIG d   1       2.590   1.319  -9.431  0.00  0.00    -0.003 C 
ATOM     33  H   LIG d   1       3.145   1.731 -10.273  0.00  0.00     0.031 H 
ATOM     34  H   LIG d   1       1.551   1.647  -9.486  0.00  0.00     0.031 H 
ATOM     35  H   LIG d   1       3.031   1.670  -8.497  0.00  0.00     0.031 H 
ENDBRANCH   1  32
BRANCH   2  36
ATOM     36  O   LIG d   1       4.391  -0.115  -7.910  0.00  0.00    -0.449 OA
BRANCH  36  37
ATOM     37  C   LIG d   1       4.162  -0.127  -6.571  0.00  0.00     0.129 A 
ATOM     38  C   LIG d   1       5.165  -0.526  -5.699  0.00  0.00    -0.016 A 
ATOM     39  C   LIG d   1       4.934  -0.533  -4.337  0.00  0.00    -0.017 A 
ATOM     40  H   LIG d   1       6.127  -0.828  -6.085  0.00  0.00     0.066 H 
ATOM     41  C   LIG d   1       3.696  -0.153  -3.841  0.00  0.00     0.120 A 
ATOM     42  H   LIG d   1       5.717  -0.840  -3.659  0.00  0.00     0.066 H 
ATOM     43  C   LIG d   1       2.691   0.242  -4.713  0.00  0.00    -0.017 A 
ATOM     44  C   LIG d   1       2.924   0.254  -6.074  0.00  0.00    -0.016 A 
ATOM     45  H   LIG d   1       1.727   0.538  -4.326  0.00  0.00     0.066 H 
ATOM     46  H   LIG d   1       2.142   0.561  -6.753  0.00  0.00     0.066 H 
BRANCH  41  47
ATOM     47  O   LIG d   1       3.468  -0.164  -2.501  0.00  0.00    -0.495 OA
BRANCH  47  48
ATOM     48  C   LIG d   1       4.366  -0.930  -1.695  0.00  0.00     0.079 C 
ATOM     49  H   LIG d   1       5.267  -0.348  -1.503  0.00  0.00     0.066 H 
ATOM     50  H   LIG d   1       3.884  -1.176  -0.749  0.00  0.00     0.066 H 
ATOM     51  H   LIG d   1       4.630  -1.848  -2.218  0.00  0.00     0.066 H 
ENDBRANCH  47  48
ENDBRANCH  41  47
ENDBRANCH  36  37
ENDBRANCH   2  36
TORSDOF 7
ENDMDL
MODEL 6
REMARK VINA RESULT:      -6.0      5.902      8.820
REMARK  7 active torsions:
REMARK  status: ('A' for Active; 'I' for Inactive)
REMARK    1  A    between atoms: C_1  and  C_2 
REMARK    2  A    between atoms: C_3  and  O_22 
REMARK    3  A    between atoms: C_9  and  O_13 
REMARK    4  A    between atoms: O_13  and  C_14 
REMARK       I    between atoms: C_14  and  N_16 
REMARK    5  A    between atoms: O_22  and  C_23 
REMARK    6  A    between atoms: C_26  and  O_29 
REMARK    7  A    between atoms: O_29  and  C_30 
ROOT
ATOM      1  C   LIG d   1       2.368  -4.015 -10.287  0.00  0.00     0.148 A 
ATOM      2  C   LIG d   1       1.613  -3.290 -11.136  0.00  0.00     0.213 A 
ATOM      3  C   LIG d   1       1.470  -1.889 -10.928  0.00  0.00     0.235 A 
ATOM      4  O   LIG d   1       0.795  -1.201 -11.674  0.00  0.00    -0.283 OA
ATOM      5  C   LIG d   1       2.170  -1.305  -9.771  0.00  0.00     0.068 A 
ATOM      6  C   LIG d   1       2.090   0.058  -9.483  0.00  0.00    -0.044 A 
ATOM      7  C   LIG d   1       2.752   0.562  -8.401  0.00  0.00    -0.018 A 
ATOM      8  C   LIG d   1       3.508  -0.276  -7.583  0.00  0.00     0.137 A 
ATOM      9  C   LIG d   1       3.599  -1.630  -7.856  0.00  0.00     0.024 A 
ATOM     10  C   LIG d   1       2.931  -2.159  -8.951  0.00  0.00     0.142 A 
ATOM     11  O   LIG d   1       2.997  -3.475  -9.236  0.00  0.00    -0.456 OA
ATOM     12  H   LIG d   1       1.506   0.711 -10.114  0.00  0.00     0.063 H 
ATOM     13  H   LIG d   1       2.691   1.617  -8.178  0.00  0.00     0.065 H 
ATOM     14  H   LIG d   1       4.187  -2.273  -7.217  0.00  0.00     0.069 H 
ENDROOT
BRANCH   8  15
ATOM     15  O   LIG d   1       4.162   0.240  -6.512  0.00  0.00    -0.411 OA
BRANCH  15  16
ATOM     16  C   LIG d   1       3.518   0.264  -5.328  0.00  0.00     0.408 C 
ATOM     17  O   LIG d   1       2.650   1.090  -5.126  0.00  0.00    -0.226 OA
ATOM     18  N   LIG d   1       3.838  -0.627  -4.369  0.00  0.00    -0.263 N 
ATOM     19  C   LIG d   1       3.148  -0.621  -3.069  0.00  0.00     0.041 C 
ATOM     20  C   LIG d   1       4.890  -1.632  -4.589  0.00  0.00     0.041 C 
ATOM     21  C   LIG d   1       4.200  -0.624  -1.959  0.00  0.00     0.064 C 
ATOM     22  H   LIG d   1       2.531   0.275  -2.986  0.00  0.00     0.049 H 
ATOM     23  H   LIG d   1       2.522  -1.508  -2.981  0.00  0.00     0.049 H 
ATOM     24  O   LIG d   1       5.121  -1.694  -2.185  0.00  0.00    -0.377 OA
ATOM     25  H   LIG d   1       3.711  -0.761  -0.994  0.00  0.00     0.058 H 
ATOM     26  H   LIG d   1       4.735   0.325  -1.966  0.00  0.00     0.058 H 
ATOM     27  C   LIG d   1       5.861  -1.583  -3.403  0.00  0.00     0.064 C 
ATOM     28  H   LIG d   1       6.567  -2.409  -3.476  0.00  0.00     0.058 H 
ATOM     29  H   LIG d   1       6.403  -0.637  -3.415  0.00  0.00     0.058 H 
ATOM     30  H   LIG d   1       4.443  -2.624  -4.656  0.00  0.00     0.049 H 
ATOM     31  H   LIG d   1       5.426  -1.406  -5.511  0.00  0.00     0.049 H 
ENDBRANCH  15  16
ENDBRANCH   8  15
BRANCH   1  32
ATOM     32  C   LIG d   1       2.506  -5.496 -10.528  0.00  0.00    -0.003 C 
ATOM     33  H   LIG d   1       1.595  -6.004 -10.209  0.00  0.00     0.031 H 
ATOM     34  H   LIG d   1       2.670  -5.678 -11.591  0.00  0.00     0.031 H 
ATOM     35  H   LIG d   1       3.354  -5.880  -9.960  0.00  0.00     0.031 H 
ENDBRANCH   1  32
BRANCH   2  36
ATOM     36  O   LIG d   1       0.993  -3.893 -12.188  0.00  0.00    -0.449 OA
BRANCH  36  37
ATOM     37  C   LIG d   1      -0.358  -4.025 -12.143  0.00  0.00     0.129 A 
ATOM     38  C   LIG d   1      -1.139  -3.543 -13.183  0.00  0.00    -0.016 A 
ATOM     39  C   LIG d   1      -2.512  -3.683 -13.139  0.00  0.00    -0.017 A 
ATOM     40  H   LIG d   1      -0.672  -3.062 -14.030  0.00  0.00     0.066 H 
ATOM     41  C   LIG d   1      -3.112  -4.294 -12.048  0.00  0.00     0.120 A 
ATOM     42  H   LIG d   1      -3.118  -3.311 -13.952  0.00  0.00     0.066 H 
ATOM     43  C   LIG d   1      -2.333  -4.772 -11.005  0.00  0.00    -0.017 A 
ATOM     44  C   LIG d   1      -0.959  -4.638 -11.052  0.00  0.00    -0.016 A 
ATOM     45  H   LIG d   1      -2.801  -5.249 -10.156  0.00  0.00     0.066 H 
ATOM     46  H   LIG d   1      -0.353  -5.010 -10.240  0.00  0.00     0.066 H 
BRANCH  41  47
ATOM     47  O   LIG d   1      -4.465  -4.427 -12.003  0.00  0.00    -0.495 OA
BRANCH  47  48
ATOM     48  C   LIG d   1      -5.159  -3.675 -11.006  0.00  0.00     0.079 C 
ATOM     49  H   LIG d   1      -6.221  -3.649 -11.244  0.00  0.00     0.066 H 
ATOM     50  H   LIG d   1      -5.016  -4.146 -10.032  0.00  0.00     0.066 H 
ATOM     51  H   LIG d   1      -4.767  -2.659 -10.978  0.00  0.00     0.066 H 
ENDBRANCH  47  48
ENDBRANCH  41  47
ENDBRANCH  36  37
ENDBRANCH   2  36
TORSDOF 7
ENDMDL
MODEL 7
REMARK VINA RESULT:      -6.0      7.338     11.427
REMARK  7 active torsions:
REMARK  status: ('A' for Active; 'I' for Inactive)
REMARK    1  A    between atoms: C_1  and  C_2 
REMARK    2  A    between atoms: C_3  and  O_22 
REMARK    3  A    between atoms: C_9  and  O_13 
REMARK    4  A    between atoms: O_13  and  C_14 
REMARK       I    between atoms: C_14  and  N_16 
REMARK    5  A    between atoms: O_22  and  C_23 
REMARK    6  A    between atoms: C_26  and  O_29 
REMARK    7  A    between atoms: O_29  and  C_30 
ROOT
ATOM      1  C   LIG d   1       6.906  -4.597  -5.819  0.00  0.00     0.148 A 
ATOM      2  C   LIG d   1       5.572  -4.466  -5.957  0.00  0.00     0.213 A 
ATOM      3  C   LIG d   1       4.747  -5.627  -5.951  0.00  0.00     0.235 A 
ATOM      4  O   LIG d   1       3.537  -5.547  -6.074  0.00  0.00    -0.283 OA
ATOM      5  C   LIG d   1       5.418  -6.929  -5.791  0.00  0.00     0.068 A 
ATOM      6  C   LIG d   1       4.696  -8.123  -5.775  0.00  0.00    -0.044 A 
ATOM      7  C   LIG d   1       5.353  -9.310  -5.625  0.00  0.00    -0.018 A 
ATOM      8  C   LIG d   1       6.740  -9.336  -5.489  0.00  0.00     0.137 A 
ATOM      9  C   LIG d   1       7.471  -8.161  -5.503  0.00  0.00     0.024 A 
ATOM     10  C   LIG d   1       6.818  -6.945  -5.655  0.00  0.00     0.142 A 
ATOM     11  O   LIG d   1       7.506  -5.786  -5.678  0.00  0.00    -0.456 OA
ATOM     12  H   LIG d   1       3.621  -8.107  -5.879  0.00  0.00     0.063 H 
ATOM     13  H   LIG d   1       4.795 -10.234  -5.611  0.00  0.00     0.065 H 
ATOM     14  H   LIG d   1       8.545  -8.189  -5.397  0.00  0.00     0.069 H 
ENDROOT
BRANCH   8  15
ATOM     15  O   LIG d   1       7.379 -10.524  -5.340  0.00  0.00    -0.411 OA
BRANCH  15  16
ATOM     16  C   LIG d   1       6.930 -11.370  -4.392  0.00  0.00     0.408 C 
ATOM     17  O   LIG d   1       6.157 -12.260  -4.689  0.00  0.00    -0.226 OA
ATOM     18  N   LIG d   1       7.336 -11.228  -3.115  0.00  0.00    -0.263 N 
ATOM     19  C   LIG d   1       6.859 -12.140  -2.062  0.00  0.00     0.041 C 
ATOM     20  C   LIG d   1       8.265 -10.154  -2.731  0.00  0.00     0.041 C 
ATOM     21  C   LIG d   1       6.342 -11.305  -0.891  0.00  0.00     0.064 C 
ATOM     22  H   LIG d   1       6.053 -12.761  -2.454  0.00  0.00     0.049 H 
ATOM     23  H   LIG d   1       7.680 -12.773  -1.725  0.00  0.00     0.049 H 
ATOM     24  O   LIG d   1       7.343 -10.359  -0.507  0.00  0.00    -0.377 OA
ATOM     25  H   LIG d   1       6.116 -11.958  -0.049  0.00  0.00     0.058 H 
ATOM     26  H   LIG d   1       5.439 -10.776  -1.196  0.00  0.00     0.058 H 
ATOM     27  C   LIG d   1       7.675  -9.412  -1.526  0.00  0.00     0.064 C 
ATOM     28  H   LIG d   1       8.408  -8.705  -1.139  0.00  0.00     0.058 H 
ATOM     29  H   LIG d   1       6.777  -8.876  -1.833  0.00  0.00     0.058 H 
ATOM     30  H   LIG d   1       9.231 -10.583  -2.461  0.00  0.00     0.049 H 
ATOM     31  H   LIG d   1       8.390  -9.462  -3.563  0.00  0.00     0.049 H 
ENDBRANCH  15  16
ENDBRANCH   8  15
BRANCH   1  32
ATOM     32  C   LIG d   1       7.759  -3.355  -5.827  0.00  0.00    -0.003 C 
ATOM     33  H   LIG d   1       8.050  -3.106  -4.807  0.00  0.00     0.031 H 
ATOM     34  H   LIG d   1       8.653  -3.532  -6.426  0.00  0.00     0.031 H 
ATOM     35  H   LIG d   1       7.193  -2.528  -6.256  0.00  0.00     0.031 H 
ENDBRANCH   1  32
BRANCH   2  36
ATOM     36  O   LIG d   1       5.016  -3.231  -6.100  0.00  0.00    -0.449 OA
BRANCH  36  37
ATOM     37  C   LIG d   1       4.832  -2.481  -4.982  0.00  0.00     0.129 A 
ATOM     38  C   LIG d   1       4.376  -3.074  -3.814  0.00  0.00    -0.016 A 
ATOM     39  C   LIG d   1       4.195  -2.311  -2.677  0.00  0.00    -0.017 A 
ATOM     40  H   LIG d   1       4.166  -4.133  -3.793  0.00  0.00     0.066 H 
ATOM     41  C   LIG d   1       4.457  -0.949  -2.706  0.00  0.00     0.120 A 
ATOM     42  H   LIG d   1       3.843  -2.775  -1.767  0.00  0.00     0.066 H 
ATOM     43  C   LIG d   1       4.909  -0.355  -3.875  0.00  0.00    -0.017 A 
ATOM     44  C   LIG d   1       5.095  -1.118  -5.011  0.00  0.00    -0.016 A 
ATOM     45  H   LIG d   1       5.113   0.706  -3.897  0.00  0.00     0.066 H 
ATOM     46  H   LIG d   1       5.447  -0.655  -5.921  0.00  0.00     0.066 H 
BRANCH  41  47
ATOM     47  O   LIG d   1       4.274  -0.198  -1.587  0.00  0.00    -0.495 OA
BRANCH  47  48
ATOM     48  C   LIG d   1       4.539   1.202  -1.694  0.00  0.00     0.079 C 
ATOM     49  H   LIG d   1       3.827   1.754  -1.082  0.00  0.00     0.066 H 
ATOM     50  H   LIG d   1       5.553   1.406  -1.346  0.00  0.00     0.066 H 
ATOM     51  H   LIG d   1       4.443   1.512  -2.734  0.00  0.00     0.066 H 
ENDBRANCH  47  48
ENDBRANCH  41  47
ENDBRANCH  36  37
ENDBRANCH   2  36
TORSDOF 7
ENDMDL
MODEL 8
REMARK VINA RESULT:      -5.8      3.882      8.535
REMARK  7 active torsions:
REMARK  status: ('A' for Active; 'I' for Inactive)
REMARK    1  A    between atoms: C_1  and  C_2 
REMARK    2  A    between atoms: C_3  and  O_22 
REMARK    3  A    between atoms: C_9  and  O_13 
REMARK    4  A    between atoms: O_13  and  C_14 
REMARK       I    between atoms: C_14  and  N_16 
REMARK    5  A    between atoms: O_22  and  C_23 
REMARK    6  A    between atoms: C_26  and  O_29 
REMARK    7  A    between atoms: O_29  and  C_30 
ROOT
ATOM      1  C   LIG d   1       9.756   2.530  -6.631  0.00  0.00     0.148 A 
ATOM      2  C   LIG d   1       9.683   3.151  -7.825  0.00  0.00     0.213 A 
ATOM      3  C   LIG d   1       8.585   2.881  -8.691  0.00  0.00     0.235 A 
ATOM      4  O   LIG d   1       8.487   3.423  -9.779  0.00  0.00    -0.283 OA
ATOM      5  C   LIG d   1       7.577   1.916  -8.220  0.00  0.00     0.068 A 
ATOM      6  C   LIG d   1       6.467   1.585  -8.999  0.00  0.00    -0.044 A 
ATOM      7  C   LIG d   1       5.553   0.687  -8.528  0.00  0.00    -0.018 A 
ATOM      8  C   LIG d   1       5.722   0.099  -7.276  0.00  0.00     0.137 A 
ATOM      9  C   LIG d   1       6.818   0.417  -6.491  0.00  0.00     0.024 A 
ATOM     10  C   LIG d   1       7.756   1.329  -6.955  0.00  0.00     0.142 A 
ATOM     11  O   LIG d   1       8.835   1.651  -6.214  0.00  0.00    -0.456 OA
ATOM     12  H   LIG d   1       6.331   2.039  -9.969  0.00  0.00     0.063 H 
ATOM     13  H   LIG d   1       4.693   0.430  -9.129  0.00  0.00     0.065 H 
ATOM     14  H   LIG d   1       6.942  -0.043  -5.522  0.00  0.00     0.069 H 
ENDROOT
BRANCH   8  15
ATOM     15  O   LIG d   1       4.805  -0.792  -6.821  0.00  0.00    -0.411 OA
BRANCH  15  16
ATOM     16  C   LIG d   1       3.943  -0.383  -5.869  0.00  0.00     0.408 C 
ATOM     17  O   LIG d   1       3.159   0.515  -6.106  0.00  0.00    -0.226 OA
ATOM     18  N   LIG d   1       3.951  -0.969  -4.655  0.00  0.00    -0.263 N 
ATOM     19  C   LIG d   1       3.019  -0.538  -3.601  0.00  0.00     0.041 C 
ATOM     20  C   LIG d   1       4.896  -2.053  -4.344  0.00  0.00     0.041 C 
ATOM     21  C   LIG d   1       3.816  -0.276  -2.323  0.00  0.00     0.064 C 
ATOM     22  H   LIG d   1       2.512   0.376  -3.910  0.00  0.00     0.049 H 
ATOM     23  H   LIG d   1       2.285  -1.323  -3.418  0.00  0.00     0.049 H 
ATOM     24  O   LIG d   1       4.627  -1.417  -2.029  0.00  0.00    -0.377 OA
ATOM     25  H   LIG d   1       3.130  -0.094  -1.496  0.00  0.00     0.058 H 
ATOM     26  H   LIG d   1       4.454   0.596  -2.468  0.00  0.00     0.058 H 
ATOM     27  C   LIG d   1       5.605  -1.713  -3.028  0.00  0.00     0.064 C 
ATOM     28  H   LIG d   1       6.206  -2.564  -2.708  0.00  0.00     0.058 H 
ATOM     29  H   LIG d   1       6.250  -0.846  -3.176  0.00  0.00     0.058 H 
ATOM     30  H   LIG d   1       4.354  -2.993  -4.237  0.00  0.00     0.049 H 
ATOM     31  H   LIG d   1       5.630  -2.141  -5.145  0.00  0.00     0.049 H 
ENDBRANCH  15  16
ENDBRANCH   8  15
BRANCH   1  32
ATOM     32  C   LIG d   1      10.925   2.832  -5.730  0.00  0.00    -0.003 C 
ATOM     33  H   LIG d   1      10.610   3.516  -4.942  0.00  0.00     0.031 H 
ATOM     34  H   LIG d   1      11.288   1.906  -5.283  0.00  0.00     0.031 H 
ATOM     35  H   LIG d   1      11.724   3.291  -6.312  0.00  0.00     0.031 H 
ENDBRANCH   1  32
BRANCH   2  36
ATOM     36  O   LIG d   1      10.650   4.033  -8.198  0.00  0.00    -0.449 OA
BRANCH  36  37
ATOM     37  C   LIG d   1      10.330   5.353  -8.241  0.00  0.00     0.129 A 
ATOM     38  C   LIG d   1       9.906   6.002  -7.090  0.00  0.00    -0.016 A 
ATOM     39  C   LIG d   1       9.586   7.345  -7.133  0.00  0.00    -0.017 A 
ATOM     40  H   LIG d   1       9.829   5.458  -6.161  0.00  0.00     0.066 H 
ATOM     41  C   LIG d   1       9.677   8.042  -8.329  0.00  0.00     0.120 A 
ATOM     42  H   LIG d   1       9.260   7.850  -6.236  0.00  0.00     0.066 H 
ATOM     43  C   LIG d   1      10.097   7.393  -9.480  0.00  0.00    -0.017 A 
ATOM     44  C   LIG d   1      10.422   6.051  -9.436  0.00  0.00    -0.016 A 
ATOM     45  H   LIG d   1      10.168   7.936 -10.411  0.00  0.00     0.066 H 
ATOM     46  H   LIG d   1      10.748   5.546 -10.333  0.00  0.00     0.066 H 
BRANCH  41  47
ATOM     47  O   LIG d   1       9.357   9.364  -8.371  0.00  0.00    -0.495 OA
BRANCH  47  48
ATOM     48  C   LIG d   1       9.924  10.202  -7.362  0.00  0.00     0.079 C 
ATOM     49  H   LIG d   1      10.932   9.860  -7.130  0.00  0.00     0.066 H 
ATOM     50  H   LIG d   1       9.964  11.229  -7.725  0.00  0.00     0.066 H 
ATOM     51  H   LIG d   1       9.309  10.157  -6.464  0.00  0.00     0.066 H 
ENDBRANCH  47  48
ENDBRANCH  41  47
ENDBRANCH  36  37
ENDBRANCH   2  36
TORSDOF 7
ENDMDL
MODEL 9
REMARK VINA RESULT:      -5.8      4.673      8.624
REMARK  7 active torsions:
REMARK  status: ('A' for Active; 'I' for Inactive)
REMARK    1  A    between atoms: C_1  and  C_2 
REMARK    2  A    between atoms: C_3  and  O_22 
REMARK    3  A    between atoms: C_9  and  O_13 
REMARK    4  A    between atoms: O_13  and  C_14 
REMARK       I    between atoms: C_14  and  N_16 
REMARK    5  A    between atoms: O_22  and  C_23 
REMARK    6  A    between atoms: C_26  and  O_29 
REMARK    7  A    between atoms: O_29  and  C_30 
ROOT
ATOM      1  C   LIG d   1       1.253  -2.050 -11.299  0.00  0.00     0.148 A 
ATOM      2  C   LIG d   1       1.776  -3.292 -11.274  0.00  0.00     0.213 A 
ATOM      3  C   LIG d   1       2.688  -3.650 -10.240  0.00  0.00     0.235 A 
ATOM      4  O   LIG d   1       3.182  -4.763 -10.186  0.00  0.00    -0.283 OA
ATOM      5  C   LIG d   1       3.010  -2.618  -9.239  0.00  0.00     0.068 A 
ATOM      6  C   LIG d   1       3.893  -2.873  -8.189  0.00  0.00    -0.044 A 
ATOM      7  C   LIG d   1       4.167  -1.891  -7.281  0.00  0.00    -0.018 A 
ATOM      8  C   LIG d   1       3.571  -0.637  -7.397  0.00  0.00     0.137 A 
ATOM      9  C   LIG d   1       2.693  -0.368  -8.433  0.00  0.00     0.024 A 
ATOM     10  C   LIG d   1       2.403  -1.355  -9.365  0.00  0.00     0.142 A 
ATOM     11  O   LIG d   1       1.556  -1.118 -10.386  0.00  0.00    -0.456 OA
ATOM     12  H   LIG d   1       4.357  -3.844  -8.095  0.00  0.00     0.063 H 
ATOM     13  H   LIG d   1       4.850  -2.088  -6.468  0.00  0.00     0.065 H 
ATOM     14  H   LIG d   1       2.234   0.607  -8.516  0.00  0.00     0.069 H 
ENDROOT
BRANCH   8  15
ATOM     15  O   LIG d   1       3.853   0.329  -6.486  0.00  0.00    -0.411 OA
BRANCH  15  16
ATOM     16  C   LIG d   1       3.256   0.255  -5.280  0.00  0.00     0.408 C 
ATOM     17  O   LIG d   1       2.045   0.321  -5.197  0.00  0.00    -0.226 OA
ATOM     18  N   LIG d   1       4.001   0.109  -4.166  0.00  0.00    -0.263 N 
ATOM     19  C   LIG d   1       3.371   0.027  -2.839  0.00  0.00     0.041 C 
ATOM     20  C   LIG d   1       5.468   0.034  -4.241  0.00  0.00     0.041 C 
ATOM     21  C   LIG d   1       4.060   1.025  -1.909  0.00  0.00     0.064 C 
ATOM     22  H   LIG d   1       2.312   0.273  -2.920  0.00  0.00     0.049 H 
ATOM     23  H   LIG d   1       3.485  -0.982  -2.441  0.00  0.00     0.049 H 
ATOM     24  O   LIG d   1       5.474   0.816  -1.956  0.00  0.00    -0.377 OA
ATOM     25  H   LIG d   1       3.704   0.880  -0.889  0.00  0.00     0.058 H 
ATOM     26  H   LIG d   1       3.831   2.039  -2.235  0.00  0.00     0.058 H 
ATOM     27  C   LIG d   1       6.056   1.037  -3.242  0.00  0.00     0.064 C 
ATOM     28  H   LIG d   1       7.135   0.901  -3.181  0.00  0.00     0.058 H 
ATOM     29  H   LIG d   1       5.834   2.052  -3.573  0.00  0.00     0.058 H 
ATOM     30  H   LIG d   1       5.798  -0.974  -3.986  0.00  0.00     0.049 H 
ATOM     31  H   LIG d   1       5.797   0.284  -5.250  0.00  0.00     0.049 H 
ENDBRANCH  15  16
ENDBRANCH   8  15
BRANCH   1  32
ATOM     32  C   LIG d   1       0.290  -1.694 -12.402  0.00  0.00    -0.003 C 
ATOM     33  H   LIG d   1      -0.354  -0.879 -12.073  0.00  0.00     0.031 H 
ATOM     34  H   LIG d   1       0.849  -1.382 -13.285  0.00  0.00     0.031 H 
ATOM     35  H   LIG d   1      -0.319  -2.563 -12.648  0.00  0.00     0.031 H 
ENDBRANCH   1  32
BRANCH   2  36
ATOM     36  O   LIG d   1       1.435  -4.199 -12.231  0.00  0.00    -0.449 OA
BRANCH  36  37
ATOM     37  C   LIG d   1       0.704  -5.280 -11.854  0.00  0.00     0.129 A 
ATOM     38  C   LIG d   1       1.091  -6.553 -12.248  0.00  0.00    -0.016 A 
ATOM     39  C   LIG d   1       0.351  -7.651 -11.860  0.00  0.00    -0.017 A 
ATOM     40  H   LIG d   1       1.974  -6.683 -12.856  0.00  0.00     0.066 H 
ATOM     41  C   LIG d   1      -0.787  -7.483 -11.085  0.00  0.00     0.120 A 
ATOM     42  H   LIG d   1       0.656  -8.642 -12.164  0.00  0.00     0.066 H 
ATOM     43  C   LIG d   1      -1.178  -6.211 -10.694  0.00  0.00    -0.017 A 
ATOM     44  C   LIG d   1      -0.434  -5.112 -11.077  0.00  0.00    -0.016 A 
ATOM     45  H   LIG d   1      -2.064  -6.080 -10.090  0.00  0.00     0.066 H 
ATOM     46  H   LIG d   1      -0.738  -4.122 -10.773  0.00  0.00     0.066 H 
BRANCH  41  47
ATOM     47  O   LIG d   1      -1.518  -8.566 -10.706  0.00  0.00    -0.495 OA
BRANCH  47  48
ATOM     48  C   LIG d   1      -2.628  -8.329  -9.838  0.00  0.00     0.079 C 
ATOM     49  H   LIG d   1      -2.704  -9.142  -9.117  0.00  0.00     0.066 H 
ATOM     50  H   LIG d   1      -2.479  -7.387  -9.309  0.00  0.00     0.066 H 
ATOM     51  H   LIG d   1      -3.544  -8.275 -10.425  0.00  0.00     0.066 H 
ENDBRANCH  47  48
ENDBRANCH  41  47
ENDBRANCH  36  37
ENDBRANCH   2  36
TORSDOF 7
ENDMDL
