MODEL 1
REMARK VINA RESULT:      -6.1      0.000      0.000
REMARK  9 active torsions:
REMARK  status: ('A' for Active; 'I' for Inactive)
REMARK    1  A    between atoms: C_1  and  C_2 
REMARK    2  A    between atoms: C_4  and  N_28 
REMARK    3  A    between atoms: C_8  and  C_27 
REMARK    4  A    between atoms: C_11  and  O_26 
REMARK    5  A    between atoms: C_13  and  C_17 
REMARK    6  A    between atoms: C_17  and  C_19 
REMARK    7  A    between atoms: C_17  and  C_20 
REMARK       I    between atoms: C_20  and  N_22 
REMARK    8  A    between atoms: N_22  and  C_23 
REMARK       I    between atoms: N_28  and  C_29 
REMARK    9  A    between atoms: C_29  and  C_31 
ROOT
ATOM      1  C   LIG d   1       8.733   2.154  -6.232  0.00  0.00    -0.020 C 
ATOM      2  H   LIG d   1       9.549   1.420  -6.287  0.00  0.00     0.032 H 
ATOM      3  C   LIG d   1       8.254   2.277  -4.785  0.00  0.00     0.026 C 
ATOM      4  H   LIG d   1       7.410   2.981  -4.713  0.00  0.00     0.050 H 
ATOM      5  C   LIG d   1       9.415   2.738  -3.900  0.00  0.00    -0.034 C 
ATOM      6  C   LIG d   1       9.919   4.098  -4.388  0.00  0.00    -0.046 C 
ATOM      7  C   LIG d   1      10.398   3.975  -5.835  0.00  0.00    -0.026 C 
ATOM      8  C   LIG d   1       9.237   3.514  -6.720  0.00  0.00    -0.005 C 
ATOM      9  H   LIG d   1       8.420   4.250  -6.665  0.00  0.00     0.033 H 
ATOM     10  C   LIG d   1       9.716   3.393  -8.167  0.00  0.00     0.062 C 
ATOM     11  H   LIG d   1      10.493   2.620  -8.266  0.00  0.00     0.060 H 
ATOM     12  C   LIG d   1      10.220   4.752  -8.654  0.00  0.00    -0.004 C 
ATOM     13  H   LIG d   1       9.403   5.487  -8.600  0.00  0.00     0.033 H 
ATOM     14  C   LIG d   1      11.381   5.212  -7.771  0.00  0.00    -0.047 C 
ATOM     15  C   LIG d   1      10.902   5.335  -6.323  0.00  0.00    -0.047 C 
ATOM     16  H   LIG d   1       9.071   2.826  -2.859  0.00  0.00     0.028 H 
ATOM     17  H   LIG d   1      10.231   2.002  -3.955  0.00  0.00     0.028 H 
ATOM     18  H   LIG d   1       9.102   4.832  -4.333  0.00  0.00     0.027 H 
ATOM     19  H   LIG d   1      10.754   4.429  -3.752  0.00  0.00     0.027 H 
ATOM     20  H   LIG d   1      12.197   4.478  -7.826  0.00  0.00     0.027 H 
ATOM     21  H   LIG d   1      11.744   6.190  -8.121  0.00  0.00     0.027 H 
ATOM     22  H   LIG d   1      10.085   6.070  -6.268  0.00  0.00     0.027 H 
ATOM     23  H   LIG d   1      11.737   5.666  -5.688  0.00  0.00     0.027 H 
ENDROOT
BRANCH   3  24
ATOM     24  N   LIG d   1       7.771   0.976  -4.317  0.00  0.00    -0.312 N 
ATOM     25  C   LIG d   1       6.642   0.898  -3.586  0.00  0.00     0.216 C 
ATOM     26  O   LIG d   1       6.026   1.906  -3.313  0.00  0.00    -0.276 OA
ATOM     27  H   LIG d   1       8.331   0.060  -4.564  0.00  0.00     0.149 HD
BRANCH  25  28
ATOM     28  C   LIG d   1       6.146  -0.442  -3.105  0.00  0.00     0.036 C 
ATOM     29  C   LIG d   1       4.887  -0.245  -2.260  0.00  0.00    -0.042 C 
ATOM     30  C   LIG d   1       4.382  -1.605  -1.771  0.00  0.00    -0.052 C 
ATOM     31  H   LIG d   1       5.122   0.390  -1.393  0.00  0.00     0.027 H 
ATOM     32  H   LIG d   1       4.108   0.237  -2.868  0.00  0.00     0.027 H 
ATOM     33  C   LIG d   1       4.055  -2.490  -2.977  0.00  0.00    -0.053 C 
ATOM     34  H   LIG d   1       3.477  -1.465  -1.164  0.00  0.00     0.026 H 
ATOM     35  H   LIG d   1       5.162  -2.088  -1.163  0.00  0.00     0.026 H 
ATOM     36  C   LIG d   1       5.315  -2.686  -3.822  0.00  0.00    -0.052 C 
ATOM     37  H   LIG d   1       3.276  -2.007  -3.585  0.00  0.00     0.026 H 
ATOM     38  H   LIG d   1       3.692  -3.467  -2.627  0.00  0.00     0.026 H 
ATOM     39  C   LIG d   1       5.819  -1.326  -4.311  0.00  0.00    -0.042 C 
ATOM     40  H   LIG d   1       5.080  -3.322  -4.689  0.00  0.00     0.026 H 
ATOM     41  H   LIG d   1       6.093  -3.169  -3.214  0.00  0.00     0.026 H 
ATOM     42  H   LIG d   1       5.040  -0.843  -4.919  0.00  0.00     0.027 H 
ATOM     43  H   LIG d   1       6.724  -1.467  -4.918  0.00  0.00     0.027 H 
ATOM     44  H   LIG d   1       6.934  -0.913  -2.499  0.00  0.00     0.039 H 
ENDBRANCH  25  28
ENDBRANCH   3  24
BRANCH   1  45
ATOM     45  C   LIG d   1       7.572   1.695  -7.117  0.00  0.00    -0.060 C 
ATOM     46  H   LIG d   1       7.399   0.619  -6.965  0.00  0.00     0.023 H 
ATOM     47  H   LIG d   1       7.818   1.881  -8.172  0.00  0.00     0.023 H 
ATOM     48  H   LIG d   1       6.663   2.252  -6.848  0.00  0.00     0.023 H 
ENDBRANCH   1  45
BRANCH   7  49
ATOM     49  C   LIG d   1      11.534   2.953  -5.912  0.00  0.00    -0.059 C 
ATOM     50  H   LIG d   1      11.277   2.173  -6.643  0.00  0.00     0.024 H 
ATOM     51  H   LIG d   1      11.682   2.494  -4.923  0.00  0.00     0.024 H 
ATOM     52  H   LIG d   1      12.460   3.457  -6.224  0.00  0.00     0.024 H 
ENDBRANCH   7  49
BRANCH  10  53
ATOM     53  O   LIG d   1       8.632   2.963  -8.993  0.00  0.00    -0.391 OA
ATOM     54  H   LIG d   1       8.805   2.221  -9.787  0.00  0.00     0.210 HD
ENDBRANCH  10  53
BRANCH  12  55
ATOM     55  C   LIG d   1      10.699   4.630 -10.102  0.00  0.00     0.038 C 
ATOM     56  H   LIG d   1      10.733   3.570 -10.397  0.00  0.00     0.040 H 
BRANCH  55  57
ATOM     57  C   LIG d   1      12.092   5.250 -10.233  0.00  0.00    -0.054 C 
ATOM     58  H   LIG d   1      12.836   4.578  -9.780  0.00  0.00     0.024 H 
ATOM     59  H   LIG d   1      12.111   6.221  -9.716  0.00  0.00     0.024 H 
ATOM     60  H   LIG d   1      12.329   5.395 -11.297  0.00  0.00     0.024 H 
ENDBRANCH  55  57
BRANCH  55  61
ATOM     61  C   LIG d   1       9.740   5.352 -11.013  0.00  0.00     0.216 C 
ATOM     62  O   LIG d   1       8.591   5.527 -10.666  0.00  0.00    -0.276 OA
ATOM     63  N   LIG d   1      10.159   5.805 -12.211  0.00  0.00    -0.312 N 
ATOM     64  H   LIG d   1      11.201   5.647 -12.524  0.00  0.00     0.149 HD
BRANCH  63  65
ATOM     65  C   LIG d   1       9.226   6.508 -13.095  0.00  0.00     0.023 A 
ATOM     66  C   LIG d   1       9.677   6.770 -14.534  0.00  0.00    -0.033 A 
ATOM     67  C   LIG d   1       8.608   5.712 -14.246  0.00  0.00    -0.033 A 
ATOM     68  H   LIG d   1       9.474   7.818 -14.796  0.00  0.00     0.028 H 
ATOM     69  H   LIG d   1      10.756   6.572 -14.621  0.00  0.00     0.028 H 
ATOM     70  H   LIG d   1       8.804   4.640 -14.097  0.00  0.00     0.028 H 
ATOM     71  H   LIG d   1       7.523   5.887 -14.272  0.00  0.00     0.028 H 
ATOM     72  H   LIG d   1       8.850   7.115 -12.258  0.00  0.00     0.050 H 
ENDBRANCH  63  65
ENDBRANCH  55  61
ENDBRANCH  12  55
TORSDOF 9
ENDMDL
MODEL 2
REMARK VINA RESULT:      -6.0      3.883     10.086
REMARK  9 active torsions:
REMARK  status: ('A' for Active; 'I' for Inactive)
REMARK    1  A    between atoms: C_1  and  C_2 
REMARK    2  A    between atoms: C_4  and  N_28 
REMARK    3  A    between atoms: C_8  and  C_27 
REMARK    4  A    between atoms: C_11  and  O_26 
REMARK    5  A    between atoms: C_13  and  C_17 
REMARK    6  A    between atoms: C_17  and  C_19 
REMARK    7  A    between atoms: C_17  and  C_20 
REMARK       I    between atoms: C_20  and  N_22 
REMARK    8  A    between atoms: N_22  and  C_23 
REMARK       I    between atoms: N_28  and  C_29 
REMARK    9  A    between atoms: C_29  and  C_31 
ROOT
ATOM      1  C   LIG d   1       6.920  -0.027  -5.063  0.00  0.00    -0.020 C 
ATOM      2  H   LIG d   1       6.152   0.363  -5.746  0.00  0.00     0.032 H 
ATOM      3  C   LIG d   1       7.148   0.971  -3.927  0.00  0.00     0.026 C 
ATOM      4  H   LIG d   1       7.940   0.617  -3.251  0.00  0.00     0.050 H 
ATOM      5  C   LIG d   1       5.839   1.178  -3.159  0.00  0.00    -0.034 C 
ATOM      6  C   LIG d   1       5.374  -0.159  -2.579  0.00  0.00    -0.046 C 
ATOM      7  C   LIG d   1       5.146  -1.158  -3.715  0.00  0.00    -0.026 C 
ATOM      8  C   LIG d   1       6.454  -1.364  -4.482  0.00  0.00    -0.005 C 
ATOM      9  H   LIG d   1       7.222  -1.755  -3.798  0.00  0.00     0.033 H 
ATOM     10  C   LIG d   1       6.227  -2.363  -5.618  0.00  0.00     0.062 C 
ATOM     11  H   LIG d   1       5.506  -1.974  -6.353  0.00  0.00     0.060 H 
ATOM     12  C   LIG d   1       5.760  -3.699  -5.037  0.00  0.00    -0.004 C 
ATOM     13  H   LIG d   1       6.529  -4.090  -4.354  0.00  0.00     0.033 H 
ATOM     14  C   LIG d   1       4.453  -3.493  -4.270  0.00  0.00    -0.047 C 
ATOM     15  C   LIG d   1       4.680  -2.494  -3.133  0.00  0.00    -0.047 C 
ATOM     16  H   LIG d   1       6.003   1.895  -2.342  0.00  0.00     0.028 H 
ATOM     17  H   LIG d   1       5.071   1.568  -3.843  0.00  0.00     0.028 H 
ATOM     18  H   LIG d   1       6.142  -0.549  -1.895  0.00  0.00     0.027 H 
ATOM     19  H   LIG d   1       4.433  -0.011  -2.027  0.00  0.00     0.027 H 
ATOM     20  H   LIG d   1       3.685  -3.103  -4.953  0.00  0.00     0.027 H 
ATOM     21  H   LIG d   1       4.117  -4.454  -3.852  0.00  0.00     0.027 H 
ATOM     22  H   LIG d   1       5.448  -2.885  -2.450  0.00  0.00     0.027 H 
ATOM     23  H   LIG d   1       3.739  -2.346  -2.582  0.00  0.00     0.027 H 
ENDROOT
BRANCH   3  24
ATOM     24  N   LIG d   1       7.594   2.251  -4.482  0.00  0.00    -0.312 N 
ATOM     25  C   LIG d   1       8.772   2.779  -4.097  0.00  0.00     0.216 C 
ATOM     26  O   LIG d   1       9.463   2.195  -3.290  0.00  0.00    -0.276 OA
ATOM     27  H   LIG d   1       6.966   2.781  -5.215  0.00  0.00     0.149 HD
BRANCH  25  28
ATOM     28  C   LIG d   1       9.231   4.096  -4.669  0.00  0.00     0.036 C 
ATOM     29  C   LIG d   1      10.170   4.783  -3.677  0.00  0.00    -0.042 C 
ATOM     30  C   LIG d   1      10.637   6.120  -4.257  0.00  0.00    -0.052 C 
ATOM     31  H   LIG d   1       9.638   4.961  -2.731  0.00  0.00     0.027 H 
ATOM     32  H   LIG d   1      11.043   4.140  -3.492  0.00  0.00     0.027 H 
ATOM     33  C   LIG d   1      11.377   5.873  -5.574  0.00  0.00    -0.053 C 
ATOM     34  H   LIG d   1      11.312   6.614  -3.545  0.00  0.00     0.026 H 
ATOM     35  H   LIG d   1       9.764   6.763  -4.443  0.00  0.00     0.026 H 
ATOM     36  C   LIG d   1      10.437   5.186  -6.566  0.00  0.00    -0.052 C 
ATOM     37  H   LIG d   1      12.250   5.229  -5.389  0.00  0.00     0.026 H 
ATOM     38  H   LIG d   1      11.713   6.834  -5.992  0.00  0.00     0.026 H 
ATOM     39  C   LIG d   1       9.971   3.849  -5.986  0.00  0.00    -0.042 C 
ATOM     40  H   LIG d   1      10.969   5.008  -7.513  0.00  0.00     0.026 H 
ATOM     41  H   LIG d   1       9.565   5.830  -6.752  0.00  0.00     0.026 H 
ATOM     42  H   LIG d   1      10.844   3.206  -5.801  0.00  0.00     0.027 H 
ATOM     43  H   LIG d   1       9.296   3.355  -6.699  0.00  0.00     0.027 H 
ATOM     44  H   LIG d   1       8.349   4.728  -4.850  0.00  0.00     0.039 H 
ENDBRANCH  25  28
ENDBRANCH   3  24
BRANCH   1  45
ATOM     45  C   LIG d   1       8.228  -0.234  -5.830  0.00  0.00    -0.060 C 
ATOM     46  H   LIG d   1       8.003  -0.485  -6.877  0.00  0.00     0.023 H 
ATOM     47  H   LIG d   1       8.797  -1.056  -5.370  0.00  0.00     0.023 H 
ATOM     48  H   LIG d   1       8.824   0.689  -5.795  0.00  0.00     0.023 H 
ENDBRANCH   1  45
BRANCH   7  49
ATOM     49  C   LIG d   1       4.077  -0.615  -4.666  0.00  0.00    -0.059 C 
ATOM     50  H   LIG d   1       3.316  -1.389  -4.842  0.00  0.00     0.024 H 
ATOM     51  H   LIG d   1       4.546  -0.336  -5.622  0.00  0.00     0.024 H 
ATOM     52  H   LIG d   1       3.603   0.270  -4.218  0.00  0.00     0.024 H 
ENDBRANCH   7  49
BRANCH  10  53
ATOM     53  O   LIG d   1       7.448  -2.555  -6.334  0.00  0.00    -0.391 OA
ATOM     54  H   LIG d   1       7.538  -3.380  -7.057  0.00  0.00     0.210 HD
ENDBRANCH  10  53
BRANCH  12  55
ATOM     55  C   LIG d   1       5.533  -4.698  -6.173  0.00  0.00     0.038 C 
ATOM     56  H   LIG d   1       6.123  -4.403  -7.054  0.00  0.00     0.040 H 
BRANCH  55  57
ATOM     57  C   LIG d   1       4.046  -4.734  -6.531  0.00  0.00    -0.054 C 
ATOM     58  H   LIG d   1       3.482  -4.114  -5.818  0.00  0.00     0.024 H 
ATOM     59  H   LIG d   1       3.682  -5.771  -6.483  0.00  0.00     0.024 H 
ATOM     60  H   LIG d   1       3.905  -4.342  -7.549  0.00  0.00     0.024 H 
ENDBRANCH  55  57
BRANCH  55  61
ATOM     61  C   LIG d   1       5.978  -6.069  -5.734  0.00  0.00     0.216 C 
ATOM     62  O   LIG d   1       7.105  -6.237  -5.319  0.00  0.00    -0.276 OA
ATOM     63  N   LIG d   1       5.123  -7.109  -5.801  0.00  0.00    -0.312 N 
ATOM     64  H   LIG d   1       4.101  -6.956  -6.177  0.00  0.00     0.149 HD
BRANCH  63  65
ATOM     65  C   LIG d   1       5.555  -8.442  -5.373  0.00  0.00     0.023 A 
ATOM     66  C   LIG d   1       4.614  -9.231  -4.461  0.00  0.00    -0.033 A 
ATOM     67  C   LIG d   1       4.787  -9.645  -5.925  0.00  0.00    -0.033 A 
ATOM     68  H   LIG d   1       5.184  -9.644  -3.616  0.00  0.00     0.028 H 
ATOM     69  H   LIG d   1       3.826  -8.563  -4.081  0.00  0.00     0.028 H 
ATOM     70  H   LIG d   1       4.142  -9.319  -6.754  0.00  0.00     0.028 H 
ATOM     71  H   LIG d   1       5.500 -10.399  -6.289  0.00  0.00     0.028 H 
ATOM     72  H   LIG d   1       6.607  -8.119  -5.340  0.00  0.00     0.050 H 
ENDBRANCH  63  65
ENDBRANCH  55  61
ENDBRANCH  12  55
TORSDOF 9
ENDMDL
MODEL 3
REMARK VINA RESULT:      -5.9      6.685     10.474
REMARK  9 active torsions:
REMARK  status: ('A' for Active; 'I' for Inactive)
REMARK    1  A    between atoms: C_1  and  C_2 
REMARK    2  A    between atoms: C_4  and  N_28 
REMARK    3  A    between atoms: C_8  and  C_27 
REMARK    4  A    between atoms: C_11  and  O_26 
REMARK    5  A    between atoms: C_13  and  C_17 
REMARK    6  A    between atoms: C_17  and  C_19 
REMARK    7  A    between atoms: C_17  and  C_20 
REMARK       I    between atoms: C_20  and  N_22 
REMARK    8  A    between atoms: N_22  and  C_23 
REMARK       I    between atoms: N_28  and  C_29 
REMARK    9  A    between atoms: C_29  and  C_31 
ROOT
ATOM      1  C   LIG d   1       4.285  -1.479  -8.218  0.00  0.00    -0.020 C 
ATOM      2  H   LIG d   1       5.039  -1.482  -9.019  0.00  0.00     0.032 H 
ATOM      3  C   LIG d   1       4.387  -0.176  -7.425  0.00  0.00     0.026 C 
ATOM      4  H   LIG d   1       3.665  -0.169  -6.595  0.00  0.00     0.050 H 
ATOM      5  C   LIG d   1       4.142   1.011  -8.360  0.00  0.00    -0.034 C 
ATOM      6  C   LIG d   1       2.746   0.895  -8.975  0.00  0.00    -0.046 C 
ATOM      7  C   LIG d   1       2.644  -0.408  -9.769  0.00  0.00    -0.026 C 
ATOM      8  C   LIG d   1       2.888  -1.595  -8.834  0.00  0.00    -0.005 C 
ATOM      9  H   LIG d   1       2.133  -1.592  -8.033  0.00  0.00     0.033 H 
ATOM     10  C   LIG d   1       2.785  -2.898  -9.627  0.00  0.00     0.062 C 
ATOM     11  H   LIG d   1       3.568  -2.958 -10.398  0.00  0.00     0.060 H 
ATOM     12  C   LIG d   1       1.390  -3.013 -10.242  0.00  0.00    -0.004 C 
ATOM     13  H   LIG d   1       0.635  -3.011  -9.442  0.00  0.00     0.033 H 
ATOM     14  C   LIG d   1       1.146  -1.827 -11.177  0.00  0.00    -0.047 C 
ATOM     15  C   LIG d   1       1.248  -0.522 -10.384  0.00  0.00    -0.047 C 
ATOM     16  H   LIG d   1       4.216   1.948  -7.790  0.00  0.00     0.028 H 
ATOM     17  H   LIG d   1       4.897   1.008  -9.160  0.00  0.00     0.028 H 
ATOM     18  H   LIG d   1       1.992   0.898  -8.175  0.00  0.00     0.027 H 
ATOM     19  H   LIG d   1       2.570   1.749  -9.648  0.00  0.00     0.027 H 
ATOM     20  H   LIG d   1       1.900  -1.829 -11.977  0.00  0.00     0.027 H 
ATOM     21  H   LIG d   1       0.141  -1.909 -11.620  0.00  0.00     0.027 H 
ATOM     22  H   LIG d   1       0.493  -0.521  -9.583  0.00  0.00     0.027 H 
ATOM     23  H   LIG d   1       1.072   0.330 -11.056  0.00  0.00     0.027 H 
ENDROOT
BRANCH   3  24
ATOM     24  N   LIG d   1       5.723  -0.065  -6.836  0.00  0.00    -0.312 N 
ATOM     25  C   LIG d   1       5.863   0.084  -5.504  0.00  0.00     0.216 C 
ATOM     26  O   LIG d   1       4.882   0.127  -4.793  0.00  0.00    -0.276 OA
ATOM     27  H   LIG d   1       6.614  -0.105  -7.482  0.00  0.00     0.149 HD
BRANCH  25  28
ATOM     28  C   LIG d   1       7.239   0.197  -4.899  0.00  0.00     0.036 C 
ATOM     29  C   LIG d   1       8.290  -0.146  -5.954  0.00  0.00    -0.042 C 
ATOM     30  C   LIG d   1       9.687  -0.030  -5.340  0.00  0.00    -0.052 C 
ATOM     31  H   LIG d   1       8.131  -1.175  -6.310  0.00  0.00     0.027 H 
ATOM     32  H   LIG d   1       8.204   0.552  -6.800  0.00  0.00     0.027 H 
ATOM     33  C   LIG d   1       9.909   1.401  -4.844  0.00  0.00    -0.053 C 
ATOM     34  H   LIG d   1      10.444  -0.276  -6.098  0.00  0.00     0.026 H 
ATOM     35  H   LIG d   1       9.775  -0.728  -4.494  0.00  0.00     0.026 H 
ATOM     36  C   LIG d   1       8.856   1.744  -3.789  0.00  0.00    -0.052 C 
ATOM     37  H   LIG d   1       9.822   2.099  -5.690  0.00  0.00     0.026 H 
ATOM     38  H   LIG d   1      10.913   1.485  -4.403  0.00  0.00     0.026 H 
ATOM     39  C   LIG d   1       7.460   1.629  -4.404  0.00  0.00    -0.042 C 
ATOM     40  H   LIG d   1       9.016   2.773  -3.432  0.00  0.00     0.026 H 
ATOM     41  H   LIG d   1       8.944   1.046  -2.943  0.00  0.00     0.026 H 
ATOM     42  H   LIG d   1       7.373   2.327  -5.249  0.00  0.00     0.027 H 
ATOM     43  H   LIG d   1       6.704   1.875  -3.645  0.00  0.00     0.027 H 
ATOM     44  H   LIG d   1       7.312  -0.505  -4.055  0.00  0.00     0.039 H 
ENDBRANCH  25  28
ENDBRANCH   3  24
BRANCH   1  45
ATOM     45  C   LIG d   1       4.528  -2.666  -7.284  0.00  0.00    -0.060 C 
ATOM     46  H   LIG d   1       5.327  -2.413  -6.570  0.00  0.00     0.023 H 
ATOM     47  H   LIG d   1       4.829  -3.544  -7.875  0.00  0.00     0.023 H 
ATOM     48  H   LIG d   1       3.604  -2.895  -6.732  0.00  0.00     0.023 H 
ENDBRANCH   1  45
BRANCH   7  49
ATOM     49  C   LIG d   1       3.693  -0.412 -10.882  0.00  0.00    -0.059 C 
ATOM     50  H   LIG d   1       4.699  -0.365 -10.440  0.00  0.00     0.024 H 
ATOM     51  H   LIG d   1       3.538   0.462 -11.534  0.00  0.00     0.024 H 
ATOM     52  H   LIG d   1       3.596  -1.332 -11.475  0.00  0.00     0.024 H 
ENDBRANCH   7  49
BRANCH  10  53
ATOM     53  O   LIG d   1       3.014  -4.006  -8.754  0.00  0.00    -0.391 OA
ATOM     54  H   LIG d   1       3.972  -4.545  -8.788  0.00  0.00     0.210 HD
ENDBRANCH  10  53
BRANCH  12  55
ATOM     55  C   LIG d   1       1.287  -4.317 -11.036  0.00  0.00     0.038 C 
ATOM     56  H   LIG d   1       2.293  -4.721 -11.222  0.00  0.00     0.040 H 
BRANCH  55  57
ATOM     57  C   LIG d   1       0.579  -4.050 -12.366  0.00  0.00    -0.054 C 
ATOM     58  H   LIG d   1      -0.406  -3.600 -12.173  0.00  0.00     0.024 H 
ATOM     59  H   LIG d   1       0.450  -4.998 -12.909  0.00  0.00     0.024 H 
ATOM     60  H   LIG d   1       1.186  -3.360 -12.971  0.00  0.00     0.024 H 
ENDBRANCH  55  57
BRANCH  55  61
ATOM     61  C   LIG d   1       0.501  -5.328 -10.242  0.00  0.00     0.216 C 
ATOM     62  O   LIG d   1       1.064  -6.287  -9.756  0.00  0.00    -0.276 OA
ATOM     63  N   LIG d   1      -0.826  -5.168 -10.071  0.00  0.00    -0.312 N 
ATOM     64  H   LIG d   1      -1.336  -4.299 -10.512  0.00  0.00     0.149 HD
BRANCH  63  65
ATOM     65  C   LIG d   1      -1.590  -6.152  -9.299  0.00  0.00     0.023 A 
ATOM     66  C   LIG d   1      -3.116  -6.050  -9.336  0.00  0.00    -0.033 A 
ATOM     67  C   LIG d   1      -2.406  -7.184 -10.080  0.00  0.00    -0.033 A 
ATOM     68  H   LIG d   1      -3.512  -6.115  -8.313  0.00  0.00     0.028 H 
ATOM     69  H   LIG d   1      -3.408  -5.086  -9.781  0.00  0.00     0.028 H 
ATOM     70  H   LIG d   1      -2.112  -7.158 -11.139  0.00  0.00     0.028 H 
ATOM     71  H   LIG d   1      -2.216  -8.187  -9.671  0.00  0.00     0.028 H 
ATOM     72  H   LIG d   1      -0.815  -6.179  -8.519  0.00  0.00     0.050 H 
ENDBRANCH  63  65
ENDBRANCH  55  61
ENDBRANCH  12  55
TORSDOF 9
ENDMDL
MODEL 4
REMARK VINA RESULT:      -5.8      7.505     11.439
REMARK  9 active torsions:
REMARK  status: ('A' for Active; 'I' for Inactive)
REMARK    1  A    between atoms: C_1  and  C_2 
REMARK    2  A    between atoms: C_4  and  N_28 
REMARK    3  A    between atoms: C_8  and  C_27 
REMARK    4  A    between atoms: C_11  and  O_26 
REMARK    5  A    between atoms: C_13  and  C_17 
REMARK    6  A    between atoms: C_17  and  C_19 
REMARK    7  A    between atoms: C_17  and  C_20 
REMARK       I    between atoms: C_20  and  N_22 
REMARK    8  A    between atoms: N_22  and  C_23 
REMARK       I    between atoms: N_28  and  C_29 
REMARK    9  A    between atoms: C_29  and  C_31 
ROOT
ATOM      1  C   LIG d   1       9.006  -3.964  -3.834  0.00  0.00    -0.020 C 
ATOM      2  H   LIG d   1       9.668  -3.172  -4.212  0.00  0.00     0.032 H 
ATOM      3  C   LIG d   1       7.644  -3.864  -4.521  0.00  0.00     0.026 C 
ATOM      4  H   LIG d   1       6.954  -4.625  -4.129  0.00  0.00     0.050 H 
ATOM      5  C   LIG d   1       7.822  -4.027  -6.033  0.00  0.00    -0.034 C 
ATOM      6  C   LIG d   1       8.443  -5.394  -6.327  0.00  0.00    -0.046 C 
ATOM      7  C   LIG d   1       9.806  -5.494  -5.640  0.00  0.00    -0.026 C 
ATOM      8  C   LIG d   1       9.627  -5.331  -4.128  0.00  0.00    -0.005 C 
ATOM      9  H   LIG d   1       8.966  -6.124  -3.750  0.00  0.00     0.033 H 
ATOM     10  C   LIG d   1      10.990  -5.433  -3.441  0.00  0.00     0.062 C 
ATOM     11  H   LIG d   1      11.656  -4.615  -3.754  0.00  0.00     0.060 H 
ATOM     12  C   LIG d   1      11.610  -6.799  -3.736  0.00  0.00    -0.004 C 
ATOM     13  H   LIG d   1      10.949  -7.592  -3.357  0.00  0.00     0.033 H 
ATOM     14  C   LIG d   1      11.789  -6.962  -5.247  0.00  0.00    -0.047 C 
ATOM     15  C   LIG d   1      10.426  -6.861  -5.935  0.00  0.00    -0.047 C 
ATOM     16  H   LIG d   1       6.843  -3.954  -6.528  0.00  0.00     0.028 H 
ATOM     17  H   LIG d   1       8.484  -3.234  -6.411  0.00  0.00     0.028 H 
ATOM     18  H   LIG d   1       7.782  -6.186  -5.949  0.00  0.00     0.027 H 
ATOM     19  H   LIG d   1       8.572  -5.511  -7.414  0.00  0.00     0.027 H 
ATOM     20  H   LIG d   1      12.451  -6.170  -5.625  0.00  0.00     0.027 H 
ATOM     21  H   LIG d   1      12.236  -7.945  -5.460  0.00  0.00     0.027 H 
ATOM     22  H   LIG d   1       9.765  -7.655  -5.556  0.00  0.00     0.027 H 
ATOM     23  H   LIG d   1      10.555  -6.979  -7.021  0.00  0.00     0.027 H 
ENDROOT
BRANCH   3  24
ATOM     24  N   LIG d   1       7.049  -2.555  -4.239  0.00  0.00    -0.312 N 
ATOM     25  C   LIG d   1       5.719  -2.445  -4.055  0.00  0.00     0.216 C 
ATOM     26  O   LIG d   1       5.014  -3.429  -4.123  0.00  0.00    -0.276 OA
ATOM     27  H   LIG d   1       7.690  -1.662  -4.177  0.00  0.00     0.149 HD
BRANCH  25  28
ATOM     28  C   LIG d   1       5.107  -1.098  -3.764  0.00  0.00     0.036 C 
ATOM     29  C   LIG d   1       3.914  -1.273  -2.824  0.00  0.00    -0.042 C 
ATOM     30  C   LIG d   1       3.293   0.094  -2.529  0.00  0.00    -0.052 C 
ATOM     31  H   LIG d   1       3.163  -1.920  -3.301  0.00  0.00     0.027 H 
ATOM     32  H   LIG d   1       4.251  -1.732  -1.884  0.00  0.00     0.027 H 
ATOM     33  C   LIG d   1       4.337   0.996  -1.866  0.00  0.00    -0.053 C 
ATOM     34  H   LIG d   1       2.434  -0.030  -1.853  0.00  0.00     0.026 H 
ATOM     35  H   LIG d   1       2.955   0.555  -3.469  0.00  0.00     0.026 H 
ATOM     36  C   LIG d   1       5.531   1.170  -2.806  0.00  0.00    -0.052 C 
ATOM     37  H   LIG d   1       4.674   0.536  -0.925  0.00  0.00     0.026 H 
ATOM     38  H   LIG d   1       3.891   1.979  -1.653  0.00  0.00     0.026 H 
ATOM     39  C   LIG d   1       6.152  -0.197  -3.101  0.00  0.00    -0.042 C 
ATOM     40  H   LIG d   1       6.281   1.818  -2.330  0.00  0.00     0.026 H 
ATOM     41  H   LIG d   1       5.193   1.631  -3.746  0.00  0.00     0.026 H 
ATOM     42  H   LIG d   1       6.489  -0.657  -2.160  0.00  0.00     0.027 H 
ATOM     43  H   LIG d   1       7.010  -0.072  -3.777  0.00  0.00     0.027 H 
ATOM     44  H   LIG d   1       4.775  -0.650  -4.712  0.00  0.00     0.039 H 
ENDBRANCH  25  28
ENDBRANCH   3  24
BRANCH   1  45
ATOM     45  C   LIG d   1       8.828  -3.802  -2.322  0.00  0.00    -0.060 C 
ATOM     46  H   LIG d   1       7.893  -3.259  -2.120  0.00  0.00     0.023 H 
ATOM     47  H   LIG d   1       9.677  -3.236  -1.911  0.00  0.00     0.023 H 
ATOM     48  H   LIG d   1       8.786  -4.794  -1.849  0.00  0.00     0.023 H 
ENDBRANCH   1  45
BRANCH   7  49
ATOM     49  C   LIG d   1      10.727  -4.392  -6.167  0.00  0.00    -0.059 C 
ATOM     50  H   LIG d   1      11.771  -4.732  -6.118  0.00  0.00     0.024 H 
ATOM     51  H   LIG d   1      10.606  -3.488  -5.550  0.00  0.00     0.024 H 
ATOM     52  H   LIG d   1      10.465  -4.162  -7.209  0.00  0.00     0.024 H 
ENDBRANCH   7  49
BRANCH  10  53
ATOM     53  O   LIG d   1      10.823  -5.280  -2.030  0.00  0.00    -0.391 OA
ATOM     54  H   LIG d   1      11.630  -4.840  -1.425  0.00  0.00     0.210 HD
ENDBRANCH  10  53
BRANCH  12  55
ATOM     55  C   LIG d   1      12.973  -6.900  -3.048  0.00  0.00     0.038 C 
ATOM     56  H   LIG d   1      13.255  -5.922  -2.631  0.00  0.00     0.040 H 
BRANCH  55  57
ATOM     57  C   LIG d   1      14.025  -7.356  -4.063  0.00  0.00    -0.054 C 
ATOM     58  H   LIG d   1      15.024  -7.055  -3.715  0.00  0.00     0.024 H 
ATOM     59  H   LIG d   1      13.819  -6.889  -5.037  0.00  0.00     0.024 H 
ATOM     60  H   LIG d   1      13.985  -8.450  -4.164  0.00  0.00     0.024 H 
ENDBRANCH  55  57
BRANCH  55  61
ATOM     61  C   LIG d   1      12.896  -7.899  -1.922  0.00  0.00     0.216 C 
ATOM     62  O   LIG d   1      13.351  -9.014  -2.069  0.00  0.00    -0.276 OA
ATOM     63  N   LIG d   1      12.321  -7.554  -0.753  0.00  0.00    -0.312 N 
ATOM     64  H   LIG d   1      11.909  -6.543  -0.621  0.00  0.00     0.149 HD
BRANCH  63  65
ATOM     65  C   LIG d   1      12.247  -8.525   0.342  0.00  0.00     0.023 A 
ATOM     66  C   LIG d   1      11.350  -8.181   1.532  0.00  0.00    -0.033 A 
ATOM     67  C   LIG d   1      10.923  -9.265   0.540  0.00  0.00    -0.033 A 
ATOM     68  H   LIG d   1      11.899  -8.361   2.468  0.00  0.00     0.028 H 
ATOM     69  H   LIG d   1      11.058  -7.121   1.477  0.00  0.00     0.028 H 
ATOM     70  H   LIG d   1      10.277  -9.102  -0.335  0.00  0.00     0.028 H 
ATOM     71  H   LIG d   1      11.118 -10.341   0.656  0.00  0.00     0.028 H 
ATOM     72  H   LIG d   1      13.300  -8.808   0.197  0.00  0.00     0.050 H 
ENDBRANCH  63  65
ENDBRANCH  55  61
ENDBRANCH  12  55
TORSDOF 9
ENDMDL
MODEL 5
REMARK VINA RESULT:      -5.8      3.886      9.677
REMARK  9 active torsions:
REMARK  status: ('A' for Active; 'I' for Inactive)
REMARK    1  A    between atoms: C_1  and  C_2 
REMARK    2  A    between atoms: C_4  and  N_28 
REMARK    3  A    between atoms: C_8  and  C_27 
REMARK    4  A    between atoms: C_11  and  O_26 
REMARK    5  A    between atoms: C_13  and  C_17 
REMARK    6  A    between atoms: C_17  and  C_19 
REMARK    7  A    between atoms: C_17  and  C_20 
REMARK       I    between atoms: C_20  and  N_22 
REMARK    8  A    between atoms: N_22  and  C_23 
REMARK       I    between atoms: N_28  and  C_29 
REMARK    9  A    between atoms: C_29  and  C_31 
ROOT
ATOM      1  C   LIG d   1       7.547   0.091  -4.922  0.00  0.00    -0.020 C 
ATOM      2  H   LIG d   1       6.904   0.435  -5.745  0.00  0.00     0.032 H 
ATOM      3  C   LIG d   1       7.658   1.191  -3.866  0.00  0.00     0.026 C 
ATOM      4  H   LIG d   1       8.328   0.881  -3.051  0.00  0.00     0.050 H 
ATOM      5  C   LIG d   1       6.265   1.518  -3.322  0.00  0.00    -0.034 C 
ATOM      6  C   LIG d   1       5.657   0.263  -2.691  0.00  0.00    -0.046 C 
ATOM      7  C   LIG d   1       5.547  -0.837  -3.747  0.00  0.00    -0.026 C 
ATOM      8  C   LIG d   1       6.939  -1.164  -4.291  0.00  0.00    -0.005 C 
ATOM      9  H   LIG d   1       7.582  -1.509  -3.468  0.00  0.00     0.033 H 
ATOM     10  C   LIG d   1       6.828  -2.265  -5.347  0.00  0.00     0.062 C 
ATOM     11  H   LIG d   1       6.239  -1.929  -6.213  0.00  0.00     0.060 H 
ATOM     12  C   LIG d   1       6.220  -3.518  -4.715  0.00  0.00    -0.004 C 
ATOM     13  H   LIG d   1       6.864  -3.864  -3.893  0.00  0.00     0.033 H 
ATOM     14  C   LIG d   1       4.828  -3.192  -4.172  0.00  0.00    -0.047 C 
ATOM     15  C   LIG d   1       4.939  -2.091  -3.115  0.00  0.00    -0.047 C 
ATOM     16  H   LIG d   1       6.344   2.309  -2.562  0.00  0.00     0.028 H 
ATOM     17  H   LIG d   1       5.622   1.863  -4.145  0.00  0.00     0.028 H 
ATOM     18  H   LIG d   1       6.301  -0.081  -1.868  0.00  0.00     0.027 H 
ATOM     19  H   LIG d   1       4.656   0.498  -2.300  0.00  0.00     0.027 H 
ATOM     20  H   LIG d   1       4.185  -2.848  -4.995  0.00  0.00     0.027 H 
ATOM     21  H   LIG d   1       4.390  -4.094  -3.718  0.00  0.00     0.027 H 
ATOM     22  H   LIG d   1       5.582  -2.436  -2.292  0.00  0.00     0.027 H 
ATOM     23  H   LIG d   1       3.937  -1.856  -2.725  0.00  0.00     0.027 H 
ENDROOT
BRANCH   3  24
ATOM     24  N   LIG d   1       8.240   2.392  -4.470  0.00  0.00    -0.312 N 
ATOM     25  C   LIG d   1       9.379   2.911  -3.975  0.00  0.00     0.216 C 
ATOM     26  O   LIG d   1       9.924   2.385  -3.027  0.00  0.00    -0.276 OA
ATOM     27  H   LIG d   1       7.745   2.870  -5.330  0.00  0.00     0.149 HD
BRANCH  25  28
ATOM     28  C   LIG d   1       9.978   4.147  -4.596  0.00  0.00     0.036 C 
ATOM     29  C   LIG d   1       9.666   4.166  -6.093  0.00  0.00    -0.042 C 
ATOM     30  C   LIG d   1      10.273   5.421  -6.725  0.00  0.00    -0.052 C 
ATOM     31  H   LIG d   1      10.096   3.273  -6.569  0.00  0.00     0.027 H 
ATOM     32  H   LIG d   1       8.576   4.173  -6.241  0.00  0.00     0.027 H 
ATOM     33  C   LIG d   1       9.676   6.665  -6.063  0.00  0.00    -0.053 C 
ATOM     34  H   LIG d   1      10.049   5.436  -7.801  0.00  0.00     0.026 H 
ATOM     35  H   LIG d   1      11.363   5.415  -6.577  0.00  0.00     0.026 H 
ATOM     36  C   LIG d   1       9.988   6.645  -4.565  0.00  0.00    -0.052 C 
ATOM     37  H   LIG d   1       8.585   6.671  -6.211  0.00  0.00     0.026 H 
ATOM     38  H   LIG d   1      10.111   7.567  -6.517  0.00  0.00     0.026 H 
ATOM     39  C   LIG d   1       9.380   5.391  -3.934  0.00  0.00    -0.042 C 
ATOM     40  H   LIG d   1       9.558   7.540  -4.089  0.00  0.00     0.026 H 
ATOM     41  H   LIG d   1      11.077   6.640  -4.418  0.00  0.00     0.026 H 
ATOM     42  H   LIG d   1       8.290   5.397  -4.082  0.00  0.00     0.027 H 
ATOM     43  H   LIG d   1       9.605   5.376  -2.858  0.00  0.00     0.027 H 
ATOM     44  H   LIG d   1      11.067   4.128  -4.441  0.00  0.00     0.039 H 
ENDBRANCH  25  28
ENDBRANCH   3  24
BRANCH   1  45
ATOM     45  C   LIG d   1       8.939  -0.237  -5.466  0.00  0.00    -0.060 C 
ATOM     46  H   LIG d   1       9.261  -1.217  -5.081  0.00  0.00     0.023 H 
ATOM     47  H   LIG d   1       9.651   0.536  -5.142  0.00  0.00     0.023 H 
ATOM     48  H   LIG d   1       8.906  -0.268  -6.564  0.00  0.00     0.023 H 
ENDBRANCH   1  45
BRANCH   7  49
ATOM     49  C   LIG d   1       4.651  -0.358  -4.892  0.00  0.00    -0.059 C 
ATOM     50  H   LIG d   1       5.077  -0.685  -5.852  0.00  0.00     0.024 H 
ATOM     51  H   LIG d   1       4.589   0.741  -4.873  0.00  0.00     0.024 H 
ATOM     52  H   LIG d   1       3.645  -0.784  -4.773  0.00  0.00     0.024 H 
ENDBRANCH   7  49
BRANCH  10  53
ATOM     53  O   LIG d   1       8.129  -2.570  -5.854  0.00  0.00    -0.391 OA
ATOM     54  H   LIG d   1       9.015  -2.074  -5.432  0.00  0.00     0.210 HD
ENDBRANCH  10  53
BRANCH  12  55
ATOM     55  C   LIG d   1       6.110  -4.620  -5.772  0.00  0.00     0.038 C 
ATOM     56  H   LIG d   1       6.328  -4.206  -6.768  0.00  0.00     0.040 H 
BRANCH  55  57
ATOM     57  C   LIG d   1       4.696  -5.206  -5.751  0.00  0.00    -0.054 C 
ATOM     58  H   LIG d   1       4.426  -5.473  -4.719  0.00  0.00     0.024 H 
ATOM     59  H   LIG d   1       4.663  -6.105  -6.384  0.00  0.00     0.024 H 
ATOM     60  H   LIG d   1       3.985  -4.460  -6.136  0.00  0.00     0.024 H 
ENDBRANCH  55  57
BRANCH  55  61
ATOM     61  C   LIG d   1       7.109  -5.707  -5.472  0.00  0.00     0.216 C 
ATOM     62  O   LIG d   1       6.915  -6.836  -5.871  0.00  0.00    -0.276 OA
ATOM     63  N   LIG d   1       8.220  -5.425  -4.762  0.00  0.00    -0.312 N 
ATOM     64  H   LIG d   1       8.396  -4.401  -4.401  0.00  0.00     0.149 HD
BRANCH  63  65
ATOM     65  C   LIG d   1       9.192  -6.482  -4.472  0.00  0.00     0.023 A 
ATOM     66  C   LIG d   1      10.259  -6.190  -3.415  0.00  0.00    -0.033 A 
ATOM     67  C   LIG d   1       9.114  -7.156  -3.101  0.00  0.00    -0.033 A 
ATOM     68  H   LIG d   1      11.246  -6.484  -3.801  0.00  0.00     0.028 H 
ATOM     69  H   LIG d   1      10.261  -5.114  -3.184  0.00  0.00     0.028 H 
ATOM     70  H   LIG d   1       8.170  -6.879  -2.609  0.00  0.00     0.028 H 
ATOM     71  H   LIG d   1       9.155  -8.248  -3.226  0.00  0.00     0.028 H 
ATOM     72  H   LIG d   1       9.183  -6.814  -5.521  0.00  0.00     0.050 H 
ENDBRANCH  63  65
ENDBRANCH  55  61
ENDBRANCH  12  55
TORSDOF 9
ENDMDL
MODEL 6
REMARK VINA RESULT:      -5.8      4.031      9.611
REMARK  9 active torsions:
REMARK  status: ('A' for Active; 'I' for Inactive)
REMARK    1  A    between atoms: C_1  and  C_2 
REMARK    2  A    between atoms: C_4  and  N_28 
REMARK    3  A    between atoms: C_8  and  C_27 
REMARK    4  A    between atoms: C_11  and  O_26 
REMARK    5  A    between atoms: C_13  and  C_17 
REMARK    6  A    between atoms: C_17  and  C_19 
REMARK    7  A    between atoms: C_17  and  C_20 
REMARK       I    between atoms: C_20  and  N_22 
REMARK    8  A    between atoms: N_22  and  C_23 
REMARK       I    between atoms: N_28  and  C_29 
REMARK    9  A    between atoms: C_29  and  C_31 
ROOT
ATOM      1  C   LIG d   1      10.330   6.195  -6.562  0.00  0.00    -0.020 C 
ATOM      2  H   LIG d   1      11.414   6.017  -6.605  0.00  0.00     0.032 H 
ATOM      3  C   LIG d   1       9.645   5.459  -7.714  0.00  0.00     0.026 C 
ATOM      4  H   LIG d   1       8.562   5.656  -7.712  0.00  0.00     0.050 H 
ATOM      5  C   LIG d   1       9.919   3.958  -7.595  0.00  0.00    -0.034 C 
ATOM      6  C   LIG d   1       9.370   3.444  -6.263  0.00  0.00    -0.046 C 
ATOM      7  C   LIG d   1      10.055   4.181  -5.110  0.00  0.00    -0.026 C 
ATOM      8  C   LIG d   1       9.781   5.682  -5.230  0.00  0.00    -0.005 C 
ATOM      9  H   LIG d   1       8.696   5.861  -5.186  0.00  0.00     0.033 H 
ATOM     10  C   LIG d   1      10.465   6.418  -4.077  0.00  0.00     0.062 C 
ATOM     11  H   LIG d   1      11.558   6.308  -4.127  0.00  0.00     0.060 H 
ATOM     12  C   LIG d   1       9.916   5.904  -2.745  0.00  0.00    -0.004 C 
ATOM     13  H   LIG d   1       8.831   6.083  -2.702  0.00  0.00     0.033 H 
ATOM     14  C   LIG d   1      10.190   4.403  -2.626  0.00  0.00    -0.047 C 
ATOM     15  C   LIG d   1       9.505   3.666  -3.778  0.00  0.00    -0.047 C 
ATOM     16  H   LIG d   1       9.427   3.428  -8.424  0.00  0.00     0.028 H 
ATOM     17  H   LIG d   1      11.004   3.779  -7.639  0.00  0.00     0.028 H 
ATOM     18  H   LIG d   1       8.286   3.623  -6.220  0.00  0.00     0.027 H 
ATOM     19  H   LIG d   1       9.567   2.365  -6.177  0.00  0.00     0.027 H 
ATOM     20  H   LIG d   1      11.274   4.224  -2.668  0.00  0.00     0.027 H 
ATOM     21  H   LIG d   1       9.796   4.033  -1.667  0.00  0.00     0.027 H 
ATOM     22  H   LIG d   1       8.421   3.846  -3.735  0.00  0.00     0.027 H 
ATOM     23  H   LIG d   1       9.703   2.588  -3.692  0.00  0.00     0.027 H 
ENDROOT
BRANCH   3  24
ATOM     24  N   LIG d   1      10.171   5.951  -8.990  0.00  0.00    -0.312 N 
ATOM     25  C   LIG d   1       9.350   6.086 -10.050  0.00  0.00     0.216 C 
ATOM     26  O   LIG d   1       8.176   5.800  -9.949  0.00  0.00    -0.276 OA
ATOM     27  H   LIG d   1      11.237   6.211  -9.082  0.00  0.00     0.149 HD
BRANCH  25  28
ATOM     28  C   LIG d   1       9.892   6.592 -11.363  0.00  0.00     0.036 C 
ATOM     29  C   LIG d   1       8.855   6.364 -12.463  0.00  0.00    -0.042 C 
ATOM     30  C   LIG d   1       9.403   6.878 -13.796  0.00  0.00    -0.052 C 
ATOM     31  H   LIG d   1       8.639   5.289 -12.547  0.00  0.00     0.027 H 
ATOM     32  H   LIG d   1       7.930   6.906 -12.215  0.00  0.00     0.027 H 
ATOM     33  C   LIG d   1       9.704   8.375 -13.681  0.00  0.00    -0.053 C 
ATOM     34  H   LIG d   1       8.659   6.715 -14.588  0.00  0.00     0.026 H 
ATOM     35  H   LIG d   1      10.329   6.337 -14.045  0.00  0.00     0.026 H 
ATOM     36  C   LIG d   1      10.741   8.602 -12.579  0.00  0.00    -0.052 C 
ATOM     37  H   LIG d   1       8.779   8.916 -13.432  0.00  0.00     0.026 H 
ATOM     38  H   LIG d   1      10.099   8.744 -14.638  0.00  0.00     0.026 H 
ATOM     39  C   LIG d   1      10.192   8.089 -11.246  0.00  0.00    -0.042 C 
ATOM     40  H   LIG d   1      10.958   9.678 -12.496  0.00  0.00     0.026 H 
ATOM     41  H   LIG d   1      11.666   8.061 -12.828  0.00  0.00     0.026 H 
ATOM     42  H   LIG d   1       9.267   8.630 -10.998  0.00  0.00     0.027 H 
ATOM     43  H   LIG d   1      10.938   8.252 -10.455  0.00  0.00     0.027 H 
ATOM     44  H   LIG d   1      10.815   6.043 -11.599  0.00  0.00     0.039 H 
ENDBRANCH  25  28
ENDBRANCH   3  24
BRANCH   1  45
ATOM     45  C   LIG d   1      10.055   7.696  -6.681  0.00  0.00    -0.060 C 
ATOM     46  H   LIG d   1       9.045   7.853  -7.089  0.00  0.00     0.023 H 
ATOM     47  H   LIG d   1      10.797   8.154  -7.352  0.00  0.00     0.023 H 
ATOM     48  H   LIG d   1      10.124   8.161  -5.687  0.00  0.00     0.023 H 
ENDBRANCH   1  45
BRANCH   7  49
ATOM     49  C   LIG d   1      11.563   3.932  -5.170  0.00  0.00    -0.059 C 
ATOM     50  H   LIG d   1      11.824   3.484  -6.140  0.00  0.00     0.024 H 
ATOM     51  H   LIG d   1      11.853   3.245  -4.360  0.00  0.00     0.024 H 
ATOM     52  H   LIG d   1      12.097   4.885  -5.050  0.00  0.00     0.024 H 
ENDBRANCH   7  49
BRANCH  10  53
ATOM     53  O   LIG d   1      10.209   7.819  -4.188  0.00  0.00    -0.391 OA
ATOM     54  H   LIG d   1       9.778   8.369  -3.339  0.00  0.00     0.210 HD
ENDBRANCH  10  53
BRANCH  12  55
ATOM     55  C   LIG d   1      10.600   6.641  -1.592  0.00  0.00     0.038 C 
ATOM     56  H   LIG d   1      11.606   6.965  -1.900  0.00  0.00     0.040 H 
BRANCH  55  57
ATOM     57  C   LIG d   1      10.703   5.710  -0.381  0.00  0.00    -0.054 C 
ATOM     58  H   LIG d   1      11.759   5.473  -0.190  0.00  0.00     0.024 H 
ATOM     59  H   LIG d   1      10.148   4.782  -0.585  0.00  0.00     0.024 H 
ATOM     60  H   LIG d   1      10.273   6.208   0.500  0.00  0.00     0.024 H 
ENDBRANCH  55  57
BRANCH  55  61
ATOM     61  C   LIG d   1       9.793   7.858  -1.223  0.00  0.00     0.216 C 
ATOM     62  O   LIG d   1       8.643   7.735  -0.858  0.00  0.00    -0.276 OA
ATOM     63  N   LIG d   1      10.349   9.084  -1.298  0.00  0.00    -0.312 N 
ATOM     64  H   LIG d   1      11.392   9.195  -1.629  0.00  0.00     0.149 HD
BRANCH  63  65
ATOM     65  C   LIG d   1       9.564  10.268  -0.938  0.00  0.00     0.023 A 
ATOM     66  C   LIG d   1       9.904  10.967   0.380  0.00  0.00    -0.033 A 
ATOM     67  C   LIG d   1      10.280  11.620  -0.953  0.00  0.00    -0.033 A 
ATOM     68  H   LIG d   1       8.978  11.161   0.940  0.00  0.00     0.028 H 
ATOM     69  H   LIG d   1      10.565  10.322   0.977  0.00  0.00     0.028 H 
ATOM     70  H   LIG d   1      11.252  11.515  -1.456  0.00  0.00     0.028 H 
ATOM     71  H   LIG d   1       9.665  12.355  -1.493  0.00  0.00     0.028 H 
ATOM     72  H   LIG d   1       8.662   9.843  -1.402  0.00  0.00     0.050 H 
ENDBRANCH  63  65
ENDBRANCH  55  61
ENDBRANCH  12  55
TORSDOF 9
ENDMDL
MODEL 7
REMARK VINA RESULT:      -5.8      5.439      8.377
REMARK  9 active torsions:
REMARK  status: ('A' for Active; 'I' for Inactive)
REMARK    1  A    between atoms: C_1  and  C_2 
REMARK    2  A    between atoms: C_4  and  N_28 
REMARK    3  A    between atoms: C_8  and  C_27 
REMARK    4  A    between atoms: C_11  and  O_26 
REMARK    5  A    between atoms: C_13  and  C_17 
REMARK    6  A    between atoms: C_17  and  C_19 
REMARK    7  A    between atoms: C_17  and  C_20 
REMARK       I    between atoms: C_20  and  N_22 
REMARK    8  A    between atoms: N_22  and  C_23 
REMARK       I    between atoms: N_28  and  C_29 
REMARK    9  A    between atoms: C_29  and  C_31 
ROOT
ATOM      1  C   LIG d   1       8.297  -0.952  -4.988  0.00  0.00    -0.020 C 
ATOM      2  H   LIG d   1       8.233  -0.523  -3.978  0.00  0.00     0.032 H 
ATOM      3  C   LIG d   1       9.294  -2.112  -4.988  0.00  0.00     0.026 C 
ATOM      4  H   LIG d   1       9.401  -2.532  -5.999  0.00  0.00     0.050 H 
ATOM      5  C   LIG d   1       8.826  -3.188  -4.005  0.00  0.00    -0.034 C 
ATOM      6  C   LIG d   1       7.447  -3.700  -4.429  0.00  0.00    -0.046 C 
ATOM      7  C   LIG d   1       6.450  -2.540  -4.430  0.00  0.00    -0.026 C 
ATOM      8  C   LIG d   1       6.918  -1.464  -5.413  0.00  0.00    -0.005 C 
ATOM      9  H   LIG d   1       6.982  -1.894  -6.423  0.00  0.00     0.033 H 
ATOM     10  C   LIG d   1       5.920  -0.306  -5.413  0.00  0.00     0.062 C 
ATOM     11  H   LIG d   1       5.879   0.185  -4.430  0.00  0.00     0.060 H 
ATOM     12  C   LIG d   1       4.543  -0.818  -5.837  0.00  0.00    -0.004 C 
ATOM     13  H   LIG d   1       4.606  -1.247  -6.848  0.00  0.00     0.033 H 
ATOM     14  C   LIG d   1       4.075  -1.893  -4.854  0.00  0.00    -0.047 C 
ATOM     15  C   LIG d   1       5.072  -3.053  -4.854  0.00  0.00    -0.047 C 
ATOM     16  H   LIG d   1       9.543  -4.021  -4.004  0.00  0.00     0.028 H 
ATOM     17  H   LIG d   1       8.762  -2.758  -2.994  0.00  0.00     0.028 H 
ATOM     18  H   LIG d   1       7.511  -4.129  -5.439  0.00  0.00     0.027 H 
ATOM     19  H   LIG d   1       7.110  -4.473  -3.722  0.00  0.00     0.027 H 
ATOM     20  H   LIG d   1       4.011  -1.463  -3.844  0.00  0.00     0.027 H 
ATOM     21  H   LIG d   1       3.083  -2.262  -5.159  0.00  0.00     0.027 H 
ATOM     22  H   LIG d   1       5.135  -3.482  -5.865  0.00  0.00     0.027 H 
ATOM     23  H   LIG d   1       4.735  -3.826  -4.147  0.00  0.00     0.027 H 
ENDROOT
BRANCH   3  24
ATOM     24  N   LIG d   1      10.613  -1.622  -4.582  0.00  0.00    -0.312 N 
ATOM     25  C   LIG d   1      11.724  -2.112  -5.166  0.00  0.00     0.216 C 
ATOM     26  O   LIG d   1      11.631  -2.961  -6.028  0.00  0.00    -0.276 OA
ATOM     27  H   LIG d   1      10.697  -0.852  -3.800  0.00  0.00     0.149 HD
BRANCH  25  28
ATOM     28  C   LIG d   1      13.081  -1.608  -4.748  0.00  0.00     0.036 C 
ATOM     29  C   LIG d   1      12.926  -0.272  -4.020  0.00  0.00    -0.042 C 
ATOM     30  C   LIG d   1      14.304   0.240  -3.595  0.00  0.00    -0.052 C 
ATOM     31  H   LIG d   1      12.455   0.460  -4.692  0.00  0.00     0.027 H 
ATOM     32  H   LIG d   1      12.297  -0.411  -3.129  0.00  0.00     0.027 H 
ATOM     33  C   LIG d   1      14.961  -0.778  -2.660  0.00  0.00    -0.053 C 
ATOM     34  H   LIG d   1      14.194   1.201  -3.071  0.00  0.00     0.026 H 
ATOM     35  H   LIG d   1      14.935   0.379  -4.486  0.00  0.00     0.026 H 
ATOM     36  C   LIG d   1      15.115  -2.114  -3.389  0.00  0.00    -0.052 C 
ATOM     37  H   LIG d   1      14.331  -0.917  -1.769  0.00  0.00     0.026 H 
ATOM     38  H   LIG d   1      15.951  -0.410  -2.354  0.00  0.00     0.026 H 
ATOM     39  C   LIG d   1      13.737  -2.627  -3.813  0.00  0.00    -0.042 C 
ATOM     40  H   LIG d   1      15.587  -2.846  -2.717  0.00  0.00     0.026 H 
ATOM     41  H   LIG d   1      15.746  -1.975  -4.279  0.00  0.00     0.026 H 
ATOM     42  H   LIG d   1      13.108  -2.765  -2.922  0.00  0.00     0.027 H 
ATOM     43  H   LIG d   1      13.848  -3.586  -4.337  0.00  0.00     0.027 H 
ATOM     44  H   LIG d   1      13.700  -1.474  -5.648  0.00  0.00     0.039 H 
ENDBRANCH  25  28
ENDBRANCH   3  24
BRANCH   1  45
ATOM     45  C   LIG d   1       8.764   0.123  -5.972  0.00  0.00    -0.060 C 
ATOM     46  H   LIG d   1       8.104   1.000  -5.896  0.00  0.00     0.023 H 
ATOM     47  H   LIG d   1       8.729  -0.276  -6.996  0.00  0.00     0.023 H 
ATOM     48  H   LIG d   1       9.795   0.419  -5.729  0.00  0.00     0.023 H 
ENDBRANCH   1  45
BRANCH   7  49
ATOM     49  C   LIG d   1       6.361  -1.942  -3.024  0.00  0.00    -0.059 C 
ATOM     50  H   LIG d   1       7.276  -1.372  -2.809  0.00  0.00     0.024 H 
ATOM     51  H   LIG d   1       6.252  -2.753  -2.288  0.00  0.00     0.024 H 
ATOM     52  H   LIG d   1       5.490  -1.275  -2.964  0.00  0.00     0.024 H 
ENDBRANCH   7  49
BRANCH  10  53
ATOM     53  O   LIG d   1       6.358   0.698  -6.331  0.00  0.00    -0.391 OA
ATOM     54  H   LIG d   1       5.945   1.716  -6.271  0.00  0.00     0.210 HD
ENDBRANCH  10  53
BRANCH  12  55
ATOM     55  C   LIG d   1       3.545   0.342  -5.838  0.00  0.00     0.038 C 
ATOM     56  H   LIG d   1       4.048   1.268  -5.524  0.00  0.00     0.040 H 
BRANCH  55  57
ATOM     57  C   LIG d   1       2.394   0.025  -4.880  0.00  0.00    -0.054 C 
ATOM     58  H   LIG d   1       2.734  -0.701  -4.127  0.00  0.00     0.024 H 
ATOM     59  H   LIG d   1       1.552  -0.400  -5.447  0.00  0.00     0.024 H 
ATOM     60  H   LIG d   1       2.070   0.949  -4.380  0.00  0.00     0.024 H 
ENDBRANCH  55  57
BRANCH  55  61
ATOM     61  C   LIG d   1       3.002   0.537  -7.230  0.00  0.00     0.216 C 
ATOM     62  O   LIG d   1       3.076   1.624  -7.762  0.00  0.00    -0.276 OA
ATOM     63  N   LIG d   1       2.434  -0.496  -7.883  0.00  0.00    -0.312 N 
ATOM     64  H   LIG d   1       2.367  -1.481  -7.400  0.00  0.00     0.149 HD
BRANCH  63  65
ATOM     65  C   LIG d   1       1.906  -0.305  -9.237  0.00  0.00     0.023 A 
ATOM     66  C   LIG d   1       2.790  -0.741 -10.407  0.00  0.00    -0.033 A 
ATOM     67  C   LIG d   1       1.550  -1.559 -10.039  0.00  0.00    -0.033 A 
ATOM     68  H   LIG d   1       2.819   0.059 -11.161  0.00  0.00     0.028 H 
ATOM     69  H   LIG d   1       3.810  -0.938 -10.043  0.00  0.00     0.028 H 
ATOM     70  H   LIG d   1       1.545  -2.433  -9.370  0.00  0.00     0.028 H 
ATOM     71  H   LIG d   1       0.555  -1.436 -10.489  0.00  0.00     0.028 H 
ATOM     72  H   LIG d   1       1.388   0.616  -8.933  0.00  0.00     0.050 H 
ENDBRANCH  63  65
ENDBRANCH  55  61
ENDBRANCH  12  55
TORSDOF 9
ENDMDL
MODEL 8
REMARK VINA RESULT:      -5.8      5.311      9.436
REMARK  9 active torsions:
REMARK  status: ('A' for Active; 'I' for Inactive)
REMARK    1  A    between atoms: C_1  and  C_2 
REMARK    2  A    between atoms: C_4  and  N_28 
REMARK    3  A    between atoms: C_8  and  C_27 
REMARK    4  A    between atoms: C_11  and  O_26 
REMARK    5  A    between atoms: C_13  and  C_17 
REMARK    6  A    between atoms: C_17  and  C_19 
REMARK    7  A    between atoms: C_17  and  C_20 
REMARK       I    between atoms: C_20  and  N_22 
REMARK    8  A    between atoms: N_22  and  C_23 
REMARK       I    between atoms: N_28  and  C_29 
REMARK    9  A    between atoms: C_29  and  C_31 
ROOT
ATOM      1  C   LIG d   1      10.517   6.841  -2.474  0.00  0.00    -0.020 C 
ATOM      2  H   LIG d   1      11.604   6.704  -2.564  0.00  0.00     0.032 H 
ATOM      3  C   LIG d   1      10.188   8.335  -2.474  0.00  0.00     0.026 C 
ATOM      4  H   LIG d   1       9.107   8.495  -2.348  0.00  0.00     0.050 H 
ATOM      5  C   LIG d   1      10.676   8.964  -3.782  0.00  0.00    -0.034 C 
ATOM      6  C   LIG d   1       9.978   8.287  -4.963  0.00  0.00    -0.046 C 
ATOM      7  C   LIG d   1      10.306   6.793  -4.963  0.00  0.00    -0.026 C 
ATOM      8  C   LIG d   1       9.819   6.164  -3.655  0.00  0.00    -0.005 C 
ATOM      9  H   LIG d   1       8.731   6.301  -3.566  0.00  0.00     0.033 H 
ATOM     10  C   LIG d   1      10.146   4.670  -3.656  0.00  0.00     0.062 C 
ATOM     11  H   LIG d   1      11.233   4.501  -3.683  0.00  0.00     0.060 H 
ATOM     12  C   LIG d   1       9.449   3.995  -4.837  0.00  0.00    -0.004 C 
ATOM     13  H   LIG d   1       8.361   4.131  -4.747  0.00  0.00     0.033 H 
ATOM     14  C   LIG d   1       9.936   4.623  -6.144  0.00  0.00    -0.047 C 
ATOM     15  C   LIG d   1       9.608   6.118  -6.145  0.00  0.00    -0.047 C 
ATOM     16  H   LIG d   1      10.440  10.038  -3.783  0.00  0.00     0.028 H 
ATOM     17  H   LIG d   1      11.764   8.827  -3.871  0.00  0.00     0.028 H 
ATOM     18  H   LIG d   1       8.890   8.424  -4.874  0.00  0.00     0.027 H 
ATOM     19  H   LIG d   1      10.328   8.739  -5.904  0.00  0.00     0.027 H 
ATOM     20  H   LIG d   1      11.023   4.486  -6.234  0.00  0.00     0.027 H 
ATOM     21  H   LIG d   1       9.434   4.137  -6.994  0.00  0.00     0.027 H 
ATOM     22  H   LIG d   1       8.520   6.253  -6.056  0.00  0.00     0.027 H 
ATOM     23  H   LIG d   1       9.958   6.569  -7.085  0.00  0.00     0.027 H 
ENDROOT
BRANCH   3  24
ATOM     24  N   LIG d   1      10.856   8.983  -1.343  0.00  0.00    -0.312 N 
ATOM     25  C   LIG d   1      10.138   9.697  -0.455  0.00  0.00     0.216 C 
ATOM     26  O   LIG d   1       8.938   9.804  -0.592  0.00  0.00    -0.276 OA
ATOM     27  H   LIG d   1      11.946   8.885  -1.219  0.00  0.00     0.149 HD
BRANCH  25  28
ATOM     28  C   LIG d   1      10.826  10.363   0.709  0.00  0.00     0.036 C 
ATOM     29  C   LIG d   1      11.663   9.331   1.465  0.00  0.00    -0.042 C 
ATOM     30  C   LIG d   1      12.362  10.007   2.647  0.00  0.00    -0.052 C 
ATOM     31  H   LIG d   1      11.009   8.529   1.838  0.00  0.00     0.027 H 
ATOM     32  H   LIG d   1      12.419   8.904   0.789  0.00  0.00     0.027 H 
ATOM     33  C   LIG d   1      13.273  11.124   2.130  0.00  0.00    -0.053 C 
ATOM     34  H   LIG d   1      12.965   9.266   3.191  0.00  0.00     0.026 H 
ATOM     35  H   LIG d   1      11.607  10.435   3.324  0.00  0.00     0.026 H 
ATOM     36  C   LIG d   1      12.435  12.155   1.373  0.00  0.00    -0.052 C 
ATOM     37  H   LIG d   1      14.028  10.696   1.453  0.00  0.00     0.026 H 
ATOM     38  H   LIG d   1      13.775  11.610   2.978  0.00  0.00     0.026 H 
ATOM     39  C   LIG d   1      11.737  11.479   0.191  0.00  0.00    -0.042 C 
ATOM     40  H   LIG d   1      13.090  12.958   1.001  0.00  0.00     0.026 H 
ATOM     41  H   LIG d   1      11.681  12.583   2.050  0.00  0.00     0.026 H 
ATOM     42  H   LIG d   1      12.492  11.052  -0.485  0.00  0.00     0.027 H 
ATOM     43  H   LIG d   1      11.134  12.221  -0.352  0.00  0.00     0.027 H 
ATOM     44  H   LIG d   1      10.060  10.785   1.376  0.00  0.00     0.039 H 
ENDBRANCH  25  28
ENDBRANCH   3  24
BRANCH   1  45
ATOM     45  C   LIG d   1      10.029   6.212  -1.167  0.00  0.00    -0.060 C 
ATOM     46  H   LIG d   1      10.209   6.909  -0.335  0.00  0.00     0.023 H 
ATOM     47  H   LIG d   1      10.575   5.274  -0.985  0.00  0.00     0.023 H 
ATOM     48  H   LIG d   1       8.952   6.001  -1.241  0.00  0.00     0.023 H 
ENDBRANCH   1  45
BRANCH   7  49
ATOM     49  C   LIG d   1      11.819   6.603  -5.088  0.00  0.00    -0.059 C 
ATOM     50  H   LIG d   1      12.032   5.590  -5.460  0.00  0.00     0.024 H 
ATOM     51  H   LIG d   1      12.287   6.737  -4.101  0.00  0.00     0.024 H 
ATOM     52  H   LIG d   1      12.225   7.344  -5.790  0.00  0.00     0.024 H 
ENDBRANCH   7  49
BRANCH  10  53
ATOM     53  O   LIG d   1       9.691   4.084  -2.435  0.00  0.00    -0.391 OA
ATOM     54  H   LIG d   1       8.724   4.386  -2.005  0.00  0.00     0.210 HD
ENDBRANCH  10  53
BRANCH  12  55
ATOM     55  C   LIG d   1       9.776   2.500  -4.837  0.00  0.00     0.038 C 
ATOM     56  H   LIG d   1      10.268   2.225  -3.891  0.00  0.00     0.040 H 
BRANCH  55  57
ATOM     57  C   LIG d   1      10.700   2.180  -6.014  0.00  0.00    -0.054 C 
ATOM     58  H   LIG d   1      11.471   1.466  -5.691  0.00  0.00     0.024 H 
ATOM     59  H   LIG d   1      11.180   3.106  -6.366  0.00  0.00     0.024 H 
ATOM     60  H   LIG d   1      10.111   1.739  -6.832  0.00  0.00     0.024 H 
ENDBRANCH  55  57
BRANCH  55  61
ATOM     61  C   LIG d   1       8.503   1.706  -4.966  0.00  0.00     0.216 C 
ATOM     62  O   LIG d   1       7.787   1.862  -5.933  0.00  0.00    -0.276 OA
ATOM     63  N   LIG d   1       8.159   0.821  -4.009  0.00  0.00    -0.312 N 
ATOM     64  H   LIG d   1       8.809   0.679  -3.134  0.00  0.00     0.149 HD
BRANCH  63  65
ATOM     65  C   LIG d   1       6.921   0.048  -4.137  0.00  0.00     0.023 A 
ATOM     66  C   LIG d   1       6.775  -1.202  -3.266  0.00  0.00    -0.033 A 
ATOM     67  C   LIG d   1       5.960   0.053  -2.946  0.00  0.00    -0.033 A 
ATOM     68  H   LIG d   1       6.428  -2.041  -3.886  0.00  0.00     0.028 H 
ATOM     69  H   LIG d   1       7.750  -1.454  -2.821  0.00  0.00     0.028 H 
ATOM     70  H   LIG d   1       6.260   0.838  -2.236  0.00  0.00     0.028 H 
ATOM     71  H   LIG d   1       4.938   0.251  -3.301  0.00  0.00     0.028 H 
ATOM     72  H   LIG d   1       6.856   0.280  -5.210  0.00  0.00     0.050 H 
ENDBRANCH  63  65
ENDBRANCH  55  61
ENDBRANCH  12  55
TORSDOF 9
ENDMDL
MODEL 9
REMARK VINA RESULT:      -5.6      4.061      9.028
REMARK  9 active torsions:
REMARK  status: ('A' for Active; 'I' for Inactive)
REMARK    1  A    between atoms: C_1  and  C_2 
REMARK    2  A    between atoms: C_4  and  N_28 
REMARK    3  A    between atoms: C_8  and  C_27 
REMARK    4  A    between atoms: C_11  and  O_26 
REMARK    5  A    between atoms: C_13  and  C_17 
REMARK    6  A    between atoms: C_17  and  C_19 
REMARK    7  A    between atoms: C_17  and  C_20 
REMARK       I    between atoms: C_20  and  N_22 
REMARK    8  A    between atoms: N_22  and  C_23 
REMARK       I    between atoms: N_28  and  C_29 
REMARK    9  A    between atoms: C_29  and  C_31 
ROOT
ATOM      1  C   LIG d   1      10.531   5.013  -4.024  0.00  0.00    -0.020 C 
ATOM      2  H   LIG d   1      11.507   4.507  -4.043  0.00  0.00     0.032 H 
ATOM      3  C   LIG d   1      10.697   6.464  -4.477  0.00  0.00     0.026 C 
ATOM      4  H   LIG d   1       9.737   6.998  -4.430  0.00  0.00     0.050 H 
ATOM      5  C   LIG d   1      11.258   6.492  -5.901  0.00  0.00    -0.034 C 
ATOM      6  C   LIG d   1      10.293   5.770  -6.843  0.00  0.00    -0.046 C 
ATOM      7  C   LIG d   1      10.126   4.319  -6.390  0.00  0.00    -0.026 C 
ATOM      8  C   LIG d   1       9.565   4.291  -4.966  0.00  0.00    -0.005 C 
ATOM      9  H   LIG d   1       8.588   4.796  -4.948  0.00  0.00     0.033 H 
ATOM     10  C   LIG d   1       9.397   2.840  -4.514  0.00  0.00     0.062 C 
ATOM     11  H   LIG d   1      10.368   2.323  -4.464  0.00  0.00     0.060 H 
ATOM     12  C   LIG d   1       8.433   2.119  -5.456  0.00  0.00    -0.004 C 
ATOM     13  H   LIG d   1       7.455   2.623  -5.437  0.00  0.00     0.033 H 
ATOM     14  C   LIG d   1       8.993   2.147  -6.879  0.00  0.00    -0.047 C 
ATOM     15  C   LIG d   1       9.160   3.598  -7.333  0.00  0.00    -0.047 C 
ATOM     16  H   LIG d   1      11.378   7.535  -6.228  0.00  0.00     0.028 H 
ATOM     17  H   LIG d   1      12.236   5.987  -5.920  0.00  0.00     0.028 H 
ATOM     18  H   LIG d   1       9.316   6.276  -6.824  0.00  0.00     0.027 H 
ATOM     19  H   LIG d   1      10.696   5.790  -7.867  0.00  0.00     0.027 H 
ATOM     20  H   LIG d   1       9.970   1.642  -6.898  0.00  0.00     0.027 H 
ATOM     21  H   LIG d   1       8.299   1.628  -7.557  0.00  0.00     0.027 H 
ATOM     22  H   LIG d   1       8.183   4.103  -7.314  0.00  0.00     0.027 H 
ATOM     23  H   LIG d   1       9.564   3.618  -8.356  0.00  0.00     0.027 H 
ENDROOT
BRANCH   3  24
ATOM     24  N   LIG d   1      11.622   7.155  -3.575  0.00  0.00    -0.312 N 
ATOM     25  C   LIG d   1      11.252   8.307  -2.984  0.00  0.00     0.216 C 
ATOM     26  O   LIG d   1      10.153   8.774  -3.200  0.00  0.00    -0.276 OA
ATOM     27  H   LIG d   1      12.619   6.731  -3.380  0.00  0.00     0.149 HD
BRANCH  25  28
ATOM     28  C   LIG d   1      12.203   9.018  -2.056  0.00  0.00     0.036 C 
ATOM     29  C   LIG d   1      11.455  10.122  -1.308  0.00  0.00    -0.042 C 
ATOM     30  C   LIG d   1      12.421  10.844  -0.365  0.00  0.00    -0.052 C 
ATOM     31  H   LIG d   1      11.044  10.842  -2.031  0.00  0.00     0.027 H 
ATOM     32  H   LIG d   1      10.635   9.680  -0.724  0.00  0.00     0.027 H 
ATOM     33  C   LIG d   1      12.994   9.844   0.641  0.00  0.00    -0.053 C 
ATOM     34  H   LIG d   1      11.884  11.638   0.174  0.00  0.00     0.026 H 
ATOM     35  H   LIG d   1      13.241  11.287  -0.949  0.00  0.00     0.026 H 
ATOM     36  C   LIG d   1      13.742   8.739  -0.108  0.00  0.00    -0.052 C 
ATOM     37  H   LIG d   1      12.173   9.401   1.225  0.00  0.00     0.026 H 
ATOM     38  H   LIG d   1      13.688  10.362   1.319  0.00  0.00     0.026 H 
ATOM     39  C   LIG d   1      12.776   8.017  -1.050  0.00  0.00    -0.042 C 
ATOM     40  H   LIG d   1      14.154   8.019   0.616  0.00  0.00     0.026 H 
ATOM     41  H   LIG d   1      14.562   9.182  -0.691  0.00  0.00     0.026 H 
ATOM     42  H   LIG d   1      11.956   7.575  -0.466  0.00  0.00     0.027 H 
ATOM     43  H   LIG d   1      13.313   7.224  -1.589  0.00  0.00     0.027 H 
ATOM     44  H   LIG d   1      13.017   9.455  -2.653  0.00  0.00     0.039 H 
ENDBRANCH  25  28
ENDBRANCH   3  24
BRANCH   1  45
ATOM     45  C   LIG d   1       9.969   4.984  -2.601  0.00  0.00    -0.060 C 
ATOM     46  H   LIG d   1       9.590   5.983  -2.336  0.00  0.00     0.023 H 
ATOM     47  H   LIG d   1      10.764   4.695  -1.898  0.00  0.00     0.023 H 
ATOM     48  H   LIG d   1       9.147   4.255  -2.545  0.00  0.00     0.023 H 
ENDBRANCH   1  45
BRANCH   7  49
ATOM     49  C   LIG d   1      11.485   3.616  -6.417  0.00  0.00    -0.059 C 
ATOM     50  H   LIG d   1      11.702   3.200  -5.423  0.00  0.00     0.024 H 
ATOM     51  H   LIG d   1      12.266   4.341  -6.691  0.00  0.00     0.024 H 
ATOM     52  H   LIG d   1      11.463   2.804  -7.157  0.00  0.00     0.024 H 
ENDBRANCH   7  49
BRANCH  10  53
ATOM     53  O   LIG d   1       8.874   2.813  -3.184  0.00  0.00    -0.391 OA
ATOM     54  H   LIG d   1       8.717   3.754  -2.636  0.00  0.00     0.210 HD
ENDBRANCH  10  53
BRANCH  12  55
ATOM     55  C   LIG d   1       8.265   0.667  -5.003  0.00  0.00     0.038 C 
ATOM     56  H   LIG d   1       8.899   0.474  -4.124  0.00  0.00     0.040 H 
BRANCH  55  57
ATOM     57  C   LIG d   1       8.660  -0.273  -6.144  0.00  0.00    -0.054 C 
ATOM     58  H   LIG d   1       9.677  -0.654  -5.969  0.00  0.00     0.024 H 
ATOM     59  H   LIG d   1       8.632   0.276  -7.097  0.00  0.00     0.024 H 
ATOM     60  H   LIG d   1       7.955  -1.116  -6.185  0.00  0.00     0.024 H 
ENDBRANCH  55  57
BRANCH  55  61
ATOM     61  C   LIG d   1       6.828   0.421  -4.624  0.00  0.00     0.216 C 
ATOM     62  O   LIG d   1       6.122  -0.263  -5.335  0.00  0.00    -0.276 OA
ATOM     63  N   LIG d   1       6.326   0.959  -3.494  0.00  0.00    -0.312 N 
ATOM     64  H   LIG d   1       6.967   1.578  -2.850  0.00  0.00     0.149 HD
BRANCH  63  65
ATOM     65  C   LIG d   1       4.929   0.718  -3.126  0.00  0.00     0.023 A 
ATOM     66  C   LIG d   1       4.644  -0.413  -2.135  0.00  0.00    -0.033 A 
ATOM     67  C   LIG d   1       4.510   1.046  -1.691  0.00  0.00    -0.033 A 
ATOM     68  H   LIG d   1       3.822  -1.035  -2.517  0.00  0.00     0.028 H 
ATOM     69  H   LIG d   1       5.546  -1.031  -2.015  0.00  0.00     0.028 H 
ATOM     70  H   LIG d   1       5.302   1.633  -1.203  0.00  0.00     0.028 H 
ATOM     71  H   LIG d   1       3.578   1.629  -1.705  0.00  0.00     0.028 H 
ATOM     72  H   LIG d   1       4.588   0.995  -4.134  0.00  0.00     0.050 H 
ENDBRANCH  63  65
ENDBRANCH  55  61
ENDBRANCH  12  55
TORSDOF 9
ENDMDL
