MODEL 1
REMARK VINA RESULT:      -5.0      0.000      0.000
REMARK  7 active torsions:
REMARK  status: ('A' for Active; 'I' for Inactive)
REMARK    1  A    between atoms: C_1  and  N_33 
REMARK    2  A    between atoms: C_2  and  N_33 
REMARK    3  A    between atoms: C_3  and  C_4 
REMARK    4  A    between atoms: C_3  and  N_33 
REMARK    5  A    between atoms: C_13  and  C_14 
REMARK    6  A    between atoms: C_14  and  O_16 
REMARK    7  A    between atoms: O_16  and  C_17 
ROOT
ATOM      1  C   LIG d   1       7.466   1.018  -3.961  0.00  0.00     0.022 A 
ATOM      2  C   LIG d   1       7.800  -0.088  -4.645  0.00  0.00     0.011 A 
ATOM      3  N   LIG d   1       6.830  -1.041  -4.492  0.00  0.00    -0.359 N 
ATOM      4  H   LIG d   1       6.850  -1.925  -4.891  0.00  0.00     0.165 HD
ATOM      5  C   LIG d   1       5.826  -0.564  -3.689  0.00  0.00     0.061 A 
ATOM      6  C   LIG d   1       6.176   0.748  -3.320  0.00  0.00     0.009 A 
ATOM      7  C   LIG d   1       5.330   1.490  -2.495  0.00  0.00    -0.052 A 
ATOM      8  C   LIG d   1       4.151   0.938  -2.041  0.00  0.00    -0.060 A 
ATOM      9  C   LIG d   1       3.793  -0.349  -2.397  0.00  0.00    -0.046 A 
ATOM     10  C   LIG d   1       4.624  -1.113  -3.216  0.00  0.00     0.083 A 
ATOM     11  H   LIG d   1       8.701  -0.207  -5.228  0.00  0.00     0.081 H 
ATOM     12  H   LIG d   1       5.599   2.497  -2.211  0.00  0.00     0.062 H 
ATOM     13  H   LIG d   1       3.500   1.517  -1.403  0.00  0.00     0.062 H 
ATOM     14  H   LIG d   1       2.866  -0.768  -2.034  0.00  0.00     0.063 H 
ENDROOT
BRANCH   1  15
ATOM     15  C   LIG d   1       8.264   2.292  -3.871  0.00  0.00    -0.004 C 
ATOM     16  H   LIG d   1       7.894   3.007  -4.607  0.00  0.00     0.087 H 
ATOM     17  H   LIG d   1       8.161   2.715  -2.871  0.00  0.00     0.087 H 
BRANCH  15  18
ATOM     18  N   LIG d   1       9.681   1.990  -4.163  0.00  0.00     0.234 N 
ATOM     19  H   LIG d   1       9.796   0.972  -4.233  0.00  0.00     0.203 HD
BRANCH  18  20
ATOM     20  C   LIG d   1      10.077   2.609  -5.445  0.00  0.00    -0.043 C 
ATOM     21  H   LIG d   1      10.619   1.893  -6.063  0.00  0.00     0.078 H 
ATOM     22  H   LIG d   1       9.181   2.937  -5.971  0.00  0.00     0.078 H 
ATOM     23  H   LIG d   1      10.715   3.468  -5.240  0.00  0.00     0.078 H 
ENDBRANCH  18  20
BRANCH  18  24
ATOM     24  C   LIG d   1      10.540   2.496  -3.071  0.00  0.00    -0.043 C 
ATOM     25  H   LIG d   1      11.532   2.055  -3.169  0.00  0.00     0.078 H 
ATOM     26  H   LIG d   1      10.615   3.581  -3.153  0.00  0.00     0.078 H 
ATOM     27  H   LIG d   1      10.119   2.233  -2.100  0.00  0.00     0.078 H 
ENDBRANCH  18  24
ENDBRANCH  15  18
ENDBRANCH   1  15
BRANCH  10  28
ATOM     28  C   LIG d   1       4.239  -2.488  -3.585  0.00  0.00     0.341 C 
ATOM     29  O   LIG d   1       3.810  -3.247  -2.738  0.00  0.00    -0.245 OA
BRANCH  28  30
ATOM     30  O   LIG d   1       4.361  -2.902  -4.862  0.00  0.00    -0.464 OA
BRANCH  30  31
ATOM     31  C   LIG d   1       5.017  -4.177  -5.081  0.00  0.00     0.082 C 
ATOM     32  H   LIG d   1       5.519  -4.166  -6.049  0.00  0.00     0.066 H 
ATOM     33  H   LIG d   1       5.751  -4.349  -4.294  0.00  0.00     0.066 H 
ATOM     34  H   LIG d   1       4.275  -4.976  -5.067  0.00  0.00     0.066 H 
ENDBRANCH  30  31
ENDBRANCH  28  30
ENDBRANCH  10  28
TORSDOF 7
ENDMDL
MODEL 2
REMARK VINA RESULT:      -4.9      3.427      4.231
REMARK  7 active torsions:
REMARK  status: ('A' for Active; 'I' for Inactive)
REMARK    1  A    between atoms: C_1  and  N_33 
REMARK    2  A    between atoms: C_2  and  N_33 
REMARK    3  A    between atoms: C_3  and  C_4 
REMARK    4  A    between atoms: C_3  and  N_33 
REMARK    5  A    between atoms: C_13  and  C_14 
REMARK    6  A    between atoms: C_14  and  O_16 
REMARK    7  A    between atoms: O_16  and  C_17 
ROOT
ATOM      1  C   LIG d   1       6.737  -1.964  -4.336  0.00  0.00     0.022 A 
ATOM      2  C   LIG d   1       6.848  -1.328  -5.512  0.00  0.00     0.011 A 
ATOM      3  N   LIG d   1       5.690  -0.648  -5.784  0.00  0.00    -0.359 N 
ATOM      4  H   LIG d   1       5.531  -0.114  -6.578  0.00  0.00     0.165 HD
ATOM      5  C   LIG d   1       4.788  -0.834  -4.769  0.00  0.00     0.061 A 
ATOM      6  C   LIG d   1       5.401  -1.666  -3.814  0.00  0.00     0.009 A 
ATOM      7  C   LIG d   1       4.709  -2.030  -2.658  0.00  0.00    -0.052 A 
ATOM      8  C   LIG d   1       3.425  -1.573  -2.450  0.00  0.00    -0.060 A 
ATOM      9  C   LIG d   1       2.810  -0.754  -3.379  0.00  0.00    -0.046 A 
ATOM     10  C   LIG d   1       3.478  -0.381  -4.545  0.00  0.00     0.083 A 
ATOM     11  H   LIG d   1       7.719  -1.348  -6.150  0.00  0.00     0.081 H 
ATOM     12  H   LIG d   1       5.180  -2.669  -1.925  0.00  0.00     0.062 H 
ATOM     13  H   LIG d   1       2.895  -1.857  -1.554  0.00  0.00     0.062 H 
ATOM     14  H   LIG d   1       1.803  -0.404  -3.203  0.00  0.00     0.063 H 
ENDROOT
BRANCH   1  15
ATOM     15  C   LIG d   1       7.788  -2.821  -3.679  0.00  0.00    -0.004 C 
ATOM     16  H   LIG d   1       8.440  -2.195  -3.069  0.00  0.00     0.087 H 
ATOM     17  H   LIG d   1       7.305  -3.566  -3.046  0.00  0.00     0.087 H 
BRANCH  15  18
ATOM     18  N   LIG d   1       8.593  -3.479  -4.729  0.00  0.00     0.234 N 
ATOM     19  H   LIG d   1       8.293  -3.129  -5.647  0.00  0.00     0.203 HD
BRANCH  18  20
ATOM     20  C   LIG d   1      10.025  -3.164  -4.540  0.00  0.00    -0.043 C 
ATOM     21  H   LIG d   1      10.619  -4.077  -4.530  0.00  0.00     0.078 H 
ATOM     22  H   LIG d   1      10.358  -2.522  -5.356  0.00  0.00     0.078 H 
ATOM     23  H   LIG d   1      10.148  -2.641  -3.591  0.00  0.00     0.078 H 
ENDBRANCH  18  20
BRANCH  18  24
ATOM     24  C   LIG d   1       8.387  -4.942  -4.682  0.00  0.00    -0.043 C 
ATOM     25  H   LIG d   1       8.067  -5.221  -3.679  0.00  0.00     0.078 H 
ATOM     26  H   LIG d   1       7.613  -5.214  -5.400  0.00  0.00     0.078 H 
ATOM     27  H   LIG d   1       9.311  -5.466  -4.928  0.00  0.00     0.078 H 
ENDBRANCH  18  24
ENDBRANCH  15  18
ENDBRANCH   1  15
BRANCH  10  28
ATOM     28  C   LIG d   1       2.814   0.487  -5.534  0.00  0.00     0.341 C 
ATOM     29  O   LIG d   1       2.431   1.595  -5.210  0.00  0.00    -0.245 OA
BRANCH  28  30
ATOM     30  O   LIG d   1       2.633   0.055  -6.797  0.00  0.00    -0.464 OA
BRANCH  30  31
ATOM     31  C   LIG d   1       3.060   0.941  -7.865  0.00  0.00     0.082 C 
ATOM     32  H   LIG d   1       2.185   1.318  -8.396  0.00  0.00     0.066 H 
ATOM     33  H   LIG d   1       3.617   1.778  -7.442  0.00  0.00     0.066 H 
ATOM     34  H   LIG d   1       3.698   0.394  -8.560  0.00  0.00     0.066 H 
ENDBRANCH  30  31
ENDBRANCH  28  30
ENDBRANCH  10  28
TORSDOF 7
ENDMDL
MODEL 3
REMARK VINA RESULT:      -4.8      2.504      5.642
REMARK  7 active torsions:
REMARK  status: ('A' for Active; 'I' for Inactive)
REMARK    1  A    between atoms: C_1  and  N_33 
REMARK    2  A    between atoms: C_2  and  N_33 
REMARK    3  A    between atoms: C_3  and  C_4 
REMARK    4  A    between atoms: C_3  and  N_33 
REMARK    5  A    between atoms: C_13  and  C_14 
REMARK    6  A    between atoms: C_14  and  O_16 
REMARK    7  A    between atoms: O_16  and  C_17 
ROOT
ATOM      1  C   LIG d   1       6.029  -3.460  -5.147  0.00  0.00     0.022 A 
ATOM      2  C   LIG d   1       6.931  -2.610  -5.662  0.00  0.00     0.011 A 
ATOM      3  N   LIG d   1       6.827  -1.391  -5.046  0.00  0.00    -0.359 N 
ATOM      4  H   LIG d   1       7.374  -0.616  -5.250  0.00  0.00     0.165 HD
ATOM      5  C   LIG d   1       5.837  -1.428  -4.099  0.00  0.00     0.061 A 
ATOM      6  C   LIG d   1       5.291  -2.725  -4.117  0.00  0.00     0.009 A 
ATOM      7  C   LIG d   1       4.251  -3.056  -3.247  0.00  0.00    -0.052 A 
ATOM      8  C   LIG d   1       3.759  -2.114  -2.369  0.00  0.00    -0.060 A 
ATOM      9  C   LIG d   1       4.286  -0.836  -2.340  0.00  0.00    -0.046 A 
ATOM     10  C   LIG d   1       5.321  -0.478  -3.202  0.00  0.00     0.083 A 
ATOM     11  H   LIG d   1       7.632  -2.850  -6.447  0.00  0.00     0.081 H 
ATOM     12  H   LIG d   1       3.832  -4.052  -3.261  0.00  0.00     0.062 H 
ATOM     13  H   LIG d   1       2.954  -2.376  -1.698  0.00  0.00     0.062 H 
ATOM     14  H   LIG d   1       3.890  -0.108  -1.646  0.00  0.00     0.063 H 
ENDROOT
BRANCH   1  15
ATOM     15  C   LIG d   1       5.818  -4.896  -5.550  0.00  0.00    -0.004 C 
ATOM     16  H   LIG d   1       6.770  -5.427  -5.523  0.00  0.00     0.087 H 
ATOM     17  H   LIG d   1       5.119  -5.368  -4.860  0.00  0.00     0.087 H 
BRANCH  15  18
ATOM     18  N   LIG d   1       5.286  -4.930  -6.929  0.00  0.00     0.234 N 
ATOM     19  H   LIG d   1       5.580  -4.078  -7.421  0.00  0.00     0.203 HD
BRANCH  18  20
ATOM     20  C   LIG d   1       5.819  -6.107  -7.648  0.00  0.00    -0.043 C 
ATOM     21  H   LIG d   1       5.172  -6.370  -8.484  0.00  0.00     0.078 H 
ATOM     22  H   LIG d   1       6.816  -5.874  -8.020  0.00  0.00     0.078 H 
ATOM     23  H   LIG d   1       5.875  -6.947  -6.955  0.00  0.00     0.078 H 
ENDBRANCH  18  20
BRANCH  18  24
ATOM     24  C   LIG d   1       3.809  -4.983  -6.899  0.00  0.00    -0.043 C 
ATOM     25  H   LIG d   1       3.494  -6.021  -6.795  0.00  0.00     0.078 H 
ATOM     26  H   LIG d   1       3.451  -4.408  -6.045  0.00  0.00     0.078 H 
ATOM     27  H   LIG d   1       3.392  -4.567  -7.817  0.00  0.00     0.078 H 
ENDBRANCH  18  24
ENDBRANCH  15  18
ENDBRANCH   1  15
BRANCH  10  28
ATOM     28  C   LIG d   1       5.874   0.888  -3.170  0.00  0.00     0.341 C 
ATOM     29  O   LIG d   1       5.615   1.626  -2.239  0.00  0.00    -0.245 OA
BRANCH  28  30
ATOM     30  O   LIG d   1       6.668   1.318  -4.170  0.00  0.00    -0.464 OA
BRANCH  30  31
ATOM     31  C   LIG d   1       7.991   1.791  -3.805  0.00  0.00     0.082 C 
ATOM     32  H   LIG d   1       8.736   1.054  -4.107  0.00  0.00     0.066 H 
ATOM     33  H   LIG d   1       8.191   2.737  -4.307  0.00  0.00     0.066 H 
ATOM     34  H   LIG d   1       8.041   1.935  -2.725  0.00  0.00     0.066 H 
ENDBRANCH  30  31
ENDBRANCH  28  30
ENDBRANCH  10  28
TORSDOF 7
ENDMDL
MODEL 4
REMARK VINA RESULT:      -4.7      2.714      3.970
REMARK  7 active torsions:
REMARK  status: ('A' for Active; 'I' for Inactive)
REMARK    1  A    between atoms: C_1  and  N_33 
REMARK    2  A    between atoms: C_2  and  N_33 
REMARK    3  A    between atoms: C_3  and  C_4 
REMARK    4  A    between atoms: C_3  and  N_33 
REMARK    5  A    between atoms: C_13  and  C_14 
REMARK    6  A    between atoms: C_14  and  O_16 
REMARK    7  A    between atoms: O_16  and  C_17 
ROOT
ATOM      1  C   LIG d   1       7.228  -1.359  -4.842  0.00  0.00     0.022 A 
ATOM      2  C   LIG d   1       7.317  -0.037  -5.056  0.00  0.00     0.011 A 
ATOM      3  N   LIG d   1       6.231   0.596  -4.512  0.00  0.00    -0.359 N 
ATOM      4  H   LIG d   1       6.073   1.553  -4.540  0.00  0.00     0.165 HD
ATOM      5  C   LIG d   1       5.399  -0.321  -3.923  0.00  0.00     0.061 A 
ATOM      6  C   LIG d   1       5.985  -1.588  -4.102  0.00  0.00     0.009 A 
ATOM      7  C   LIG d   1       5.352  -2.726  -3.599  0.00  0.00    -0.052 A 
ATOM      8  C   LIG d   1       4.154  -2.610  -2.928  0.00  0.00    -0.060 A 
ATOM      9  C   LIG d   1       3.567  -1.370  -2.744  0.00  0.00    -0.046 A 
ATOM     10  C   LIG d   1       4.176  -0.219  -3.241  0.00  0.00     0.083 A 
ATOM     11  H   LIG d   1       8.124   0.454  -5.579  0.00  0.00     0.081 H 
ATOM     12  H   LIG d   1       5.801  -3.699  -3.737  0.00  0.00     0.062 H 
ATOM     13  H   LIG d   1       3.668  -3.493  -2.541  0.00  0.00     0.062 H 
ATOM     14  H   LIG d   1       2.627  -1.295  -2.216  0.00  0.00     0.063 H 
ENDROOT
BRANCH   1  15
ATOM     15  C   LIG d   1       8.218  -2.407  -5.281  0.00  0.00    -0.004 C 
ATOM     16  H   LIG d   1       7.703  -3.358  -5.423  0.00  0.00     0.087 H 
ATOM     17  H   LIG d   1       8.679  -2.100  -6.220  0.00  0.00     0.087 H 
BRANCH  15  18
ATOM     18  N   LIG d   1       9.243  -2.565  -4.228  0.00  0.00     0.234 N 
ATOM     19  H   LIG d   1       9.189  -1.764  -3.588  0.00  0.00     0.203 HD
BRANCH  18  20
ATOM     20  C   LIG d   1       8.997  -3.807  -3.465  0.00  0.00    -0.043 C 
ATOM     21  H   LIG d   1       9.895  -4.109  -2.926  0.00  0.00     0.078 H 
ATOM     22  H   LIG d   1       8.189  -3.632  -2.755  0.00  0.00     0.078 H 
ATOM     23  H   LIG d   1       8.708  -4.596  -4.160  0.00  0.00     0.078 H 
ENDBRANCH  18  20
BRANCH  18  24
ATOM     24  C   LIG d   1      10.590  -2.605  -4.837  0.00  0.00    -0.043 C 
ATOM     25  H   LIG d   1      11.322  -2.823  -4.060  0.00  0.00     0.078 H 
ATOM     26  H   LIG d   1      10.615  -3.392  -5.591  0.00  0.00     0.078 H 
ATOM     27  H   LIG d   1      10.827  -1.648  -5.302  0.00  0.00     0.078 H 
ENDBRANCH  18  24
ENDBRANCH  15  18
ENDBRANCH   1  15
BRANCH  10  28
ATOM     28  C   LIG d   1       3.543   1.098  -3.047  0.00  0.00     0.341 C 
ATOM     29  O   LIG d   1       3.390   1.539  -1.925  0.00  0.00    -0.245 OA
BRANCH  28  30
ATOM     30  O   LIG d   1       3.134   1.813  -4.114  0.00  0.00    -0.464 OA
BRANCH  30  31
ATOM     31  C   LIG d   1       2.363   1.110  -5.123  0.00  0.00     0.082 C 
ATOM     32  H   LIG d   1       2.032   0.151  -4.724  0.00  0.00     0.066 H 
ATOM     33  H   LIG d   1       1.494   1.708  -5.399  0.00  0.00     0.066 H 
ATOM     34  H   LIG d   1       2.984   0.942  -6.004  0.00  0.00     0.066 H 
ENDBRANCH  30  31
ENDBRANCH  28  30
ENDBRANCH  10  28
TORSDOF 7
ENDMDL
MODEL 5
REMARK VINA RESULT:      -4.7      4.049      4.992
REMARK  7 active torsions:
REMARK  status: ('A' for Active; 'I' for Inactive)
REMARK    1  A    between atoms: C_1  and  N_33 
REMARK    2  A    between atoms: C_2  and  N_33 
REMARK    3  A    between atoms: C_3  and  C_4 
REMARK    4  A    between atoms: C_3  and  N_33 
REMARK    5  A    between atoms: C_13  and  C_14 
REMARK    6  A    between atoms: C_14  and  O_16 
REMARK    7  A    between atoms: O_16  and  C_17 
ROOT
ATOM      1  C   LIG d   1       3.349  -0.335  -7.783  0.00  0.00     0.022 A 
ATOM      2  C   LIG d   1       4.032  -1.486  -7.887  0.00  0.00     0.011 A 
ATOM      3  N   LIG d   1       4.342  -1.957  -6.639  0.00  0.00    -0.359 N 
ATOM      4  H   LIG d   1       4.833  -2.774  -6.458  0.00  0.00     0.165 HD
ATOM      5  C   LIG d   1       3.858  -1.103  -5.682  0.00  0.00     0.061 A 
ATOM      6  C   LIG d   1       3.213  -0.048  -6.353  0.00  0.00     0.009 A 
ATOM      7  C   LIG d   1       2.618   0.982  -5.624  0.00  0.00    -0.052 A 
ATOM      8  C   LIG d   1       2.660   0.967  -4.246  0.00  0.00    -0.060 A 
ATOM      9  C   LIG d   1       3.290  -0.064  -3.573  0.00  0.00    -0.046 A 
ATOM     10  C   LIG d   1       3.897  -1.102  -4.278  0.00  0.00     0.083 A 
ATOM     11  H   LIG d   1       4.297  -1.969  -8.815  0.00  0.00     0.081 H 
ATOM     12  H   LIG d   1       2.123   1.793  -6.139  0.00  0.00     0.062 H 
ATOM     13  H   LIG d   1       2.198   1.767  -3.687  0.00  0.00     0.062 H 
ATOM     14  H   LIG d   1       3.316  -0.062  -2.493  0.00  0.00     0.063 H 
ENDROOT
BRANCH   1  15
ATOM     15  C   LIG d   1       2.825   0.501  -8.921  0.00  0.00    -0.004 C 
ATOM     16  H   LIG d   1       2.321  -0.141  -9.644  0.00  0.00     0.087 H 
ATOM     17  H   LIG d   1       2.118   1.237  -8.536  0.00  0.00     0.087 H 
BRANCH  15  18
ATOM     18  N   LIG d   1       3.962   1.173  -9.584  0.00  0.00     0.234 N 
ATOM     19  H   LIG d   1       4.838   0.757  -9.245  0.00  0.00     0.203 HD
BRANCH  18  20
ATOM     20  C   LIG d   1       3.877   0.988 -11.048  0.00  0.00    -0.043 C 
ATOM     21  H   LIG d   1       2.998   0.398 -11.307  0.00  0.00     0.078 H 
ATOM     22  H   LIG d   1       3.812   1.965 -11.525  0.00  0.00     0.078 H 
ATOM     23  H   LIG d   1       4.774   0.473 -11.391  0.00  0.00     0.078 H 
ENDBRANCH  18  20
BRANCH  18  24
ATOM     24  C   LIG d   1       3.957   2.615  -9.256  0.00  0.00    -0.043 C 
ATOM     25  H   LIG d   1       3.742   2.736  -8.195  0.00  0.00     0.078 H 
ATOM     26  H   LIG d   1       4.940   3.032  -9.477  0.00  0.00     0.078 H 
ATOM     27  H   LIG d   1       3.201   3.138  -9.842  0.00  0.00     0.078 H 
ENDBRANCH  18  24
ENDBRANCH  15  18
ENDBRANCH   1  15
BRANCH  10  28
ATOM     28  C   LIG d   1       4.572  -2.195  -3.554  0.00  0.00     0.341 C 
ATOM     29  O   LIG d   1       4.205  -3.343  -3.708  0.00  0.00    -0.245 OA
BRANCH  28  30
ATOM     30  O   LIG d   1       5.597  -1.921  -2.723  0.00  0.00    -0.464 OA
BRANCH  30  31
ATOM     31  C   LIG d   1       6.829  -1.450  -3.329  0.00  0.00     0.082 C 
ATOM     32  H   LIG d   1       6.864  -0.361  -3.283  0.00  0.00     0.066 H 
ATOM     33  H   LIG d   1       7.681  -1.864  -2.790  0.00  0.00     0.066 H 
ATOM     34  H   LIG d   1       6.868  -1.770  -4.371  0.00  0.00     0.066 H 
ENDBRANCH  30  31
ENDBRANCH  28  30
ENDBRANCH  10  28
TORSDOF 7
ENDMDL
MODEL 6
REMARK VINA RESULT:      -4.7      2.271      3.195
REMARK  7 active torsions:
REMARK  status: ('A' for Active; 'I' for Inactive)
REMARK    1  A    between atoms: C_1  and  N_33 
REMARK    2  A    between atoms: C_2  and  N_33 
REMARK    3  A    between atoms: C_3  and  C_4 
REMARK    4  A    between atoms: C_3  and  N_33 
REMARK    5  A    between atoms: C_13  and  C_14 
REMARK    6  A    between atoms: C_14  and  O_16 
REMARK    7  A    between atoms: O_16  and  C_17 
ROOT
ATOM      1  C   LIG d   1       8.536   0.754  -4.691  0.00  0.00     0.022 A 
ATOM      2  C   LIG d   1       8.012   1.938  -4.337  0.00  0.00     0.011 A 
ATOM      3  N   LIG d   1       6.849   1.744  -3.641  0.00  0.00    -0.359 N 
ATOM      4  H   LIG d   1       6.290   2.451  -3.282  0.00  0.00     0.165 HD
ATOM      5  C   LIG d   1       6.590   0.402  -3.527  0.00  0.00     0.061 A 
ATOM      6  C   LIG d   1       7.634  -0.280  -4.178  0.00  0.00     0.009 A 
ATOM      7  C   LIG d   1       7.634  -1.675  -4.223  0.00  0.00    -0.052 A 
ATOM      8  C   LIG d   1       6.613  -2.385  -3.629  0.00  0.00    -0.060 A 
ATOM      9  C   LIG d   1       5.580  -1.727  -2.985  0.00  0.00    -0.046 A 
ATOM     10  C   LIG d   1       5.554  -0.334  -2.931  0.00  0.00     0.083 A 
ATOM     11  H   LIG d   1       8.443   2.901  -4.567  0.00  0.00     0.081 H 
ATOM     12  H   LIG d   1       8.436  -2.199  -4.723  0.00  0.00     0.062 H 
ATOM     13  H   LIG d   1       6.618  -3.464  -3.667  0.00  0.00     0.062 H 
ATOM     14  H   LIG d   1       4.786  -2.297  -2.524  0.00  0.00     0.063 H 
ENDROOT
BRANCH   1  15
ATOM     15  C   LIG d   1       9.808   0.532  -5.466  0.00  0.00    -0.004 C 
ATOM     16  H   LIG d   1       9.634  -0.206  -6.249  0.00  0.00     0.087 H 
ATOM     17  H   LIG d   1      10.127   1.472  -5.918  0.00  0.00     0.087 H 
BRANCH  15  18
ATOM     18  N   LIG d   1      10.846   0.023  -4.545  0.00  0.00     0.234 N 
ATOM     19  H   LIG d   1      10.395  -0.299  -3.680  0.00  0.00     0.203 HD
BRANCH  18  20
ATOM     20  C   LIG d   1      11.561  -1.112  -5.166  0.00  0.00    -0.043 C 
ATOM     21  H   LIG d   1      11.158  -2.059  -4.808  0.00  0.00     0.078 H 
ATOM     22  H   LIG d   1      11.445  -1.054  -6.248  0.00  0.00     0.078 H 
ATOM     23  H   LIG d   1      12.618  -1.046  -4.908  0.00  0.00     0.078 H 
ENDBRANCH  18  20
BRANCH  18  24
ATOM     24  C   LIG d   1      11.801   1.102  -4.215  0.00  0.00    -0.043 C 
ATOM     25  H   LIG d   1      11.286   2.060  -4.272  0.00  0.00     0.078 H 
ATOM     26  H   LIG d   1      12.173   0.949  -3.201  0.00  0.00     0.078 H 
ATOM     27  H   LIG d   1      12.639   1.098  -4.913  0.00  0.00     0.078 H 
ENDBRANCH  18  24
ENDBRANCH  15  18
ENDBRANCH   1  15
BRANCH  10  28
ATOM     28  C   LIG d   1       4.447   0.360  -2.249  0.00  0.00     0.341 C 
ATOM     29  O   LIG d   1       4.684   1.146  -1.352  0.00  0.00    -0.245 OA
BRANCH  28  30
ATOM     30  O   LIG d   1       3.173   0.125  -2.619  0.00  0.00    -0.464 OA
BRANCH  30  31
ATOM     31  C   LIG d   1       2.829   0.392  -4.004  0.00  0.00     0.082 C 
ATOM     32  H   LIG d   1       3.642   0.942  -4.480  0.00  0.00     0.066 H 
ATOM     33  H   LIG d   1       2.673  -0.551  -4.529  0.00  0.00     0.066 H 
ATOM     34  H   LIG d   1       1.916   0.987  -4.045  0.00  0.00     0.066 H 
ENDBRANCH  30  31
ENDBRANCH  28  30
ENDBRANCH  10  28
TORSDOF 7
ENDMDL
MODEL 7
REMARK VINA RESULT:      -4.6      4.106      5.712
REMARK  7 active torsions:
REMARK  status: ('A' for Active; 'I' for Inactive)
REMARK    1  A    between atoms: C_1  and  N_33 
REMARK    2  A    between atoms: C_2  and  N_33 
REMARK    3  A    between atoms: C_3  and  C_4 
REMARK    4  A    between atoms: C_3  and  N_33 
REMARK    5  A    between atoms: C_13  and  C_14 
REMARK    6  A    between atoms: C_14  and  O_16 
REMARK    7  A    between atoms: O_16  and  C_17 
ROOT
ATOM      1  C   LIG d   1       3.877  -0.433  -7.674  0.00  0.00     0.022 A 
ATOM      2  C   LIG d   1       2.827   0.210  -7.139  0.00  0.00     0.011 A 
ATOM      3  N   LIG d   1       2.816   0.034  -5.782  0.00  0.00    -0.359 N 
ATOM      4  H   LIG d   1       2.153   0.404  -5.178  0.00  0.00     0.165 HD
ATOM      5  C   LIG d   1       3.880  -0.743  -5.401  0.00  0.00     0.061 A 
ATOM      6  C   LIG d   1       4.594  -1.071  -6.568  0.00  0.00     0.009 A 
ATOM      7  C   LIG d   1       5.739  -1.864  -6.485  0.00  0.00    -0.052 A 
ATOM      8  C   LIG d   1       6.172  -2.325  -5.260  0.00  0.00    -0.060 A 
ATOM      9  C   LIG d   1       5.481  -2.009  -4.104  0.00  0.00    -0.046 A 
ATOM     10  C   LIG d   1       4.330  -1.224  -4.161  0.00  0.00     0.083 A 
ATOM     11  H   LIG d   1       2.099   0.782  -7.697  0.00  0.00     0.081 H 
ATOM     12  H   LIG d   1       6.287  -2.117  -7.380  0.00  0.00     0.062 H 
ATOM     13  H   LIG d   1       7.059  -2.938  -5.201  0.00  0.00     0.062 H 
ATOM     14  H   LIG d   1       5.832  -2.378  -3.151  0.00  0.00     0.063 H 
ENDROOT
BRANCH   1  15
ATOM     15  C   LIG d   1       4.245  -0.488  -9.134  0.00  0.00    -0.004 C 
ATOM     16  H   LIG d   1       5.241  -0.066  -9.275  0.00  0.00     0.087 H 
ATOM     17  H   LIG d   1       4.241  -1.525  -9.471  0.00  0.00     0.087 H 
BRANCH  15  18
ATOM     18  N   LIG d   1       3.268   0.311  -9.904  0.00  0.00     0.234 N 
ATOM     19  H   LIG d   1       2.587   0.719  -9.253  0.00  0.00     0.203 HD
BRANCH  18  20
ATOM     20  C   LIG d   1       3.961   1.401 -10.622  0.00  0.00    -0.043 C 
ATOM     21  H   LIG d   1       5.038   1.236 -10.621  0.00  0.00     0.078 H 
ATOM     22  H   LIG d   1       3.600   1.434 -11.650  0.00  0.00     0.078 H 
ATOM     23  H   LIG d   1       3.738   2.347 -10.127  0.00  0.00     0.078 H 
ENDBRANCH  18  20
BRANCH  18  24
ATOM     24  C   LIG d   1       2.555  -0.555 -10.866  0.00  0.00    -0.043 C 
ATOM     25  H   LIG d   1       2.222   0.051 -11.708  0.00  0.00     0.078 H 
ATOM     26  H   LIG d   1       3.238  -1.327 -11.223  0.00  0.00     0.078 H 
ATOM     27  H   LIG d   1       1.692  -1.024 -10.393  0.00  0.00     0.078 H 
ENDBRANCH  18  24
ENDBRANCH  15  18
ENDBRANCH   1  15
BRANCH  10  28
ATOM     28  C   LIG d   1       3.595  -0.896  -2.926  0.00  0.00     0.341 C 
ATOM     29  O   LIG d   1       2.381  -0.967  -2.905  0.00  0.00    -0.245 OA
BRANCH  28  30
ATOM     30  O   LIG d   1       4.267  -0.520  -1.821  0.00  0.00    -0.464 OA
BRANCH  30  31
ATOM     31  C   LIG d   1       4.583   0.891  -1.690  0.00  0.00     0.082 C 
ATOM     32  H   LIG d   1       3.757   1.486  -2.079  0.00  0.00     0.066 H 
ATOM     33  H   LIG d   1       4.742   1.132  -0.639  0.00  0.00     0.066 H 
ATOM     34  H   LIG d   1       5.489   1.115  -2.255  0.00  0.00     0.066 H 
ENDBRANCH  30  31
ENDBRANCH  28  30
ENDBRANCH  10  28
TORSDOF 7
ENDMDL
MODEL 8
REMARK VINA RESULT:      -4.5      3.256      5.920
REMARK  7 active torsions:
REMARK  status: ('A' for Active; 'I' for Inactive)
REMARK    1  A    between atoms: C_1  and  N_33 
REMARK    2  A    between atoms: C_2  and  N_33 
REMARK    3  A    between atoms: C_3  and  C_4 
REMARK    4  A    between atoms: C_3  and  N_33 
REMARK    5  A    between atoms: C_13  and  C_14 
REMARK    6  A    between atoms: C_14  and  O_16 
REMARK    7  A    between atoms: O_16  and  C_17 
ROOT
ATOM      1  C   LIG d   1       4.378  -1.579  -7.181  0.00  0.00     0.022 A 
ATOM      2  C   LIG d   1       4.187  -0.255  -7.293  0.00  0.00     0.011 A 
ATOM      3  N   LIG d   1       4.134   0.314  -6.049  0.00  0.00    -0.359 N 
ATOM      4  H   LIG d   1       4.003   1.259  -5.874  0.00  0.00     0.165 HD
ATOM      5  C   LIG d   1       4.294  -0.648  -5.085  0.00  0.00     0.061 A 
ATOM      6  C   LIG d   1       4.454  -1.879  -5.749  0.00  0.00     0.009 A 
ATOM      7  C   LIG d   1       4.638  -3.050  -5.013  0.00  0.00    -0.052 A 
ATOM      8  C   LIG d   1       4.663  -3.002  -3.635  0.00  0.00    -0.060 A 
ATOM      9  C   LIG d   1       4.508  -1.799  -2.969  0.00  0.00    -0.046 A 
ATOM     10  C   LIG d   1       4.317  -0.616  -3.682  0.00  0.00     0.083 A 
ATOM     11  H   LIG d   1       4.088   0.281  -8.225  0.00  0.00     0.081 H 
ATOM     12  H   LIG d   1       4.761  -3.994  -5.522  0.00  0.00     0.062 H 
ATOM     13  H   LIG d   1       4.806  -3.911  -3.070  0.00  0.00     0.062 H 
ATOM     14  H   LIG d   1       4.530  -1.778  -1.889  0.00  0.00     0.063 H 
ENDROOT
BRANCH   1  15
ATOM     15  C   LIG d   1       4.491  -2.567  -8.312  0.00  0.00    -0.004 C 
ATOM     16  H   LIG d   1       4.619  -2.031  -9.253  0.00  0.00     0.087 H 
ATOM     17  H   LIG d   1       5.352  -3.215  -8.144  0.00  0.00     0.087 H 
BRANCH  15  18
ATOM     18  N   LIG d   1       3.248  -3.364  -8.377  0.00  0.00     0.234 N 
ATOM     19  H   LIG d   1       2.617  -3.059  -7.626  0.00  0.00     0.203 HD
BRANCH  18  20
ATOM     20  C   LIG d   1       2.580  -3.157  -9.679  0.00  0.00    -0.043 C 
ATOM     21  H   LIG d   1       3.319  -3.014 -10.468  0.00  0.00     0.078 H 
ATOM     22  H   LIG d   1       1.969  -4.030  -9.907  0.00  0.00     0.078 H 
ATOM     23  H   LIG d   1       1.945  -2.274  -9.613  0.00  0.00     0.078 H 
ENDBRANCH  18  20
BRANCH  18  24
ATOM     24  C   LIG d   1       3.557  -4.798  -8.190  0.00  0.00    -0.043 C 
ATOM     25  H   LIG d   1       2.990  -5.379  -8.917  0.00  0.00     0.078 H 
ATOM     26  H   LIG d   1       4.624  -4.954  -8.353  0.00  0.00     0.078 H 
ATOM     27  H   LIG d   1       3.293  -5.118  -7.182  0.00  0.00     0.078 H 
ENDBRANCH  18  24
ENDBRANCH  15  18
ENDBRANCH   1  15
BRANCH  10  28
ATOM     28  C   LIG d   1       4.146   0.661  -2.966  0.00  0.00     0.341 C 
ATOM     29  O   LIG d   1       3.239   0.792  -2.167  0.00  0.00    -0.245 OA
BRANCH  28  30
ATOM     30  O   LIG d   1       4.995   1.681  -3.194  0.00  0.00    -0.464 OA
BRANCH  30  31
ATOM     31  C   LIG d   1       6.409   1.359  -3.267  0.00  0.00     0.082 C 
ATOM     32  H   LIG d   1       6.535   0.276  -3.261  0.00  0.00     0.066 H 
ATOM     33  H   LIG d   1       6.829   1.769  -4.185  0.00  0.00     0.066 H 
ATOM     34  H   LIG d   1       6.925   1.788  -2.407  0.00  0.00     0.066 H 
ENDBRANCH  30  31
ENDBRANCH  28  30
ENDBRANCH  10  28
TORSDOF 7
ENDMDL
MODEL 9
REMARK VINA RESULT:      -4.5      2.723      4.256
REMARK  7 active torsions:
REMARK  status: ('A' for Active; 'I' for Inactive)
REMARK    1  A    between atoms: C_1  and  N_33 
REMARK    2  A    between atoms: C_2  and  N_33 
REMARK    3  A    between atoms: C_3  and  C_4 
REMARK    4  A    between atoms: C_3  and  N_33 
REMARK    5  A    between atoms: C_13  and  C_14 
REMARK    6  A    between atoms: C_14  and  O_16 
REMARK    7  A    between atoms: O_16  and  C_17 
ROOT
ATOM      1  C   LIG d   1       4.477  -1.014  -2.647  0.00  0.00     0.022 A 
ATOM      2  C   LIG d   1       3.278  -1.342  -3.154  0.00  0.00     0.011 A 
ATOM      3  N   LIG d   1       3.423  -2.336  -4.085  0.00  0.00    -0.359 N 
ATOM      4  H   LIG d   1       2.697  -2.738  -4.588  0.00  0.00     0.165 HD
ATOM      5  C   LIG d   1       4.745  -2.680  -4.203  0.00  0.00     0.061 A 
ATOM      6  C   LIG d   1       5.467  -1.869  -3.308  0.00  0.00     0.009 A 
ATOM      7  C   LIG d   1       6.853  -1.999  -3.211  0.00  0.00    -0.052 A 
ATOM      8  C   LIG d   1       7.515  -2.923  -3.991  0.00  0.00    -0.060 A 
ATOM      9  C   LIG d   1       6.818  -3.727  -4.875  0.00  0.00    -0.046 A 
ATOM     10  C   LIG d   1       5.434  -3.612  -4.994  0.00  0.00     0.083 A 
ATOM     11  H   LIG d   1       2.340  -0.889  -2.871  0.00  0.00     0.081 H 
ATOM     12  H   LIG d   1       7.407  -1.377  -2.525  0.00  0.00     0.062 H 
ATOM     13  H   LIG d   1       8.588  -3.020  -3.913  0.00  0.00     0.062 H 
ATOM     14  H   LIG d   1       7.351  -4.447  -5.480  0.00  0.00     0.063 H 
ENDROOT
BRANCH   1  15
ATOM     15  C   LIG d   1       4.751   0.033  -1.599  0.00  0.00    -0.004 C 
ATOM     16  H   LIG d   1       3.918   0.073  -0.897  0.00  0.00     0.087 H 
ATOM     17  H   LIG d   1       5.666  -0.221  -1.063  0.00  0.00     0.087 H 
BRANCH  15  18
ATOM     18  N   LIG d   1       4.887   1.347  -2.262  0.00  0.00     0.234 N 
ATOM     19  H   LIG d   1       5.066   2.063  -1.548  0.00  0.00     0.203 HD
BRANCH  18  20
ATOM     20  C   LIG d   1       6.021   1.321  -3.211  0.00  0.00    -0.043 C 
ATOM     21  H   LIG d   1       6.355   0.297  -3.379  0.00  0.00     0.078 H 
ATOM     22  H   LIG d   1       5.702   1.759  -4.157  0.00  0.00     0.078 H 
ATOM     23  H   LIG d   1       6.841   1.907  -2.796  0.00  0.00     0.078 H 
ENDBRANCH  18  20
BRANCH  18  24
ATOM     24  C   LIG d   1       3.638   1.683  -2.978  0.00  0.00    -0.043 C 
ATOM     25  H   LIG d   1       2.907   2.052  -2.259  0.00  0.00     0.078 H 
ATOM     26  H   LIG d   1       3.848   2.460  -3.713  0.00  0.00     0.078 H 
ATOM     27  H   LIG d   1       3.238   0.803  -3.483  0.00  0.00     0.078 H 
ENDBRANCH  18  24
ENDBRANCH  15  18
ENDBRANCH   1  15
BRANCH  10  28
ATOM     28  C   LIG d   1       4.699  -4.469  -5.943  0.00  0.00     0.341 C 
ATOM     29  O   LIG d   1       3.809  -5.193  -5.542  0.00  0.00    -0.245 OA
BRANCH  28  30
ATOM     30  O   LIG d   1       5.011  -4.446  -7.253  0.00  0.00    -0.464 OA
BRANCH  30  31
ATOM     31  C   LIG d   1       4.643  -3.256  -7.998  0.00  0.00     0.082 C 
ATOM     32  H   LIG d   1       4.527  -3.509  -9.052  0.00  0.00     0.066 H 
ATOM     33  H   LIG d   1       3.703  -2.861  -7.613  0.00  0.00     0.066 H 
ATOM     34  H   LIG d   1       5.425  -2.503  -7.890  0.00  0.00     0.066 H 
ENDBRANCH  30  31
ENDBRANCH  28  30
ENDBRANCH  10  28
TORSDOF 7
ENDMDL
MODEL 10
REMARK VINA RESULT:      -4.4      5.587      7.871
REMARK  7 active torsions:
REMARK  status: ('A' for Active; 'I' for Inactive)
REMARK    1  A    between atoms: C_1  and  N_33 
REMARK    2  A    between atoms: C_2  and  N_33 
REMARK    3  A    between atoms: C_3  and  C_4 
REMARK    4  A    between atoms: C_3  and  N_33 
REMARK    5  A    between atoms: C_13  and  C_14 
REMARK    6  A    between atoms: C_14  and  O_16 
REMARK    7  A    between atoms: O_16  and  C_17 
ROOT
ATOM      1  C   LIG d   1      10.418   7.405  -1.844  0.00  0.00     0.022 A 
ATOM      2  C   LIG d   1      10.572   6.509  -0.857  0.00  0.00     0.011 A 
ATOM      3  N   LIG d   1      10.327   5.248  -1.331  0.00  0.00    -0.359 N 
ATOM      4  H   LIG d   1      10.375   4.435  -0.803  0.00  0.00     0.165 HD
ATOM      5  C   LIG d   1      10.003   5.302  -2.662  0.00  0.00     0.061 A 
ATOM      6  C   LIG d   1      10.046   6.654  -3.046  0.00  0.00     0.009 A 
ATOM      7  C   LIG d   1       9.757   7.015  -4.363  0.00  0.00    -0.052 A 
ATOM      8  C   LIG d   1       9.430   6.047  -5.288  0.00  0.00    -0.060 A 
ATOM      9  C   LIG d   1       9.385   4.713  -4.925  0.00  0.00    -0.046 A 
ATOM     10  C   LIG d   1       9.664   4.327  -3.614  0.00  0.00     0.083 A 
ATOM     11  H   LIG d   1      10.847   6.747   0.160  0.00  0.00     0.081 H 
ATOM     12  H   LIG d   1       9.789   8.054  -4.658  0.00  0.00     0.062 H 
ATOM     13  H   LIG d   1       9.207   6.331  -6.305  0.00  0.00     0.062 H 
ATOM     14  H   LIG d   1       9.127   3.965  -5.661  0.00  0.00     0.063 H 
ENDROOT
BRANCH   1  15
ATOM     15  C   LIG d   1      10.595   8.897  -1.736  0.00  0.00    -0.004 C 
ATOM     16  H   LIG d   1      10.986   9.147  -0.750  0.00  0.00     0.087 H 
ATOM     17  H   LIG d   1      11.295   9.236  -2.500  0.00  0.00     0.087 H 
BRANCH  15  18
ATOM     18  N   LIG d   1       9.280   9.548  -1.914  0.00  0.00     0.234 N 
ATOM     19  H   LIG d   1       8.689   8.949  -2.503  0.00  0.00     0.203 HD
BRANCH  18  20
ATOM     20  C   LIG d   1       8.624   9.728  -0.602  0.00  0.00    -0.043 C 
ATOM     21  H   LIG d   1       9.368   9.839   0.186  0.00  0.00     0.078 H 
ATOM     22  H   LIG d   1       7.998  10.620  -0.638  0.00  0.00     0.078 H 
ATOM     23  H   LIG d   1       8.003   8.856  -0.395  0.00  0.00     0.078 H 
ENDBRANCH  18  20
BRANCH  18  24
ATOM     24  C   LIG d   1       9.451  10.858  -2.578  0.00  0.00    -0.043 C 
ATOM     25  H   LIG d   1       8.490  11.372  -2.596  0.00  0.00     0.078 H 
ATOM     26  H   LIG d   1      10.170  11.451  -2.013  0.00  0.00     0.078 H 
ATOM     27  H   LIG d   1       9.811  10.725  -3.598  0.00  0.00     0.078 H 
ENDBRANCH  18  24
ENDBRANCH  15  18
ENDBRANCH   1  15
BRANCH  10  28
ATOM     28  C   LIG d   1       9.608   2.904  -3.233  0.00  0.00     0.341 C 
ATOM     29  O   LIG d   1       8.598   2.260  -3.437  0.00  0.00    -0.245 OA
BRANCH  28  30
ATOM     30  O   LIG d   1      10.677   2.317  -2.660  0.00  0.00    -0.464 OA
BRANCH  30  31
ATOM     31  C   LIG d   1      11.762   1.921  -3.540  0.00  0.00     0.082 C 
ATOM     32  H   LIG d   1      11.487   2.134  -4.574  0.00  0.00     0.066 H 
ATOM     33  H   LIG d   1      12.663   2.479  -3.281  0.00  0.00     0.066 H 
ATOM     34  H   LIG d   1      11.951   0.853  -3.428  0.00  0.00     0.066 H 
ENDBRANCH  30  31
ENDBRANCH  28  30
ENDBRANCH  10  28
TORSDOF 7
ENDMDL
