MODEL 1
REMARK VINA RESULT:      -6.2      0.000      0.000
REMARK  8 active torsions:
REMARK  status: ('A' for Active; 'I' for Inactive)
REMARK    1  A    between atoms: C_1  and  O_2 
REMARK    2  A    between atoms: O_2  and  C_3 
REMARK    3  A    between atoms: C_6  and  O_24 
REMARK    4  A    between atoms: C_7  and  C_9 
REMARK    5  A    between atoms: C_16  and  O_20 
REMARK    6  A    between atoms: O_20  and  C_21 
REMARK    7  A    between atoms: C_21  and  C_22 
REMARK    8  A    between atoms: O_24  and  C_25 
ROOT
ATOM      1  C   LIG d   1       6.080  -1.691  -5.342  0.00  0.00    -0.005 C 
ATOM      2  C   LIG d   1       6.063  -3.049  -5.372  0.00  0.00     0.176 A 
ATOM      3  C   LIG d   1       7.237  -3.932  -5.419  0.00  0.00     0.232 A 
ATOM      4  O   LIG d   1       8.413  -3.609  -5.439  0.00  0.00    -0.283 OA
ATOM      5  C   LIG d   1       6.675  -5.295  -5.438  0.00  0.00     0.068 A 
ATOM      6  C   LIG d   1       7.253  -6.565  -5.480  0.00  0.00    -0.044 A 
ATOM      7  C   LIG d   1       6.456  -7.674  -5.487  0.00  0.00    -0.019 A 
ATOM      8  C   LIG d   1       5.071  -7.540  -5.452  0.00  0.00     0.125 A 
ATOM      9  C   LIG d   1       4.484  -6.287  -5.410  0.00  0.00     0.023 A 
ATOM     10  C   LIG d   1       5.279  -5.147  -5.402  0.00  0.00     0.143 A 
ATOM     11  O   LIG d   1       4.961  -3.835  -5.365  0.00  0.00    -0.451 OA
ATOM     12  H   LIG d   1       7.017  -1.166  -5.236  0.00  0.00     0.066 H 
ATOM     13  H   LIG d   1       8.327  -6.670  -5.506  0.00  0.00     0.063 H 
ATOM     14  H   LIG d   1       6.902  -8.657  -5.519  0.00  0.00     0.065 H 
ATOM     15  H   LIG d   1       3.408  -6.195  -5.384  0.00  0.00     0.069 H 
ENDROOT
BRANCH   1  16
ATOM     16  C   LIG d   1       4.826  -0.939  -5.451  0.00  0.00     0.024 A 
ATOM     17  C   LIG d   1       4.100  -0.602  -4.297  0.00  0.00     0.128 A 
ATOM     18  C   LIG d   1       2.917   0.109  -4.410  0.00  0.00    -0.016 A 
ATOM     19  C   LIG d   1       2.451   0.488  -5.655  0.00  0.00    -0.017 A 
ATOM     20  H   LIG d   1       2.357   0.371  -3.524  0.00  0.00     0.066 H 
ATOM     21  C   LIG d   1       3.163   0.157  -6.803  0.00  0.00     0.121 A 
ATOM     22  H   LIG d   1       1.528   1.042  -5.737  0.00  0.00     0.066 H 
ATOM     23  C   LIG d   1       4.347  -0.547  -6.708  0.00  0.00    -0.009 A 
ATOM     24  H   LIG d   1       4.900  -0.799  -7.600  0.00  0.00     0.066 H 
BRANCH  17  25
ATOM     25  O   LIG d   1       4.557  -0.973  -3.074  0.00  0.00    -0.494 OA
BRANCH  25  26
ATOM     26  C   LIG d   1       3.860  -2.033  -2.414  0.00  0.00     0.079 C 
ATOM     27  H   LIG d   1       4.561  -2.605  -1.807  0.00  0.00     0.066 H 
ATOM     28  H   LIG d   1       3.083  -1.614  -1.774  0.00  0.00     0.066 H 
ATOM     29  H   LIG d   1       3.405  -2.686  -3.158  0.00  0.00     0.066 H 
ENDBRANCH  25  26
ENDBRANCH  17  25
BRANCH  21  30
ATOM     30  O   LIG d   1       2.693   0.534  -8.022  0.00  0.00    -0.495 OA
BRANCH  30  31
ATOM     31  C   LIG d   1       2.881   1.900  -8.396  0.00  0.00     0.079 C 
ATOM     32  H   LIG d   1       3.826   2.261  -7.991  0.00  0.00     0.066 H 
ATOM     33  H   LIG d   1       2.896   1.981  -9.483  0.00  0.00     0.066 H 
ATOM     34  H   LIG d   1       2.062   2.501  -7.999  0.00  0.00     0.066 H 
ENDBRANCH  30  31
ENDBRANCH  21  30
ENDBRANCH   1  16
BRANCH   8  35
ATOM     35  O   LIG d   1       4.288  -8.650  -5.461  0.00  0.00    -0.486 OA
BRANCH  35  36
ATOM     36  C   LIG d   1       4.803  -9.812  -4.811  0.00  0.00     0.129 C 
ATOM     37  H   LIG d   1       4.571 -10.696  -5.406  0.00  0.00     0.076 H 
ATOM     38  H   LIG d   1       5.884  -9.721  -4.704  0.00  0.00     0.076 H 
BRANCH  36  39
ATOM     39  C   LIG d   1       4.172  -9.947  -3.448  0.00  0.00     0.079 C 
ATOM     40  O   LIG d   1       4.827 -10.349  -2.516  0.00  0.00    -0.546 OA
ATOM     41  O   LIG d   1       2.883  -9.619  -3.271  0.00  0.00    -0.546 OA
ENDBRANCH  36  39
ENDBRANCH  35  36
ENDBRANCH   8  35
TORSDOF 8
ENDMDL
MODEL 2
REMARK VINA RESULT:      -6.0      6.556      9.167
REMARK  8 active torsions:
REMARK  status: ('A' for Active; 'I' for Inactive)
REMARK    1  A    between atoms: C_1  and  O_2 
REMARK    2  A    between atoms: O_2  and  C_3 
REMARK    3  A    between atoms: C_6  and  O_24 
REMARK    4  A    between atoms: C_7  and  C_9 
REMARK    5  A    between atoms: C_16  and  O_20 
REMARK    6  A    between atoms: O_20  and  C_21 
REMARK    7  A    between atoms: C_21  and  C_22 
REMARK    8  A    between atoms: O_24  and  C_25 
ROOT
ATOM      1  C   LIG d   1      10.270   4.005  -4.433  0.00  0.00    -0.005 C 
ATOM      2  C   LIG d   1       9.376   2.986  -4.506  0.00  0.00     0.176 A 
ATOM      3  C   LIG d   1       9.185   2.076  -5.644  0.00  0.00     0.232 A 
ATOM      4  O   LIG d   1       9.783   2.075  -6.707  0.00  0.00    -0.283 OA
ATOM      5  C   LIG d   1       8.107   1.166  -5.215  0.00  0.00     0.068 A 
ATOM      6  C   LIG d   1       7.466   0.089  -5.829  0.00  0.00    -0.044 A 
ATOM      7  C   LIG d   1       6.478  -0.581  -5.167  0.00  0.00    -0.019 A 
ATOM      8  C   LIG d   1       6.109  -0.192  -3.881  0.00  0.00     0.125 A 
ATOM      9  C   LIG d   1       6.737   0.874  -3.260  0.00  0.00     0.023 A 
ATOM     10  C   LIG d   1       7.744   1.568  -3.919  0.00  0.00     0.143 A 
ATOM     11  O   LIG d   1       8.499   2.623  -3.541  0.00  0.00    -0.451 OA
ATOM     12  H   LIG d   1      11.002   4.137  -5.216  0.00  0.00     0.066 H 
ATOM     13  H   LIG d   1       7.752  -0.213  -6.826  0.00  0.00     0.063 H 
ATOM     14  H   LIG d   1       5.982  -1.415  -5.641  0.00  0.00     0.065 H 
ATOM     15  H   LIG d   1       6.442   1.167  -2.263  0.00  0.00     0.069 H 
ENDROOT
BRANCH   1  16
ATOM     16  C   LIG d   1      10.243   4.926  -3.293  0.00  0.00     0.024 A 
ATOM     17  C   LIG d   1       9.534   6.136  -3.377  0.00  0.00     0.128 A 
ATOM     18  C   LIG d   1       9.513   7.000  -2.295  0.00  0.00    -0.016 A 
ATOM     19  C   LIG d   1      10.186   6.672  -1.133  0.00  0.00    -0.017 A 
ATOM     20  H   LIG d   1       8.968   7.930  -2.357  0.00  0.00     0.066 H 
ATOM     21  C   LIG d   1      10.890   5.477  -1.040  0.00  0.00     0.121 A 
ATOM     22  H   LIG d   1      10.165   7.350  -0.292  0.00  0.00     0.066 H 
ATOM     23  C   LIG d   1      10.917   4.602  -2.109  0.00  0.00    -0.009 A 
ATOM     24  H   LIG d   1      11.461   3.673  -2.033  0.00  0.00     0.066 H 
BRANCH  17  25
ATOM     25  O   LIG d   1       8.873   6.458  -4.519  0.00  0.00    -0.494 OA
BRANCH  25  26
ATOM     26  C   LIG d   1       9.401   7.538  -5.292  0.00  0.00     0.079 C 
ATOM     27  H   LIG d   1       8.682   8.358  -5.308  0.00  0.00     0.066 H 
ATOM     28  H   LIG d   1      10.334   7.883  -4.845  0.00  0.00     0.066 H 
ATOM     29  H   LIG d   1       9.589   7.199  -6.309  0.00  0.00     0.066 H 
ENDBRANCH  25  26
ENDBRANCH  17  25
BRANCH  21  30
ATOM     30  O   LIG d   1      11.549   5.167   0.108  0.00  0.00    -0.495 OA
BRANCH  30  31
ATOM     31  C   LIG d   1      11.100   5.802   1.306  0.00  0.00     0.079 C 
ATOM     32  H   LIG d   1      10.926   5.048   2.074  0.00  0.00     0.066 H 
ATOM     33  H   LIG d   1      11.857   6.505   1.652  0.00  0.00     0.066 H 
ATOM     34  H   LIG d   1      10.172   6.338   1.106  0.00  0.00     0.066 H 
ENDBRANCH  30  31
ENDBRANCH  21  30
ENDBRANCH   1  16
BRANCH   8  35
ATOM     35  O   LIG d   1       5.124  -0.865  -3.232  0.00  0.00    -0.486 OA
BRANCH  35  36
ATOM     36  C   LIG d   1       3.794  -0.707  -3.729  0.00  0.00     0.129 C 
ATOM     37  H   LIG d   1       3.792  -0.841  -4.811  0.00  0.00     0.076 H 
ATOM     38  H   LIG d   1       3.144  -1.451  -3.270  0.00  0.00     0.076 H 
BRANCH  36  39
ATOM     39  C   LIG d   1       3.294   0.675  -3.393  0.00  0.00     0.079 C 
ATOM     40  O   LIG d   1       3.216   1.025  -2.239  0.00  0.00    -0.546 OA
ATOM     41  O   LIG d   1       2.934   1.515  -4.376  0.00  0.00    -0.546 OA
ENDBRANCH  36  39
ENDBRANCH  35  36
ENDBRANCH   8  35
TORSDOF 8
ENDMDL
MODEL 3
REMARK VINA RESULT:      -5.8      7.271      9.566
REMARK  8 active torsions:
REMARK  status: ('A' for Active; 'I' for Inactive)
REMARK    1  A    between atoms: C_1  and  O_2 
REMARK    2  A    between atoms: O_2  and  C_3 
REMARK    3  A    between atoms: C_6  and  O_24 
REMARK    4  A    between atoms: C_7  and  C_9 
REMARK    5  A    between atoms: C_16  and  O_20 
REMARK    6  A    between atoms: O_20  and  C_21 
REMARK    7  A    between atoms: C_21  and  C_22 
REMARK    8  A    between atoms: O_24  and  C_25 
ROOT
ATOM      1  C   LIG d   1      10.542   5.114  -4.277  0.00  0.00    -0.005 C 
ATOM      2  C   LIG d   1       9.756   4.039  -4.540  0.00  0.00     0.176 A 
ATOM      3  C   LIG d   1       9.517   3.439  -5.860  0.00  0.00     0.232 A 
ATOM      4  O   LIG d   1       9.972   3.795  -6.935  0.00  0.00    -0.283 OA
ATOM      5  C   LIG d   1       8.602   2.313  -5.596  0.00  0.00     0.068 A 
ATOM      6  C   LIG d   1       8.003   1.357  -6.418  0.00  0.00    -0.044 A 
ATOM      7  C   LIG d   1       7.181   0.412  -5.874  0.00  0.00    -0.019 A 
ATOM      8  C   LIG d   1       6.941   0.400  -4.502  0.00  0.00     0.125 A 
ATOM      9  C   LIG d   1       7.529   1.342  -3.675  0.00  0.00     0.023 A 
ATOM     10  C   LIG d   1       8.368   2.312  -4.212  0.00  0.00     0.143 A 
ATOM     11  O   LIG d   1       9.051   3.323  -3.633  0.00  0.00    -0.451 OA
ATOM     12  H   LIG d   1      11.151   5.542  -5.059  0.00  0.00     0.066 H 
ATOM     13  H   LIG d   1       8.189   1.366  -7.482  0.00  0.00     0.063 H 
ATOM     14  H   LIG d   1       6.718  -0.328  -6.509  0.00  0.00     0.065 H 
ATOM     15  H   LIG d   1       7.335   1.324  -2.612  0.00  0.00     0.069 H 
ENDROOT
BRANCH   1  16
ATOM     16  C   LIG d   1      10.565   5.694  -2.930  0.00  0.00     0.024 A 
ATOM     17  C   LIG d   1      11.600   5.371  -2.038  0.00  0.00     0.128 A 
ATOM     18  C   LIG d   1      11.614   5.924  -0.768  0.00  0.00    -0.016 A 
ATOM     19  C   LIG d   1      10.613   6.794  -0.380  0.00  0.00    -0.017 A 
ATOM     20  H   LIG d   1      12.409   5.677  -0.080  0.00  0.00     0.066 H 
ATOM     21  C   LIG d   1       9.584   7.120  -1.256  0.00  0.00     0.121 A 
ATOM     22  H   LIG d   1      10.630   7.222   0.612  0.00  0.00     0.066 H 
ATOM     23  C   LIG d   1       9.558   6.581  -2.528  0.00  0.00    -0.009 A 
ATOM     24  H   LIG d   1       8.761   6.839  -3.208  0.00  0.00     0.066 H 
BRANCH  17  25
ATOM     25  O   LIG d   1      12.584   4.516  -2.419  0.00  0.00    -0.494 OA
BRANCH  25  26
ATOM     26  C   LIG d   1      13.910   5.046  -2.495  0.00  0.00     0.079 C 
ATOM     27  H   LIG d   1      13.862   6.115  -2.702  0.00  0.00     0.066 H 
ATOM     28  H   LIG d   1      14.421   4.882  -1.545  0.00  0.00     0.066 H 
ATOM     29  H   LIG d   1      14.456   4.544  -3.293  0.00  0.00     0.066 H 
ENDBRANCH  25  26
ENDBRANCH  17  25
BRANCH  21  30
ATOM     30  O   LIG d   1       8.604   7.976  -0.861  0.00  0.00    -0.495 OA
BRANCH  30  31
ATOM     31  C   LIG d   1       8.926   9.367  -0.845  0.00  0.00     0.079 C 
ATOM     32  H   LIG d   1       8.218   9.897  -0.208  0.00  0.00     0.066 H 
ATOM     33  H   LIG d   1       9.936   9.503  -0.457  0.00  0.00     0.066 H 
ATOM     34  H   LIG d   1       8.871   9.765  -1.859  0.00  0.00     0.066 H 
ENDBRANCH  30  31
ENDBRANCH  21  30
ENDBRANCH   1  16
BRANCH   8  35
ATOM     35  O   LIG d   1       6.121  -0.543  -3.971  0.00  0.00    -0.486 OA
BRANCH  35  36
ATOM     36  C   LIG d   1       4.794  -0.136  -3.637  0.00  0.00     0.129 C 
ATOM     37  H   LIG d   1       4.611   0.866  -4.028  0.00  0.00     0.076 H 
ATOM     38  H   LIG d   1       4.078  -0.832  -4.074  0.00  0.00     0.076 H 
BRANCH  36  39
ATOM     39  C   LIG d   1       4.634  -0.125  -2.138  0.00  0.00     0.079 C 
ATOM     40  O   LIG d   1       4.375  -1.148  -1.551  0.00  0.00    -0.546 OA
ATOM     41  O   LIG d   1       4.782   1.021  -1.456  0.00  0.00    -0.546 OA
ENDBRANCH  36  39
ENDBRANCH  35  36
ENDBRANCH   8  35
TORSDOF 8
ENDMDL
MODEL 4
REMARK VINA RESULT:      -5.8      3.963      5.839
REMARK  8 active torsions:
REMARK  status: ('A' for Active; 'I' for Inactive)
REMARK    1  A    between atoms: C_1  and  O_2 
REMARK    2  A    between atoms: O_2  and  C_3 
REMARK    3  A    between atoms: C_6  and  O_24 
REMARK    4  A    between atoms: C_7  and  C_9 
REMARK    5  A    between atoms: C_16  and  O_20 
REMARK    6  A    between atoms: O_20  and  C_21 
REMARK    7  A    between atoms: C_21  and  C_22 
REMARK    8  A    between atoms: O_24  and  C_25 
ROOT
ATOM      1  C   LIG d   1       2.873   0.414  -6.984  0.00  0.00    -0.005 C 
ATOM      2  C   LIG d   1       3.771  -0.229  -6.194  0.00  0.00     0.176 A 
ATOM      3  C   LIG d   1       3.957  -0.033  -4.750  0.00  0.00     0.232 A 
ATOM      4  O   LIG d   1       3.351   0.730  -4.017  0.00  0.00    -0.283 OA
ATOM      5  C   LIG d   1       5.043  -0.961  -4.386  0.00  0.00     0.068 A 
ATOM      6  C   LIG d   1       5.684  -1.255  -3.181  0.00  0.00    -0.044 A 
ATOM      7  C   LIG d   1       6.681  -2.187  -3.152  0.00  0.00    -0.019 A 
ATOM      8  C   LIG d   1       7.059  -2.845  -4.319  0.00  0.00     0.125 A 
ATOM      9  C   LIG d   1       6.431  -2.564  -5.521  0.00  0.00     0.023 A 
ATOM     10  C   LIG d   1       5.415  -1.618  -5.570  0.00  0.00     0.143 A 
ATOM     11  O   LIG d   1       4.659  -1.170  -6.596  0.00  0.00    -0.451 OA
ATOM     12  H   LIG d   1       2.134   1.064  -6.540  0.00  0.00     0.066 H 
ATOM     13  H   LIG d   1       5.392  -0.746  -2.275  0.00  0.00     0.063 H 
ATOM     14  H   LIG d   1       7.177  -2.416  -2.220  0.00  0.00     0.065 H 
ATOM     15  H   LIG d   1       6.733  -3.080  -6.421  0.00  0.00     0.069 H 
ENDROOT
BRANCH   1  16
ATOM     16  C   LIG d   1       2.906   0.225  -8.438  0.00  0.00     0.024 A 
ATOM     17  C   LIG d   1       3.777   0.990  -9.231  0.00  0.00     0.128 A 
ATOM     18  C   LIG d   1       3.801   0.804 -10.603  0.00  0.00    -0.016 A 
ATOM     19  C   LIG d   1       2.972  -0.131 -11.192  0.00  0.00    -0.017 A 
ATOM     20  H   LIG d   1       4.471   1.390 -11.215  0.00  0.00     0.066 H 
ATOM     21  C   LIG d   1       2.107  -0.893 -10.414  0.00  0.00     0.121 A 
ATOM     22  H   LIG d   1       2.996  -0.272 -12.262  0.00  0.00     0.066 H 
ATOM     23  C   LIG d   1       2.073  -0.724  -9.043  0.00  0.00    -0.009 A 
ATOM     24  H   LIG d   1       1.403  -1.319  -8.442  0.00  0.00     0.066 H 
BRANCH  17  25
ATOM     25  O   LIG d   1       4.592   1.909  -8.653  0.00  0.00    -0.494 OA
BRANCH  25  26
ATOM     26  C   LIG d   1       5.987   1.817  -8.950  0.00  0.00     0.079 C 
ATOM     27  H   LIG d   1       6.466   2.776  -8.748  0.00  0.00     0.066 H 
ATOM     28  H   LIG d   1       6.441   1.046  -8.326  0.00  0.00     0.066 H 
ATOM     29  H   LIG d   1       6.119   1.559 -10.000  0.00  0.00     0.066 H 
ENDBRANCH  25  26
ENDBRANCH  17  25
BRANCH  21  30
ATOM     30  O   LIG d   1       1.295  -1.810 -11.006  0.00  0.00    -0.495 OA
BRANCH  30  31
ATOM     31  C   LIG d   1       1.336  -3.141 -10.490  0.00  0.00     0.079 C 
ATOM     32  H   LIG d   1       1.260  -3.852 -11.313  0.00  0.00     0.066 H 
ATOM     33  H   LIG d   1       2.276  -3.298  -9.961  0.00  0.00     0.066 H 
ATOM     34  H   LIG d   1       0.504  -3.290  -9.803  0.00  0.00     0.066 H 
ENDBRANCH  30  31
ENDBRANCH  21  30
ENDBRANCH   1  16
BRANCH   8  35
ATOM     35  O   LIG d   1       8.052  -3.770  -4.279  0.00  0.00    -0.486 OA
BRANCH  35  36
ATOM     36  C   LIG d   1       9.394  -3.283  -4.326  0.00  0.00     0.129 C 
ATOM     37  H   LIG d   1       9.841  -3.541  -5.287  0.00  0.00     0.076 H 
ATOM     38  H   LIG d   1       9.392  -2.200  -4.206  0.00  0.00     0.076 H 
BRANCH  36  39
ATOM     39  C   LIG d   1      10.196  -3.912  -3.215  0.00  0.00     0.079 C 
ATOM     40  O   LIG d   1      11.355  -4.200  -3.395  0.00  0.00    -0.546 OA
ATOM     41  O   LIG d   1       9.621  -4.150  -2.026  0.00  0.00    -0.546 OA
ENDBRANCH  36  39
ENDBRANCH  35  36
ENDBRANCH   8  35
TORSDOF 8
ENDMDL
MODEL 5
REMARK VINA RESULT:      -5.4      4.076      5.894
REMARK  8 active torsions:
REMARK  status: ('A' for Active; 'I' for Inactive)
REMARK    1  A    between atoms: C_1  and  O_2 
REMARK    2  A    between atoms: O_2  and  C_3 
REMARK    3  A    between atoms: C_6  and  O_24 
REMARK    4  A    between atoms: C_7  and  C_9 
REMARK    5  A    between atoms: C_16  and  O_20 
REMARK    6  A    between atoms: O_20  and  C_21 
REMARK    7  A    between atoms: C_21  and  C_22 
REMARK    8  A    between atoms: O_24  and  C_25 
ROOT
ATOM      1  C   LIG d   1       7.597   2.115  -3.901  0.00  0.00    -0.005 C 
ATOM      2  C   LIG d   1       6.824   1.007  -3.766  0.00  0.00     0.176 A 
ATOM      3  C   LIG d   1       5.744   0.814  -2.788  0.00  0.00     0.232 A 
ATOM      4  O   LIG d   1       5.358   1.598  -1.938  0.00  0.00    -0.283 OA
ATOM      5  C   LIG d   1       5.233  -0.542  -3.062  0.00  0.00     0.068 A 
ATOM      6  C   LIG d   1       4.221  -1.314  -2.490  0.00  0.00    -0.044 A 
ATOM      7  C   LIG d   1       3.971  -2.568  -2.969  0.00  0.00    -0.019 A 
ATOM      8  C   LIG d   1       4.721  -3.077  -4.026  0.00  0.00     0.125 A 
ATOM      9  C   LIG d   1       5.728  -2.321  -4.603  0.00  0.00     0.023 A 
ATOM     10  C   LIG d   1       5.997  -1.043  -4.128  0.00  0.00     0.143 A 
ATOM     11  O   LIG d   1       6.907  -0.121  -4.510  0.00  0.00    -0.451 OA
ATOM     12  H   LIG d   1       7.370   3.004  -3.330  0.00  0.00     0.066 H 
ATOM     13  H   LIG d   1       3.638  -0.921  -1.671  0.00  0.00     0.063 H 
ATOM     14  H   LIG d   1       3.187  -3.167  -2.527  0.00  0.00     0.065 H 
ATOM     15  H   LIG d   1       6.305  -2.726  -5.422  0.00  0.00     0.069 H 
ENDROOT
BRANCH   1  16
ATOM     16  C   LIG d   1       8.738   2.107  -4.821  0.00  0.00     0.024 A 
ATOM     17  C   LIG d   1      10.047   2.219  -4.326  0.00  0.00     0.128 A 
ATOM     18  C   LIG d   1      11.119   2.209  -5.203  0.00  0.00    -0.016 A 
ATOM     19  C   LIG d   1      10.903   2.088  -6.562  0.00  0.00    -0.017 A 
ATOM     20  H   LIG d   1      12.127   2.294  -4.824  0.00  0.00     0.066 H 
ATOM     21  C   LIG d   1       9.610   1.977  -7.062  0.00  0.00     0.121 A 
ATOM     22  H   LIG d   1      11.743   2.081  -7.241  0.00  0.00     0.066 H 
ATOM     23  C   LIG d   1       8.530   1.979  -6.200  0.00  0.00    -0.009 A 
ATOM     24  H   LIG d   1       7.527   1.889  -6.590  0.00  0.00     0.066 H 
BRANCH  17  25
ATOM     25  O   LIG d   1      10.261   2.338  -2.990  0.00  0.00    -0.494 OA
BRANCH  25  26
ATOM     26  C   LIG d   1      10.764   3.591  -2.522  0.00  0.00     0.079 C 
ATOM     27  H   LIG d   1       9.958   4.152  -2.048  0.00  0.00     0.066 H 
ATOM     28  H   LIG d   1      11.559   3.416  -1.797  0.00  0.00     0.066 H 
ATOM     29  H   LIG d   1      11.158   4.161  -3.363  0.00  0.00     0.066 H 
ENDBRANCH  25  26
ENDBRANCH  17  25
BRANCH  21  30
ATOM     30  O   LIG d   1       9.410   1.860  -8.402  0.00  0.00    -0.495 OA
BRANCH  30  31
ATOM     31  C   LIG d   1       8.524   2.801  -9.010  0.00  0.00     0.079 C 
ATOM     32  H   LIG d   1       8.000   2.323  -9.838  0.00  0.00     0.066 H 
ATOM     33  H   LIG d   1       7.801   3.149  -8.273  0.00  0.00     0.066 H 
ATOM     34  H   LIG d   1       9.098   3.649  -9.384  0.00  0.00     0.066 H 
ENDBRANCH  30  31
ENDBRANCH  21  30
ENDBRANCH   1  16
BRANCH   8  35
ATOM     35  O   LIG d   1       4.465  -4.326  -4.494  0.00  0.00    -0.486 OA
BRANCH  35  36
ATOM     36  C   LIG d   1       5.416  -4.888  -5.398  0.00  0.00     0.129 C 
ATOM     37  H   LIG d   1       5.492  -4.258  -6.285  0.00  0.00     0.076 H 
ATOM     38  H   LIG d   1       6.390  -4.947  -4.912  0.00  0.00     0.076 H 
BRANCH  36  39
ATOM     39  C   LIG d   1       4.971  -6.270  -5.801  0.00  0.00     0.079 C 
ATOM     40  O   LIG d   1       5.665  -7.226  -5.550  0.00  0.00    -0.546 OA
ATOM     41  O   LIG d   1       3.802  -6.438  -6.439  0.00  0.00    -0.546 OA
ENDBRANCH  36  39
ENDBRANCH  35  36
ENDBRANCH   8  35
TORSDOF 8
ENDMDL
MODEL 6
REMARK VINA RESULT:      -5.4      6.645     10.661
REMARK  8 active torsions:
REMARK  status: ('A' for Active; 'I' for Inactive)
REMARK    1  A    between atoms: C_1  and  O_2 
REMARK    2  A    between atoms: O_2  and  C_3 
REMARK    3  A    between atoms: C_6  and  O_24 
REMARK    4  A    between atoms: C_7  and  C_9 
REMARK    5  A    between atoms: C_16  and  O_20 
REMARK    6  A    between atoms: O_20  and  C_21 
REMARK    7  A    between atoms: C_21  and  C_22 
REMARK    8  A    between atoms: O_24  and  C_25 
ROOT
ATOM      1  C   LIG d   1       7.765   1.114  -5.559  0.00  0.00    -0.005 C 
ATOM      2  C   LIG d   1       8.537   2.153  -5.149  0.00  0.00     0.176 A 
ATOM      3  C   LIG d   1       9.365   3.013  -6.006  0.00  0.00     0.232 A 
ATOM      4  O   LIG d   1       9.504   2.948  -7.216  0.00  0.00    -0.283 OA
ATOM      5  C   LIG d   1       9.991   3.971  -5.077  0.00  0.00     0.068 A 
ATOM      6  C   LIG d   1      10.876   5.035  -5.256  0.00  0.00    -0.044 A 
ATOM      7  C   LIG d   1      11.292   5.762  -4.178  0.00  0.00    -0.019 A 
ATOM      8  C   LIG d   1      10.835   5.445  -2.901  0.00  0.00     0.125 A 
ATOM      9  C   LIG d   1       9.956   4.392  -2.709  0.00  0.00     0.023 A 
ATOM     10  C   LIG d   1       9.522   3.641  -3.795  0.00  0.00     0.143 A 
ATOM     11  O   LIG d   1       8.684   2.585  -3.874  0.00  0.00    -0.451 OA
ATOM     12  H   LIG d   1       7.630   0.926  -6.614  0.00  0.00     0.066 H 
ATOM     13  H   LIG d   1      11.232   5.282  -6.245  0.00  0.00     0.063 H 
ATOM     14  H   LIG d   1      11.977   6.586  -4.315  0.00  0.00     0.065 H 
ATOM     15  H   LIG d   1       9.608   4.154  -1.714  0.00  0.00     0.069 H 
ENDROOT
BRANCH   1  16
ATOM     16  C   LIG d   1       7.113   0.249  -4.571  0.00  0.00     0.024 A 
ATOM     17  C   LIG d   1       7.378  -1.130  -4.554  0.00  0.00     0.128 A 
ATOM     18  C   LIG d   1       6.758  -1.939  -3.616  0.00  0.00    -0.016 A 
ATOM     19  C   LIG d   1       5.882  -1.393  -2.699  0.00  0.00    -0.017 A 
ATOM     20  H   LIG d   1       6.961  -3.000  -3.601  0.00  0.00     0.066 H 
ATOM     21  C   LIG d   1       5.612  -0.029  -2.709  0.00  0.00     0.121 A 
ATOM     22  H   LIG d   1       5.401  -2.029  -1.970  0.00  0.00     0.066 H 
ATOM     23  C   LIG d   1       6.227   0.794  -3.633  0.00  0.00    -0.009 A 
ATOM     24  H   LIG d   1       6.019   1.853  -3.637  0.00  0.00     0.066 H 
BRANCH  17  25
ATOM     25  O   LIG d   1       8.240  -1.668  -5.455  0.00  0.00    -0.494 OA
BRANCH  25  26
ATOM     26  C   LIG d   1       9.423  -2.279  -4.936  0.00  0.00     0.079 C 
ATOM     27  H   LIG d   1       9.327  -2.399  -3.857  0.00  0.00     0.066 H 
ATOM     28  H   LIG d   1       9.559  -3.257  -5.399  0.00  0.00     0.066 H 
ATOM     29  H   LIG d   1      10.284  -1.650  -5.157  0.00  0.00     0.066 H 
ENDBRANCH  25  26
ENDBRANCH  17  25
BRANCH  21  30
ATOM     30  O   LIG d   1       4.747   0.497  -1.801  0.00  0.00    -0.495 OA
BRANCH  30  31
ATOM     31  C   LIG d   1       3.612   1.196  -2.316  0.00  0.00     0.079 C 
ATOM     32  H   LIG d   1       2.775   1.087  -1.627  0.00  0.00     0.066 H 
ATOM     33  H   LIG d   1       3.855   2.252  -2.430  0.00  0.00     0.066 H 
ATOM     34  H   LIG d   1       3.340   0.781  -3.287  0.00  0.00     0.066 H 
ENDBRANCH  30  31
ENDBRANCH  21  30
ENDBRANCH   1  16
BRANCH   8  35
ATOM     35  O   LIG d   1      11.255   6.173  -1.835  0.00  0.00    -0.486 OA
BRANCH  35  36
ATOM     36  C   LIG d   1      10.659   5.877  -0.572  0.00  0.00     0.129 C 
ATOM     37  H   LIG d   1       9.796   6.526  -0.415  0.00  0.00     0.076 H 
ATOM     38  H   LIG d   1      10.338   4.836  -0.556  0.00  0.00     0.076 H 
BRANCH  36  39
ATOM     39  C   LIG d   1      11.666   6.110   0.526  0.00  0.00     0.079 C 
ATOM     40  O   LIG d   1      11.308   6.139   1.679  0.00  0.00    -0.546 OA
ATOM     41  O   LIG d   1      12.962   6.284   0.221  0.00  0.00    -0.546 OA
ENDBRANCH  36  39
ENDBRANCH  35  36
ENDBRANCH   8  35
TORSDOF 8
ENDMDL
MODEL 7
REMARK VINA RESULT:      -5.3      3.189      7.009
REMARK  8 active torsions:
REMARK  status: ('A' for Active; 'I' for Inactive)
REMARK    1  A    between atoms: C_1  and  O_2 
REMARK    2  A    between atoms: O_2  and  C_3 
REMARK    3  A    between atoms: C_6  and  O_24 
REMARK    4  A    between atoms: C_7  and  C_9 
REMARK    5  A    between atoms: C_16  and  O_20 
REMARK    6  A    between atoms: O_20  and  C_21 
REMARK    7  A    between atoms: C_21  and  C_22 
REMARK    8  A    between atoms: O_24  and  C_25 
ROOT
ATOM      1  C   LIG d   1       4.794  -4.277  -5.000  0.00  0.00    -0.005 C 
ATOM      2  C   LIG d   1       4.372  -4.132  -6.283  0.00  0.00     0.176 A 
ATOM      3  C   LIG d   1       3.978  -5.214  -7.196  0.00  0.00     0.232 A 
ATOM      4  O   LIG d   1       3.960  -6.412  -6.970  0.00  0.00    -0.283 OA
ATOM      5  C   LIG d   1       3.611  -4.527  -8.448  0.00  0.00     0.068 A 
ATOM      6  C   LIG d   1       3.156  -4.980  -9.687  0.00  0.00    -0.044 A 
ATOM      7  C   LIG d   1       2.891  -4.084 -10.683  0.00  0.00    -0.019 A 
ATOM      8  C   LIG d   1       3.073  -2.721 -10.465  0.00  0.00     0.125 A 
ATOM      9  C   LIG d   1       3.523  -2.257  -9.240  0.00  0.00     0.023 A 
ATOM     10  C   LIG d   1       3.798  -3.155  -8.215  0.00  0.00     0.143 A 
ATOM     11  O   LIG d   1       4.239  -2.963  -6.953  0.00  0.00    -0.451 OA
ATOM     12  H   LIG d   1       4.755  -5.247  -4.526  0.00  0.00     0.066 H 
ATOM     13  H   LIG d   1       3.015  -6.037  -9.858  0.00  0.00     0.063 H 
ATOM     14  H   LIG d   1       2.539  -4.434 -11.643  0.00  0.00     0.065 H 
ATOM     15  H   LIG d   1       3.661  -1.197  -9.081  0.00  0.00     0.069 H 
ENDROOT
BRANCH   1  16
ATOM     16  C   LIG d   1       5.300  -3.118  -4.259  0.00  0.00     0.024 A 
ATOM     17  C   LIG d   1       6.650  -2.743  -4.368  0.00  0.00     0.128 A 
ATOM     18  C   LIG d   1       7.119  -1.646  -3.664  0.00  0.00    -0.016 A 
ATOM     19  C   LIG d   1       6.264  -0.921  -2.857  0.00  0.00    -0.017 A 
ATOM     20  H   LIG d   1       8.156  -1.356  -3.747  0.00  0.00     0.066 H 
ATOM     21  C   LIG d   1       4.927  -1.285  -2.743  0.00  0.00     0.121 A 
ATOM     22  H   LIG d   1       6.636  -0.067  -2.311  0.00  0.00     0.066 H 
ATOM     23  C   LIG d   1       4.440  -2.373  -3.442  0.00  0.00    -0.009 A 
ATOM     24  H   LIG d   1       3.401  -2.651  -3.355  0.00  0.00     0.066 H 
BRANCH  17  25
ATOM     25  O   LIG d   1       7.491  -3.455  -5.161  0.00  0.00    -0.494 OA
BRANCH  25  26
ATOM     26  C   LIG d   1       8.519  -4.205  -4.508  0.00  0.00     0.079 C 
ATOM     27  H   LIG d   1       9.463  -3.665  -4.580  0.00  0.00     0.066 H 
ATOM     28  H   LIG d   1       8.258  -4.341  -3.458  0.00  0.00     0.066 H 
ATOM     29  H   LIG d   1       8.618  -5.178  -4.987  0.00  0.00     0.066 H 
ENDBRANCH  25  26
ENDBRANCH  17  25
BRANCH  21  30
ATOM     30  O   LIG d   1       4.095  -0.564  -1.944  0.00  0.00    -0.495 OA
BRANCH  30  31
ATOM     31  C   LIG d   1       4.062   0.849  -2.150  0.00  0.00     0.079 C 
ATOM     32  H   LIG d   1       4.806   1.326  -1.512  0.00  0.00     0.066 H 
ATOM     33  H   LIG d   1       4.282   1.070  -3.194  0.00  0.00     0.066 H 
ATOM     34  H   LIG d   1       3.071   1.229  -1.900  0.00  0.00     0.066 H 
ENDBRANCH  30  31
ENDBRANCH  21  30
ENDBRANCH   1  16
BRANCH   8  35
ATOM     35  O   LIG d   1       2.808  -1.838 -11.462  0.00  0.00    -0.486 OA
BRANCH  35  36
ATOM     36  C   LIG d   1       2.568  -0.482 -11.082  0.00  0.00     0.129 C 
ATOM     37  H   LIG d   1       1.655  -0.126 -11.559  0.00  0.00     0.076 H 
ATOM     38  H   LIG d   1       2.459  -0.422  -9.999  0.00  0.00     0.076 H 
BRANCH  36  39
ATOM     39  C   LIG d   1       3.729   0.374 -11.519  0.00  0.00     0.079 C 
ATOM     40  O   LIG d   1       4.402   0.043 -12.465  0.00  0.00    -0.546 OA
ATOM     41  O   LIG d   1       4.014   1.506 -10.855  0.00  0.00    -0.546 OA
ENDBRANCH  36  39
ENDBRANCH  35  36
ENDBRANCH   8  35
TORSDOF 8
ENDMDL
MODEL 8
REMARK VINA RESULT:      -5.3      4.925      9.394
REMARK  8 active torsions:
REMARK  status: ('A' for Active; 'I' for Inactive)
REMARK    1  A    between atoms: C_1  and  O_2 
REMARK    2  A    between atoms: O_2  and  C_3 
REMARK    3  A    between atoms: C_6  and  O_24 
REMARK    4  A    between atoms: C_7  and  C_9 
REMARK    5  A    between atoms: C_16  and  O_20 
REMARK    6  A    between atoms: O_20  and  C_21 
REMARK    7  A    between atoms: C_21  and  C_22 
REMARK    8  A    between atoms: O_24  and  C_25 
ROOT
ATOM      1  C   LIG d   1       7.262   0.437  -3.120  0.00  0.00    -0.005 C 
ATOM      2  C   LIG d   1       7.719   1.126  -4.197  0.00  0.00     0.176 A 
ATOM      3  C   LIG d   1       8.619   2.288  -4.168  0.00  0.00     0.232 A 
ATOM      4  O   LIG d   1       9.105   2.831  -3.190  0.00  0.00    -0.283 OA
ATOM      5  C   LIG d   1       8.802   2.651  -5.585  0.00  0.00     0.068 A 
ATOM      6  C   LIG d   1       9.532   3.652  -6.227  0.00  0.00    -0.044 A 
ATOM      7  C   LIG d   1       9.509   3.744  -7.589  0.00  0.00    -0.019 A 
ATOM      8  C   LIG d   1       8.759   2.840  -8.338  0.00  0.00     0.125 A 
ATOM      9  C   LIG d   1       8.031   1.841  -7.714  0.00  0.00     0.023 A 
ATOM     10  C   LIG d   1       8.043   1.734  -6.329  0.00  0.00     0.143 A 
ATOM     11  O   LIG d   1       7.430   0.866  -5.494  0.00  0.00    -0.451 OA
ATOM     12  H   LIG d   1       7.646   0.659  -2.135  0.00  0.00     0.066 H 
ATOM     13  H   LIG d   1      10.113   4.354  -5.647  0.00  0.00     0.063 H 
ATOM     14  H   LIG d   1      10.073   4.518  -8.087  0.00  0.00     0.065 H 
ATOM     15  H   LIG d   1       7.453   1.145  -8.305  0.00  0.00     0.069 H 
ENDROOT
BRANCH   1  16
ATOM     16  C   LIG d   1       6.247  -0.607  -3.294  0.00  0.00     0.024 A 
ATOM     17  C   LIG d   1       4.973  -0.457  -2.722  0.00  0.00     0.128 A 
ATOM     18  C   LIG d   1       4.020  -1.448  -2.892  0.00  0.00    -0.016 A 
ATOM     19  C   LIG d   1       4.320  -2.581  -3.623  0.00  0.00    -0.017 A 
ATOM     20  H   LIG d   1       3.039  -1.335  -2.454  0.00  0.00     0.066 H 
ATOM     21  C   LIG d   1       5.579  -2.738  -4.193  0.00  0.00     0.121 A 
ATOM     22  H   LIG d   1       3.573  -3.350  -3.752  0.00  0.00     0.066 H 
ATOM     23  C   LIG d   1       6.539  -1.757  -4.038  0.00  0.00    -0.009 A 
ATOM     24  H   LIG d   1       7.514  -1.879  -4.484  0.00  0.00     0.066 H 
BRANCH  17  25
ATOM     25  O   LIG d   1       4.676   0.656  -2.003  0.00  0.00    -0.494 OA
BRANCH  25  26
ATOM     26  C   LIG d   1       3.573   1.445  -2.454  0.00  0.00     0.079 C 
ATOM     27  H   LIG d   1       3.702   2.475  -2.121  0.00  0.00     0.066 H 
ATOM     28  H   LIG d   1       3.529   1.419  -3.543  0.00  0.00     0.066 H 
ATOM     29  H   LIG d   1       2.647   1.043  -2.043  0.00  0.00     0.066 H 
ENDBRANCH  25  26
ENDBRANCH  17  25
BRANCH  21  30
ATOM     30  O   LIG d   1       5.863  -3.859  -4.909  0.00  0.00    -0.495 OA
BRANCH  30  31
ATOM     31  C   LIG d   1       6.880  -3.751  -5.907  0.00  0.00     0.079 C 
ATOM     32  H   LIG d   1       6.449  -3.950  -6.888  0.00  0.00     0.066 H 
ATOM     33  H   LIG d   1       7.299  -2.745  -5.892  0.00  0.00     0.066 H 
ATOM     34  H   LIG d   1       7.668  -4.475  -5.702  0.00  0.00     0.066 H 
ENDBRANCH  30  31
ENDBRANCH  21  30
ENDBRANCH   1  16
BRANCH   8  35
ATOM     35  O   LIG d   1       8.742   2.940  -9.692  0.00  0.00    -0.486 OA
BRANCH  35  36
ATOM     36  C   LIG d   1       9.934   3.411 -10.323  0.00  0.00     0.129 C 
ATOM     37  H   LIG d   1      10.682   3.640  -9.563  0.00  0.00     0.076 H 
ATOM     38  H   LIG d   1      10.321   2.642 -10.991  0.00  0.00     0.076 H 
BRANCH  36  39
ATOM     39  C   LIG d   1       9.625   4.656 -11.114  0.00  0.00     0.079 C 
ATOM     40  O   LIG d   1      10.238   4.896 -12.127  0.00  0.00    -0.546 OA
ATOM     41  O   LIG d   1       8.667   5.498 -10.693  0.00  0.00    -0.546 OA
ENDBRANCH  36  39
ENDBRANCH  35  36
ENDBRANCH   8  35
TORSDOF 8
ENDMDL
MODEL 9
REMARK VINA RESULT:      -5.1      3.632      6.322
REMARK  8 active torsions:
REMARK  status: ('A' for Active; 'I' for Inactive)
REMARK    1  A    between atoms: C_1  and  O_2 
REMARK    2  A    between atoms: O_2  and  C_3 
REMARK    3  A    between atoms: C_6  and  O_24 
REMARK    4  A    between atoms: C_7  and  C_9 
REMARK    5  A    between atoms: C_16  and  O_20 
REMARK    6  A    between atoms: O_20  and  C_21 
REMARK    7  A    between atoms: C_21  and  C_22 
REMARK    8  A    between atoms: O_24  and  C_25 
ROOT
ATOM      1  C   LIG d   1       2.403   0.255  -9.781  0.00  0.00    -0.005 C 
ATOM      2  C   LIG d   1       3.019  -0.276  -8.694  0.00  0.00     0.176 A 
ATOM      3  C   LIG d   1       3.273   0.408  -7.418  0.00  0.00     0.232 A 
ATOM      4  O   LIG d   1       2.983   1.553  -7.115  0.00  0.00    -0.283 OA
ATOM      5  C   LIG d   1       3.960  -0.598  -6.589  0.00  0.00     0.068 A 
ATOM      6  C   LIG d   1       4.463  -0.580  -5.287  0.00  0.00    -0.044 A 
ATOM      7  C   LIG d   1       5.063  -1.694  -4.774  0.00  0.00    -0.019 A 
ATOM      8  C   LIG d   1       5.173  -2.847  -5.546  0.00  0.00     0.125 A 
ATOM      9  C   LIG d   1       4.678  -2.880  -6.839  0.00  0.00     0.023 A 
ATOM     10  C   LIG d   1       4.065  -1.755  -7.377  0.00  0.00     0.143 A 
ATOM     11  O   LIG d   1       3.510  -1.533  -8.589  0.00  0.00    -0.451 OA
ATOM     12  H   LIG d   1       1.947   1.233  -9.719  0.00  0.00     0.066 H 
ATOM     13  H   LIG d   1       4.378   0.314  -4.687  0.00  0.00     0.063 H 
ATOM     14  H   LIG d   1       5.452  -1.681  -3.766  0.00  0.00     0.065 H 
ATOM     15  H   LIG d   1       4.770  -3.780  -7.430  0.00  0.00     0.069 H 
ENDROOT
BRANCH   1  16
ATOM     16  C   LIG d   1       2.355  -0.497 -11.039  0.00  0.00     0.024 A 
ATOM     17  C   LIG d   1       3.447  -0.468 -11.922  0.00  0.00     0.128 A 
ATOM     18  C   LIG d   1       3.394  -1.183 -13.107  0.00  0.00    -0.016 A 
ATOM     19  C   LIG d   1       2.271  -1.924 -13.421  0.00  0.00    -0.017 A 
ATOM     20  H   LIG d   1       4.233  -1.163 -13.787  0.00  0.00     0.066 H 
ATOM     21  C   LIG d   1       1.185  -1.958 -12.553  0.00  0.00     0.121 A 
ATOM     22  H   LIG d   1       2.236  -2.479 -14.347  0.00  0.00     0.066 H 
ATOM     23  C   LIG d   1       1.224  -1.256 -11.364  0.00  0.00    -0.009 A 
ATOM     24  H   LIG d   1       0.381  -1.287 -10.690  0.00  0.00     0.066 H 
BRANCH  17  25
ATOM     25  O   LIG d   1       4.552   0.259 -11.614  0.00  0.00    -0.494 OA
BRANCH  25  26
ATOM     26  C   LIG d   1       5.747  -0.468 -11.322  0.00  0.00     0.079 C 
ATOM     27  H   LIG d   1       5.626  -1.506 -11.633  0.00  0.00     0.066 H 
ATOM     28  H   LIG d   1       6.584  -0.023 -11.861  0.00  0.00     0.066 H 
ATOM     29  H   LIG d   1       5.943  -0.430 -10.251  0.00  0.00     0.066 H 
ENDBRANCH  25  26
ENDBRANCH  17  25
BRANCH  21  30
ATOM     30  O   LIG d   1       0.085  -2.690 -12.874  0.00  0.00    -0.495 OA
BRANCH  30  31
ATOM     31  C   LIG d   1       0.019  -3.214 -14.201  0.00  0.00     0.079 C 
ATOM     32  H   LIG d   1       0.619  -2.594 -14.867  0.00  0.00     0.066 H 
ATOM     33  H   LIG d   1       0.403  -4.234 -14.209  0.00  0.00     0.066 H 
ATOM     34  H   LIG d   1      -1.017  -3.215 -14.540  0.00  0.00     0.066 H 
ENDBRANCH  30  31
ENDBRANCH  21  30
ENDBRANCH   1  16
BRANCH   8  35
ATOM     35  O   LIG d   1       5.773  -3.950  -5.027  0.00  0.00    -0.486 OA
BRANCH  35  36
ATOM     36  C   LIG d   1       5.967  -5.057  -5.907  0.00  0.00     0.129 C 
ATOM     37  H   LIG d   1       5.715  -4.762  -6.926  0.00  0.00     0.076 H 
ATOM     38  H   LIG d   1       7.010  -5.373  -5.870  0.00  0.00     0.076 H 
BRANCH  36  39
ATOM     39  C   LIG d   1       5.080  -6.199  -5.482  0.00  0.00     0.079 C 
ATOM     40  O   LIG d   1       3.976  -5.977  -5.046  0.00  0.00    -0.546 OA
ATOM     41  O   LIG d   1       5.517  -7.464  -5.588  0.00  0.00    -0.546 OA
ENDBRANCH  36  39
ENDBRANCH  35  36
ENDBRANCH   8  35
TORSDOF 8
ENDMDL
MODEL 10
REMARK VINA RESULT:      -5.0      5.284      9.143
REMARK  8 active torsions:
REMARK  status: ('A' for Active; 'I' for Inactive)
REMARK    1  A    between atoms: C_1  and  O_2 
REMARK    2  A    between atoms: O_2  and  C_3 
REMARK    3  A    between atoms: C_6  and  O_24 
REMARK    4  A    between atoms: C_7  and  C_9 
REMARK    5  A    between atoms: C_16  and  O_20 
REMARK    6  A    between atoms: O_20  and  C_21 
REMARK    7  A    between atoms: C_21  and  C_22 
REMARK    8  A    between atoms: O_24  and  C_25 
ROOT
ATOM      1  C   LIG d   1       7.203  -0.462  -6.757  0.00  0.00    -0.005 C 
ATOM      2  C   LIG d   1       7.953   0.372  -5.991  0.00  0.00     0.176 A 
ATOM      3  C   LIG d   1       9.304   0.102  -5.479  0.00  0.00     0.232 A 
ATOM      4  O   LIG d   1       9.979  -0.900  -5.645  0.00  0.00    -0.283 OA
ATOM      5  C   LIG d   1       9.660   1.313  -4.717  0.00  0.00     0.068 A 
ATOM      6  C   LIG d   1      10.794   1.686  -3.993  0.00  0.00    -0.044 A 
ATOM      7  C   LIG d   1      10.837   2.904  -3.378  0.00  0.00    -0.019 A 
ATOM      8  C   LIG d   1       9.753   3.774  -3.471  0.00  0.00     0.125 A 
ATOM      9  C   LIG d   1       8.623   3.417  -4.186  0.00  0.00     0.023 A 
ATOM     10  C   LIG d   1       8.561   2.181  -4.818  0.00  0.00     0.143 A 
ATOM     11  O   LIG d   1       7.592   1.604  -5.562  0.00  0.00    -0.451 OA
ATOM     12  H   LIG d   1       7.632  -1.377  -7.138  0.00  0.00     0.066 H 
ATOM     13  H   LIG d   1      11.635   1.012  -3.920  0.00  0.00     0.063 H 
ATOM     14  H   LIG d   1      11.714   3.194  -2.818  0.00  0.00     0.065 H 
ATOM     15  H   LIG d   1       7.787   4.099  -4.251  0.00  0.00     0.069 H 
ENDROOT
BRANCH   1  16
ATOM     16  C   LIG d   1       5.811  -0.120  -7.067  0.00  0.00     0.024 A 
ATOM     17  C   LIG d   1       4.780  -0.490  -6.188  0.00  0.00     0.128 A 
ATOM     18  C   LIG d   1       3.468  -0.163  -6.489  0.00  0.00    -0.016 A 
ATOM     19  C   LIG d   1       3.173   0.527  -7.649  0.00  0.00    -0.017 A 
ATOM     20  H   LIG d   1       2.673  -0.445  -5.814  0.00  0.00     0.066 H 
ATOM     21  C   LIG d   1       4.188   0.897  -8.525  0.00  0.00     0.121 A 
ATOM     22  H   LIG d   1       2.148   0.780  -7.878  0.00  0.00     0.066 H 
ATOM     23  C   LIG d   1       5.502   0.583  -8.238  0.00  0.00    -0.009 A 
ATOM     24  H   LIG d   1       6.289   0.875  -8.917  0.00  0.00     0.066 H 
BRANCH  17  25
ATOM     25  O   LIG d   1       5.068  -1.168  -5.048  0.00  0.00    -0.494 OA
BRANCH  25  26
ATOM     26  C   LIG d   1       4.619  -2.522  -4.966  0.00  0.00     0.079 C 
ATOM     27  H   LIG d   1       3.786  -2.670  -5.654  0.00  0.00     0.066 H 
ATOM     28  H   LIG d   1       5.435  -3.193  -5.235  0.00  0.00     0.066 H 
ATOM     29  H   LIG d   1       4.293  -2.736  -3.949  0.00  0.00     0.066 H 
ENDBRANCH  25  26
ENDBRANCH  17  25
BRANCH  21  30
ATOM     30  O   LIG d   1       3.885   1.575  -9.664  0.00  0.00    -0.495 OA
BRANCH  30  31
ATOM     31  C   LIG d   1       4.211   0.941 -10.902  0.00  0.00     0.079 C 
ATOM     32  H   LIG d   1       3.977   1.614 -11.727  0.00  0.00     0.066 H 
ATOM     33  H   LIG d   1       5.274   0.700 -10.919  0.00  0.00     0.066 H 
ATOM     34  H   LIG d   1       3.630   0.024 -11.004  0.00  0.00     0.066 H 
ENDBRANCH  30  31
ENDBRANCH  21  30
ENDBRANCH   1  16
BRANCH   8  35
ATOM     35  O   LIG d   1       9.806   4.982  -2.854  0.00  0.00    -0.486 OA
BRANCH  35  36
ATOM     36  C   LIG d   1      10.676   5.098  -1.727  0.00  0.00     0.129 C 
ATOM     37  H   LIG d   1      10.714   4.145  -1.198  0.00  0.00     0.076 H 
ATOM     38  H   LIG d   1      11.677   5.366  -2.066  0.00  0.00     0.076 H 
BRANCH  36  39
ATOM     39  C   LIG d   1      10.156   6.167  -0.800  0.00  0.00     0.079 C 
ATOM     40  O   LIG d   1      10.525   6.200   0.350  0.00  0.00    -0.546 OA
ATOM     41  O   LIG d   1       9.283   7.081  -1.252  0.00  0.00    -0.546 OA
ENDBRANCH  36  39
ENDBRANCH  35  36
ENDBRANCH   8  35
TORSDOF 8
ENDMDL
