MODEL 1
REMARK VINA RESULT:      -6.1      0.000      0.000
REMARK  15 active torsions:
REMARK  status: ('A' for Active; 'I' for Inactive)
REMARK    1  A    between atoms: C_1  and  C_2 
REMARK    2  A    between atoms: C_2  and  C_3 
REMARK    3  A    between atoms: C_3  and  C_4 
REMARK    4  A    between atoms: C_4  and  C_5 
REMARK    5  A    between atoms: C_5  and  C_6 
REMARK    6  A    between atoms: C_6  and  N_7 
REMARK    7  A    between atoms: N_7  and  C_8 
REMARK       I    between atoms: N_7  and  C_14 
REMARK    8  A    between atoms: C_8  and  C_9 
REMARK    9  A    between atoms: C_9  and  C_10 
REMARK   10  A    between atoms: C_10  and  C_11 
REMARK   11  A    between atoms: C_11  and  C_12 
REMARK   12  A    between atoms: C_12  and  C_13 
REMARK   13  A    between atoms: C_14  and  C_16 
REMARK   14  A    between atoms: C_16  and  C_17 
REMARK   15  A    between atoms: C_16  and  C_21 
ROOT
ATOM      1  N   LIG d   1       4.956  -0.773  -5.623  0.00  0.00    -0.300 N 
ATOM      2  C   LIG d   1       4.300  -0.093  -4.662  0.00  0.00     0.250 C 
ATOM      3  O   LIG d   1       3.246   0.450  -4.916  0.00  0.00    -0.273 OA
ENDROOT
BRANCH   1   4
ATOM      4  C   LIG d   1       4.213  -1.374  -6.733  0.00  0.00     0.015 C 
ATOM      5  H   LIG d   1       3.205  -1.627  -6.402  0.00  0.00     0.046 H 
ATOM      6  H   LIG d   1       4.724  -2.278  -7.065  0.00  0.00     0.046 H 
BRANCH   4   7
ATOM      7  C   LIG d   1       4.133  -0.379  -7.893  0.00  0.00    -0.037 C 
ATOM      8  H   LIG d   1       4.908  -0.612  -8.625  0.00  0.00     0.028 H 
ATOM      9  H   LIG d   1       4.284   0.631  -7.515  0.00  0.00     0.028 H 
BRANCH   7  10
ATOM     10  C   LIG d   1       2.758  -0.478  -8.556  0.00  0.00    -0.052 C 
ATOM     11  H   LIG d   1       1.998  -0.641  -7.792  0.00  0.00     0.027 H 
ATOM     12  H   LIG d   1       2.752  -1.310  -9.260  0.00  0.00     0.027 H 
BRANCH  10  13
ATOM     13  C   LIG d   1       2.458   0.823  -9.303  0.00  0.00    -0.053 C 
ATOM     14  H   LIG d   1       1.383   0.917  -9.452  0.00  0.00     0.026 H 
ATOM     15  H   LIG d   1       2.958   0.810 -10.272  0.00  0.00     0.026 H 
BRANCH  13  16
ATOM     16  C   LIG d   1       2.967   2.011  -8.484  0.00  0.00    -0.056 C 
ATOM     17  H   LIG d   1       3.465   1.647  -7.586  0.00  0.00     0.026 H 
ATOM     18  H   LIG d   1       2.125   2.643  -8.202  0.00  0.00     0.026 H 
BRANCH  16  19
ATOM     19  C   LIG d   1       3.956   2.823  -9.323  0.00  0.00    -0.065 C 
ATOM     20  H   LIG d   1       3.587   2.900 -10.345  0.00  0.00     0.023 H 
ATOM     21  H   LIG d   1       4.061   3.820  -8.897  0.00  0.00     0.023 H 
ATOM     22  H   LIG d   1       4.925   2.324  -9.324  0.00  0.00     0.023 H 
ENDBRANCH  16  19
ENDBRANCH  13  16
ENDBRANCH  10  13
ENDBRANCH   7  10
ENDBRANCH   4   7
ENDBRANCH   1   4
BRANCH   1  23
ATOM     23  C   LIG d   1       6.413  -0.914  -5.557  0.00  0.00     0.015 C 
ATOM     24  H   LIG d   1       6.883  -0.053  -6.032  0.00  0.00     0.046 H 
ATOM     25  H   LIG d   1       6.726  -0.969  -4.514  0.00  0.00     0.046 H 
BRANCH  23  26
ATOM     26  C   LIG d   1       6.835  -2.192  -6.284  0.00  0.00    -0.037 C 
ATOM     27  H   LIG d   1       5.984  -2.597  -6.830  0.00  0.00     0.028 H 
ATOM     28  H   LIG d   1       7.641  -1.964  -6.982  0.00  0.00     0.028 H 
BRANCH  26  29
ATOM     29  C   LIG d   1       7.324  -3.222  -5.263  0.00  0.00    -0.052 C 
ATOM     30  H   LIG d   1       8.412  -3.275  -5.293  0.00  0.00     0.027 H 
ATOM     31  H   LIG d   1       7.001  -2.925  -4.265  0.00  0.00     0.027 H 
BRANCH  29  32
ATOM     32  C   LIG d   1       6.737  -4.594  -5.602  0.00  0.00    -0.053 C 
ATOM     33  H   LIG d   1       6.950  -4.832  -6.645  0.00  0.00     0.026 H 
ATOM     34  H   LIG d   1       7.184  -5.351  -4.958  0.00  0.00     0.026 H 
BRANCH  32  35
ATOM     35  C   LIG d   1       5.223  -4.568  -5.385  0.00  0.00    -0.056 C 
ATOM     36  H   LIG d   1       5.004  -4.146  -4.402  0.00  0.00     0.026 H 
ATOM     37  H   LIG d   1       4.755  -3.956  -6.154  0.00  0.00     0.026 H 
BRANCH  35  38
ATOM     38  C   LIG d   1       4.672  -5.993  -5.462  0.00  0.00    -0.065 C 
ATOM     39  H   LIG d   1       5.325  -6.601  -6.090  0.00  0.00     0.023 H 
ATOM     40  H   LIG d   1       4.630  -6.422  -4.461  0.00  0.00     0.023 H 
ATOM     41  H   LIG d   1       3.671  -5.973  -5.891  0.00  0.00     0.023 H 
ENDBRANCH  35  38
ENDBRANCH  32  35
ENDBRANCH  29  32
ENDBRANCH  26  29
ENDBRANCH  23  26
ENDBRANCH   1  23
BRANCH   2  42
ATOM     42  C   LIG d   1       4.878  -0.005  -3.273  0.00  0.00     0.289 C 
ATOM     43 BR   LIG d   1       6.713   0.691  -3.369  0.00  0.00    -0.056 Br
BRANCH  42  44
ATOM     44  C   LIG d   1       4.019   0.935  -2.423  0.00  0.00     0.422 C 
ATOM     45  F   LIG d   1       2.742   0.388  -2.269  0.00  0.00    -0.168 F 
ATOM     46  F   LIG d   1       4.612   1.098  -1.167  0.00  0.00    -0.168 F 
ATOM     47  F   LIG d   1       3.922   2.178  -3.058  0.00  0.00    -0.168 F 
ENDBRANCH  42  44
BRANCH  42  48
ATOM     48  C   LIG d   1       4.892  -1.397  -2.637  0.00  0.00     0.422 C 
ATOM     49  F   LIG d   1       4.034  -2.243  -3.347  0.00  0.00    -0.168 F 
ATOM     50  F   LIG d   1       6.192  -1.913  -2.675  0.00  0.00    -0.168 F 
ATOM     51  F   LIG d   1       4.465  -1.306  -1.308  0.00  0.00    -0.168 F 
ENDBRANCH  42  48
ENDBRANCH   2  42
TORSDOF 15
ENDMDL
MODEL 2
REMARK VINA RESULT:      -6.1      2.004      3.637
REMARK  15 active torsions:
REMARK  status: ('A' for Active; 'I' for Inactive)
REMARK    1  A    between atoms: C_1  and  C_2 
REMARK    2  A    between atoms: C_2  and  C_3 
REMARK    3  A    between atoms: C_3  and  C_4 
REMARK    4  A    between atoms: C_4  and  C_5 
REMARK    5  A    between atoms: C_5  and  C_6 
REMARK    6  A    between atoms: C_6  and  N_7 
REMARK    7  A    between atoms: N_7  and  C_8 
REMARK       I    between atoms: N_7  and  C_14 
REMARK    8  A    between atoms: C_8  and  C_9 
REMARK    9  A    between atoms: C_9  and  C_10 
REMARK   10  A    between atoms: C_10  and  C_11 
REMARK   11  A    between atoms: C_11  and  C_12 
REMARK   12  A    between atoms: C_12  and  C_13 
REMARK   13  A    between atoms: C_14  and  C_16 
REMARK   14  A    between atoms: C_16  and  C_17 
REMARK   15  A    between atoms: C_16  and  C_21 
ROOT
ATOM      1  N   LIG d   1       5.572  -0.580  -5.368  0.00  0.00    -0.300 N 
ATOM      2  C   LIG d   1       5.504  -0.435  -4.030  0.00  0.00     0.250 C 
ATOM      3  O   LIG d   1       6.504  -0.557  -3.355  0.00  0.00    -0.273 OA
ENDROOT
BRANCH   1   4
ATOM      4  C   LIG d   1       6.823  -0.291  -6.074  0.00  0.00     0.015 C 
ATOM      5  H   LIG d   1       7.210  -1.207  -6.520  0.00  0.00     0.046 H 
ATOM      6  H   LIG d   1       7.554   0.107  -5.369  0.00  0.00     0.046 H 
BRANCH   4   7
ATOM      7  C   LIG d   1       6.562   0.741  -7.173  0.00  0.00    -0.037 C 
ATOM      8  H   LIG d   1       7.161   1.633  -6.984  0.00  0.00     0.028 H 
ATOM      9  H   LIG d   1       5.506   1.007  -7.178  0.00  0.00     0.028 H 
BRANCH   7  10
ATOM     10  C   LIG d   1       6.946   0.148  -8.530  0.00  0.00    -0.052 C 
ATOM     11  H   LIG d   1       6.868  -0.938  -8.487  0.00  0.00     0.027 H 
ATOM     12  H   LIG d   1       7.970   0.430  -8.774  0.00  0.00     0.027 H 
BRANCH  10  13
ATOM     13  C   LIG d   1       6.000   0.684  -9.607  0.00  0.00    -0.053 C 
ATOM     14  H   LIG d   1       5.271  -0.083  -9.865  0.00  0.00     0.026 H 
ATOM     15  H   LIG d   1       6.574   0.952 -10.494  0.00  0.00     0.026 H 
BRANCH  13  16
ATOM     16  C   LIG d   1       5.274   1.922  -9.077  0.00  0.00    -0.056 C 
ATOM     17  H   LIG d   1       5.893   2.804  -9.239  0.00  0.00     0.026 H 
ATOM     18  H   LIG d   1       5.083   1.802  -8.011  0.00  0.00     0.026 H 
BRANCH  16  19
ATOM     19  C   LIG d   1       3.946   2.089  -9.818  0.00  0.00    -0.065 C 
ATOM     20  H   LIG d   1       3.312   1.223  -9.627  0.00  0.00     0.023 H 
ATOM     21  H   LIG d   1       3.445   2.991  -9.468  0.00  0.00     0.023 H 
ATOM     22  H   LIG d   1       4.134   2.171 -10.888  0.00  0.00     0.023 H 
ENDBRANCH  16  19
ENDBRANCH  13  16
ENDBRANCH  10  13
ENDBRANCH   7  10
ENDBRANCH   4   7
ENDBRANCH   1   4
BRANCH   1  23
ATOM     23  C   LIG d   1       4.395  -1.026  -6.118  0.00  0.00     0.015 C 
ATOM     24  H   LIG d   1       3.532  -1.058  -5.453  0.00  0.00     0.046 H 
ATOM     25  H   LIG d   1       4.200  -0.332  -6.935  0.00  0.00     0.046 H 
BRANCH  23  26
ATOM     26  C   LIG d   1       4.652  -2.423  -6.687  0.00  0.00    -0.037 C 
ATOM     27  H   LIG d   1       5.711  -2.663  -6.595  0.00  0.00     0.028 H 
ATOM     28  H   LIG d   1       4.064  -3.155  -6.134  0.00  0.00     0.028 H 
BRANCH  26  29
ATOM     29  C   LIG d   1       4.249  -2.455  -8.163  0.00  0.00    -0.052 C 
ATOM     30  H   LIG d   1       5.124  -2.264  -8.783  0.00  0.00     0.027 H 
ATOM     31  H   LIG d   1       3.837  -3.434  -8.406  0.00  0.00     0.027 H 
BRANCH  29  32
ATOM     32  C   LIG d   1       3.193  -1.379  -8.425  0.00  0.00    -0.053 C 
ATOM     33  H   LIG d   1       2.388  -1.475  -7.696  0.00  0.00     0.026 H 
ATOM     34  H   LIG d   1       3.649  -0.393  -8.334  0.00  0.00     0.026 H 
BRANCH  32  35
ATOM     35  C   LIG d   1       2.628  -1.552  -9.836  0.00  0.00    -0.056 C 
ATOM     36  H   LIG d   1       3.393  -1.289 -10.568  0.00  0.00     0.026 H 
ATOM     37  H   LIG d   1       2.327  -2.589  -9.982  0.00  0.00     0.026 H 
BRANCH  35  38
ATOM     38  C   LIG d   1       1.415  -0.638 -10.015  0.00  0.00    -0.065 C 
ATOM     39  H   LIG d   1       1.748   0.398 -10.093  0.00  0.00     0.023 H 
ATOM     40  H   LIG d   1       0.881  -0.916 -10.924  0.00  0.00     0.023 H 
ATOM     41  H   LIG d   1       0.751  -0.743  -9.157  0.00  0.00     0.023 H 
ENDBRANCH  35  38
ENDBRANCH  32  35
ENDBRANCH  29  32
ENDBRANCH  26  29
ENDBRANCH  23  26
ENDBRANCH   1  23
BRANCH   2  42
ATOM     42  C   LIG d   1       4.185  -0.123  -3.372  0.00  0.00     0.289 C 
ATOM     43 BR   LIG d   1       2.874   0.390  -4.743  0.00  0.00    -0.056 Br
BRANCH  42  44
ATOM     44  C   LIG d   1       3.683  -1.362  -2.625  0.00  0.00     0.422 C 
ATOM     45  F   LIG d   1       3.951  -2.504  -3.385  0.00  0.00    -0.168 F 
ATOM     46  F   LIG d   1       4.337  -1.458  -1.392  0.00  0.00    -0.168 F 
ATOM     47  F   LIG d   1       2.305  -1.253  -2.415  0.00  0.00    -0.168 F 
ENDBRANCH  42  44
BRANCH  42  48
ATOM     48  C   LIG d   1       4.367   1.030  -2.383  0.00  0.00     0.422 C 
ATOM     49  F   LIG d   1       5.277   1.954  -2.908  0.00  0.00    -0.168 F 
ATOM     50  F   LIG d   1       3.136   1.659  -2.167  0.00  0.00    -0.168 F 
ATOM     51  F   LIG d   1       4.855   0.531  -1.170  0.00  0.00    -0.168 F 
ENDBRANCH  42  48
ENDBRANCH   2  42
TORSDOF 15
ENDMDL
MODEL 3
REMARK VINA RESULT:      -6.1      1.235      1.679
REMARK  15 active torsions:
REMARK  status: ('A' for Active; 'I' for Inactive)
REMARK    1  A    between atoms: C_1  and  C_2 
REMARK    2  A    between atoms: C_2  and  C_3 
REMARK    3  A    between atoms: C_3  and  C_4 
REMARK    4  A    between atoms: C_4  and  C_5 
REMARK    5  A    between atoms: C_5  and  C_6 
REMARK    6  A    between atoms: C_6  and  N_7 
REMARK    7  A    between atoms: N_7  and  C_8 
REMARK       I    between atoms: N_7  and  C_14 
REMARK    8  A    between atoms: C_8  and  C_9 
REMARK    9  A    between atoms: C_9  and  C_10 
REMARK   10  A    between atoms: C_10  and  C_11 
REMARK   11  A    between atoms: C_11  and  C_12 
REMARK   12  A    between atoms: C_12  and  C_13 
REMARK   13  A    between atoms: C_14  and  C_16 
REMARK   14  A    between atoms: C_16  and  C_17 
REMARK   15  A    between atoms: C_16  and  C_21 
ROOT
ATOM      1  N   LIG d   1       4.922  -0.812  -5.717  0.00  0.00    -0.300 N 
ATOM      2  C   LIG d   1       4.165  -0.292  -4.732  0.00  0.00     0.250 C 
ATOM      3  O   LIG d   1       3.019   0.036  -4.957  0.00  0.00    -0.273 OA
ENDROOT
BRANCH   1   4
ATOM      4  C   LIG d   1       4.290  -1.529  -6.828  0.00  0.00     0.015 C 
ATOM      5  H   LIG d   1       3.291  -1.852  -6.531  0.00  0.00     0.046 H 
ATOM      6  H   LIG d   1       4.891  -2.400  -7.087  0.00  0.00     0.046 H 
BRANCH   4   7
ATOM      7  C   LIG d   1       4.187  -0.602  -8.041  0.00  0.00    -0.037 C 
ATOM      8  H   LIG d   1       4.854  -0.958  -8.828  0.00  0.00     0.028 H 
ATOM      9  H   LIG d   1       4.473   0.408  -7.752  0.00  0.00     0.028 H 
BRANCH   7  10
ATOM     10  C   LIG d   1       2.747  -0.597  -8.557  0.00  0.00    -0.052 C 
ATOM     11  H   LIG d   1       2.059  -0.689  -7.717  0.00  0.00     0.027 H 
ATOM     12  H   LIG d   1       2.601  -1.434  -9.240  0.00  0.00     0.027 H 
BRANCH  10  13
ATOM     13  C   LIG d   1       2.475   0.715  -9.296  0.00  0.00    -0.053 C 
ATOM     14  H   LIG d   1       1.404   0.820  -9.468  0.00  0.00     0.026 H 
ATOM     15  H   LIG d   1       2.996   0.709 -10.253  0.00  0.00     0.026 H 
BRANCH  13  16
ATOM     16  C   LIG d   1       2.974   1.889  -8.452  0.00  0.00    -0.056 C 
ATOM     17  H   LIG d   1       3.502   1.509  -7.577  0.00  0.00     0.026 H 
ATOM     18  H   LIG d   1       2.125   2.492  -8.131  0.00  0.00     0.026 H 
BRANCH  16  19
ATOM     19  C   LIG d   1       3.924   2.750  -9.287  0.00  0.00    -0.065 C 
ATOM     20  H   LIG d   1       4.955   2.483  -9.055  0.00  0.00     0.023 H 
ATOM     21  H   LIG d   1       3.733   2.579 -10.346  0.00  0.00     0.023 H 
ATOM     22  H   LIG d   1       3.761   3.802  -9.053  0.00  0.00     0.023 H 
ENDBRANCH  16  19
ENDBRANCH  13  16
ENDBRANCH  10  13
ENDBRANCH   7  10
ENDBRANCH   4   7
ENDBRANCH   1   4
BRANCH   1  23
ATOM     23  C   LIG d   1       6.379  -0.663  -5.678  0.00  0.00     0.015 C 
ATOM     24  H   LIG d   1       6.689   0.075  -6.417  0.00  0.00     0.046 H 
ATOM     25  H   LIG d   1       6.685  -0.334  -4.685  0.00  0.00     0.046 H 
BRANCH  23  26
ATOM     26  C   LIG d   1       7.038  -2.008  -5.994  0.00  0.00    -0.037 C 
ATOM     27  H   LIG d   1       6.441  -2.813  -5.566  0.00  0.00     0.028 H 
ATOM     28  H   LIG d   1       7.102  -2.137  -7.074  0.00  0.00     0.028 H 
BRANCH  26  29
ATOM     29  C   LIG d   1       8.445  -2.041  -5.392  0.00  0.00    -0.052 C 
ATOM     30  H   LIG d   1       9.120  -1.455  -6.016  0.00  0.00     0.027 H 
ATOM     31  H   LIG d   1       8.420  -1.619  -4.387  0.00  0.00     0.027 H 
BRANCH  29  32
ATOM     32  C   LIG d   1       8.938  -3.488  -5.327  0.00  0.00    -0.053 C 
ATOM     33  H   LIG d   1       8.587  -4.031  -6.205  0.00  0.00     0.026 H 
ATOM     34  H   LIG d   1      10.027  -3.500  -5.304  0.00  0.00     0.026 H 
BRANCH  32  35
ATOM     35  C   LIG d   1       8.392  -4.155  -4.063  0.00  0.00    -0.056 C 
ATOM     36  H   LIG d   1       7.463  -3.667  -3.767  0.00  0.00     0.026 H 
ATOM     37  H   LIG d   1       8.201  -5.209  -4.263  0.00  0.00     0.026 H 
BRANCH  35  38
ATOM     38  C   LIG d   1       9.418  -4.027  -2.935  0.00  0.00    -0.065 C 
ATOM     39  H   LIG d   1       8.920  -3.673  -2.031  0.00  0.00     0.023 H 
ATOM     40  H   LIG d   1       9.871  -4.999  -2.744  0.00  0.00     0.023 H 
ATOM     41  H   LIG d   1      10.191  -3.316  -3.226  0.00  0.00     0.023 H 
ENDBRANCH  35  38
ENDBRANCH  32  35
ENDBRANCH  29  32
ENDBRANCH  26  29
ENDBRANCH  23  26
ENDBRANCH   1  23
BRANCH   2  42
ATOM     42  C   LIG d   1       4.742  -0.116  -3.350  0.00  0.00     0.289 C 
ATOM     43 BR   LIG d   1       6.496   0.760  -3.480  0.00  0.00    -0.056 Br
BRANCH  42  44
ATOM     44  C   LIG d   1       3.799   0.750  -2.512  0.00  0.00     0.422 C 
ATOM     45  F   LIG d   1       2.589   0.075  -2.325  0.00  0.00    -0.168 F 
ATOM     46  F   LIG d   1       4.386   1.008  -1.269  0.00  0.00    -0.168 F 
ATOM     47  F   LIG d   1       3.563   1.958  -3.176  0.00  0.00    -0.168 F 
ENDBRANCH  42  44
BRANCH  42  48
ATOM     48  C   LIG d   1       4.903  -1.485  -2.687  0.00  0.00     0.422 C 
ATOM     49  F   LIG d   1       4.521  -1.400  -1.344  0.00  0.00    -0.168 F 
ATOM     50  F   LIG d   1       4.094  -2.420  -3.342  0.00  0.00    -0.168 F 
ATOM     51  F   LIG d   1       6.240  -1.888  -2.768  0.00  0.00    -0.168 F 
ENDBRANCH  42  48
ENDBRANCH   2  42
TORSDOF 15
ENDMDL
MODEL 4
REMARK VINA RESULT:      -6.0      2.457      5.140
REMARK  15 active torsions:
REMARK  status: ('A' for Active; 'I' for Inactive)
REMARK    1  A    between atoms: C_1  and  C_2 
REMARK    2  A    between atoms: C_2  and  C_3 
REMARK    3  A    between atoms: C_3  and  C_4 
REMARK    4  A    between atoms: C_4  and  C_5 
REMARK    5  A    between atoms: C_5  and  C_6 
REMARK    6  A    between atoms: C_6  and  N_7 
REMARK    7  A    between atoms: N_7  and  C_8 
REMARK       I    between atoms: N_7  and  C_14 
REMARK    8  A    between atoms: C_8  and  C_9 
REMARK    9  A    between atoms: C_9  and  C_10 
REMARK   10  A    between atoms: C_10  and  C_11 
REMARK   11  A    between atoms: C_11  and  C_12 
REMARK   12  A    between atoms: C_12  and  C_13 
REMARK   13  A    between atoms: C_14  and  C_16 
REMARK   14  A    between atoms: C_16  and  C_17 
REMARK   15  A    between atoms: C_16  and  C_21 
ROOT
ATOM      1  N   LIG d   1       5.693  -0.427  -5.314  0.00  0.00    -0.300 N 
ATOM      2  C   LIG d   1       5.518  -0.496  -3.980  0.00  0.00     0.250 C 
ATOM      3  O   LIG d   1       6.425  -0.873  -3.268  0.00  0.00    -0.273 OA
ENDROOT
BRANCH   1   4
ATOM      4  C   LIG d   1       7.033  -0.211  -5.868  0.00  0.00     0.015 C 
ATOM      5  H   LIG d   1       7.057  -0.551  -6.904  0.00  0.00     0.046 H 
ATOM      6  H   LIG d   1       7.761  -0.774  -5.284  0.00  0.00     0.046 H 
BRANCH   4   7
ATOM      7  C   LIG d   1       7.375   1.279  -5.811  0.00  0.00    -0.037 C 
ATOM      8  H   LIG d   1       6.616   1.804  -5.229  0.00  0.00     0.028 H 
ATOM      9  H   LIG d   1       7.401   1.684  -6.822  0.00  0.00     0.028 H 
BRANCH   7  10
ATOM     10  C   LIG d   1       8.742   1.463  -5.151  0.00  0.00    -0.052 C 
ATOM     11  H   LIG d   1       9.325   2.188  -5.719  0.00  0.00     0.027 H 
ATOM     12  H   LIG d   1       9.268   0.509  -5.131  0.00  0.00     0.027 H 
BRANCH  10  13
ATOM     13  C   LIG d   1       8.554   1.970  -3.720  0.00  0.00    -0.053 C 
ATOM     14  H   LIG d   1       8.870   1.200  -3.017  0.00  0.00     0.026 H 
ATOM     15  H   LIG d   1       7.502   2.204  -3.553  0.00  0.00     0.026 H 
BRANCH  13  16
ATOM     16  C   LIG d   1       9.395   3.231  -3.510  0.00  0.00    -0.056 C 
ATOM     17  H   LIG d   1       8.848   3.932  -2.881  0.00  0.00     0.026 H 
ATOM     18  H   LIG d   1       9.602   3.693  -4.475  0.00  0.00     0.026 H 
BRANCH  16  19
ATOM     19  C   LIG d   1      10.713   2.856  -2.831  0.00  0.00    -0.065 C 
ATOM     20  H   LIG d   1      10.576   2.848  -1.749  0.00  0.00     0.023 H 
ATOM     21  H   LIG d   1      11.027   1.868  -3.165  0.00  0.00     0.023 H 
ATOM     22  H   LIG d   1      11.478   3.588  -3.093  0.00  0.00     0.023 H 
ENDBRANCH  16  19
ENDBRANCH  13  16
ENDBRANCH  10  13
ENDBRANCH   7  10
ENDBRANCH   4   7
ENDBRANCH   1   4
BRANCH   1  23
ATOM     23  C   LIG d   1       4.544  -0.566  -6.212  0.00  0.00     0.015 C 
ATOM     24  H   LIG d   1       3.887  -1.353  -5.842  0.00  0.00     0.046 H 
ATOM     25  H   LIG d   1       3.996   0.376  -6.250  0.00  0.00     0.046 H 
BRANCH  23  26
ATOM     26  C   LIG d   1       5.034  -0.927  -7.616  0.00  0.00    -0.037 C 
ATOM     27  H   LIG d   1       6.119  -1.031  -7.606  0.00  0.00     0.028 H 
ATOM     28  H   LIG d   1       4.581  -1.868  -7.928  0.00  0.00     0.028 H 
BRANCH  26  29
ATOM     29  C   LIG d   1       4.636   0.179  -8.596  0.00  0.00    -0.052 C 
ATOM     30  H   LIG d   1       5.190   1.088  -8.362  0.00  0.00     0.027 H 
ATOM     31  H   LIG d   1       4.867  -0.136  -9.613  0.00  0.00     0.027 H 
BRANCH  29  32
ATOM     32  C   LIG d   1       3.135   0.451  -8.474  0.00  0.00    -0.053 C 
ATOM     33  H   LIG d   1       2.608  -0.050  -9.287  0.00  0.00     0.026 H 
ATOM     34  H   LIG d   1       2.773   0.072  -7.519  0.00  0.00     0.026 H 
BRANCH  32  35
ATOM     35  C   LIG d   1       2.882   1.958  -8.554  0.00  0.00    -0.056 C 
ATOM     36  H   LIG d   1       1.972   2.143  -9.128  0.00  0.00     0.026 H 
ATOM     37  H   LIG d   1       2.766   2.361  -7.549  0.00  0.00     0.026 H 
BRANCH  35  38
ATOM     38  C   LIG d   1       4.067   2.638  -9.243  0.00  0.00    -0.065 C 
ATOM     39  H   LIG d   1       4.506   1.953  -9.970  0.00  0.00     0.023 H 
ATOM     40  H   LIG d   1       3.723   3.537  -9.754  0.00  0.00     0.023 H 
ATOM     41  H   LIG d   1       4.815   2.906  -8.498  0.00  0.00     0.023 H 
ENDBRANCH  35  38
ENDBRANCH  32  35
ENDBRANCH  29  32
ENDBRANCH  26  29
ENDBRANCH  23  26
ENDBRANCH   1  23
BRANCH   2  42
ATOM     42  C   LIG d   1       4.195  -0.108  -3.371  0.00  0.00     0.289 C 
ATOM     43 BR   LIG d   1       2.987   0.531  -4.784  0.00  0.00    -0.056 Br
BRANCH  42  44
ATOM     44  C   LIG d   1       3.575  -1.325  -2.681  0.00  0.00     0.422 C 
ATOM     45  F   LIG d   1       2.216  -1.088  -2.451  0.00  0.00    -0.168 F 
ATOM     46  F   LIG d   1       3.721  -2.449  -3.501  0.00  0.00    -0.168 F 
ATOM     47  F   LIG d   1       4.223  -1.549  -1.462  0.00  0.00    -0.168 F 
ENDBRANCH  42  44
BRANCH  42  48
ATOM     48  C   LIG d   1       4.413   1.005  -2.345  0.00  0.00     0.422 C 
ATOM     49  F   LIG d   1       4.804   0.445  -1.125  0.00  0.00    -0.168 F 
ATOM     50  F   LIG d   1       5.412   1.872  -2.801  0.00  0.00    -0.168 F 
ATOM     51  F   LIG d   1       3.221   1.718  -2.171  0.00  0.00    -0.168 F 
ENDBRANCH  42  48
ENDBRANCH   2  42
TORSDOF 15
ENDMDL
MODEL 5
REMARK VINA RESULT:      -6.0      2.121      3.510
REMARK  15 active torsions:
REMARK  status: ('A' for Active; 'I' for Inactive)
REMARK    1  A    between atoms: C_1  and  C_2 
REMARK    2  A    between atoms: C_2  and  C_3 
REMARK    3  A    between atoms: C_3  and  C_4 
REMARK    4  A    between atoms: C_4  and  C_5 
REMARK    5  A    between atoms: C_5  and  C_6 
REMARK    6  A    between atoms: C_6  and  N_7 
REMARK    7  A    between atoms: N_7  and  C_8 
REMARK       I    between atoms: N_7  and  C_14 
REMARK    8  A    between atoms: C_8  and  C_9 
REMARK    9  A    between atoms: C_9  and  C_10 
REMARK   10  A    between atoms: C_10  and  C_11 
REMARK   11  A    between atoms: C_11  and  C_12 
REMARK   12  A    between atoms: C_12  and  C_13 
REMARK   13  A    between atoms: C_14  and  C_16 
REMARK   14  A    between atoms: C_16  and  C_17 
REMARK   15  A    between atoms: C_16  and  C_21 
ROOT
ATOM      1  N   LIG d   1       3.881  -0.372  -6.036  0.00  0.00    -0.300 N 
ATOM      2  C   LIG d   1       3.848   0.075  -4.765  0.00  0.00     0.250 C 
ATOM      3  O   LIG d   1       3.252   1.097  -4.498  0.00  0.00    -0.273 OA
ENDROOT
BRANCH   1   4
ATOM      4  C   LIG d   1       2.792  -0.042  -6.959  0.00  0.00     0.015 C 
ATOM      5  H   LIG d   1       1.874   0.124  -6.393  0.00  0.00     0.046 H 
ATOM      6  H   LIG d   1       2.644  -0.867  -7.655  0.00  0.00     0.046 H 
BRANCH   4   7
ATOM      7  C   LIG d   1       3.148   1.225  -7.738  0.00  0.00    -0.037 C 
ATOM      8  H   LIG d   1       4.231   1.357  -7.742  0.00  0.00     0.028 H 
ATOM      9  H   LIG d   1       2.680   2.087  -7.263  0.00  0.00     0.028 H 
BRANCH   7  10
ATOM     10  C   LIG d   1       2.644   1.098  -9.177  0.00  0.00    -0.052 C 
ATOM     11  H   LIG d   1       1.664   1.567  -9.261  0.00  0.00     0.027 H 
ATOM     12  H   LIG d   1       2.568   0.044  -9.443  0.00  0.00     0.027 H 
BRANCH  10  13
ATOM     13  C   LIG d   1       3.624   1.793 -10.123  0.00  0.00    -0.053 C 
ATOM     14  H   LIG d   1       4.524   2.070  -9.575  0.00  0.00     0.026 H 
ATOM     15  H   LIG d   1       3.159   2.689 -10.534  0.00  0.00     0.026 H 
BRANCH  13  16
ATOM     16  C   LIG d   1       3.994   0.842 -11.264  0.00  0.00    -0.056 C 
ATOM     17  H   LIG d   1       5.013   0.486 -11.123  0.00  0.00     0.026 H 
ATOM     18  H   LIG d   1       3.920   1.371 -12.214  0.00  0.00     0.026 H 
BRANCH  16  19
ATOM     19  C   LIG d   1       3.033  -0.348 -11.267  0.00  0.00    -0.065 C 
ATOM     20  H   LIG d   1       2.421  -0.324 -10.365  0.00  0.00     0.023 H 
ATOM     21  H   LIG d   1       2.389  -0.294 -12.144  0.00  0.00     0.023 H 
ATOM     22  H   LIG d   1       3.604  -1.276 -11.293  0.00  0.00     0.023 H 
ENDBRANCH  16  19
ENDBRANCH  13  16
ENDBRANCH  10  13
ENDBRANCH   7  10
ENDBRANCH   4   7
ENDBRANCH   1   4
BRANCH   1  23
ATOM     23  C   LIG d   1       5.007  -1.189  -6.495  0.00  0.00     0.015 C 
ATOM     24  H   LIG d   1       5.891  -0.562  -6.603  0.00  0.00     0.046 H 
ATOM     25  H   LIG d   1       5.206  -1.976  -5.768  0.00  0.00     0.046 H 
BRANCH  23  26
ATOM     26  C   LIG d   1       4.661  -1.820  -7.847  0.00  0.00    -0.037 C 
ATOM     27  H   LIG d   1       4.628  -2.904  -7.743  0.00  0.00     0.028 H 
ATOM     28  H   LIG d   1       3.689  -1.455  -8.179  0.00  0.00     0.028 H 
BRANCH  26  29
ATOM     29  C   LIG d   1       5.728  -1.438  -8.876  0.00  0.00    -0.052 C 
ATOM     30  H   LIG d   1       6.280  -2.329  -9.174  0.00  0.00     0.027 H 
ATOM     31  H   LIG d   1       5.248  -0.997  -9.749  0.00  0.00     0.027 H 
BRANCH  29  32
ATOM     32  C   LIG d   1       6.692  -0.423  -8.257  0.00  0.00    -0.053 C 
ATOM     33  H   LIG d   1       6.195   0.097  -7.437  0.00  0.00     0.026 H 
ATOM     34  H   LIG d   1       7.571  -0.942  -7.877  0.00  0.00     0.026 H 
BRANCH  32  35
ATOM     35  C   LIG d   1       7.116   0.590  -9.321  0.00  0.00    -0.056 C 
ATOM     36  H   LIG d   1       8.147   0.392  -9.620  0.00  0.00     0.026 H 
ATOM     37  H   LIG d   1       6.464   0.502 -10.189  0.00  0.00     0.026 H 
BRANCH  35  38
ATOM     38  C   LIG d   1       7.014   2.005  -8.748  0.00  0.00    -0.065 C 
ATOM     39  H   LIG d   1       6.378   2.613  -9.393  0.00  0.00     0.023 H 
ATOM     40  H   LIG d   1       6.582   1.961  -7.748  0.00  0.00     0.023 H 
ATOM     41  H   LIG d   1       8.008   2.449  -8.696  0.00  0.00     0.023 H 
ENDBRANCH  35  38
ENDBRANCH  32  35
ENDBRANCH  29  32
ENDBRANCH  26  29
ENDBRANCH  23  26
ENDBRANCH   1  23
BRANCH   2  42
ATOM     42  C   LIG d   1       4.552  -0.693  -3.677  0.00  0.00     0.289 C 
ATOM     43 BR   LIG d   1       4.809  -2.555  -4.251  0.00  0.00    -0.056 Br
BRANCH  42  44
ATOM     44  C   LIG d   1       5.914  -0.052  -3.400  0.00  0.00     0.422 C 
ATOM     45  F   LIG d   1       6.396   0.542  -4.571  0.00  0.00    -0.168 F 
ATOM     46  F   LIG d   1       5.775   0.923  -2.406  0.00  0.00    -0.168 F 
ATOM     47  F   LIG d   1       6.812  -1.034  -2.969  0.00  0.00    -0.168 F 
ENDBRANCH  42  44
BRANCH  42  48
ATOM     48  C   LIG d   1       3.706  -0.665  -2.403  0.00  0.00     0.422 C 
ATOM     49  F   LIG d   1       4.362  -1.373  -1.391  0.00  0.00    -0.168 F 
ATOM     50  F   LIG d   1       3.518   0.661  -1.996  0.00  0.00    -0.168 F 
ATOM     51  F   LIG d   1       2.462  -1.256  -2.656  0.00  0.00    -0.168 F 
ENDBRANCH  42  48
ENDBRANCH   2  42
TORSDOF 15
ENDMDL
MODEL 6
REMARK VINA RESULT:      -6.0      1.367      2.864
REMARK  15 active torsions:
REMARK  status: ('A' for Active; 'I' for Inactive)
REMARK    1  A    between atoms: C_1  and  C_2 
REMARK    2  A    between atoms: C_2  and  C_3 
REMARK    3  A    between atoms: C_3  and  C_4 
REMARK    4  A    between atoms: C_4  and  C_5 
REMARK    5  A    between atoms: C_5  and  C_6 
REMARK    6  A    between atoms: C_6  and  N_7 
REMARK    7  A    between atoms: N_7  and  C_8 
REMARK       I    between atoms: N_7  and  C_14 
REMARK    8  A    between atoms: C_8  and  C_9 
REMARK    9  A    between atoms: C_9  and  C_10 
REMARK   10  A    between atoms: C_10  and  C_11 
REMARK   11  A    between atoms: C_11  and  C_12 
REMARK   12  A    between atoms: C_12  and  C_13 
REMARK   13  A    between atoms: C_14  and  C_16 
REMARK   14  A    between atoms: C_16  and  C_17 
REMARK   15  A    between atoms: C_16  and  C_21 
ROOT
ATOM      1  N   LIG d   1       4.905  -0.776  -5.661  0.00  0.00    -0.300 N 
ATOM      2  C   LIG d   1       4.131  -0.273  -4.679  0.00  0.00     0.250 C 
ATOM      3  O   LIG d   1       2.978   0.025  -4.908  0.00  0.00    -0.273 OA
ENDROOT
BRANCH   1   4
ATOM      4  C   LIG d   1       4.294  -1.513  -6.771  0.00  0.00     0.015 C 
ATOM      5  H   LIG d   1       3.306  -1.866  -6.472  0.00  0.00     0.046 H 
ATOM      6  H   LIG d   1       4.922  -2.365  -7.030  0.00  0.00     0.046 H 
BRANCH   4   7
ATOM      7  C   LIG d   1       4.160  -0.590  -7.983  0.00  0.00    -0.037 C 
ATOM      8  H   LIG d   1       4.701  -1.020  -8.828  0.00  0.00     0.028 H 
ATOM      9  H   LIG d   1       4.579   0.387  -7.745  0.00  0.00     0.028 H 
BRANCH   7  10
ATOM     10  C   LIG d   1       2.683  -0.437  -8.348  0.00  0.00    -0.052 C 
ATOM     11  H   LIG d   1       2.099  -0.287  -7.440  0.00  0.00     0.027 H 
ATOM     12  H   LIG d   1       2.339  -1.336  -8.858  0.00  0.00     0.027 H 
BRANCH  10  13
ATOM     13  C   LIG d   1       2.507   0.770  -9.271  0.00  0.00    -0.053 C 
ATOM     14  H   LIG d   1       1.466   0.840  -9.584  0.00  0.00     0.026 H 
ATOM     15  H   LIG d   1       3.143   0.653 -10.149  0.00  0.00     0.026 H 
BRANCH  13  16
ATOM     16  C   LIG d   1       2.903   2.046  -8.524  0.00  0.00    -0.056 C 
ATOM     17  H   LIG d   1       3.277   1.786  -7.535  0.00  0.00     0.026 H 
ATOM     18  H   LIG d   1       2.031   2.693  -8.425  0.00  0.00     0.026 H 
BRANCH  16  19
ATOM     19  C   LIG d   1       3.994   2.777  -9.307  0.00  0.00    -0.065 C 
ATOM     20  H   LIG d   1       3.931   3.847  -9.106  0.00  0.00     0.023 H 
ATOM     21  H   LIG d   1       4.972   2.407  -9.001  0.00  0.00     0.023 H 
ATOM     22  H   LIG d   1       3.857   2.600 -10.374  0.00  0.00     0.023 H 
ENDBRANCH  16  19
ENDBRANCH  13  16
ENDBRANCH  10  13
ENDBRANCH   7  10
ENDBRANCH   4   7
ENDBRANCH   1   4
BRANCH   1  23
ATOM     23  C   LIG d   1       6.357  -0.590  -5.618  0.00  0.00     0.015 C 
ATOM     24  H   LIG d   1       6.623   0.320  -6.156  0.00  0.00     0.046 H 
ATOM     25  H   LIG d   1       6.683  -0.508  -4.581  0.00  0.00     0.046 H 
BRANCH  23  26
ATOM     26  C   LIG d   1       7.045  -1.790  -6.274  0.00  0.00    -0.037 C 
ATOM     27  H   LIG d   1       7.653  -2.308  -5.534  0.00  0.00     0.028 H 
ATOM     28  H   LIG d   1       6.290  -2.471  -6.666  0.00  0.00     0.028 H 
BRANCH  26  29
ATOM     29  C   LIG d   1       7.936  -1.304  -7.419  0.00  0.00    -0.052 C 
ATOM     30  H   LIG d   1       8.947  -1.685  -7.278  0.00  0.00     0.027 H 
ATOM     31  H   LIG d   1       7.539  -1.666  -8.367  0.00  0.00     0.027 H 
BRANCH  29  32
ATOM     32  C   LIG d   1       7.964   0.226  -7.428  0.00  0.00    -0.053 C 
ATOM     33  H   LIG d   1       7.256   0.606  -6.691  0.00  0.00     0.026 H 
ATOM     34  H   LIG d   1       8.967   0.573  -7.181  0.00  0.00     0.026 H 
BRANCH  32  35
ATOM     35  C   LIG d   1       7.575   0.734  -8.818  0.00  0.00    -0.056 C 
ATOM     36  H   LIG d   1       8.258   0.319  -9.560  0.00  0.00     0.026 H 
ATOM     37  H   LIG d   1       6.557   0.423  -9.046  0.00  0.00     0.026 H 
BRANCH  35  38
ATOM     38  C   LIG d   1       7.661   2.261  -8.844  0.00  0.00    -0.065 C 
ATOM     39  H   LIG d   1       6.654   2.681  -8.882  0.00  0.00     0.023 H 
ATOM     40  H   LIG d   1       8.166   2.613  -7.945  0.00  0.00     0.023 H 
ATOM     41  H   LIG d   1       8.220   2.579  -9.724  0.00  0.00     0.023 H 
ENDBRANCH  35  38
ENDBRANCH  32  35
ENDBRANCH  29  32
ENDBRANCH  26  29
ENDBRANCH  23  26
ENDBRANCH   1  23
BRANCH   2  42
ATOM     42  C   LIG d   1       4.699  -0.078  -3.297  0.00  0.00     0.289 C 
ATOM     43 BR   LIG d   1       6.470   0.765  -3.429  0.00  0.00    -0.056 Br
BRANCH  42  44
ATOM     44  C   LIG d   1       3.765   0.822  -2.484  0.00  0.00     0.422 C 
ATOM     45  F   LIG d   1       4.360   1.122  -1.255  0.00  0.00    -0.168 F 
ATOM     46  F   LIG d   1       3.531   2.007  -3.190  0.00  0.00    -0.168 F 
ATOM     47  F   LIG d   1       2.552   0.160  -2.268  0.00  0.00    -0.168 F 
ENDBRANCH  42  44
BRANCH  42  48
ATOM     48  C   LIG d   1       4.831  -1.435  -2.603  0.00  0.00     0.422 C 
ATOM     49  F   LIG d   1       4.552  -1.291  -1.240  0.00  0.00    -0.168 F 
ATOM     50  F   LIG d   1       3.927  -2.339  -3.170  0.00  0.00    -0.168 F 
ATOM     51  F   LIG d   1       6.136  -1.916  -2.765  0.00  0.00    -0.168 F 
ENDBRANCH  42  48
ENDBRANCH   2  42
TORSDOF 15
ENDMDL
MODEL 7
REMARK VINA RESULT:      -5.9      1.871      2.490
REMARK  15 active torsions:
REMARK  status: ('A' for Active; 'I' for Inactive)
REMARK    1  A    between atoms: C_1  and  C_2 
REMARK    2  A    between atoms: C_2  and  C_3 
REMARK    3  A    between atoms: C_3  and  C_4 
REMARK    4  A    between atoms: C_4  and  C_5 
REMARK    5  A    between atoms: C_5  and  C_6 
REMARK    6  A    between atoms: C_6  and  N_7 
REMARK    7  A    between atoms: N_7  and  C_8 
REMARK       I    between atoms: N_7  and  C_14 
REMARK    8  A    between atoms: C_8  and  C_9 
REMARK    9  A    between atoms: C_9  and  C_10 
REMARK   10  A    between atoms: C_10  and  C_11 
REMARK   11  A    between atoms: C_11  and  C_12 
REMARK   12  A    between atoms: C_12  and  C_13 
REMARK   13  A    between atoms: C_14  and  C_16 
REMARK   14  A    between atoms: C_16  and  C_17 
REMARK   15  A    between atoms: C_16  and  C_21 
ROOT
ATOM      1  N   LIG d   1       3.792  -0.143  -5.979  0.00  0.00    -0.300 N 
ATOM      2  C   LIG d   1       3.586   0.429  -4.776  0.00  0.00     0.250 C 
ATOM      3  O   LIG d   1       2.837   1.378  -4.676  0.00  0.00    -0.273 OA
ENDROOT
BRANCH   1   4
ATOM      4  C   LIG d   1       2.755  -0.073  -7.012  0.00  0.00     0.015 C 
ATOM      5  H   LIG d   1       1.791   0.131  -6.545  0.00  0.00     0.046 H 
ATOM      6  H   LIG d   1       2.708  -1.023  -7.543  0.00  0.00     0.046 H 
BRANCH   4   7
ATOM      7  C   LIG d   1       3.092   1.047  -7.998  0.00  0.00    -0.037 C 
ATOM      8  H   LIG d   1       4.142   1.321  -7.892  0.00  0.00     0.028 H 
ATOM      9  H   LIG d   1       2.468   1.915  -7.789  0.00  0.00     0.028 H 
BRANCH   7  10
ATOM     10  C   LIG d   1       2.832   0.564  -9.426  0.00  0.00    -0.052 C 
ATOM     11  H   LIG d   1       3.737   0.107  -9.825  0.00  0.00     0.027 H 
ATOM     12  H   LIG d   1       2.546   1.410 -10.050  0.00  0.00     0.027 H 
BRANCH  10  13
ATOM     13  C   LIG d   1       1.702  -0.467  -9.418  0.00  0.00    -0.053 C 
ATOM     14  H   LIG d   1       0.793  -0.008  -9.029  0.00  0.00     0.026 H 
ATOM     15  H   LIG d   1       1.982  -1.309  -8.784  0.00  0.00     0.026 H 
BRANCH  13  16
ATOM     16  C   LIG d   1       1.453  -0.963 -10.844  0.00  0.00    -0.056 C 
ATOM     17  H   LIG d   1       0.612  -0.421 -11.275  0.00  0.00     0.026 H 
ATOM     18  H   LIG d   1       1.226  -2.029 -10.822  0.00  0.00     0.026 H 
BRANCH  16  19
ATOM     19  C   LIG d   1       2.704  -0.725 -11.692  0.00  0.00    -0.065 C 
ATOM     20  H   LIG d   1       2.789  -1.511 -12.442  0.00  0.00     0.023 H 
ATOM     21  H   LIG d   1       2.629   0.243 -12.186  0.00  0.00     0.023 H 
ATOM     22  H   LIG d   1       3.585  -0.739 -11.051  0.00  0.00     0.023 H 
ENDBRANCH  16  19
ENDBRANCH  13  16
ENDBRANCH  10  13
ENDBRANCH   7  10
ENDBRANCH   4   7
ENDBRANCH   1   4
BRANCH   1  23
ATOM     23  C   LIG d   1       5.053  -0.836  -6.254  0.00  0.00     0.015 C 
ATOM     24  H   LIG d   1       5.713  -0.179  -6.820  0.00  0.00     0.046 H 
ATOM     25  H   LIG d   1       5.532  -1.109  -5.313  0.00  0.00     0.046 H 
BRANCH  23  26
ATOM     26  C   LIG d   1       4.772  -2.102  -7.067  0.00  0.00    -0.037 C 
ATOM     27  H   LIG d   1       5.172  -2.967  -6.541  0.00  0.00     0.028 H 
ATOM     28  H   LIG d   1       3.696  -2.219  -7.196  0.00  0.00     0.028 H 
BRANCH  26  29
ATOM     29  C   LIG d   1       5.441  -1.985  -8.439  0.00  0.00    -0.052 C 
ATOM     30  H   LIG d   1       5.372  -0.955  -8.790  0.00  0.00     0.027 H 
ATOM     31  H   LIG d   1       6.489  -2.273  -8.358  0.00  0.00     0.027 H 
BRANCH  29  32
ATOM     32  C   LIG d   1       4.733  -2.910  -9.431  0.00  0.00    -0.053 C 
ATOM     33  H   LIG d   1       4.408  -2.333 -10.298  0.00  0.00     0.026 H 
ATOM     34  H   LIG d   1       5.420  -3.692  -9.753  0.00  0.00     0.026 H 
BRANCH  32  35
ATOM     35  C   LIG d   1       3.515  -3.545  -8.756  0.00  0.00    -0.056 C 
ATOM     36  H   LIG d   1       3.850  -4.232  -7.977  0.00  0.00     0.026 H 
ATOM     37  H   LIG d   1       2.898  -2.765  -8.312  0.00  0.00     0.026 H 
BRANCH  35  38
ATOM     38  C   LIG d   1       2.698  -4.312  -9.797  0.00  0.00    -0.065 C 
ATOM     39  H   LIG d   1       2.249  -3.607 -10.498  0.00  0.00     0.023 H 
ATOM     40  H   LIG d   1       3.350  -4.997 -10.338  0.00  0.00     0.023 H 
ATOM     41  H   LIG d   1       1.911  -4.877  -9.297  0.00  0.00     0.023 H 
ENDBRANCH  35  38
ENDBRANCH  32  35
ENDBRANCH  29  32
ENDBRANCH  26  29
ENDBRANCH  23  26
ENDBRANCH   1  23
BRANCH   2  42
ATOM     42  C   LIG d   1       4.286  -0.110  -3.555  0.00  0.00     0.289 C 
ATOM     43 BR   LIG d   1       6.145  -0.558  -4.010  0.00  0.00    -0.056 Br
BRANCH  42  44
ATOM     44  C   LIG d   1       4.272   0.949  -2.451  0.00  0.00     0.422 C 
ATOM     45  F   LIG d   1       2.956   1.168  -2.032  0.00  0.00    -0.168 F 
ATOM     46  F   LIG d   1       5.038   0.504  -1.368  0.00  0.00    -0.168 F 
ATOM     47  F   LIG d   1       4.810   2.143  -2.944  0.00  0.00    -0.168 F 
ENDBRANCH  42  44
BRANCH  42  48
ATOM     48  C   LIG d   1       3.564  -1.367  -3.066  0.00  0.00     0.422 C 
ATOM     49  F   LIG d   1       2.181  -1.167  -3.133  0.00  0.00    -0.168 F 
ATOM     50  F   LIG d   1       3.917  -2.453  -3.874  0.00  0.00    -0.168 F 
ATOM     51  F   LIG d   1       3.934  -1.631  -1.742  0.00  0.00    -0.168 F 
ENDBRANCH  42  48
ENDBRANCH   2  42
TORSDOF 15
ENDMDL
MODEL 8
REMARK VINA RESULT:      -5.9      1.943      3.285
REMARK  15 active torsions:
REMARK  status: ('A' for Active; 'I' for Inactive)
REMARK    1  A    between atoms: C_1  and  C_2 
REMARK    2  A    between atoms: C_2  and  C_3 
REMARK    3  A    between atoms: C_3  and  C_4 
REMARK    4  A    between atoms: C_4  and  C_5 
REMARK    5  A    between atoms: C_5  and  C_6 
REMARK    6  A    between atoms: C_6  and  N_7 
REMARK    7  A    between atoms: N_7  and  C_8 
REMARK       I    between atoms: N_7  and  C_14 
REMARK    8  A    between atoms: C_8  and  C_9 
REMARK    9  A    between atoms: C_9  and  C_10 
REMARK   10  A    between atoms: C_10  and  C_11 
REMARK   11  A    between atoms: C_11  and  C_12 
REMARK   12  A    between atoms: C_12  and  C_13 
REMARK   13  A    between atoms: C_14  and  C_16 
REMARK   14  A    between atoms: C_16  and  C_17 
REMARK   15  A    between atoms: C_16  and  C_21 
ROOT
ATOM      1  N   LIG d   1       4.830  -0.511  -5.738  0.00  0.00    -0.300 N 
ATOM      2  C   LIG d   1       4.085  -0.354  -4.626  0.00  0.00     0.250 C 
ATOM      3  O   LIG d   1       2.889  -0.172  -4.718  0.00  0.00    -0.273 OA
ENDROOT
BRANCH   1   4
ATOM      4  C   LIG d   1       4.223  -1.054  -6.956  0.00  0.00     0.015 C 
ATOM      5  H   LIG d   1       3.845  -2.057  -6.758  0.00  0.00     0.046 H 
ATOM      6  H   LIG d   1       4.973  -1.098  -7.746  0.00  0.00     0.046 H 
BRANCH   4   7
ATOM      7  C   LIG d   1       3.070  -0.151  -7.398  0.00  0.00    -0.037 C 
ATOM      8  H   LIG d   1       3.361   0.894  -7.279  0.00  0.00     0.028 H 
ATOM      9  H   LIG d   1       2.193  -0.355  -6.785  0.00  0.00     0.028 H 
BRANCH   7  10
ATOM     10  C   LIG d   1       2.742  -0.425  -8.867  0.00  0.00    -0.052 C 
ATOM     11  H   LIG d   1       1.802  -0.971  -8.933  0.00  0.00     0.027 H 
ATOM     12  H   LIG d   1       3.540  -1.017  -9.314  0.00  0.00     0.027 H 
BRANCH  10  13
ATOM     13  C   LIG d   1       2.613   0.902  -9.617  0.00  0.00    -0.053 C 
ATOM     14  H   LIG d   1       1.580   1.041  -9.935  0.00  0.00     0.026 H 
ATOM     15  H   LIG d   1       3.263   0.890 -10.492  0.00  0.00     0.026 H 
BRANCH  13  16
ATOM     16  C   LIG d   1       3.023   2.052  -8.694  0.00  0.00    -0.056 C 
ATOM     17  H   LIG d   1       3.262   1.658  -7.707  0.00  0.00     0.026 H 
ATOM     18  H   LIG d   1       2.200   2.762  -8.614  0.00  0.00     0.026 H 
BRANCH  16  19
ATOM     19  C   LIG d   1       4.251   2.757  -9.273  0.00  0.00    -0.065 C 
ATOM     20  H   LIG d   1       4.309   2.566 -10.344  0.00  0.00     0.023 H 
ATOM     21  H   LIG d   1       4.171   3.829  -9.099  0.00  0.00     0.023 H 
ATOM     22  H   LIG d   1       5.150   2.377  -8.788  0.00  0.00     0.023 H 
ENDBRANCH  16  19
ENDBRANCH  13  16
ENDBRANCH  10  13
ENDBRANCH   7  10
ENDBRANCH   4   7
ENDBRANCH   1   4
BRANCH   1  23
ATOM     23  C   LIG d   1       6.248  -0.142  -5.728  0.00  0.00     0.015 C 
ATOM     24  H   LIG d   1       6.406   0.674  -5.023  0.00  0.00     0.046 H 
ATOM     25  H   LIG d   1       6.846  -1.002  -5.428  0.00  0.00     0.046 H 
BRANCH  23  26
ATOM     26  C   LIG d   1       6.668   0.306  -7.130  0.00  0.00    -0.037 C 
ATOM     27  H   LIG d   1       7.118  -0.534  -7.659  0.00  0.00     0.028 H 
ATOM     28  H   LIG d   1       5.792   0.654  -7.678  0.00  0.00     0.028 H 
BRANCH  26  29
ATOM     29  C   LIG d   1       7.684   1.444  -7.019  0.00  0.00    -0.052 C 
ATOM     30  H   LIG d   1       8.357   1.415  -7.876  0.00  0.00     0.027 H 
ATOM     31  H   LIG d   1       7.159   2.399  -7.000  0.00  0.00     0.027 H 
BRANCH  29  32
ATOM     32  C   LIG d   1       8.493   1.281  -5.730  0.00  0.00    -0.053 C 
ATOM     33  H   LIG d   1       7.991   0.568  -5.075  0.00  0.00     0.026 H 
ATOM     34  H   LIG d   1       9.490   0.913  -5.971  0.00  0.00     0.026 H 
BRANCH  32  35
ATOM     35  C   LIG d   1       8.603   2.633  -5.023  0.00  0.00    -0.056 C 
ATOM     36  H   LIG d   1       9.268   3.286  -5.591  0.00  0.00     0.026 H 
ATOM     37  H   LIG d   1       7.617   3.089  -4.955  0.00  0.00     0.026 H 
BRANCH  35  38
ATOM     38  C   LIG d   1       9.169   2.428  -3.617  0.00  0.00    -0.065 C 
ATOM     39  H   LIG d   1       8.773   1.502  -3.197  0.00  0.00     0.023 H 
ATOM     40  H   LIG d   1      10.256   2.368  -3.667  0.00  0.00     0.023 H 
ATOM     41  H   LIG d   1       8.879   3.266  -2.983  0.00  0.00     0.023 H 
ENDBRANCH  35  38
ENDBRANCH  32  35
ENDBRANCH  29  32
ENDBRANCH  26  29
ENDBRANCH  23  26
ENDBRANCH   1  23
BRANCH   2  42
ATOM     42  C   LIG d   1       4.737  -0.400  -3.268  0.00  0.00     0.289 C 
ATOM     43 BR   LIG d   1       6.550  -1.140  -3.438  0.00  0.00    -0.056 Br
BRANCH  42  44
ATOM     44  C   LIG d   1       4.816   1.015  -2.692  0.00  0.00     0.422 C 
ATOM     45  F   LIG d   1       3.755   1.779  -3.187  0.00  0.00    -0.168 F 
ATOM     46  F   LIG d   1       4.736   0.955  -1.297  0.00  0.00    -0.168 F 
ATOM     47  F   LIG d   1       6.029   1.603  -3.065  0.00  0.00    -0.168 F 
ENDBRANCH  42  44
BRANCH  42  48
ATOM     48  C   LIG d   1       3.910  -1.286  -2.335  0.00  0.00     0.422 C 
ATOM     49  F   LIG d   1       4.559  -1.397  -1.101  0.00  0.00    -0.168 F 
ATOM     50  F   LIG d   1       2.647  -0.715  -2.147  0.00  0.00    -0.168 F 
ATOM     51  F   LIG d   1       3.768  -2.557  -2.903  0.00  0.00    -0.168 F 
ENDBRANCH  42  48
ENDBRANCH   2  42
TORSDOF 15
ENDMDL
MODEL 9
REMARK VINA RESULT:      -5.8      2.313      4.455
REMARK  15 active torsions:
REMARK  status: ('A' for Active; 'I' for Inactive)
REMARK    1  A    between atoms: C_1  and  C_2 
REMARK    2  A    between atoms: C_2  and  C_3 
REMARK    3  A    between atoms: C_3  and  C_4 
REMARK    4  A    between atoms: C_4  and  C_5 
REMARK    5  A    between atoms: C_5  and  C_6 
REMARK    6  A    between atoms: C_6  and  N_7 
REMARK    7  A    between atoms: N_7  and  C_8 
REMARK       I    between atoms: N_7  and  C_14 
REMARK    8  A    between atoms: C_8  and  C_9 
REMARK    9  A    between atoms: C_9  and  C_10 
REMARK   10  A    between atoms: C_10  and  C_11 
REMARK   11  A    between atoms: C_11  and  C_12 
REMARK   12  A    between atoms: C_12  and  C_13 
REMARK   13  A    between atoms: C_14  and  C_16 
REMARK   14  A    between atoms: C_16  and  C_17 
REMARK   15  A    between atoms: C_16  and  C_21 
ROOT
ATOM      1  N   LIG d   1       5.425  -0.432  -5.500  0.00  0.00    -0.300 N 
ATOM      2  C   LIG d   1       5.347  -0.516  -4.157  0.00  0.00     0.250 C 
ATOM      3  O   LIG d   1       6.289  -0.940  -3.521  0.00  0.00    -0.273 OA
ENDROOT
BRANCH   1   4
ATOM      4  C   LIG d   1       6.727  -0.259  -6.149  0.00  0.00     0.015 C 
ATOM      5  H   LIG d   1       6.618  -0.400  -7.225  0.00  0.00     0.046 H 
ATOM      6  H   LIG d   1       7.429  -0.994  -5.756  0.00  0.00     0.046 H 
BRANCH   4   7
ATOM      7  C   LIG d   1       7.254   1.150  -5.870  0.00  0.00    -0.037 C 
ATOM      8  H   LIG d   1       7.904   1.128  -4.995  0.00  0.00     0.028 H 
ATOM      9  H   LIG d   1       6.416   1.821  -5.683  0.00  0.00     0.028 H 
BRANCH   7  10
ATOM     10  C   LIG d   1       8.046   1.648  -7.081  0.00  0.00    -0.052 C 
ATOM     11  H   LIG d   1       8.857   0.952  -7.294  0.00  0.00     0.027 H 
ATOM     12  H   LIG d   1       8.457   2.633  -6.866  0.00  0.00     0.027 H 
BRANCH  10  13
ATOM     13  C   LIG d   1       7.119   1.737  -8.295  0.00  0.00    -0.053 C 
ATOM     14  H   LIG d   1       6.780   2.765  -8.419  0.00  0.00     0.026 H 
ATOM     15  H   LIG d   1       6.257   1.087  -8.143  0.00  0.00     0.026 H 
BRANCH  13  16
ATOM     16  C   LIG d   1       7.876   1.294  -9.549  0.00  0.00    -0.056 C 
ATOM     17  H   LIG d   1       8.933   1.182  -9.313  0.00  0.00     0.026 H 
ATOM     18  H   LIG d   1       7.754   2.045 -10.329  0.00  0.00     0.026 H 
BRANCH  16  19
ATOM     19  C   LIG d   1       7.316  -0.044 -10.036  0.00  0.00    -0.065 C 
ATOM     20  H   LIG d   1       6.580   0.133 -10.820  0.00  0.00     0.023 H 
ATOM     21  H   LIG d   1       8.127  -0.656 -10.429  0.00  0.00     0.023 H 
ATOM     22  H   LIG d   1       6.841  -0.564  -9.203  0.00  0.00     0.023 H 
ENDBRANCH  16  19
ENDBRANCH  13  16
ENDBRANCH  10  13
ENDBRANCH   7  10
ENDBRANCH   4   7
ENDBRANCH   1   4
BRANCH   1  23
ATOM     23  C   LIG d   1       4.207  -0.511  -6.310  0.00  0.00     0.015 C 
ATOM     24  H   LIG d   1       3.533  -1.252  -5.882  0.00  0.00     0.046 H 
ATOM     25  H   LIG d   1       3.716   0.462  -6.325  0.00  0.00     0.046 H 
BRANCH  23  26
ATOM     26  C   LIG d   1       4.572  -0.918  -7.740  0.00  0.00    -0.037 C 
ATOM     27  H   LIG d   1       5.604  -0.634  -7.946  0.00  0.00     0.028 H 
ATOM     28  H   LIG d   1       4.463  -1.997  -7.849  0.00  0.00     0.028 H 
BRANCH  26  29
ATOM     29  C   LIG d   1       3.641  -0.209  -8.726  0.00  0.00    -0.052 C 
ATOM     30  H   LIG d   1       4.085  -0.226  -9.721  0.00  0.00     0.027 H 
ATOM     31  H   LIG d   1       2.678  -0.719  -8.747  0.00  0.00     0.027 H 
BRANCH  29  32
ATOM     32  C   LIG d   1       3.439   1.242  -8.283  0.00  0.00    -0.053 C 
ATOM     33  H   LIG d   1       2.426   1.367  -7.899  0.00  0.00     0.026 H 
ATOM     34  H   LIG d   1       4.156   1.486  -7.499  0.00  0.00     0.026 H 
BRANCH  32  35
ATOM     35  C   LIG d   1       3.651   2.174  -9.477  0.00  0.00    -0.056 C 
ATOM     36  H   LIG d   1       2.763   2.791  -9.617  0.00  0.00     0.026 H 
ATOM     37  H   LIG d   1       4.512   2.815  -9.289  0.00  0.00     0.026 H 
BRANCH  35  38
ATOM     38  C   LIG d   1       3.899   1.342 -10.736  0.00  0.00    -0.065 C 
ATOM     39  H   LIG d   1       4.106   2.007 -11.576  0.00  0.00     0.023 H 
ATOM     40  H   LIG d   1       4.753   0.684 -10.575  0.00  0.00     0.023 H 
ATOM     41  H   LIG d   1       3.015   0.743 -10.956  0.00  0.00     0.023 H 
ENDBRANCH  35  38
ENDBRANCH  32  35
ENDBRANCH  29  32
ENDBRANCH  26  29
ENDBRANCH  23  26
ENDBRANCH   1  23
BRANCH   2  42
ATOM     42  C   LIG d   1       4.090  -0.087  -3.446  0.00  0.00     0.289 C 
ATOM     43 BR   LIG d   1       2.814   0.639  -4.753  0.00  0.00    -0.056 Br
BRANCH  42  44
ATOM     44  C   LIG d   1       3.466  -1.294  -2.740  0.00  0.00     0.422 C 
ATOM     45  F   LIG d   1       2.120  -1.030  -2.469  0.00  0.00    -0.168 F 
ATOM     46  F   LIG d   1       3.565  -2.418  -3.567  0.00  0.00    -0.168 F 
ATOM     47  F   LIG d   1       4.146  -1.534  -1.542  0.00  0.00    -0.168 F 
ENDBRANCH  42  44
BRANCH  42  48
ATOM     48  C   LIG d   1       4.430   0.989  -2.413  0.00  0.00     0.422 C 
ATOM     49  F   LIG d   1       4.846   0.380  -1.225  0.00  0.00    -0.168 F 
ATOM     50  F   LIG d   1       5.458   1.800  -2.905  0.00  0.00    -0.168 F 
ATOM     51  F   LIG d   1       3.296   1.772  -2.165  0.00  0.00    -0.168 F 
ENDBRANCH  42  48
ENDBRANCH   2  42
TORSDOF 15
ENDMDL
