MODEL 1
REMARK VINA RESULT:      -7.3      0.000      0.000
REMARK  8 active torsions:
REMARK  status: ('A' for Active; 'I' for Inactive)
REMARK    1  A    between atoms: C_1  and  C_2 
REMARK    2  A    between atoms: C_7  and  C_8 
REMARK    3  A    between atoms: N_27  and  C_30 
REMARK    4  A    between atoms: C_30  and  C_31 
REMARK    5  A    between atoms: C_31  and  O_32 
REMARK    6  A    between atoms: C_31  and  O_34 
REMARK    7  A    between atoms: O_32  and  C_33 
REMARK    8  A    between atoms: O_34  and  C_35 
ROOT
ATOM      1  C   LIG d   1       6.919  -1.057  -4.770  0.00  0.00     0.093 C 
ATOM      2  H   LIG d   1       7.657  -0.283  -4.985  0.00  0.00     0.062 H 
ATOM      3  C   LIG d   1       7.618  -2.337  -4.374  0.00  0.00     0.046 A 
ATOM      4  C   LIG d   1       7.677  -3.430  -5.166  0.00  0.00    -0.015 A 
ATOM      5  C   LIG d   1       8.431  -4.435  -4.444  0.00  0.00     0.003 A 
ATOM      6  C   LIG d   1       8.804  -5.746  -4.757  0.00  0.00    -0.052 A 
ATOM      7  C   LIG d   1       9.538  -6.424  -3.815  0.00  0.00    -0.061 A 
ATOM      8  C   LIG d   1       9.890  -5.851  -2.604  0.00  0.00    -0.060 A 
ATOM      9  C   LIG d   1       9.530  -4.558  -2.267  0.00  0.00    -0.038 A 
ATOM     10  C   LIG d   1       8.788  -3.844  -3.206  0.00  0.00     0.047 A 
ATOM     11  N   LIG d   1       8.278  -2.577  -3.199  0.00  0.00    -0.356 N 
ATOM     12  H   LIG d   1       8.370  -1.943  -2.470  0.00  0.00     0.166 HD
ATOM     13  C   LIG d   1       7.055  -3.532  -6.535  0.00  0.00     0.002 C 
ATOM     14  C   LIG d   1       6.757  -2.116  -7.048  0.00  0.00     0.107 A 
ATOM     15  H   LIG d   1       7.697  -1.636  -7.321  0.00  0.00     0.060 H 
ATOM     16  N   LIG d   1       6.123  -1.342  -5.982  0.00  0.00    -0.276 N 
ATOM     17  C   LIG d   1       4.872  -0.883  -6.059  0.00  0.00     0.234 A 
ATOM     18  O   LIG d   1       4.419  -0.312  -5.090  0.00  0.00    -0.274 OA
ATOM     19  C   LIG d   1       3.993  -1.023  -7.259  0.00  0.00     0.091 A 
ATOM     20  N   LIG d   1       4.666  -1.703  -8.354  0.00  0.00    -0.286 N 
ATOM     21  C   LIG d   1       5.886  -2.194  -8.261  0.00  0.00     0.237 A 
ATOM     22  O   LIG d   1       6.331  -2.744  -9.245  0.00  0.00    -0.274 OA
ATOM     23  H   LIG d   1       8.535  -6.201  -5.699  0.00  0.00     0.062 H 
ATOM     24  H   LIG d   1       9.848  -7.437  -4.025  0.00  0.00     0.062 H 
ATOM     25  H   LIG d   1      10.464  -6.433  -1.900  0.00  0.00     0.062 H 
ATOM     26  H   LIG d   1       9.811  -4.122  -1.319  0.00  0.00     0.064 H 
ATOM     27  H   LIG d   1       7.746  -4.030  -7.215  0.00  0.00     0.034 H 
ATOM     28  H   LIG d   1       6.128  -4.103  -6.472  0.00  0.00     0.034 H 
ATOM     29  H   LIG d   1       3.105  -1.591  -6.983  0.00  0.00     0.056 H 
ATOM     30  H   LIG d   1       3.690  -0.031  -7.593  0.00  0.00     0.056 H 
ENDROOT
BRANCH   1  31
ATOM     31  C   LIG d   1       6.010  -0.604  -3.656  0.00  0.00    -0.018 A 
ATOM     32  C   LIG d   1       6.059   0.705  -3.213  0.00  0.00    -0.045 A 
ATOM     33  C   LIG d   1       5.223   1.122  -2.193  0.00  0.00    -0.059 A 
ATOM     34  C   LIG d   1       4.345   0.227  -1.612  0.00  0.00    -0.061 A 
ATOM     35  H   LIG d   1       5.259   2.144  -1.850  0.00  0.00     0.062 H 
ATOM     36  C   LIG d   1       4.299  -1.083  -2.051  0.00  0.00    -0.061 A 
ATOM     37  H   LIG d   1       3.694   0.551  -0.813  0.00  0.00     0.062 H 
ATOM     38  C   LIG d   1       5.133  -1.499  -3.073  0.00  0.00    -0.056 A 
ATOM     39  H   LIG d   1       3.613  -1.782  -1.596  0.00  0.00     0.062 H 
ATOM     40  H   LIG d   1       5.098  -2.522  -3.416  0.00  0.00     0.062 H 
BRANCH  32  41
ATOM     41  C   LIG d   1       7.021   1.679  -3.845  0.00  0.00    -0.039 C 
ATOM     42  H   LIG d   1       7.740   1.133  -4.457  0.00  0.00     0.028 H 
ATOM     43  H   LIG d   1       6.469   2.380  -4.470  0.00  0.00     0.028 H 
ATOM     44  H   LIG d   1       7.550   2.226  -3.064  0.00  0.00     0.028 H 
ENDBRANCH  32  41
ENDBRANCH   1  31
BRANCH  20  45
ATOM     45  C   LIG d   1       3.945  -1.855  -9.619  0.00  0.00     0.066 C 
ATOM     46  H   LIG d   1       4.652  -1.814 -10.448  0.00  0.00     0.051 H 
ATOM     47  H   LIG d   1       3.427  -2.814  -9.630  0.00  0.00     0.051 H 
BRANCH  45  48
ATOM     48  C   LIG d   1       2.926  -0.723  -9.765  0.00  0.00     0.174 C 
ATOM     49  H   LIG d   1       2.969  -0.081  -8.886  0.00  0.00     0.092 H 
BRANCH  48  50
ATOM     50  O   LIG d   1       3.231   0.045 -10.931  0.00  0.00    -0.353 OA
BRANCH  50  51
ATOM     51  C   LIG d   1       3.984   1.230 -10.665  0.00  0.00     0.040 C 
ATOM     52  H   LIG d   1       4.331   1.658 -11.605  0.00  0.00     0.052 H 
ATOM     53  H   LIG d   1       3.353   1.953 -10.148  0.00  0.00     0.052 H 
ATOM     54  H   LIG d   1       4.842   0.984 -10.039  0.00  0.00     0.052 H 
ENDBRANCH  50  51
ENDBRANCH  48  50
BRANCH  48  55
ATOM     55  O   LIG d   1       1.614  -1.275  -9.889  0.00  0.00    -0.353 OA
BRANCH  55  56
ATOM     56  C   LIG d   1       1.597  -2.682 -10.137  0.00  0.00     0.040 C 
ATOM     57  H   LIG d   1       2.339  -3.172  -9.506  0.00  0.00     0.052 H 
ATOM     58  H   LIG d   1       0.608  -3.079  -9.910  0.00  0.00     0.052 H 
ATOM     59  H   LIG d   1       1.831  -2.869 -11.185  0.00  0.00     0.052 H 
ENDBRANCH  55  56
ENDBRANCH  48  55
ENDBRANCH  45  48
ENDBRANCH  20  45
TORSDOF 8
ENDMDL
MODEL 2
REMARK VINA RESULT:      -7.1      3.239      7.442
REMARK  8 active torsions:
REMARK  status: ('A' for Active; 'I' for Inactive)
REMARK    1  A    between atoms: C_1  and  C_2 
REMARK    2  A    between atoms: C_7  and  C_8 
REMARK    3  A    between atoms: N_27  and  C_30 
REMARK    4  A    between atoms: C_30  and  C_31 
REMARK    5  A    between atoms: C_31  and  O_32 
REMARK    6  A    between atoms: C_31  and  O_34 
REMARK    7  A    between atoms: O_32  and  C_33 
REMARK    8  A    between atoms: O_34  and  C_35 
ROOT
ATOM      1  C   LIG d   1       5.875  -0.945  -5.923  0.00  0.00     0.093 C 
ATOM      2  H   LIG d   1       6.431  -1.881  -5.985  0.00  0.00     0.062 H 
ATOM      3  C   LIG d   1       5.209  -0.655  -7.249  0.00  0.00     0.046 A 
ATOM      4  C   LIG d   1       5.617   0.320  -8.090  0.00  0.00    -0.015 A 
ATOM      5  C   LIG d   1       4.741   0.277  -9.244  0.00  0.00     0.003 A 
ATOM      6  C   LIG d   1       4.680   1.037 -10.415  0.00  0.00    -0.052 A 
ATOM      7  C   LIG d   1       3.697   0.710 -11.317  0.00  0.00    -0.061 A 
ATOM      8  C   LIG d   1       2.796  -0.315 -11.083  0.00  0.00    -0.060 A 
ATOM      9  C   LIG d   1       2.830  -1.080  -9.930  0.00  0.00    -0.038 A 
ATOM     10  C   LIG d   1       3.821  -0.773  -8.998  0.00  0.00     0.047 A 
ATOM     11  N   LIG d   1       4.133  -1.312  -7.783  0.00  0.00    -0.356 N 
ATOM     12  H   LIG d   1       3.664  -2.049  -7.362  0.00  0.00     0.166 HD
ATOM     13  C   LIG d   1       6.773   1.251  -7.828  0.00  0.00     0.002 C 
ATOM     14  C   LIG d   1       7.653   0.647  -6.724  0.00  0.00     0.107 A 
ATOM     15  H   LIG d   1       8.203  -0.200  -7.136  0.00  0.00     0.060 H 
ATOM     16  N   LIG d   1       6.799   0.172  -5.636  0.00  0.00    -0.276 N 
ATOM     17  C   LIG d   1       6.824   0.694  -4.408  0.00  0.00     0.234 A 
ATOM     18  O   LIG d   1       6.026   0.272  -3.598  0.00  0.00    -0.274 OA
ATOM     19  C   LIG d   1       7.770   1.761  -3.963  0.00  0.00     0.091 A 
ATOM     20  N   LIG d   1       8.685   2.156  -5.020  0.00  0.00    -0.286 N 
ATOM     21  C   LIG d   1       8.631   1.670  -6.245  0.00  0.00     0.237 A 
ATOM     22  O   LIG d   1       9.449   2.088  -7.036  0.00  0.00    -0.274 OA
ATOM     23  H   LIG d   1       5.379   1.838 -10.607  0.00  0.00     0.062 H 
ATOM     24  H   LIG d   1       3.623   1.273 -12.236  0.00  0.00     0.062 H 
ATOM     25  H   LIG d   1       2.042  -0.525 -11.826  0.00  0.00     0.062 H 
ATOM     26  H   LIG d   1       2.122  -1.877  -9.759  0.00  0.00     0.064 H 
ATOM     27  H   LIG d   1       7.360   1.371  -8.738  0.00  0.00     0.034 H 
ATOM     28  H   LIG d   1       6.394   2.221  -7.506  0.00  0.00     0.034 H 
ATOM     29  H   LIG d   1       7.197   2.632  -3.647  0.00  0.00     0.056 H 
ATOM     30  H   LIG d   1       8.348   1.391  -3.116  0.00  0.00     0.056 H 
ENDROOT
BRANCH   1  31
ATOM     31  C   LIG d   1       4.834  -1.039  -4.837  0.00  0.00    -0.018 A 
ATOM     32  C   LIG d   1       4.909  -2.045  -3.892  0.00  0.00    -0.045 A 
ATOM     33  C   LIG d   1       3.957  -2.130  -2.893  0.00  0.00    -0.059 A 
ATOM     34  C   LIG d   1       2.923  -1.213  -2.846  0.00  0.00    -0.061 A 
ATOM     35  H   LIG d   1       4.018  -2.914  -2.154  0.00  0.00     0.062 H 
ATOM     36  C   LIG d   1       2.845  -0.210  -3.794  0.00  0.00    -0.061 A 
ATOM     37  H   LIG d   1       2.177  -1.281  -2.068  0.00  0.00     0.062 H 
ATOM     38  C   LIG d   1       3.799  -0.124  -4.790  0.00  0.00    -0.056 A 
ATOM     39  H   LIG d   1       2.037   0.506  -3.757  0.00  0.00     0.062 H 
ATOM     40  H   LIG d   1       3.738   0.660  -5.531  0.00  0.00     0.062 H 
BRANCH  32  41
ATOM     41  C   LIG d   1       6.034  -3.048  -3.948  0.00  0.00    -0.039 C 
ATOM     42  H   LIG d   1       6.296  -3.242  -4.988  0.00  0.00     0.028 H 
ATOM     43  H   LIG d   1       6.901  -2.649  -3.422  0.00  0.00     0.028 H 
ATOM     44  H   LIG d   1       5.717  -3.977  -3.474  0.00  0.00     0.028 H 
ENDBRANCH  32  41
ENDBRANCH   1  31
BRANCH  20  45
ATOM     45  C   LIG d   1       9.713   3.151  -4.707  0.00  0.00     0.066 C 
ATOM     46  H   LIG d   1      10.693   2.761  -4.982  0.00  0.00     0.051 H 
ATOM     47  H   LIG d   1       9.516   4.066  -5.266  0.00  0.00     0.051 H 
BRANCH  45  48
ATOM     48  C   LIG d   1       9.690   3.454  -3.207  0.00  0.00     0.174 C 
ATOM     49  H   LIG d   1       8.757   3.089  -2.778  0.00  0.00     0.092 H 
BRANCH  48  50
ATOM     50  O   LIG d   1      10.793   2.803  -2.573  0.00  0.00    -0.353 OA
BRANCH  50  51
ATOM     51  C   LIG d   1      11.735   2.235  -3.486  0.00  0.00     0.040 C 
ATOM     52  H   LIG d   1      11.712   2.790  -4.423  0.00  0.00     0.052 H 
ATOM     53  H   LIG d   1      12.735   2.289  -3.057  0.00  0.00     0.052 H 
ATOM     54  H   LIG d   1      11.476   1.193  -3.674  0.00  0.00     0.052 H 
ENDBRANCH  50  51
ENDBRANCH  48  50
BRANCH  48  55
ATOM     55  O   LIG d   1       9.789   4.864  -3.004  0.00  0.00    -0.353 OA
BRANCH  55  56
ATOM     56  C   LIG d   1      10.459   5.232  -1.797  0.00  0.00     0.040 C 
ATOM     57  H   LIG d   1      11.473   4.831  -1.807  0.00  0.00     0.052 H 
ATOM     58  H   LIG d   1      10.500   6.319  -1.720  0.00  0.00     0.052 H 
ATOM     59  H   LIG d   1       9.917   4.828  -0.942  0.00  0.00     0.052 H 
ENDBRANCH  55  56
ENDBRANCH  48  55
ENDBRANCH  45  48
ENDBRANCH  20  45
TORSDOF 8
ENDMDL
MODEL 3
REMARK VINA RESULT:      -7.0      2.580      7.040
REMARK  8 active torsions:
REMARK  status: ('A' for Active; 'I' for Inactive)
REMARK    1  A    between atoms: C_1  and  C_2 
REMARK    2  A    between atoms: C_7  and  C_8 
REMARK    3  A    between atoms: N_27  and  C_30 
REMARK    4  A    between atoms: C_30  and  C_31 
REMARK    5  A    between atoms: C_31  and  O_32 
REMARK    6  A    between atoms: C_31  and  O_34 
REMARK    7  A    between atoms: O_32  and  C_33 
REMARK    8  A    between atoms: O_34  and  C_35 
ROOT
ATOM      1  C   LIG d   1       4.964  -1.583  -5.082  0.00  0.00     0.093 C 
ATOM      2  H   LIG d   1       4.224  -2.379  -4.993  0.00  0.00     0.062 H 
ATOM      3  C   LIG d   1       4.686  -0.760  -6.319  0.00  0.00     0.046 A 
ATOM      4  C   LIG d   1       5.451  -0.802  -7.431  0.00  0.00    -0.015 A 
ATOM      5  C   LIG d   1       4.861   0.112  -8.387  0.00  0.00     0.003 A 
ATOM      6  C   LIG d   1       5.215   0.481  -9.688  0.00  0.00    -0.052 A 
ATOM      7  C   LIG d   1       4.405   1.396 -10.316  0.00  0.00    -0.061 A 
ATOM      8  C   LIG d   1       3.294   1.943  -9.696  0.00  0.00    -0.060 A 
ATOM      9  C   LIG d   1       2.924   1.599  -8.407  0.00  0.00    -0.038 A 
ATOM     10  C   LIG d   1       3.725   0.669  -7.747  0.00  0.00     0.047 A 
ATOM     11  N   LIG d   1       3.652   0.120  -6.499  0.00  0.00    -0.356 N 
ATOM     12  H   LIG d   1       2.970   0.323  -5.839  0.00  0.00     0.166 HD
ATOM     13  C   LIG d   1       6.681  -1.658  -7.593  0.00  0.00     0.002 C 
ATOM     14  C   LIG d   1       6.662  -2.759  -6.522  0.00  0.00     0.107 A 
ATOM     15  H   LIG d   1       5.903  -3.495  -6.789  0.00  0.00     0.060 H 
ATOM     16  N   LIG d   1       6.314  -2.166  -5.232  0.00  0.00    -0.276 N 
ATOM     17  C   LIG d   1       7.152  -2.137  -4.194  0.00  0.00     0.234 A 
ATOM     18  O   LIG d   1       6.788  -1.560  -3.190  0.00  0.00    -0.274 OA
ATOM     19  C   LIG d   1       8.506  -2.767  -4.182  0.00  0.00     0.091 A 
ATOM     20  N   LIG d   1       8.804  -3.444  -5.433  0.00  0.00    -0.286 N 
ATOM     21  C   LIG d   1       7.994  -3.436  -6.473  0.00  0.00     0.237 A 
ATOM     22  O   LIG d   1       8.363  -4.034  -7.460  0.00  0.00    -0.274 OA
ATOM     23  H   LIG d   1       6.079   0.060 -10.181  0.00  0.00     0.062 H 
ATOM     24  H   LIG d   1       4.645   1.701 -11.324  0.00  0.00     0.062 H 
ATOM     25  H   LIG d   1       2.696   2.661 -10.236  0.00  0.00     0.062 H 
ATOM     26  H   LIG d   1       2.055   2.032  -7.934  0.00  0.00     0.064 H 
ATOM     27  H   LIG d   1       6.684  -2.113  -8.584  0.00  0.00     0.034 H 
ATOM     28  H   LIG d   1       7.573  -1.043  -7.471  0.00  0.00     0.034 H 
ATOM     29  H   LIG d   1       9.255  -1.995  -4.011  0.00  0.00     0.056 H 
ATOM     30  H   LIG d   1       8.552  -3.492  -3.369  0.00  0.00     0.056 H 
ENDROOT
BRANCH   1  31
ATOM     31  C   LIG d   1       4.920  -0.702  -3.860  0.00  0.00    -0.018 A 
ATOM     32  C   LIG d   1       4.310  -1.153  -2.705  0.00  0.00    -0.045 A 
ATOM     33  C   LIG d   1       4.273  -0.346  -1.582  0.00  0.00    -0.059 A 
ATOM     34  C   LIG d   1       4.838   0.914  -1.619  0.00  0.00    -0.061 A 
ATOM     35  H   LIG d   1       3.799  -0.700  -0.679  0.00  0.00     0.062 H 
ATOM     36  C   LIG d   1       5.444   1.367  -2.776  0.00  0.00    -0.061 A 
ATOM     37  H   LIG d   1       4.806   1.546  -0.743  0.00  0.00     0.062 H 
ATOM     38  C   LIG d   1       5.484   0.559  -3.897  0.00  0.00    -0.056 A 
ATOM     39  H   LIG d   1       5.885   2.353  -2.804  0.00  0.00     0.062 H 
ATOM     40  H   LIG d   1       5.957   0.913  -4.801  0.00  0.00     0.062 H 
BRANCH  32  41
ATOM     41  C   LIG d   1       3.689  -2.526  -2.667  0.00  0.00    -0.039 C 
ATOM     42  H   LIG d   1       3.398  -2.821  -3.676  0.00  0.00     0.028 H 
ATOM     43  H   LIG d   1       4.412  -3.240  -2.274  0.00  0.00     0.028 H 
ATOM     44  H   LIG d   1       2.808  -2.510  -2.025  0.00  0.00     0.028 H 
ENDBRANCH  32  41
ENDBRANCH   1  31
BRANCH  20  45
ATOM     45  C   LIG d   1      10.076  -4.164  -5.543  0.00  0.00     0.066 C 
ATOM     46  H   LIG d   1       9.885  -5.194  -5.843  0.00  0.00     0.051 H 
ATOM     47  H   LIG d   1      10.705  -3.678  -6.288  0.00  0.00     0.051 H 
BRANCH  45  48
ATOM     48  C   LIG d   1      10.787  -4.152  -4.188  0.00  0.00     0.174 C 
ATOM     49  H   LIG d   1      10.241  -3.510  -3.497  0.00  0.00     0.092 H 
BRANCH  48  50
ATOM     50  O   LIG d   1      10.837  -5.481  -3.665  0.00  0.00    -0.353 OA
BRANCH  50  51
ATOM     51  C   LIG d   1      10.062  -5.668  -2.479  0.00  0.00     0.040 C 
ATOM     52  H   LIG d   1       9.996  -4.725  -1.937  0.00  0.00     0.052 H 
ATOM     53  H   LIG d   1       9.061  -6.004  -2.747  0.00  0.00     0.052 H 
ATOM     54  H   LIG d   1      10.539  -6.417  -1.847  0.00  0.00     0.052 H 
ENDBRANCH  50  51
ENDBRANCH  48  50
BRANCH  48  55
ATOM     55  O   LIG d   1      12.116  -3.655  -4.352  0.00  0.00    -0.353 OA
BRANCH  55  56
ATOM     56  C   LIG d   1      12.236  -2.243  -4.166  0.00  0.00     0.040 C 
ATOM     57  H   LIG d   1      12.809  -1.815  -4.989  0.00  0.00     0.052 H 
ATOM     58  H   LIG d   1      11.243  -1.794  -4.144  0.00  0.00     0.052 H 
ATOM     59  H   LIG d   1      12.746  -2.043  -3.224  0.00  0.00     0.052 H 
ENDBRANCH  55  56
ENDBRANCH  48  55
ENDBRANCH  45  48
ENDBRANCH  20  45
TORSDOF 8
ENDMDL
MODEL 4
REMARK VINA RESULT:      -6.9      3.156      5.330
REMARK  8 active torsions:
REMARK  status: ('A' for Active; 'I' for Inactive)
REMARK    1  A    between atoms: C_1  and  C_2 
REMARK    2  A    between atoms: C_7  and  C_8 
REMARK    3  A    between atoms: N_27  and  C_30 
REMARK    4  A    between atoms: C_30  and  C_31 
REMARK    5  A    between atoms: C_31  and  O_32 
REMARK    6  A    between atoms: C_31  and  O_34 
REMARK    7  A    between atoms: O_32  and  C_33 
REMARK    8  A    between atoms: O_34  and  C_35 
ROOT
ATOM      1  C   LIG d   1       5.239  -0.970  -7.579  0.00  0.00     0.093 C 
ATOM      2  H   LIG d   1       6.300  -0.986  -7.830  0.00  0.00     0.062 H 
ATOM      3  C   LIG d   1       5.068  -0.843  -6.082  0.00  0.00     0.046 A 
ATOM      4  C   LIG d   1       4.644  -1.853  -5.291  0.00  0.00    -0.015 A 
ATOM      5  C   LIG d   1       4.619  -1.346  -3.934  0.00  0.00     0.003 A 
ATOM      6  C   LIG d   1       4.267  -1.927  -2.712  0.00  0.00    -0.052 A 
ATOM      7  C   LIG d   1       4.369  -1.135  -1.595  0.00  0.00    -0.061 A 
ATOM      8  C   LIG d   1       4.791   0.183  -1.665  0.00  0.00    -0.060 A 
ATOM      9  C   LIG d   1       5.141   0.785  -2.861  0.00  0.00    -0.038 A 
ATOM     10  C   LIG d   1       5.051   0.002  -4.011  0.00  0.00     0.047 A 
ATOM     11  N   LIG d   1       5.311   0.271  -5.324  0.00  0.00    -0.356 N 
ATOM     12  H   LIG d   1       5.622   1.124  -5.668  0.00  0.00     0.166 HD
ATOM     13  C   LIG d   1       4.276  -3.229  -5.782  0.00  0.00     0.002 C 
ATOM     14  C   LIG d   1       4.870  -3.429  -7.184  0.00  0.00     0.107 A 
ATOM     15  H   LIG d   1       5.949  -3.560  -7.093  0.00  0.00     0.060 H 
ATOM     16  N   LIG d   1       4.604  -2.239  -7.991  0.00  0.00    -0.276 N 
ATOM     17  C   LIG d   1       3.828  -2.253  -9.076  0.00  0.00     0.234 A 
ATOM     18  O   LIG d   1       3.617  -1.197  -9.634  0.00  0.00    -0.274 OA
ATOM     19  C   LIG d   1       3.201  -3.482  -9.652  0.00  0.00     0.091 A 
ATOM     20  N   LIG d   1       3.554  -4.677  -8.904  0.00  0.00    -0.286 N 
ATOM     21  C   LIG d   1       4.286  -4.656  -7.807  0.00  0.00     0.237 A 
ATOM     22  O   LIG d   1       4.504  -5.722  -7.274  0.00  0.00    -0.274 OA
ATOM     23  H   LIG d   1       3.937  -2.954  -2.648  0.00  0.00     0.062 H 
ATOM     24  H   LIG d   1       4.110  -1.551  -0.633  0.00  0.00     0.062 H 
ATOM     25  H   LIG d   1       4.848   0.760  -0.754  0.00  0.00     0.062 H 
ATOM     26  H   LIG d   1       5.468   1.813  -2.902  0.00  0.00     0.064 H 
ATOM     27  H   LIG d   1       4.681  -3.981  -5.104  0.00  0.00     0.034 H 
ATOM     28  H   LIG d   1       3.191  -3.323  -5.826  0.00  0.00     0.034 H 
ATOM     29  H   LIG d   1       2.118  -3.365  -9.641  0.00  0.00     0.056 H 
ATOM     30  H   LIG d   1       3.535  -3.599 -10.683  0.00  0.00     0.056 H 
ENDROOT
BRANCH   1  31
ATOM     31  C   LIG d   1       4.565   0.187  -8.271  0.00  0.00    -0.018 A 
ATOM     32  C   LIG d   1       5.225   0.871  -9.274  0.00  0.00    -0.045 A 
ATOM     33  C   LIG d   1       4.607   1.931  -9.912  0.00  0.00    -0.059 A 
ATOM     34  C   LIG d   1       3.331   2.311  -9.540  0.00  0.00    -0.061 A 
ATOM     35  H   LIG d   1       5.121   2.463 -10.698  0.00  0.00     0.062 H 
ATOM     36  C   LIG d   1       2.672   1.630  -8.533  0.00  0.00    -0.061 A 
ATOM     37  H   LIG d   1       2.849   3.141 -10.035  0.00  0.00     0.062 H 
ATOM     38  C   LIG d   1       3.290   0.569  -7.897  0.00  0.00    -0.056 A 
ATOM     39  H   LIG d   1       1.676   1.928  -8.241  0.00  0.00     0.062 H 
ATOM     40  H   LIG d   1       2.776   0.037  -7.110  0.00  0.00     0.062 H 
BRANCH  32  41
ATOM     41  C   LIG d   1       6.619   0.459  -9.676  0.00  0.00    -0.039 C 
ATOM     42  H   LIG d   1       7.021  -0.231  -8.935  0.00  0.00     0.028 H 
ATOM     43  H   LIG d   1       6.585  -0.031 -10.649  0.00  0.00     0.028 H 
ATOM     44  H   LIG d   1       7.256   1.341  -9.735  0.00  0.00     0.028 H 
ENDBRANCH  32  41
ENDBRANCH   1  31
BRANCH  20  45
ATOM     45  C   LIG d   1       3.062  -5.967  -9.392  0.00  0.00     0.066 C 
ATOM     46  H   LIG d   1       3.856  -6.476  -9.938  0.00  0.00     0.051 H 
ATOM     47  H   LIG d   1       2.750  -6.580  -8.547  0.00  0.00     0.051 H 
BRANCH  45  48
ATOM     48  C   LIG d   1       1.870  -5.738 -10.324  0.00  0.00     0.174 C 
ATOM     49  H   LIG d   1       1.705  -4.668 -10.447  0.00  0.00     0.092 H 
BRANCH  48  50
ATOM     50  O   LIG d   1       2.141  -6.329 -11.597  0.00  0.00    -0.353 OA
BRANCH  50  51
ATOM     51  C   LIG d   1       2.217  -5.387 -12.669  0.00  0.00     0.040 C 
ATOM     52  H   LIG d   1       1.783  -4.439 -12.352  0.00  0.00     0.052 H 
ATOM     53  H   LIG d   1       3.260  -5.235 -12.945  0.00  0.00     0.052 H 
ATOM     54  H   LIG d   1       1.666  -5.769 -13.529  0.00  0.00     0.052 H 
ENDBRANCH  50  51
ENDBRANCH  48  50
BRANCH  48  55
ATOM     55  O   LIG d   1       0.702  -6.339  -9.760  0.00  0.00    -0.353 OA
BRANCH  55  56
ATOM     56  C   LIG d   1      -0.521  -5.721 -10.164  0.00  0.00     0.040 C 
ATOM     57  H   LIG d   1      -1.312  -6.470 -10.202  0.00  0.00     0.052 H 
ATOM     58  H   LIG d   1      -0.791  -4.945  -9.447  0.00  0.00     0.052 H 
ATOM     59  H   LIG d   1      -0.395  -5.275 -11.150  0.00  0.00     0.052 H 
ENDBRANCH  55  56
ENDBRANCH  48  55
ENDBRANCH  45  48
ENDBRANCH  20  45
TORSDOF 8
ENDMDL
MODEL 5
REMARK VINA RESULT:      -6.8      2.479      6.764
REMARK  8 active torsions:
REMARK  status: ('A' for Active; 'I' for Inactive)
REMARK    1  A    between atoms: C_1  and  C_2 
REMARK    2  A    between atoms: C_7  and  C_8 
REMARK    3  A    between atoms: N_27  and  C_30 
REMARK    4  A    between atoms: C_30  and  C_31 
REMARK    5  A    between atoms: C_31  and  O_32 
REMARK    6  A    between atoms: C_31  and  O_34 
REMARK    7  A    between atoms: O_32  and  C_33 
REMARK    8  A    between atoms: O_34  and  C_35 
ROOT
ATOM      1  C   LIG d   1       4.304  -1.412  -5.285  0.00  0.00     0.093 C 
ATOM      2  H   LIG d   1       3.356  -1.904  -5.061  0.00  0.00     0.062 H 
ATOM      3  C   LIG d   1       4.178  -0.617  -6.565  0.00  0.00     0.046 A 
ATOM      4  C   LIG d   1       4.760  -0.980  -7.729  0.00  0.00    -0.015 A 
ATOM      5  C   LIG d   1       4.404   0.023  -8.712  0.00  0.00     0.003 A 
ATOM      6  C   LIG d   1       4.714   0.173 -10.066  0.00  0.00    -0.052 A 
ATOM      7  C   LIG d   1       4.189   1.270 -10.705  0.00  0.00    -0.061 A 
ATOM      8  C   LIG d   1       3.396   2.195 -10.047  0.00  0.00    -0.060 A 
ATOM      9  C   LIG d   1       3.076   2.073  -8.706  0.00  0.00    -0.038 A 
ATOM     10  C   LIG d   1       3.593   0.966  -8.032  0.00  0.00     0.047 A 
ATOM     11  N   LIG d   1       3.481   0.548  -6.738  0.00  0.00    -0.356 N 
ATOM     12  H   LIG d   1       2.981   1.008  -6.044  0.00  0.00     0.166 HD
ATOM     13  C   LIG d   1       5.613  -2.209  -7.913  0.00  0.00     0.002 C 
ATOM     14  C   LIG d   1       5.349  -3.174  -6.748  0.00  0.00     0.107 A 
ATOM     15  H   LIG d   1       4.365  -3.624  -6.882  0.00  0.00     0.060 H 
ATOM     16  N   LIG d   1       5.360  -2.424  -5.493  0.00  0.00    -0.276 N 
ATOM     17  C   LIG d   1       6.269  -2.618  -4.536  0.00  0.00     0.234 A 
ATOM     18  O   LIG d   1       6.229  -1.895  -3.563  0.00  0.00    -0.274 OA
ATOM     19  C   LIG d   1       7.332  -3.668  -4.580  0.00  0.00     0.091 A 
ATOM     20  N   LIG d   1       7.250  -4.477  -5.784  0.00  0.00    -0.286 N 
ATOM     21  C   LIG d   1       6.379  -4.256  -6.749  0.00  0.00     0.237 A 
ATOM     22  O   LIG d   1       6.420  -5.001  -7.704  0.00  0.00    -0.274 OA
ATOM     23  H   LIG d   1       5.331  -0.543 -10.589  0.00  0.00     0.062 H 
ATOM     24  H   LIG d   1       4.404   1.416 -11.754  0.00  0.00     0.062 H 
ATOM     25  H   LIG d   1       3.013   3.040 -10.599  0.00  0.00     0.062 H 
ATOM     26  H   LIG d   1       2.457   2.801  -8.203  0.00  0.00     0.064 H 
ATOM     27  H   LIG d   1       5.357  -2.695  -8.855  0.00  0.00     0.034 H 
ATOM     28  H   LIG d   1       6.665  -1.924  -7.923  0.00  0.00     0.034 H 
ATOM     29  H   LIG d   1       8.308  -3.185  -4.544  0.00  0.00     0.056 H 
ATOM     30  H   LIG d   1       7.225  -4.317  -3.711  0.00  0.00     0.056 H 
ENDROOT
BRANCH   1  31
ATOM     31  C   LIG d   1       4.687  -0.498  -4.150  0.00  0.00    -0.018 A 
ATOM     32  C   LIG d   1       3.958  -0.510  -2.975  0.00  0.00    -0.045 A 
ATOM     33  C   LIG d   1       4.312   0.326  -1.932  0.00  0.00    -0.059 A 
ATOM     34  C   LIG d   1       5.391   1.180  -2.068  0.00  0.00    -0.061 A 
ATOM     35  H   LIG d   1       3.745   0.313  -1.014  0.00  0.00     0.062 H 
ATOM     36  C   LIG d   1       6.117   1.196  -3.244  0.00  0.00    -0.061 A 
ATOM     37  H   LIG d   1       5.665   1.836  -1.255  0.00  0.00     0.062 H 
ATOM     38  C   LIG d   1       5.764   0.358  -4.286  0.00  0.00    -0.056 A 
ATOM     39  H   LIG d   1       6.958   1.865  -3.350  0.00  0.00     0.062 H 
ATOM     40  H   LIG d   1       6.331   0.371  -5.205  0.00  0.00     0.062 H 
BRANCH  32  41
ATOM     41  C   LIG d   1       2.779  -1.439  -2.831  0.00  0.00    -0.039 C 
ATOM     42  H   LIG d   1       2.841  -2.223  -3.585  0.00  0.00     0.028 H 
ATOM     43  H   LIG d   1       2.792  -1.888  -1.837  0.00  0.00     0.028 H 
ATOM     44  H   LIG d   1       1.855  -0.877  -2.965  0.00  0.00     0.028 H 
ENDBRANCH  32  41
ENDBRANCH   1  31
BRANCH  20  45
ATOM     45  C   LIG d   1       8.193  -5.589  -5.933  0.00  0.00     0.066 C 
ATOM     46  H   LIG d   1       8.121  -5.993  -6.943  0.00  0.00     0.051 H 
ATOM     47  H   LIG d   1       9.206  -5.232  -5.756  0.00  0.00     0.051 H 
BRANCH  45  48
ATOM     48  C   LIG d   1       7.852  -6.685  -4.921  0.00  0.00     0.174 C 
ATOM     49  H   LIG d   1       7.197  -6.278  -4.152  0.00  0.00     0.092 H 
BRANCH  48  50
ATOM     50  O   LIG d   1       7.189  -7.761  -5.590  0.00  0.00    -0.353 OA
BRANCH  50  51
ATOM     51  C   LIG d   1       5.772  -7.774  -5.407  0.00  0.00     0.040 C 
ATOM     52  H   LIG d   1       5.512  -7.154  -4.549  0.00  0.00     0.052 H 
ATOM     53  H   LIG d   1       5.286  -7.381  -6.299  0.00  0.00     0.052 H 
ATOM     54  H   LIG d   1       5.437  -8.796  -5.231  0.00  0.00     0.052 H 
ENDBRANCH  50  51
ENDBRANCH  48  50
BRANCH  48  55
ATOM     55  O   LIG d   1       9.054  -7.168  -4.319  0.00  0.00    -0.353 OA
BRANCH  55  56
ATOM     56  C   LIG d   1       8.838  -8.023  -3.194  0.00  0.00     0.040 C 
ATOM     57  H   LIG d   1       9.188  -7.528  -2.289  0.00  0.00     0.052 H 
ATOM     58  H   LIG d   1       7.774  -8.239  -3.101  0.00  0.00     0.052 H 
ATOM     59  H   LIG d   1       9.386  -8.954  -3.335  0.00  0.00     0.052 H 
ENDBRANCH  55  56
ENDBRANCH  48  55
ENDBRANCH  45  48
ENDBRANCH  20  45
TORSDOF 8
ENDMDL
MODEL 6
REMARK VINA RESULT:      -6.2      6.564      8.692
REMARK  8 active torsions:
REMARK  status: ('A' for Active; 'I' for Inactive)
REMARK    1  A    between atoms: C_1  and  C_2 
REMARK    2  A    between atoms: C_7  and  C_8 
REMARK    3  A    between atoms: N_27  and  C_30 
REMARK    4  A    between atoms: C_30  and  C_31 
REMARK    5  A    between atoms: C_31  and  O_32 
REMARK    6  A    between atoms: C_31  and  O_34 
REMARK    7  A    between atoms: O_32  and  C_33 
REMARK    8  A    between atoms: O_34  and  C_35 
ROOT
ATOM      1  C   LIG d   1      10.704  -7.995  -2.667  0.00  0.00     0.093 C 
ATOM      2  H   LIG d   1      11.482  -8.420  -3.303  0.00  0.00     0.062 H 
ATOM      3  C   LIG d   1      11.004  -8.301  -1.217  0.00  0.00     0.046 A 
ATOM      4  C   LIG d   1      10.303  -9.193  -0.483  0.00  0.00    -0.015 A 
ATOM      5  C   LIG d   1      10.893  -9.209   0.840  0.00  0.00     0.003 A 
ATOM      6  C   LIG d   1      10.591  -9.923   2.003  0.00  0.00    -0.052 A 
ATOM      7  C   LIG d   1      11.381  -9.685   3.101  0.00  0.00    -0.061 A 
ATOM      8  C   LIG d   1      12.424  -8.774   3.072  0.00  0.00    -0.060 A 
ATOM      9  C   LIG d   1      12.742  -8.050   1.936  0.00  0.00    -0.038 A 
ATOM     10  C   LIG d   1      11.959  -8.276   0.805  0.00  0.00     0.047 A 
ATOM     11  N   LIG d   1      11.994  -7.746  -0.453  0.00  0.00    -0.356 N 
ATOM     12  H   LIG d   1      12.627  -7.076  -0.759  0.00  0.00     0.166 HD
ATOM     13  C   LIG d   1       9.134  -9.994  -0.996  0.00  0.00     0.002 C 
ATOM     14  C   LIG d   1       9.156  -9.975  -2.531  0.00  0.00     0.107 A 
ATOM     15  H   LIG d   1       9.969 -10.615  -2.878  0.00  0.00     0.060 H 
ATOM     16  N   LIG d   1       9.400  -8.609  -2.990  0.00  0.00    -0.276 N 
ATOM     17  C   LIG d   1       8.506  -7.904  -3.687  0.00  0.00     0.234 A 
ATOM     18  O   LIG d   1       8.782  -6.755  -3.960  0.00  0.00    -0.274 OA
ATOM     19  C   LIG d   1       7.191  -8.435  -4.156  0.00  0.00     0.091 A 
ATOM     20  N   LIG d   1       6.999  -9.827  -3.784  0.00  0.00    -0.286 N 
ATOM     21  C   LIG d   1       7.864 -10.509  -3.059  0.00  0.00     0.237 A 
ATOM     22  O   LIG d   1       7.582 -11.662  -2.813  0.00  0.00    -0.274 OA
ATOM     23  H   LIG d   1       9.780 -10.636   2.035  0.00  0.00     0.062 H 
ATOM     24  H   LIG d   1      11.180 -10.222   4.016  0.00  0.00     0.062 H 
ATOM     25  H   LIG d   1      13.009  -8.624   3.967  0.00  0.00     0.062 H 
ATOM     26  H   LIG d   1      13.558  -7.343   1.926  0.00  0.00     0.064 H 
ATOM     27  H   LIG d   1       9.210 -11.022  -0.641  0.00  0.00     0.034 H 
ATOM     28  H   LIG d   1       8.204  -9.552  -0.636  0.00  0.00     0.034 H 
ATOM     29  H   LIG d   1       6.392  -7.839  -3.716  0.00  0.00     0.056 H 
ATOM     30  H   LIG d   1       7.141  -8.349  -5.241  0.00  0.00     0.056 H 
ENDROOT
BRANCH   1  31
ATOM     31  C   LIG d   1      10.633  -6.503  -2.871  0.00  0.00    -0.018 A 
ATOM     32  C   LIG d   1      11.327  -5.914  -3.911  0.00  0.00    -0.045 A 
ATOM     33  C   LIG d   1      11.258  -4.546  -4.101  0.00  0.00    -0.059 A 
ATOM     34  C   LIG d   1      10.502  -3.767  -3.245  0.00  0.00    -0.061 A 
ATOM     35  H   LIG d   1      11.798  -4.086  -4.915  0.00  0.00     0.062 H 
ATOM     36  C   LIG d   1       9.811  -4.356  -2.202  0.00  0.00    -0.061 A 
ATOM     37  H   LIG d   1      10.451  -2.698  -3.391  0.00  0.00     0.062 H 
ATOM     38  C   LIG d   1       9.878  -5.724  -2.015  0.00  0.00    -0.056 A 
ATOM     39  H   LIG d   1       9.221  -3.747  -1.533  0.00  0.00     0.062 H 
ATOM     40  H   LIG d   1       9.339  -6.184  -1.199  0.00  0.00     0.062 H 
BRANCH  32  41
ATOM     41  C   LIG d   1      12.156  -6.763  -4.841  0.00  0.00    -0.039 C 
ATOM     42  H   LIG d   1      13.191  -6.422  -4.819  0.00  0.00     0.028 H 
ATOM     43  H   LIG d   1      12.109  -7.804  -4.520  0.00  0.00     0.028 H 
ATOM     44  H   LIG d   1      11.767  -6.678  -5.855  0.00  0.00     0.028 H 
ENDBRANCH  32  41
ENDBRANCH   1  31
BRANCH  20  45
ATOM     45  C   LIG d   1       5.778 -10.500  -4.233  0.00  0.00     0.066 C 
ATOM     46  H   LIG d   1       6.007 -11.136  -5.088  0.00  0.00     0.051 H 
ATOM     47  H   LIG d   1       5.380 -11.109  -3.423  0.00  0.00     0.051 H 
BRANCH  45  48
ATOM     48  C   LIG d   1       4.740  -9.452  -4.643  0.00  0.00     0.174 C 
ATOM     49  H   LIG d   1       5.183  -8.459  -4.578  0.00  0.00     0.092 H 
BRANCH  48  50
ATOM     50  O   LIG d   1       4.319  -9.700  -5.986  0.00  0.00    -0.353 OA
BRANCH  50  51
ATOM     51  C   LIG d   1       4.640  -8.648  -6.899  0.00  0.00     0.040 C 
ATOM     52  H   LIG d   1       3.725  -8.276  -7.359  0.00  0.00     0.052 H 
ATOM     53  H   LIG d   1       5.131  -7.837  -6.360  0.00  0.00     0.052 H 
ATOM     54  H   LIG d   1       5.307  -9.027  -7.672  0.00  0.00     0.052 H 
ENDBRANCH  50  51
ENDBRANCH  48  50
BRANCH  48  55
ATOM     55  O   LIG d   1       3.613  -9.531  -3.769  0.00  0.00    -0.353 OA
BRANCH  55  56
ATOM     56  C   LIG d   1       3.222 -10.866  -3.443  0.00  0.00     0.040 C 
ATOM     57  H   LIG d   1       2.259 -11.086  -3.904  0.00  0.00     0.052 H 
ATOM     58  H   LIG d   1       3.971 -11.565  -3.815  0.00  0.00     0.052 H 
ATOM     59  H   LIG d   1       3.139 -10.966  -2.361  0.00  0.00     0.052 H 
ENDBRANCH  55  56
ENDBRANCH  48  55
ENDBRANCH  45  48
ENDBRANCH  20  45
TORSDOF 8
ENDMDL
MODEL 7
REMARK VINA RESULT:      -6.2      3.365      5.675
REMARK  8 active torsions:
REMARK  status: ('A' for Active; 'I' for Inactive)
REMARK    1  A    between atoms: C_1  and  C_2 
REMARK    2  A    between atoms: C_7  and  C_8 
REMARK    3  A    between atoms: N_27  and  C_30 
REMARK    4  A    between atoms: C_30  and  C_31 
REMARK    5  A    between atoms: C_31  and  O_32 
REMARK    6  A    between atoms: C_31  and  O_34 
REMARK    7  A    between atoms: O_32  and  C_33 
REMARK    8  A    between atoms: O_34  and  C_35 
ROOT
ATOM      1  C   LIG d   1       5.953  -1.937  -4.027  0.00  0.00     0.093 C 
ATOM      2  H   LIG d   1       6.079  -2.159  -2.967  0.00  0.00     0.062 H 
ATOM      3  C   LIG d   1       5.863  -3.225  -4.814  0.00  0.00     0.046 A 
ATOM      4  C   LIG d   1       6.847  -3.675  -5.622  0.00  0.00    -0.015 A 
ATOM      5  C   LIG d   1       6.392  -4.930  -6.185  0.00  0.00     0.003 A 
ATOM      6  C   LIG d   1       6.975  -5.835  -7.078  0.00  0.00    -0.052 A 
ATOM      7  C   LIG d   1       6.240  -6.950  -7.399  0.00  0.00    -0.061 A 
ATOM      8  C   LIG d   1       4.977  -7.174  -6.878  0.00  0.00    -0.060 A 
ATOM      9  C   LIG d   1       4.374  -6.293  -5.997  0.00  0.00    -0.038 A 
ATOM     10  C   LIG d   1       5.099  -5.153  -5.649  0.00  0.00     0.047 A 
ATOM     11  N   LIG d   1       4.812  -4.102  -4.827  0.00  0.00    -0.356 N 
ATOM     12  H   LIG d   1       3.988  -3.993  -4.327  0.00  0.00     0.166 HD
ATOM     13  C   LIG d   1       8.155  -2.964  -5.858  0.00  0.00     0.002 C 
ATOM     14  C   LIG d   1       8.368  -1.936  -4.739  0.00  0.00     0.107 A 
ATOM     15  H   LIG d   1       8.622  -2.465  -3.819  0.00  0.00     0.060 H 
ATOM     16  N   LIG d   1       7.127  -1.192  -4.528  0.00  0.00    -0.276 N 
ATOM     17  C   LIG d   1       7.014   0.117  -4.760  0.00  0.00     0.234 A 
ATOM     18  O   LIG d   1       5.920   0.624  -4.619  0.00  0.00    -0.274 OA
ATOM     19  C   LIG d   1       8.142   1.002  -5.180  0.00  0.00     0.091 A 
ATOM     20  N   LIG d   1       9.396   0.275  -5.287  0.00  0.00    -0.286 N 
ATOM     21  C   LIG d   1       9.498  -1.026  -5.100  0.00  0.00     0.237 A 
ATOM     22  O   LIG d   1      10.601  -1.512  -5.225  0.00  0.00    -0.274 OA
ATOM     23  H   LIG d   1       7.959  -5.669  -7.489  0.00  0.00     0.062 H 
ATOM     24  H   LIG d   1       6.661  -7.674  -8.082  0.00  0.00     0.062 H 
ATOM     25  H   LIG d   1       4.444  -8.066  -7.168  0.00  0.00     0.062 H 
ATOM     26  H   LIG d   1       3.388  -6.479  -5.597  0.00  0.00     0.064 H 
ATOM     27  H   LIG d   1       8.972  -3.687  -5.851  0.00  0.00     0.034 H 
ATOM     28  H   LIG d   1       8.125  -2.456  -6.823  0.00  0.00     0.034 H 
ATOM     29  H   LIG d   1       7.904   1.443  -6.148  0.00  0.00     0.056 H 
ATOM     30  H   LIG d   1       8.258   1.800  -4.446  0.00  0.00     0.056 H 
ENDROOT
BRANCH   1  31
ATOM     31  C   LIG d   1       4.703  -1.121  -4.235  0.00  0.00    -0.018 A 
ATOM     32  C   LIG d   1       3.996  -0.649  -3.145  0.00  0.00    -0.045 A 
ATOM     33  C   LIG d   1       2.851   0.102  -3.336  0.00  0.00    -0.059 A 
ATOM     34  C   LIG d   1       2.409   0.374  -4.617  0.00  0.00    -0.061 A 
ATOM     35  H   LIG d   1       2.301   0.474  -2.484  0.00  0.00     0.062 H 
ATOM     36  C   LIG d   1       3.113  -0.102  -5.707  0.00  0.00    -0.061 A 
ATOM     37  H   LIG d   1       1.512   0.958  -4.766  0.00  0.00     0.062 H 
ATOM     38  C   LIG d   1       4.259  -0.851  -5.516  0.00  0.00    -0.056 A 
ATOM     39  H   LIG d   1       2.766   0.109  -6.708  0.00  0.00     0.062 H 
ATOM     40  H   LIG d   1       4.809  -1.224  -6.368  0.00  0.00     0.062 H 
BRANCH  32  41
ATOM     41  C   LIG d   1       4.476  -0.950  -1.748  0.00  0.00    -0.039 C 
ATOM     42  H   LIG d   1       5.562  -0.854  -1.709  0.00  0.00     0.028 H 
ATOM     43  H   LIG d   1       4.023  -0.247  -1.050  0.00  0.00     0.028 H 
ATOM     44  H   LIG d   1       4.192  -1.967  -1.477  0.00  0.00     0.028 H 
ENDBRANCH  32  41
ENDBRANCH   1  31
BRANCH  20  45
ATOM     45  C   LIG d   1      10.604   1.030  -5.630  0.00  0.00     0.066 C 
ATOM     46  H   LIG d   1      11.465   0.583  -5.132  0.00  0.00     0.051 H 
ATOM     47  H   LIG d   1      10.754   1.005  -6.708  0.00  0.00     0.051 H 
BRANCH  45  48
ATOM     48  C   LIG d   1      10.447   2.480  -5.169  0.00  0.00     0.174 C 
ATOM     49  H   LIG d   1       9.416   2.654  -4.860  0.00  0.00     0.092 H 
BRANCH  48  50
ATOM     50  O   LIG d   1      11.322   2.727  -4.066  0.00  0.00    -0.353 OA
BRANCH  50  51
ATOM     51  C   LIG d   1      10.649   2.890  -2.816  0.00  0.00     0.040 C 
ATOM     52  H   LIG d   1       9.584   3.040  -2.993  0.00  0.00     0.052 H 
ATOM     53  H   LIG d   1      10.794   1.999  -2.206  0.00  0.00     0.052 H 
ATOM     54  H   LIG d   1      11.055   3.757  -2.294  0.00  0.00     0.052 H 
ENDBRANCH  50  51
ENDBRANCH  48  50
BRANCH  48  55
ATOM     55  O   LIG d   1      10.777   3.361  -6.244  0.00  0.00    -0.353 OA
BRANCH  55  56
ATOM     56  C   LIG d   1      10.009   4.565  -6.267  0.00  0.00     0.040 C 
ATOM     57  H   LIG d   1      10.480   5.310  -5.626  0.00  0.00     0.052 H 
ATOM     58  H   LIG d   1       9.957   4.944  -7.288  0.00  0.00     0.052 H 
ATOM     59  H   LIG d   1       9.001   4.359  -5.906  0.00  0.00     0.052 H 
ENDBRANCH  55  56
ENDBRANCH  48  55
ENDBRANCH  45  48
ENDBRANCH  20  45
TORSDOF 8
ENDMDL
MODEL 8
REMARK VINA RESULT:      -6.1      4.186      7.686
REMARK  8 active torsions:
REMARK  status: ('A' for Active; 'I' for Inactive)
REMARK    1  A    between atoms: C_1  and  C_2 
REMARK    2  A    between atoms: C_7  and  C_8 
REMARK    3  A    between atoms: N_27  and  C_30 
REMARK    4  A    between atoms: C_30  and  C_31 
REMARK    5  A    between atoms: C_31  and  O_32 
REMARK    6  A    between atoms: C_31  and  O_34 
REMARK    7  A    between atoms: O_32  and  C_33 
REMARK    8  A    between atoms: O_34  and  C_35 
ROOT
ATOM      1  C   LIG d   1       8.384  -2.848  -4.928  0.00  0.00     0.093 C 
ATOM      2  H   LIG d   1       7.942  -3.259  -5.836  0.00  0.00     0.062 H 
ATOM      3  C   LIG d   1       7.369  -1.990  -4.206  0.00  0.00     0.046 A 
ATOM      4  C   LIG d   1       7.436  -0.642  -4.152  0.00  0.00    -0.015 A 
ATOM      5  C   LIG d   1       6.292  -0.192  -3.385  0.00  0.00     0.003 A 
ATOM      6  C   LIG d   1       5.848   1.077  -3.003  0.00  0.00    -0.052 A 
ATOM      7  C   LIG d   1       4.693   1.133  -2.263  0.00  0.00    -0.061 A 
ATOM      8  C   LIG d   1       3.997  -0.007  -1.896  0.00  0.00    -0.060 A 
ATOM      9  C   LIG d   1       4.417  -1.276  -2.256  0.00  0.00    -0.038 A 
ATOM     10  C   LIG d   1       5.585  -1.363  -3.013  0.00  0.00     0.047 A 
ATOM     11  N   LIG d   1       6.266  -2.430  -3.524  0.00  0.00    -0.356 N 
ATOM     12  H   LIG d   1       6.007  -3.359  -3.421  0.00  0.00     0.166 HD
ATOM     13  C   LIG d   1       8.522   0.188  -4.787  0.00  0.00     0.002 C 
ATOM     14  C   LIG d   1       9.246  -0.665  -5.838  0.00  0.00     0.107 A 
ATOM     15  H   LIG d   1       8.592  -0.786  -6.703  0.00  0.00     0.060 H 
ATOM     16  N   LIG d   1       9.531  -1.983  -5.273  0.00  0.00    -0.276 N 
ATOM     17  C   LIG d   1      10.769  -2.434  -5.065  0.00  0.00     0.234 A 
ATOM     18  O   LIG d   1      10.895  -3.514  -4.528  0.00  0.00    -0.274 OA
ATOM     19  C   LIG d   1      12.012  -1.700  -5.452  0.00  0.00     0.091 A 
ATOM     20  N   LIG d   1      11.719  -0.436  -6.107  0.00  0.00    -0.286 N 
ATOM     21  C   LIG d   1      10.496   0.028  -6.273  0.00  0.00     0.237 A 
ATOM     22  O   LIG d   1      10.389   1.099  -6.831  0.00  0.00    -0.274 OA
ATOM     23  H   LIG d   1       6.383   1.972  -3.284  0.00  0.00     0.062 H 
ATOM     24  H   LIG d   1       4.317   2.098  -1.954  0.00  0.00     0.062 H 
ATOM     25  H   LIG d   1       3.097   0.098  -1.311  0.00  0.00     0.062 H 
ATOM     26  H   LIG d   1       3.866  -2.157  -1.965  0.00  0.00     0.064 H 
ATOM     27  H   LIG d   1       8.081   1.063  -5.266  0.00  0.00     0.034 H 
ATOM     28  H   LIG d   1       9.230   0.508  -4.023  0.00  0.00     0.034 H 
ATOM     29  H   LIG d   1      12.601  -1.506  -4.556  0.00  0.00     0.056 H 
ATOM     30  H   LIG d   1      12.595  -2.323  -6.131  0.00  0.00     0.056 H 
ENDROOT
BRANCH   1  31
ATOM     31  C   LIG d   1       8.841  -3.968  -4.028  0.00  0.00    -0.018 A 
ATOM     32  C   LIG d   1       8.858  -5.268  -4.497  0.00  0.00    -0.045 A 
ATOM     33  C   LIG d   1       9.281  -6.295  -3.673  0.00  0.00    -0.059 A 
ATOM     34  C   LIG d   1       9.677  -6.022  -2.378  0.00  0.00    -0.061 A 
ATOM     35  H   LIG d   1       9.297  -7.310  -4.041  0.00  0.00     0.062 H 
ATOM     36  C   LIG d   1       9.655  -4.722  -1.907  0.00  0.00    -0.061 A 
ATOM     37  H   LIG d   1      10.004  -6.824  -1.733  0.00  0.00     0.062 H 
ATOM     38  C   LIG d   1       9.235  -3.695  -2.732  0.00  0.00    -0.056 A 
ATOM     39  H   LIG d   1       9.964  -4.510  -0.894  0.00  0.00     0.062 H 
ATOM     40  H   LIG d   1       9.218  -2.680  -2.364  0.00  0.00     0.062 H 
BRANCH  32  41
ATOM     41  C   LIG d   1       8.421  -5.565  -5.909  0.00  0.00    -0.039 C 
ATOM     42  H   LIG d   1       9.299  -5.675  -6.546  0.00  0.00     0.028 H 
ATOM     43  H   LIG d   1       7.844  -6.490  -5.922  0.00  0.00     0.028 H 
ATOM     44  H   LIG d   1       7.804  -4.746  -6.279  0.00  0.00     0.028 H 
ENDBRANCH  32  41
ENDBRANCH   1  31
BRANCH  20  45
ATOM     45  C   LIG d   1      12.844   0.363  -6.599  0.00  0.00     0.066 C 
ATOM     46  H   LIG d   1      13.473  -0.252  -7.243  0.00  0.00     0.051 H 
ATOM     47  H   LIG d   1      12.465   1.213  -7.166  0.00  0.00     0.051 H 
BRANCH  45  48
ATOM     48  C   LIG d   1      13.669   0.867  -5.413  0.00  0.00     0.174 C 
ATOM     49  H   LIG d   1      13.361   0.343  -4.508  0.00  0.00     0.092 H 
BRANCH  48  50
ATOM     50  O   LIG d   1      15.055   0.619  -5.658  0.00  0.00    -0.353 OA
BRANCH  50  51
ATOM     51  C   LIG d   1      15.711  -0.102  -4.613  0.00  0.00     0.040 C 
ATOM     52  H   LIG d   1      15.172   0.045  -3.678  0.00  0.00     0.052 H 
ATOM     53  H   LIG d   1      15.728  -1.164  -4.859  0.00  0.00     0.052 H 
ATOM     54  H   LIG d   1      16.732   0.262  -4.504  0.00  0.00     0.052 H 
ENDBRANCH  50  51
ENDBRANCH  48  50
BRANCH  48  55
ATOM     55  O   LIG d   1      13.459   2.270  -5.247  0.00  0.00    -0.353 OA
BRANCH  55  56
ATOM     56  C   LIG d   1      12.556   2.601  -4.190  0.00  0.00     0.040 C 
ATOM     57  H   LIG d   1      13.119   2.795  -3.278  0.00  0.00     0.052 H 
ATOM     58  H   LIG d   1      11.988   3.491  -4.463  0.00  0.00     0.052 H 
ATOM     59  H   LIG d   1      11.870   1.771  -4.025  0.00  0.00     0.052 H 
ENDBRANCH  55  56
ENDBRANCH  48  55
ENDBRANCH  45  48
ENDBRANCH  20  45
TORSDOF 8
ENDMDL
MODEL 9
REMARK VINA RESULT:      -5.9      3.005      5.546
REMARK  8 active torsions:
REMARK  status: ('A' for Active; 'I' for Inactive)
REMARK    1  A    between atoms: C_1  and  C_2 
REMARK    2  A    between atoms: C_7  and  C_8 
REMARK    3  A    between atoms: N_27  and  C_30 
REMARK    4  A    between atoms: C_30  and  C_31 
REMARK    5  A    between atoms: C_31  and  O_32 
REMARK    6  A    between atoms: C_31  and  O_34 
REMARK    7  A    between atoms: O_32  and  C_33 
REMARK    8  A    between atoms: O_34  and  C_35 
ROOT
ATOM      1  C   LIG d   1       5.727  -0.902  -5.798  0.00  0.00     0.093 C 
ATOM      2  H   LIG d   1       5.330  -0.511  -6.735  0.00  0.00     0.062 H 
ATOM      3  C   LIG d   1       7.051  -0.241  -5.488  0.00  0.00     0.046 A 
ATOM      4  C   LIG d   1       8.241  -0.874  -5.582  0.00  0.00    -0.015 A 
ATOM      5  C   LIG d   1       9.262   0.085  -5.214  0.00  0.00     0.003 A 
ATOM      6  C   LIG d   1      10.654  -0.000  -5.124  0.00  0.00    -0.052 A 
ATOM      7  C   LIG d   1      11.322   1.135  -4.736  0.00  0.00    -0.061 A 
ATOM      8  C   LIG d   1      10.658   2.313  -4.435  0.00  0.00    -0.060 A 
ATOM      9  C   LIG d   1       9.280   2.424  -4.511  0.00  0.00    -0.038 A 
ATOM     10  C   LIG d   1       8.576   1.288  -4.906  0.00  0.00     0.047 A 
ATOM     11  N   LIG d   1       7.243   1.052  -5.081  0.00  0.00    -0.356 N 
ATOM     12  H   LIG d   1       6.538   1.703  -4.939  0.00  0.00     0.166 HD
ATOM     13  C   LIG d   1       8.416  -2.313  -5.997  0.00  0.00     0.002 C 
ATOM     14  C   LIG d   1       7.135  -2.784  -6.701  0.00  0.00     0.107 A 
ATOM     15  H   LIG d   1       7.089  -2.323  -7.689  0.00  0.00     0.060 H 
ATOM     16  N   LIG d   1       5.974  -2.353  -5.924  0.00  0.00    -0.276 N 
ATOM     17  C   LIG d   1       5.134  -3.207  -5.336  0.00  0.00     0.234 A 
ATOM     18  O   LIG d   1       4.242  -2.745  -4.657  0.00  0.00    -0.274 OA
ATOM     19  C   LIG d   1       5.217  -4.694  -5.458  0.00  0.00     0.091 A 
ATOM     20  N   LIG d   1       6.312  -5.111  -6.318  0.00  0.00    -0.286 N 
ATOM     21  C   LIG d   1       7.168  -4.269  -6.863  0.00  0.00     0.237 A 
ATOM     22  O   LIG d   1       8.041  -4.746  -7.555  0.00  0.00    -0.274 OA
ATOM     23  H   LIG d   1      11.181  -0.914  -5.357  0.00  0.00     0.062 H 
ATOM     24  H   LIG d   1      12.399   1.108  -4.660  0.00  0.00     0.062 H 
ATOM     25  H   LIG d   1      11.234   3.173  -4.131  0.00  0.00     0.062 H 
ATOM     26  H   LIG d   1       8.774   3.348  -4.274  0.00  0.00     0.064 H 
ATOM     27  H   LIG d   1       9.261  -2.397  -6.680  0.00  0.00     0.034 H 
ATOM     28  H   LIG d   1       8.596  -2.927  -5.114  0.00  0.00     0.034 H 
ATOM     29  H   LIG d   1       5.361  -5.123  -4.467  0.00  0.00     0.056 H 
ATOM     30  H   LIG d   1       4.281  -5.068  -5.874  0.00  0.00     0.056 H 
ENDROOT
BRANCH   1  31
ATOM     31  C   LIG d   1       4.751  -0.644  -4.680  0.00  0.00    -0.018 A 
ATOM     32  C   LIG d   1       3.477  -0.188  -4.964  0.00  0.00    -0.045 A 
ATOM     33  C   LIG d   1       2.580   0.045  -3.938  0.00  0.00    -0.059 A 
ATOM     34  C   LIG d   1       2.961  -0.169  -2.627  0.00  0.00    -0.061 A 
ATOM     35  H   LIG d   1       1.585   0.397  -4.161  0.00  0.00     0.062 H 
ATOM     36  C   LIG d   1       4.236  -0.620  -2.341  0.00  0.00    -0.061 A 
ATOM     37  H   LIG d   1       2.262   0.016  -1.825  0.00  0.00     0.062 H 
ATOM     38  C   LIG d   1       5.132  -0.856  -3.368  0.00  0.00    -0.056 A 
ATOM     39  H   LIG d   1       4.533  -0.786  -1.316  0.00  0.00     0.062 H 
ATOM     40  H   LIG d   1       6.129  -1.208  -3.145  0.00  0.00     0.062 H 
BRANCH  32  41
ATOM     41  C   LIG d   1       3.065   0.050  -6.395  0.00  0.00    -0.039 C 
ATOM     42  H   LIG d   1       2.757  -0.894  -6.846  0.00  0.00     0.028 H 
ATOM     43  H   LIG d   1       2.233   0.753  -6.420  0.00  0.00     0.028 H 
ATOM     44  H   LIG d   1       3.906   0.461  -6.952  0.00  0.00     0.028 H 
ENDBRANCH  32  41
ENDBRANCH   1  31
BRANCH  20  45
ATOM     45  C   LIG d   1       6.476  -6.543  -6.581  0.00  0.00     0.066 C 
ATOM     46  H   LIG d   1       5.871  -6.826  -7.442  0.00  0.00     0.051 H 
ATOM     47  H   LIG d   1       7.524  -6.757  -6.787  0.00  0.00     0.051 H 
BRANCH  45  48
ATOM     48  C   LIG d   1       6.022  -7.342  -5.357  0.00  0.00     0.174 C 
ATOM     49  H   LIG d   1       5.680  -6.656  -4.582  0.00  0.00     0.092 H 
BRANCH  48  50
ATOM     50  O   LIG d   1       4.952  -8.214  -5.728  0.00  0.00    -0.353 OA
BRANCH  50  51
ATOM     51  C   LIG d   1       4.645  -9.206  -4.746  0.00  0.00     0.040 C 
ATOM     52  H   LIG d   1       3.726  -9.720  -5.025  0.00  0.00     0.052 H 
ATOM     53  H   LIG d   1       5.461  -9.926  -4.690  0.00  0.00     0.052 H 
ATOM     54  H   LIG d   1       4.514  -8.729  -3.775  0.00  0.00     0.052 H 
ENDBRANCH  50  51
ENDBRANCH  48  50
BRANCH  48  55
ATOM     55  O   LIG d   1       7.116  -8.116  -4.861  0.00  0.00    -0.353 OA
BRANCH  55  56
ATOM     56  C   LIG d   1       8.295  -7.353  -4.597  0.00  0.00     0.040 C 
ATOM     57  H   LIG d   1       8.110  -6.672  -3.767  0.00  0.00     0.052 H 
ATOM     58  H   LIG d   1       9.113  -8.026  -4.339  0.00  0.00     0.052 H 
ATOM     59  H   LIG d   1       8.563  -6.781  -5.485  0.00  0.00     0.052 H 
ENDBRANCH  55  56
ENDBRANCH  48  55
ENDBRANCH  45  48
ENDBRANCH  20  45
TORSDOF 8
ENDMDL
MODEL 10
REMARK VINA RESULT:      -5.9      2.661      7.107
REMARK  8 active torsions:
REMARK  status: ('A' for Active; 'I' for Inactive)
REMARK    1  A    between atoms: C_1  and  C_2 
REMARK    2  A    between atoms: C_7  and  C_8 
REMARK    3  A    between atoms: N_27  and  C_30 
REMARK    4  A    between atoms: C_30  and  C_31 
REMARK    5  A    between atoms: C_31  and  O_32 
REMARK    6  A    between atoms: C_31  and  O_34 
REMARK    7  A    between atoms: O_32  and  C_33 
REMARK    8  A    between atoms: O_34  and  C_35 
ROOT
ATOM      1  C   LIG d   1       5.491  -1.118  -5.062  0.00  0.00     0.093 C 
ATOM      2  H   LIG d   1       4.857  -1.083  -4.175  0.00  0.00     0.062 H 
ATOM      3  C   LIG d   1       4.639  -1.012  -6.306  0.00  0.00     0.046 A 
ATOM      4  C   LIG d   1       4.410  -2.047  -7.143  0.00  0.00    -0.015 A 
ATOM      5  C   LIG d   1       3.551  -1.554  -8.201  0.00  0.00     0.003 A 
ATOM      6  C   LIG d   1       2.996  -2.162  -9.331  0.00  0.00    -0.052 A 
ATOM      7  C   LIG d   1       2.207  -1.375 -10.134  0.00  0.00    -0.061 A 
ATOM      8  C   LIG d   1       1.973  -0.040  -9.854  0.00  0.00    -0.060 A 
ATOM      9  C   LIG d   1       2.513   0.589  -8.745  0.00  0.00    -0.038 A 
ATOM     10  C   LIG d   1       3.315  -0.187  -7.909  0.00  0.00     0.047 A 
ATOM     11  N   LIG d   1       3.990   0.105  -6.759  0.00  0.00    -0.356 N 
ATOM     12  H   LIG d   1       4.006   0.974  -6.327  0.00  0.00     0.166 HD
ATOM     13  C   LIG d   1       4.970  -3.435  -6.964  0.00  0.00     0.002 C 
ATOM     14  C   LIG d   1       5.440  -3.595  -5.511  0.00  0.00     0.107 A 
ATOM     15  H   LIG d   1       4.564  -3.677  -4.866  0.00  0.00     0.060 H 
ATOM     16  N   LIG d   1       6.204  -2.411  -5.121  0.00  0.00    -0.276 N 
ATOM     17  C   LIG d   1       7.502  -2.451  -4.813  0.00  0.00     0.234 A 
ATOM     18  O   LIG d   1       8.057  -1.400  -4.570  0.00  0.00    -0.274 OA
ATOM     19  C   LIG d   1       8.317  -3.701  -4.746  0.00  0.00     0.091 A 
ATOM     20  N   LIG d   1       7.525  -4.885  -5.033  0.00  0.00    -0.286 N 
ATOM     21  C   LIG d   1       6.254  -4.841  -5.380  0.00  0.00     0.237 A 
ATOM     22  O   LIG d   1       5.709  -5.901  -5.599  0.00  0.00    -0.274 OA
ATOM     23  H   LIG d   1       3.173  -3.203  -9.558  0.00  0.00     0.062 H 
ATOM     24  H   LIG d   1       1.758  -1.812 -11.014  0.00  0.00     0.062 H 
ATOM     25  H   LIG d   1       1.347   0.532 -10.523  0.00  0.00     0.062 H 
ATOM     26  H   LIG d   1       2.323   1.631  -8.537  0.00  0.00     0.064 H 
ATOM     27  H   LIG d   1       4.198  -4.173  -7.182  0.00  0.00     0.034 H 
ATOM     28  H   LIG d   1       5.813  -3.577  -7.640  0.00  0.00     0.034 H 
ATOM     29  H   LIG d   1       9.129  -3.634  -5.469  0.00  0.00     0.056 H 
ATOM     30  H   LIG d   1       8.740  -3.794  -3.746  0.00  0.00     0.056 H 
ENDROOT
BRANCH   1  31
ATOM     31  C   LIG d   1       6.486   0.014  -5.025  0.00  0.00    -0.018 A 
ATOM     32  C   LIG d   1       6.632   0.769  -3.876  0.00  0.00    -0.045 A 
ATOM     33  C   LIG d   1       7.548   1.805  -3.841  0.00  0.00    -0.059 A 
ATOM     34  C   LIG d   1       8.311   2.090  -4.958  0.00  0.00    -0.061 A 
ATOM     35  H   LIG d   1       7.664   2.392  -2.943  0.00  0.00     0.062 H 
ATOM     36  C   LIG d   1       8.162   1.338  -6.108  0.00  0.00    -0.061 A 
ATOM     37  H   LIG d   1       9.023   2.901  -4.931  0.00  0.00     0.062 H 
ATOM     38  C   LIG d   1       7.248   0.300  -6.142  0.00  0.00    -0.056 A 
ATOM     39  H   LIG d   1       8.757   1.562  -6.981  0.00  0.00     0.062 H 
ATOM     40  H   LIG d   1       7.132  -0.287  -7.041  0.00  0.00     0.062 H 
BRANCH  32  41
ATOM     41  C   LIG d   1       5.796   0.460  -2.661  0.00  0.00    -0.039 C 
ATOM     42  H   LIG d   1       5.697  -0.620  -2.553  0.00  0.00     0.028 H 
ATOM     43  H   LIG d   1       6.278   0.872  -1.775  0.00  0.00     0.028 H 
ATOM     44  H   LIG d   1       4.808   0.905  -2.777  0.00  0.00     0.028 H 
ENDBRANCH  32  41
ENDBRANCH   1  31
BRANCH  20  45
ATOM     45  C   LIG d   1       8.180  -6.193  -4.942  0.00  0.00     0.066 C 
ATOM     46  H   LIG d   1       7.507  -6.904  -4.463  0.00  0.00     0.051 H 
ATOM     47  H   LIG d   1       8.430  -6.545  -5.942  0.00  0.00     0.051 H 
BRANCH  45  48
ATOM     48  C   LIG d   1       9.459  -6.065  -4.110  0.00  0.00     0.174 C 
ATOM     49  H   LIG d   1       9.699  -5.011  -3.974  0.00  0.00     0.092 H 
BRANCH  48  50
ATOM     50  O   LIG d   1       9.259  -6.677  -2.834  0.00  0.00    -0.353 OA
BRANCH  50  51
ATOM     51  C   LIG d   1       9.781  -5.920  -1.740  0.00  0.00     0.040 C 
ATOM     52  H   LIG d   1       8.958  -5.491  -1.170  0.00  0.00     0.052 H 
ATOM     53  H   LIG d   1      10.368  -6.573  -1.094  0.00  0.00     0.052 H 
ATOM     54  H   LIG d   1      10.416  -5.120  -2.120  0.00  0.00     0.052 H 
ENDBRANCH  50  51
ENDBRANCH  48  50
BRANCH  48  55
ATOM     55  O   LIG d   1      10.534  -6.717  -4.787  0.00  0.00    -0.353 OA
BRANCH  55  56
ATOM     56  C   LIG d   1      11.521  -5.823  -5.306  0.00  0.00     0.040 C 
ATOM     57  H   LIG d   1      11.168  -5.396  -6.245  0.00  0.00     0.052 H 
ATOM     58  H   LIG d   1      11.701  -5.023  -4.589  0.00  0.00     0.052 H 
ATOM     59  H   LIG d   1      12.448  -6.368  -5.481  0.00  0.00     0.052 H 
ENDBRANCH  55  56
ENDBRANCH  48  55
ENDBRANCH  45  48
ENDBRANCH  20  45
TORSDOF 8
ENDMDL
