MODEL 1
REMARK VINA RESULT:      -7.1      0.000      0.000
REMARK  11 active torsions:
REMARK  status: ('A' for Active; 'I' for Inactive)
REMARK    1  A    between atoms: C_1  and  C_2 
REMARK    2  A    between atoms: C_5  and  C_8 
REMARK    3  A    between atoms: C_11  and  C_13 
REMARK    4  A    between atoms: C_13  and  C_14 
REMARK    5  A    between atoms: C_17  and  C_37 
REMARK    6  A    between atoms: C_19  and  C_24 
REMARK    7  A    between atoms: C_22  and  C_23 
REMARK    8  A    between atoms: C_24  and  N_25 
REMARK    9  A    between atoms: N_28  and  C_31 
REMARK   10  A    between atoms: C_37  and  C_38 
REMARK   11  A    between atoms: C_37  and  C_39 
ROOT
ATOM      1  C   LIG d   1      10.641   4.751  -4.658  0.00  0.00    -0.011 C 
ATOM      2  H   LIG d   1      10.009   4.520  -5.515  0.00  0.00     0.035 H 
ATOM      3  C   LIG d   1      12.106   4.516  -5.033  0.00  0.00    -0.042 C 
ATOM      4  C   LIG d   1      12.991   5.093  -3.920  0.00  0.00    -0.031 C 
ATOM      5  H   LIG d   1      12.671   4.696  -2.955  0.00  0.00     0.031 H 
ATOM      6  C   LIG d   1      12.841   6.616  -3.924  0.00  0.00    -0.007 C 
ATOM      7  H   LIG d   1      13.331   7.024  -4.807  0.00  0.00     0.036 H 
ATOM      8  C   LIG d   1      11.390   6.994  -3.939  0.00  0.00    -0.080 C 
ATOM      9  C   LIG d   1      10.436   6.183  -4.261  0.00  0.00    -0.073 C 
ATOM     10  H   LIG d   1      12.293   3.447  -5.131  0.00  0.00     0.027 H 
ATOM     11  H   LIG d   1      12.329   5.018  -5.974  0.00  0.00     0.027 H 
ATOM     12  H   LIG d   1      11.126   8.004  -3.662  0.00  0.00     0.058 H 
ENDROOT
BRANCH   6  13
ATOM     13  C   LIG d   1      13.500   7.192  -2.668  0.00  0.00     0.005 C 
ATOM     14  H   LIG d   1      14.358   6.577  -2.394  0.00  0.00     0.043 H 
ATOM     15  H   LIG d   1      13.831   8.211  -2.866  0.00  0.00     0.043 H 
BRANCH  13  16
ATOM     16  N   LIG d   1      12.530   7.198  -1.565  0.00  0.00    -0.299 N 
ATOM     17  C   LIG d   1      12.767   6.075  -0.649  0.00  0.00     0.015 C 
ATOM     18  C   LIG d   1      11.632   6.011   0.379  0.00  0.00     0.028 C 
ATOM     19  H   LIG d   1      12.797   5.144  -1.216  0.00  0.00     0.044 H 
ATOM     20  H   LIG d   1      13.716   6.220  -0.134  0.00  0.00     0.044 H 
ATOM     21  N   LIG d   1      11.513   7.326   1.026  0.00  0.00    -0.297 N 
ATOM     22  H   LIG d   1      11.860   5.253   1.129  0.00  0.00     0.048 H 
ATOM     23  H   LIG d   1      10.697   5.763  -0.123  0.00  0.00     0.048 H 
ATOM     24  C   LIG d   1      11.409   8.517   0.168  0.00  0.00     0.028 C 
ATOM     25  C   LIG d   1      12.553   8.482  -0.851  0.00  0.00     0.015 C 
ATOM     26  H   LIG d   1      11.490   9.416   0.779  0.00  0.00     0.048 H 
ATOM     27  H   LIG d   1      10.453   8.510  -0.354  0.00  0.00     0.048 H 
ATOM     28  H   LIG d   1      13.506   8.594  -0.334  0.00  0.00     0.044 H 
ATOM     29  H   LIG d   1      12.429   9.297  -1.565  0.00  0.00     0.044 H 
BRANCH  21  30
ATOM     30  C   LIG d   1      11.497   7.441   2.405  0.00  0.00     0.218 A 
ATOM     31  N   LIG d   1      11.926   8.562   2.966  0.00  0.00    -0.223 NA
ATOM     32  C   LIG d   1      11.919   8.706   4.281  0.00  0.00     0.033 A 
ATOM     33  C   LIG d   1      11.468   7.661   5.073  0.00  0.00    -0.025 A 
ATOM     34  H   LIG d   1      12.265   9.623   4.732  0.00  0.00     0.083 H 
ATOM     35  C   LIG d   1      11.033   6.500   4.454  0.00  0.00     0.033 A 
ATOM     36  H   LIG d   1      11.456   7.749   6.149  0.00  0.00     0.065 H 
ATOM     37  N   LIG d   1      11.061   6.423   3.133  0.00  0.00    -0.223 NA
ATOM     38  H   LIG d   1      10.675   5.667   5.042  0.00  0.00     0.083 H 
ENDBRANCH  21  30
ENDBRANCH  13  16
ENDBRANCH   6  13
BRANCH   4  39
ATOM     39  C   LIG d   1      14.451   4.713  -4.173  0.00  0.00    -0.043 C 
ATOM     40  H   LIG d   1      15.055   5.617  -4.238  0.00  0.00     0.030 H 
BRANCH  39  41
ATOM     41  C   LIG d   1      14.959   3.843  -3.021  0.00  0.00    -0.062 C 
ATOM     42  H   LIG d   1      14.890   2.792  -3.303  0.00  0.00     0.023 H 
ATOM     43  H   LIG d   1      15.998   4.094  -2.807  0.00  0.00     0.023 H 
ATOM     44  H   LIG d   1      14.352   4.023  -2.135  0.00  0.00     0.023 H 
ENDBRANCH  39  41
BRANCH  39  45
ATOM     45  C   LIG d   1      14.554   3.934  -5.485  0.00  0.00    -0.062 C 
ATOM     46  H   LIG d   1      14.220   4.563  -6.310  0.00  0.00     0.023 H 
ATOM     47  H   LIG d   1      15.590   3.638  -5.652  0.00  0.00     0.023 H 
ATOM     48  H   LIG d   1      13.927   3.044  -5.431  0.00  0.00     0.023 H 
ENDBRANCH  39  45
ENDBRANCH   4  39
BRANCH   9  49
ATOM     49  C   LIG d   1       9.026   6.715  -4.237  0.00  0.00    -0.043 C 
ATOM     50  H   LIG d   1       9.043   7.777  -3.996  0.00  0.00     0.027 H 
ATOM     51  H   LIG d   1       8.567   6.572  -5.216  0.00  0.00     0.027 H 
ATOM     52  H   LIG d   1       8.449   6.179  -3.483  0.00  0.00     0.027 H 
ENDBRANCH   9  49
BRANCH   1  53
ATOM     53  C   LIG d   1      10.265   3.841  -3.488  0.00  0.00     0.032 C 
ATOM     54  H   LIG d   1       9.950   4.451  -2.641  0.00  0.00     0.037 H 
ATOM     55  H   LIG d   1      11.127   3.240  -3.203  0.00  0.00     0.037 H 
BRANCH  53  56
ATOM     56  C   LIG d   1       9.133   2.935  -3.902  0.00  0.00     0.218 A 
ATOM     57  N   LIG d   1       8.662   2.795  -5.110  0.00  0.00    -0.112 NA
ATOM     58  N   LIG d   1       7.700   1.942  -5.099  0.00  0.00    -0.107 NA
ATOM     59  C   LIG d   1       7.523   1.503  -3.875  0.00  0.00     0.248 A 
ATOM     60  O   LIG d   1       8.425   2.129  -3.092  0.00  0.00    -0.420 OA
BRANCH  59  61
ATOM     61  C   LIG d   1       6.518   0.513  -3.434  0.00  0.00     0.038 A 
ATOM     62  C   LIG d   1       5.408   0.924  -2.694  0.00  0.00    -0.049 A 
ATOM     63  C   LIG d   1       4.473  -0.006  -2.286  0.00  0.00    -0.058 A 
ATOM     64  H   LIG d   1       5.281   1.966  -2.442  0.00  0.00     0.062 H 
ATOM     65  C   LIG d   1       4.634  -1.341  -2.609  0.00  0.00    -0.050 A 
ATOM     66  H   LIG d   1       3.614   0.310  -1.714  0.00  0.00     0.062 H 
ATOM     67  C   LIG d   1       5.735  -1.756  -3.338  0.00  0.00    -0.058 A 
ATOM     68  C   LIG d   1       6.674  -0.835  -3.756  0.00  0.00    -0.049 A 
ATOM     69  H   LIG d   1       5.857  -2.800  -3.583  0.00  0.00     0.062 H 
ATOM     70  H   LIG d   1       7.530  -1.160  -4.329  0.00  0.00     0.062 H 
BRANCH  65  71
ATOM     71  C   LIG d   1       3.608  -2.350  -2.160  0.00  0.00    -0.040 C 
ATOM     72  H   LIG d   1       3.601  -2.400  -1.072  0.00  0.00     0.028 H 
ATOM     73  H   LIG d   1       2.623  -2.052  -2.518  0.00  0.00     0.028 H 
ATOM     74  H   LIG d   1       3.861  -3.330  -2.568  0.00  0.00     0.028 H 
ENDBRANCH  65  71
ENDBRANCH  59  61
ENDBRANCH  53  56
ENDBRANCH   1  53
TORSDOF 11
ENDMDL
MODEL 2
REMARK VINA RESULT:      -6.8      3.055      5.802
REMARK  11 active torsions:
REMARK  status: ('A' for Active; 'I' for Inactive)
REMARK    1  A    between atoms: C_1  and  C_2 
REMARK    2  A    between atoms: C_5  and  C_8 
REMARK    3  A    between atoms: C_11  and  C_13 
REMARK    4  A    between atoms: C_13  and  C_14 
REMARK    5  A    between atoms: C_17  and  C_37 
REMARK    6  A    between atoms: C_19  and  C_24 
REMARK    7  A    between atoms: C_22  and  C_23 
REMARK    8  A    between atoms: C_24  and  N_25 
REMARK    9  A    between atoms: N_28  and  C_31 
REMARK   10  A    between atoms: C_37  and  C_38 
REMARK   11  A    between atoms: C_37  and  C_39 
ROOT
ATOM      1  C   LIG d   1      11.005   4.015  -2.952  0.00  0.00    -0.011 C 
ATOM      2  H   LIG d   1      10.871   2.952  -2.754  0.00  0.00     0.035 H 
ATOM      3  C   LIG d   1      10.859   4.796  -1.643  0.00  0.00    -0.042 C 
ATOM      4  C   LIG d   1      11.308   6.242  -1.887  0.00  0.00    -0.031 C 
ATOM      5  H   LIG d   1      10.780   6.648  -2.751  0.00  0.00     0.031 H 
ATOM      6  C   LIG d   1      12.814   6.241  -2.159  0.00  0.00    -0.007 C 
ATOM      7  H   LIG d   1      13.347   6.014  -1.237  0.00  0.00     0.036 H 
ATOM      8  C   LIG d   1      13.152   5.212  -3.197  0.00  0.00    -0.080 C 
ATOM      9  C   LIG d   1      12.366   4.244  -3.538  0.00  0.00    -0.073 C 
ATOM     10  H   LIG d   1       9.817   4.785  -1.324  0.00  0.00     0.027 H 
ATOM     11  H   LIG d   1      11.486   4.343  -0.874  0.00  0.00     0.027 H 
ATOM     12  H   LIG d   1      14.110   5.286  -3.691  0.00  0.00     0.058 H 
ENDROOT
BRANCH   6  13
ATOM     13  C   LIG d   1      13.239   7.623  -2.661  0.00  0.00     0.005 C 
ATOM     14  H   LIG d   1      13.405   8.284  -1.809  0.00  0.00     0.043 H 
ATOM     15  H   LIG d   1      14.159   7.535  -3.238  0.00  0.00     0.043 H 
BRANCH  13  16
ATOM     16  N   LIG d   1      12.179   8.181  -3.513  0.00  0.00    -0.299 N 
ATOM     17  C   LIG d   1      11.858   9.560  -3.119  0.00  0.00     0.015 C 
ATOM     18  C   LIG d   1      10.633  10.039  -3.905  0.00  0.00     0.028 C 
ATOM     19  H   LIG d   1      11.640   9.591  -2.051  0.00  0.00     0.044 H 
ATOM     20  H   LIG d   1      12.707  10.207  -3.337  0.00  0.00     0.044 H 
ATOM     21  N   LIG d   1      10.895   9.848  -5.340  0.00  0.00    -0.297 N 
ATOM     22  H   LIG d   1      10.459  11.097  -3.702  0.00  0.00     0.048 H 
ATOM     23  H   LIG d   1       9.759   9.459  -3.611  0.00  0.00     0.048 H 
ATOM     24  C   LIG d   1      11.354   8.526  -5.792  0.00  0.00     0.028 C 
ATOM     25  C   LIG d   1      12.550   8.106  -4.932  0.00  0.00     0.015 C 
ATOM     26  H   LIG d   1      11.657   8.582  -6.838  0.00  0.00     0.048 H 
ATOM     27  H   LIG d   1      10.549   7.800  -5.680  0.00  0.00     0.048 H 
ATOM     28  H   LIG d   1      13.390   8.774  -5.125  0.00  0.00     0.044 H 
ATOM     29  H   LIG d   1      12.835   7.083  -5.179  0.00  0.00     0.044 H 
BRANCH  21  30
ATOM     30  C   LIG d   1      10.712  10.884  -6.239  0.00  0.00     0.218 A 
ATOM     31  N   LIG d   1      11.494  10.959  -7.306  0.00  0.00    -0.223 NA
ATOM     32  C   LIG d   1      11.343  11.933  -8.188  0.00  0.00     0.033 A 
ATOM     33  C   LIG d   1      10.359  12.888  -7.979  0.00  0.00    -0.025 A 
ATOM     34  H   LIG d   1      11.980  11.987  -9.057  0.00  0.00     0.083 H 
ATOM     35  C   LIG d   1       9.564  12.782  -6.849  0.00  0.00     0.033 A 
ATOM     36  H   LIG d   1      10.217  13.696  -8.680  0.00  0.00     0.065 H 
ATOM     37  N   LIG d   1       9.764  11.780  -6.009  0.00  0.00    -0.223 NA
ATOM     38  H   LIG d   1       8.788  13.510  -6.657  0.00  0.00     0.083 H 
ENDBRANCH  21  30
ENDBRANCH  13  16
ENDBRANCH   6  13
BRANCH   4  39
ATOM     39  C   LIG d   1      11.004   7.091  -0.652  0.00  0.00    -0.043 C 
ATOM     40  H   LIG d   1      11.763   7.866  -0.547  0.00  0.00     0.030 H 
BRANCH  39  41
ATOM     41  C   LIG d   1       9.629   7.745  -0.809  0.00  0.00    -0.062 C 
ATOM     42  H   LIG d   1       9.701   8.805  -0.565  0.00  0.00     0.023 H 
ATOM     43  H   LIG d   1       9.287   7.631  -1.837  0.00  0.00     0.023 H 
ATOM     44  H   LIG d   1       8.920   7.264  -0.135  0.00  0.00     0.023 H 
ENDBRANCH  39  41
BRANCH  39  45
ATOM     45  C   LIG d   1      11.007   6.201   0.592  0.00  0.00    -0.062 C 
ATOM     46  H   LIG d   1      10.804   5.171   0.302  0.00  0.00     0.023 H 
ATOM     47  H   LIG d   1      11.982   6.257   1.076  0.00  0.00     0.023 H 
ATOM     48  H   LIG d   1      10.237   6.542   1.285  0.00  0.00     0.023 H 
ENDBRANCH  39  45
ENDBRANCH   4  39
BRANCH   9  49
ATOM     49  C   LIG d   1      12.853   3.283  -4.592  0.00  0.00    -0.043 C 
ATOM     50  H   LIG d   1      13.901   3.485  -4.810  0.00  0.00     0.027 H 
ATOM     51  H   LIG d   1      12.747   2.261  -4.228  0.00  0.00     0.027 H 
ATOM     52  H   LIG d   1      12.261   3.410  -5.499  0.00  0.00     0.027 H 
ENDBRANCH   9  49
BRANCH   1  53
ATOM     53  C   LIG d   1       9.939   4.486  -3.943  0.00  0.00     0.032 C 
ATOM     54  H   LIG d   1      10.422   4.833  -4.857  0.00  0.00     0.037 H 
ATOM     55  H   LIG d   1       9.367   5.302  -3.503  0.00  0.00     0.037 H 
BRANCH  53  56
ATOM     56  C   LIG d   1       9.016   3.340  -4.268  0.00  0.00     0.218 A 
ATOM     57  N   LIG d   1       8.803   2.835  -5.452  0.00  0.00    -0.112 NA
ATOM     58  N   LIG d   1       7.957   1.870  -5.361  0.00  0.00    -0.107 NA
ATOM     59  C   LIG d   1       7.599   1.724  -4.107  0.00  0.00     0.248 A 
ATOM     60  O   LIG d   1       8.259   2.657  -3.392  0.00  0.00    -0.420 OA
BRANCH  59  61
ATOM     61  C   LIG d   1       6.643   0.728  -3.578  0.00  0.00     0.038 A 
ATOM     62  C   LIG d   1       5.543   1.143  -2.826  0.00  0.00    -0.049 A 
ATOM     63  C   LIG d   1       4.655   0.208  -2.335  0.00  0.00    -0.058 A 
ATOM     64  H   LIG d   1       5.386   2.193  -2.630  0.00  0.00     0.062 H 
ATOM     65  C   LIG d   1       4.854  -1.138  -2.588  0.00  0.00    -0.050 A 
ATOM     66  H   LIG d   1       3.803   0.527  -1.755  0.00  0.00     0.062 H 
ATOM     67  C   LIG d   1       5.945  -1.556  -3.327  0.00  0.00    -0.058 A 
ATOM     68  C   LIG d   1       6.838  -0.631  -3.828  0.00  0.00    -0.049 A 
ATOM     69  H   LIG d   1       6.097  -2.609  -3.515  0.00  0.00     0.062 H 
ATOM     70  H   LIG d   1       7.687  -0.959  -4.408  0.00  0.00     0.062 H 
BRANCH  65  71
ATOM     71  C   LIG d   1       3.879  -2.153  -2.048  0.00  0.00    -0.040 C 
ATOM     72  H   LIG d   1       3.597  -1.881  -1.031  0.00  0.00     0.028 H 
ATOM     73  H   LIG d   1       2.991  -2.176  -2.679  0.00  0.00     0.028 H 
ATOM     74  H   LIG d   1       4.347  -3.139  -2.045  0.00  0.00     0.028 H 
ENDBRANCH  65  71
ENDBRANCH  59  61
ENDBRANCH  53  56
ENDBRANCH   1  53
TORSDOF 11
ENDMDL
MODEL 3
REMARK VINA RESULT:      -6.7      8.261     12.909
REMARK  11 active torsions:
REMARK  status: ('A' for Active; 'I' for Inactive)
REMARK    1  A    between atoms: C_1  and  C_2 
REMARK    2  A    between atoms: C_5  and  C_8 
REMARK    3  A    between atoms: C_11  and  C_13 
REMARK    4  A    between atoms: C_13  and  C_14 
REMARK    5  A    between atoms: C_17  and  C_37 
REMARK    6  A    between atoms: C_19  and  C_24 
REMARK    7  A    between atoms: C_22  and  C_23 
REMARK    8  A    between atoms: C_24  and  N_25 
REMARK    9  A    between atoms: N_28  and  C_31 
REMARK   10  A    between atoms: C_37  and  C_38 
REMARK   11  A    between atoms: C_37  and  C_39 
ROOT
ATOM      1  C   LIG d   1       5.737  -1.219  -2.714  0.00  0.00    -0.011 C 
ATOM      2  H   LIG d   1       5.655  -1.124  -1.631  0.00  0.00     0.035 H 
ATOM      3  C   LIG d   1       7.041  -1.940  -3.061  0.00  0.00    -0.042 C 
ATOM      4  C   LIG d   1       7.016  -2.298  -4.553  0.00  0.00    -0.031 C 
ATOM      5  H   LIG d   1       6.788  -1.407  -5.139  0.00  0.00     0.031 H 
ATOM      6  C   LIG d   1       5.931  -3.354  -4.778  0.00  0.00    -0.007 C 
ATOM      7  H   LIG d   1       6.253  -4.300  -4.345  0.00  0.00     0.036 H 
ATOM      8  C   LIG d   1       4.647  -2.922  -4.134  0.00  0.00    -0.080 C 
ATOM      9  C   LIG d   1       4.565  -1.997  -3.235  0.00  0.00    -0.073 C 
ATOM     10  H   LIG d   1       7.889  -1.285  -2.857  0.00  0.00     0.027 H 
ATOM     11  H   LIG d   1       7.127  -2.850  -2.468  0.00  0.00     0.027 H 
ATOM     12  H   LIG d   1       3.736  -3.413  -4.441  0.00  0.00     0.058 H 
ENDROOT
BRANCH   6  13
ATOM     13  C   LIG d   1       5.706  -3.535  -6.281  0.00  0.00     0.005 C 
ATOM     14  H   LIG d   1       4.751  -3.091  -6.562  0.00  0.00     0.043 H 
ATOM     15  H   LIG d   1       6.510  -3.048  -6.831  0.00  0.00     0.043 H 
BRANCH  13  16
ATOM     16  N   LIG d   1       5.692  -4.969  -6.603  0.00  0.00    -0.299 N 
ATOM     17  C   LIG d   1       6.443  -5.741  -5.604  0.00  0.00     0.015 C 
ATOM     18  C   LIG d   1       6.559  -7.196  -6.070  0.00  0.00     0.028 C 
ATOM     19  H   LIG d   1       7.440  -5.315  -5.491  0.00  0.00     0.044 H 
ATOM     20  H   LIG d   1       5.920  -5.704  -4.649  0.00  0.00     0.044 H 
ATOM     21  N   LIG d   1       5.208  -7.702  -6.360  0.00  0.00    -0.297 N 
ATOM     22  H   LIG d   1       7.014  -7.797  -5.282  0.00  0.00     0.048 H 
ATOM     23  H   LIG d   1       7.170  -7.245  -6.971  0.00  0.00     0.048 H 
ATOM     24  C   LIG d   1       4.344  -6.909  -7.247  0.00  0.00     0.028 C 
ATOM     25  C   LIG d   1       4.316  -5.465  -6.735  0.00  0.00     0.015 C 
ATOM     26  H   LIG d   1       3.335  -7.321  -7.239  0.00  0.00     0.048 H 
ATOM     27  H   LIG d   1       4.742  -6.931  -8.262  0.00  0.00     0.048 H 
ATOM     28  H   LIG d   1       3.823  -5.432  -5.764  0.00  0.00     0.044 H 
ATOM     29  H   LIG d   1       3.770  -4.839  -7.442  0.00  0.00     0.044 H 
BRANCH  21  30
ATOM     30  C   LIG d   1       4.764  -8.894  -5.813  0.00  0.00     0.218 A 
ATOM     31  N   LIG d   1       4.763  -9.988  -6.560  0.00  0.00    -0.223 NA
ATOM     32  C   LIG d   1       4.349 -11.143  -6.066  0.00  0.00     0.033 A 
ATOM     33  C   LIG d   1       3.902 -11.197  -4.755  0.00  0.00    -0.025 A 
ATOM     34  H   LIG d   1       4.355 -12.032  -6.678  0.00  0.00     0.083 H 
ATOM     35  C   LIG d   1       3.911 -10.032  -4.004  0.00  0.00     0.033 A 
ATOM     36  H   LIG d   1       3.555 -12.125  -4.328  0.00  0.00     0.065 H 
ATOM     37  N   LIG d   1       4.343  -8.910  -4.557  0.00  0.00    -0.223 NA
ATOM     38  H   LIG d   1       3.571 -10.040  -2.978  0.00  0.00     0.083 H 
ENDBRANCH  21  30
ENDBRANCH  13  16
ENDBRANCH   6  13
BRANCH   4  39
ATOM     39  C   LIG d   1       8.378  -2.855  -4.972  0.00  0.00    -0.043 C 
ATOM     40  H   LIG d   1       8.252  -3.516  -5.829  0.00  0.00     0.030 H 
BRANCH  39  41
ATOM     41  C   LIG d   1       9.307  -1.700  -5.352  0.00  0.00    -0.062 C 
ATOM     42  H   LIG d   1       9.091  -1.381  -6.372  0.00  0.00     0.023 H 
ATOM     43  H   LIG d   1       9.147  -0.865  -4.669  0.00  0.00     0.023 H 
ATOM     44  H   LIG d   1      10.343  -2.031  -5.286  0.00  0.00     0.023 H 
ENDBRANCH  39  41
BRANCH  39  45
ATOM     45  C   LIG d   1       8.988  -3.638  -3.808  0.00  0.00    -0.062 C 
ATOM     46  H   LIG d   1       9.828  -4.231  -4.170  0.00  0.00     0.023 H 
ATOM     47  H   LIG d   1       9.337  -2.942  -3.045  0.00  0.00     0.023 H 
ATOM     48  H   LIG d   1       8.235  -4.300  -3.379  0.00  0.00     0.023 H 
ENDBRANCH  39  45
ENDBRANCH   4  39
BRANCH   9  49
ATOM     49  C   LIG d   1       3.202  -1.682  -2.675  0.00  0.00    -0.043 C 
ATOM     50  H   LIG d   1       3.242  -1.707  -1.587  0.00  0.00     0.027 H 
ATOM     51  H   LIG d   1       2.895  -0.689  -3.004  0.00  0.00     0.027 H 
ATOM     52  H   LIG d   1       2.484  -2.421  -3.031  0.00  0.00     0.027 H 
ENDBRANCH   9  49
BRANCH   1  53
ATOM     53  C   LIG d   1       5.744   0.174  -3.346  0.00  0.00     0.032 C 
ATOM     54  H   LIG d   1       6.715   0.359  -3.805  0.00  0.00     0.037 H 
ATOM     55  H   LIG d   1       5.557   0.923  -2.577  0.00  0.00     0.037 H 
BRANCH  53  56
ATOM     56  C   LIG d   1       4.668   0.252  -4.399  0.00  0.00     0.218 A 
ATOM     57  N   LIG d   1       3.461   0.715  -4.231  0.00  0.00    -0.112 NA
ATOM     58  N   LIG d   1       2.811   0.631  -5.339  0.00  0.00    -0.107 NA
ATOM     59  C   LIG d   1       3.589   0.109  -6.258  0.00  0.00     0.248 A 
ATOM     60  O   LIG d   1       4.779  -0.146  -5.678  0.00  0.00    -0.420 OA
BRANCH  59  61
ATOM     61  C   LIG d   1       3.226  -0.157  -7.666  0.00  0.00     0.038 A 
ATOM     62  C   LIG d   1       2.811   0.889  -8.492  0.00  0.00    -0.049 A 
ATOM     63  C   LIG d   1       2.473   0.633  -9.806  0.00  0.00    -0.058 A 
ATOM     64  H   LIG d   1       2.755   1.895  -8.105  0.00  0.00     0.062 H 
ATOM     65  C   LIG d   1       2.546  -0.656 -10.303  0.00  0.00    -0.050 A 
ATOM     66  H   LIG d   1       2.153   1.441 -10.446  0.00  0.00     0.062 H 
ATOM     67  C   LIG d   1       2.950  -1.698  -9.488  0.00  0.00    -0.058 A 
ATOM     68  C   LIG d   1       3.296  -1.455  -8.175  0.00  0.00    -0.049 A 
ATOM     69  H   LIG d   1       2.999  -2.702  -9.882  0.00  0.00     0.062 H 
ATOM     70  H   LIG d   1       3.615  -2.268  -7.541  0.00  0.00     0.062 H 
BRANCH  65  71
ATOM     71  C   LIG d   1       2.175  -0.926 -11.740  0.00  0.00    -0.040 C 
ATOM     72  H   LIG d   1       2.579  -1.892 -12.043  0.00  0.00     0.028 H 
ATOM     73  H   LIG d   1       1.090  -0.938 -11.840  0.00  0.00     0.028 H 
ATOM     74  H   LIG d   1       2.590  -0.143 -12.375  0.00  0.00     0.028 H 
ENDBRANCH  65  71
ENDBRANCH  59  61
ENDBRANCH  53  56
ENDBRANCH   1  53
TORSDOF 11
ENDMDL
MODEL 4
REMARK VINA RESULT:      -6.4      3.129      4.303
REMARK  11 active torsions:
REMARK  status: ('A' for Active; 'I' for Inactive)
REMARK    1  A    between atoms: C_1  and  C_2 
REMARK    2  A    between atoms: C_5  and  C_8 
REMARK    3  A    between atoms: C_11  and  C_13 
REMARK    4  A    between atoms: C_13  and  C_14 
REMARK    5  A    between atoms: C_17  and  C_37 
REMARK    6  A    between atoms: C_19  and  C_24 
REMARK    7  A    between atoms: C_22  and  C_23 
REMARK    8  A    between atoms: C_24  and  N_25 
REMARK    9  A    between atoms: N_28  and  C_31 
REMARK   10  A    between atoms: C_37  and  C_38 
REMARK   11  A    between atoms: C_37  and  C_39 
ROOT
ATOM      1  C   LIG d   1      11.083   4.641  -4.605  0.00  0.00    -0.011 C 
ATOM      2  H   LIG d   1      10.895   3.946  -5.424  0.00  0.00     0.035 H 
ATOM      3  C   LIG d   1      12.520   4.465  -4.111  0.00  0.00    -0.042 C 
ATOM      4  C   LIG d   1      12.849   5.616  -3.152  0.00  0.00    -0.031 C 
ATOM      5  H   LIG d   1      12.080   5.681  -2.381  0.00  0.00     0.031 H 
ATOM      6  C   LIG d   1      12.884   6.918  -3.954  0.00  0.00    -0.007 C 
ATOM      7  H   LIG d   1      13.767   6.925  -4.593  0.00  0.00     0.036 H 
ATOM      8  C   LIG d   1      11.654   7.037  -4.803  0.00  0.00    -0.080 C 
ATOM      9  C   LIG d   1      10.874   6.046  -5.087  0.00  0.00    -0.073 C 
ATOM     10  H   LIG d   1      12.614   3.513  -3.587  0.00  0.00     0.027 H 
ATOM     11  H   LIG d   1      13.205   4.488  -4.959  0.00  0.00     0.027 H 
ATOM     12  H   LIG d   1      11.403   8.010  -5.199  0.00  0.00     0.058 H 
ENDROOT
BRANCH   6  13
ATOM     13  C   LIG d   1      12.949   8.105  -2.989  0.00  0.00     0.005 C 
ATOM     14  H   LIG d   1      12.890   7.742  -1.963  0.00  0.00     0.043 H 
ATOM     15  H   LIG d   1      13.888   8.640  -3.133  0.00  0.00     0.043 H 
BRANCH  13  16
ATOM     16  N   LIG d   1      11.824   9.012  -3.254  0.00  0.00    -0.299 N 
ATOM     17  C   LIG d   1      11.037   9.244  -2.035  0.00  0.00     0.015 C 
ATOM     18  C   LIG d   1       9.778  10.043  -2.388  0.00  0.00     0.028 C 
ATOM     19  H   LIG d   1      10.750   8.287  -1.600  0.00  0.00     0.044 H 
ATOM     20  H   LIG d   1      11.636   9.806  -1.318  0.00  0.00     0.044 H 
ATOM     21  N   LIG d   1      10.183  11.260  -3.107  0.00  0.00    -0.297 N 
ATOM     22  H   LIG d   1       9.250  10.317  -1.474  0.00  0.00     0.048 H 
ATOM     23  H   LIG d   1       9.129   9.440  -3.024  0.00  0.00     0.048 H 
ATOM     24  C   LIG d   1      11.085  11.118  -4.261  0.00  0.00     0.028 C 
ATOM     25  C   LIG d   1      12.293  10.277  -3.834  0.00  0.00     0.015 C 
ATOM     26  H   LIG d   1      11.421  12.103  -4.586  0.00  0.00     0.048 H 
ATOM     27  H   LIG d   1      10.562  10.620  -5.076  0.00  0.00     0.048 H 
ATOM     28  H   LIG d   1      12.874  10.825  -3.091  0.00  0.00     0.044 H 
ATOM     29  H   LIG d   1      12.917  10.069  -4.703  0.00  0.00     0.044 H 
BRANCH  21  30
ATOM     30  C   LIG d   1       9.728  12.505  -2.710  0.00  0.00     0.218 A 
ATOM     31  N   LIG d   1       8.740  13.077  -3.383  0.00  0.00    -0.223 NA
ATOM     32  C   LIG d   1       8.277  14.264  -3.026  0.00  0.00     0.033 A 
ATOM     33  C   LIG d   1       8.847  14.914  -1.941  0.00  0.00    -0.025 A 
ATOM     34  H   LIG d   1       7.470  14.723  -3.575  0.00  0.00     0.083 H 
ATOM     35  C   LIG d   1       9.883  14.289  -1.265  0.00  0.00     0.033 A 
ATOM     36  H   LIG d   1       8.493  15.885  -1.631  0.00  0.00     0.065 H 
ATOM     37  N   LIG d   1      10.295  13.099  -1.670  0.00  0.00    -0.223 NA
ATOM     38  H   LIG d   1      10.348  14.768  -0.415  0.00  0.00     0.083 H 
ENDBRANCH  21  30
ENDBRANCH  13  16
ENDBRANCH   6  13
BRANCH   4  39
ATOM     39  C   LIG d   1      14.211   5.370  -2.500  0.00  0.00    -0.043 C 
ATOM     40  H   LIG d   1      14.884   6.193  -2.742  0.00  0.00     0.030 H 
BRANCH  39  41
ATOM     41  C   LIG d   1      14.042   5.280  -0.981  0.00  0.00    -0.062 C 
ATOM     42  H   LIG d   1      14.725   4.529  -0.584  0.00  0.00     0.023 H 
ATOM     43  H   LIG d   1      14.265   6.249  -0.533  0.00  0.00     0.023 H 
ATOM     44  H   LIG d   1      13.015   4.999  -0.747  0.00  0.00     0.023 H 
ENDBRANCH  39  41
BRANCH  39  45
ATOM     45  C   LIG d   1      14.799   4.059  -3.025  0.00  0.00    -0.062 C 
ATOM     46  H   LIG d   1      14.284   3.771  -3.942  0.00  0.00     0.023 H 
ATOM     47  H   LIG d   1      15.860   4.193  -3.233  0.00  0.00     0.023 H 
ATOM     48  H   LIG d   1      14.671   3.277  -2.277  0.00  0.00     0.023 H 
ENDBRANCH  39  45
ENDBRANCH   4  39
BRANCH   9  49
ATOM     49  C   LIG d   1       9.678   6.323  -5.962  0.00  0.00    -0.043 C 
ATOM     50  H   LIG d   1       9.883   7.187  -6.593  0.00  0.00     0.027 H 
ATOM     51  H   LIG d   1       9.479   5.454  -6.590  0.00  0.00     0.027 H 
ATOM     52  H   LIG d   1       8.809   6.526  -5.335  0.00  0.00     0.027 H 
ENDBRANCH   9  49
BRANCH   1  53
ATOM     53  C   LIG d   1      10.113   4.348  -3.458  0.00  0.00     0.032 C 
ATOM     54  H   LIG d   1       9.582   5.262  -3.191  0.00  0.00     0.037 H 
ATOM     55  H   LIG d   1      10.671   3.986  -2.595  0.00  0.00     0.037 H 
BRANCH  53  56
ATOM     56  C   LIG d   1       9.122   3.300  -3.895  0.00  0.00     0.218 A 
ATOM     57  N   LIG d   1       8.844   2.969  -5.125  0.00  0.00    -0.112 NA
ATOM     58  N   LIG d   1       7.954   2.040  -5.130  0.00  0.00    -0.107 NA
ATOM     59  C   LIG d   1       7.632   1.744  -3.892  0.00  0.00     0.248 A 
ATOM     60  O   LIG d   1       8.363   2.541  -3.087  0.00  0.00    -0.420 OA
BRANCH  59  61
ATOM     61  C   LIG d   1       6.646   0.730  -3.462  0.00  0.00     0.038 A 
ATOM     62  C   LIG d   1       6.839  -0.615  -3.782  0.00  0.00    -0.049 A 
ATOM     63  C   LIG d   1       5.915  -1.556  -3.377  0.00  0.00    -0.058 A 
ATOM     64  H   LIG d   1       7.710  -0.919  -4.343  0.00  0.00     0.062 H 
ATOM     65  C   LIG d   1       4.799  -1.169  -2.656  0.00  0.00    -0.050 A 
ATOM     66  H   LIG d   1       6.063  -2.597  -3.622  0.00  0.00     0.062 H 
ATOM     67  C   LIG d   1       4.599   0.163  -2.341  0.00  0.00    -0.058 A 
ATOM     68  C   LIG d   1       5.518   1.113  -2.735  0.00  0.00    -0.049 A 
ATOM     69  H   LIG d   1       3.723   0.459  -1.782  0.00  0.00     0.062 H 
ATOM     70  H   LIG d   1       5.363   2.152  -2.485  0.00  0.00     0.062 H 
BRANCH  65  71
ATOM     71  C   LIG d   1       3.794  -2.204  -2.217  0.00  0.00    -0.040 C 
ATOM     72  H   LIG d   1       3.195  -2.514  -3.072  0.00  0.00     0.028 H 
ATOM     73  H   LIG d   1       4.317  -3.067  -1.806  0.00  0.00     0.028 H 
ATOM     74  H   LIG d   1       3.144  -1.776  -1.453  0.00  0.00     0.028 H 
ENDBRANCH  65  71
ENDBRANCH  59  61
ENDBRANCH  53  56
ENDBRANCH   1  53
TORSDOF 11
ENDMDL
MODEL 5
REMARK VINA RESULT:      -6.3      5.905     10.144
REMARK  11 active torsions:
REMARK  status: ('A' for Active; 'I' for Inactive)
REMARK    1  A    between atoms: C_1  and  C_2 
REMARK    2  A    between atoms: C_5  and  C_8 
REMARK    3  A    between atoms: C_11  and  C_13 
REMARK    4  A    between atoms: C_13  and  C_14 
REMARK    5  A    between atoms: C_17  and  C_37 
REMARK    6  A    between atoms: C_19  and  C_24 
REMARK    7  A    between atoms: C_22  and  C_23 
REMARK    8  A    between atoms: C_24  and  N_25 
REMARK    9  A    between atoms: N_28  and  C_31 
REMARK   10  A    between atoms: C_37  and  C_38 
REMARK   11  A    between atoms: C_37  and  C_39 
ROOT
ATOM      1  C   LIG d   1       5.482  -3.015  -4.192  0.00  0.00    -0.011 C 
ATOM      2  H   LIG d   1       5.384  -4.043  -3.841  0.00  0.00     0.035 H 
ATOM      3  C   LIG d   1       4.568  -2.109  -3.363  0.00  0.00    -0.042 C 
ATOM      4  C   LIG d   1       4.911  -0.649  -3.686  0.00  0.00    -0.031 C 
ATOM      5  H   LIG d   1       4.888  -0.498  -4.766  0.00  0.00     0.031 H 
ATOM      6  C   LIG d   1       6.315  -0.353  -3.156  0.00  0.00    -0.007 C 
ATOM      7  H   LIG d   1       6.290  -0.322  -2.067  0.00  0.00     0.036 H 
ATOM      8  C   LIG d   1       7.272  -1.418  -3.603  0.00  0.00    -0.080 C 
ATOM      9  C   LIG d   1       6.909  -2.575  -4.049  0.00  0.00    -0.073 C 
ATOM     10  H   LIG d   1       3.527  -2.306  -3.619  0.00  0.00     0.027 H 
ATOM     11  H   LIG d   1       4.730  -2.297  -2.302  0.00  0.00     0.027 H 
ATOM     12  H   LIG d   1       8.330  -1.203  -3.549  0.00  0.00     0.058 H 
ENDROOT
BRANCH   6  13
ATOM     13  C   LIG d   1       6.783   1.003  -3.689  0.00  0.00     0.005 C 
ATOM     14  H   LIG d   1       6.021   1.415  -4.352  0.00  0.00     0.043 H 
ATOM     15  H   LIG d   1       6.947   1.686  -2.856  0.00  0.00     0.043 H 
BRANCH  13  16
ATOM     16  N   LIG d   1       8.037   0.830  -4.434  0.00  0.00    -0.299 N 
ATOM     17  C   LIG d   1       7.823   1.007  -5.876  0.00  0.00     0.015 C 
ATOM     18  C   LIG d   1       9.106   0.642  -6.629  0.00  0.00     0.028 C 
ATOM     19  H   LIG d   1       7.011   0.358  -6.205  0.00  0.00     0.044 H 
ATOM     20  H   LIG d   1       7.564   2.046  -6.080  0.00  0.00     0.044 H 
ATOM     21  N   LIG d   1      10.217   1.424  -6.065  0.00  0.00    -0.297 N 
ATOM     22  H   LIG d   1       8.991   0.881  -7.687  0.00  0.00     0.048 H 
ATOM     23  H   LIG d   1       9.310  -0.422  -6.511  0.00  0.00     0.048 H 
ATOM     24  C   LIG d   1      10.411   1.405  -4.607  0.00  0.00     0.028 C 
ATOM     25  C   LIG d   1       9.076   1.740  -3.934  0.00  0.00     0.015 C 
ATOM     26  H   LIG d   1      11.159   2.147  -4.327  0.00  0.00     0.048 H 
ATOM     27  H   LIG d   1      10.741   0.414  -4.294  0.00  0.00     0.048 H 
ATOM     28  H   LIG d   1       8.800   2.769  -4.164  0.00  0.00     0.044 H 
ATOM     29  H   LIG d   1       9.173   1.623  -2.854  0.00  0.00     0.044 H 
BRANCH  21  30
ATOM     30  C   LIG d   1      11.058   2.158  -6.884  0.00  0.00     0.218 A 
ATOM     31  N   LIG d   1      11.963   2.955  -6.335  0.00  0.00    -0.223 NA
ATOM     32  C   LIG d   1      12.785   3.665  -7.090  0.00  0.00     0.033 A 
ATOM     33  C   LIG d   1      12.682   3.578  -8.470  0.00  0.00    -0.025 A 
ATOM     34  H   LIG d   1      13.523   4.309  -6.637  0.00  0.00     0.083 H 
ATOM     35  C   LIG d   1      11.720   2.740  -9.010  0.00  0.00     0.033 A 
ATOM     36  H   LIG d   1      13.337   4.150  -9.109  0.00  0.00     0.065 H 
ATOM     37  N   LIG d   1      10.932   2.052  -8.199  0.00  0.00    -0.223 NA
ATOM     38  H   LIG d   1      11.614   2.648 -10.082  0.00  0.00     0.083 H 
ENDBRANCH  21  30
ENDBRANCH  13  16
ENDBRANCH   6  13
BRANCH   4  39
ATOM     39  C   LIG d   1       3.896   0.279  -3.015  0.00  0.00    -0.043 C 
ATOM     40  H   LIG d   1       3.811   1.201  -3.589  0.00  0.00     0.030 H 
BRANCH  39  41
ATOM     41  C   LIG d   1       2.531  -0.413  -2.960  0.00  0.00    -0.062 C 
ATOM     42  H   LIG d   1       2.321  -0.719  -1.935  0.00  0.00     0.023 H 
ATOM     43  H   LIG d   1       1.760   0.278  -3.299  0.00  0.00     0.023 H 
ATOM     44  H   LIG d   1       2.543  -1.291  -3.607  0.00  0.00     0.023 H 
ENDBRANCH  39  41
BRANCH  39  45
ATOM     45  C   LIG d   1       4.362   0.601  -1.595  0.00  0.00    -0.062 C 
ATOM     46  H   LIG d   1       3.512   0.937  -1.001  0.00  0.00     0.023 H 
ATOM     47  H   LIG d   1       4.790  -0.293  -1.141  0.00  0.00     0.023 H 
ATOM     48  H   LIG d   1       5.116   1.388  -1.628  0.00  0.00     0.023 H 
ENDBRANCH  39  45
ENDBRANCH   4  39
BRANCH   9  49
ATOM     49  C   LIG d   1       7.991  -3.543  -4.451  0.00  0.00    -0.043 C 
ATOM     50  H   LIG d   1       7.540  -4.487  -4.754  0.00  0.00     0.027 H 
ATOM     51  H   LIG d   1       8.559  -3.128  -5.285  0.00  0.00     0.027 H 
ATOM     52  H   LIG d   1       8.659  -3.712  -3.606  0.00  0.00     0.027 H 
ENDBRANCH   9  49
BRANCH   1  53
ATOM     53  C   LIG d   1       5.072  -2.940  -5.663  0.00  0.00     0.032 C 
ATOM     54  H   LIG d   1       5.908  -2.565  -6.254  0.00  0.00     0.037 H 
ATOM     55  H   LIG d   1       4.221  -2.268  -5.770  0.00  0.00     0.037 H 
BRANCH  53  56
ATOM     56  C   LIG d   1       4.691  -4.315  -6.149  0.00  0.00     0.218 A 
ATOM     57  N   LIG d   1       3.902  -4.586  -7.151  0.00  0.00    -0.112 NA
ATOM     58  N   LIG d   1       3.799  -5.861  -7.284  0.00  0.00    -0.107 NA
ATOM     59  C   LIG d   1       4.525  -6.453  -6.365  0.00  0.00     0.248 A 
ATOM     60  O   LIG d   1       5.100  -5.483  -5.625  0.00  0.00    -0.420 OA
BRANCH  59  61
ATOM     61  C   LIG d   1       4.679  -7.910  -6.172  0.00  0.00     0.038 A 
ATOM     62  C   LIG d   1       4.485  -8.783  -7.244  0.00  0.00    -0.049 A 
ATOM     63  C   LIG d   1       4.630 -10.143  -7.057  0.00  0.00    -0.058 A 
ATOM     64  H   LIG d   1       4.223  -8.396  -8.217  0.00  0.00     0.062 H 
ATOM     65  C   LIG d   1       4.967 -10.640  -5.811  0.00  0.00    -0.050 A 
ATOM     66  H   LIG d   1       4.481 -10.819  -7.885  0.00  0.00     0.062 H 
ATOM     67  C   LIG d   1       5.156  -9.781  -4.743  0.00  0.00    -0.058 A 
ATOM     68  C   LIG d   1       5.018  -8.419  -4.918  0.00  0.00    -0.049 A 
ATOM     69  H   LIG d   1       5.414 -10.177  -3.772  0.00  0.00     0.062 H 
ATOM     70  H   LIG d   1       5.170  -7.750  -4.085  0.00  0.00     0.062 H 
BRANCH  65  71
ATOM     71  C   LIG d   1       5.125 -12.127  -5.615  0.00  0.00    -0.040 C 
ATOM     72  H   LIG d   1       4.485 -12.656  -6.321  0.00  0.00     0.028 H 
ATOM     73  H   LIG d   1       6.164 -12.408  -5.783  0.00  0.00     0.028 H 
ATOM     74  H   LIG d   1       4.837 -12.390  -4.596  0.00  0.00     0.028 H 
ENDBRANCH  65  71
ENDBRANCH  59  61
ENDBRANCH  53  56
ENDBRANCH   1  53
TORSDOF 11
ENDMDL
MODEL 6
REMARK VINA RESULT:      -6.1      7.820     13.686
REMARK  11 active torsions:
REMARK  status: ('A' for Active; 'I' for Inactive)
REMARK    1  A    between atoms: C_1  and  C_2 
REMARK    2  A    between atoms: C_5  and  C_8 
REMARK    3  A    between atoms: C_11  and  C_13 
REMARK    4  A    between atoms: C_13  and  C_14 
REMARK    5  A    between atoms: C_17  and  C_37 
REMARK    6  A    between atoms: C_19  and  C_24 
REMARK    7  A    between atoms: C_22  and  C_23 
REMARK    8  A    between atoms: C_24  and  N_25 
REMARK    9  A    between atoms: N_28  and  C_31 
REMARK   10  A    between atoms: C_37  and  C_38 
REMARK   11  A    between atoms: C_37  and  C_39 
ROOT
ATOM      1  C   LIG d   1      10.826  -5.229  -3.564  0.00  0.00    -0.011 C 
ATOM      2  H   LIG d   1      11.197  -4.230  -3.334  0.00  0.00     0.035 H 
ATOM      3  C   LIG d   1      11.962  -6.068  -4.152  0.00  0.00    -0.042 C 
ATOM      4  C   LIG d   1      11.500  -7.530  -4.221  0.00  0.00    -0.031 C 
ATOM      5  H   LIG d   1      10.542  -7.587  -4.739  0.00  0.00     0.031 H 
ATOM      6  C   LIG d   1      11.344  -8.055  -2.792  0.00  0.00    -0.007 C 
ATOM      7  H   LIG d   1      12.329  -8.172  -2.341  0.00  0.00     0.036 H 
ATOM      8  C   LIG d   1      10.532  -7.097  -1.973  0.00  0.00    -0.080 C 
ATOM      9  C   LIG d   1      10.310  -5.868  -2.309  0.00  0.00    -0.073 C 
ATOM     10  H   LIG d   1      12.201  -5.713  -5.154  0.00  0.00     0.027 H 
ATOM     11  H   LIG d   1      12.842  -5.992  -3.513  0.00  0.00     0.027 H 
ATOM     12  H   LIG d   1      10.105  -7.455  -1.048  0.00  0.00     0.058 H 
ENDROOT
BRANCH   6  13
ATOM     13  C   LIG d   1      10.640  -9.414  -2.826  0.00  0.00     0.005 C 
ATOM     14  H   LIG d   1      10.949  -9.960  -3.718  0.00  0.00     0.043 H 
ATOM     15  H   LIG d   1      10.907  -9.985  -1.938  0.00  0.00     0.043 H 
BRANCH  13  16
ATOM     16  N   LIG d   1       9.185  -9.209  -2.857  0.00  0.00    -0.299 N 
ATOM     17  C   LIG d   1       8.688  -9.170  -4.239  0.00  0.00     0.015 C 
ATOM     18  C   LIG d   1       7.207  -8.777  -4.234  0.00  0.00     0.028 C 
ATOM     19  H   LIG d   1       9.257  -8.436  -4.809  0.00  0.00     0.044 H 
ATOM     20  H   LIG d   1       8.802 -10.153  -4.694  0.00  0.00     0.044 H 
ATOM     21  N   LIG d   1       6.483  -9.693  -3.339  0.00  0.00    -0.297 N 
ATOM     22  H   LIG d   1       6.803  -8.857  -5.244  0.00  0.00     0.048 H 
ATOM     23  H   LIG d   1       7.101  -7.753  -3.875  0.00  0.00     0.048 H 
ATOM     24  C   LIG d   1       7.003  -9.889  -1.977  0.00  0.00     0.028 C 
ATOM     25  C   LIG d   1       8.492 -10.238  -2.071  0.00  0.00     0.015 C 
ATOM     26  H   LIG d   1       6.465 -10.705  -1.494  0.00  0.00     0.048 H 
ATOM     27  H   LIG d   1       6.877  -8.973  -1.401  0.00  0.00     0.048 H 
ATOM     28  H   LIG d   1       8.609 -11.208  -2.556  0.00  0.00     0.044 H 
ATOM     29  H   LIG d   1       8.920 -10.280  -1.069  0.00  0.00     0.044 H 
BRANCH  21  30
ATOM     30  C   LIG d   1       5.343 -10.351  -3.767  0.00  0.00     0.218 A 
ATOM     31  N   LIG d   1       4.237 -10.266  -3.042  0.00  0.00    -0.223 NA
ATOM     32  C   LIG d   1       3.129 -10.878  -3.425  0.00  0.00     0.033 A 
ATOM     33  C   LIG d   1       3.138 -11.624  -4.594  0.00  0.00    -0.025 A 
ATOM     34  H   LIG d   1       2.230 -10.802  -2.833  0.00  0.00     0.083 H 
ATOM     35  C   LIG d   1       4.314 -11.696  -5.324  0.00  0.00     0.033 A 
ATOM     36  H   LIG d   1       2.250 -12.138  -4.928  0.00  0.00     0.065 H 
ATOM     37  N   LIG d   1       5.386 -11.055  -4.888  0.00  0.00    -0.223 NA
ATOM     38  H   LIG d   1       4.355 -12.269  -6.240  0.00  0.00     0.083 H 
ENDBRANCH  21  30
ENDBRANCH  13  16
ENDBRANCH   6  13
BRANCH   4  39
ATOM     39  C   LIG d   1      12.541  -8.364  -4.970  0.00  0.00    -0.043 C 
ATOM     40  H   LIG d   1      12.318  -9.423  -4.843  0.00  0.00     0.030 H 
BRANCH  39  41
ATOM     41  C   LIG d   1      12.502  -8.010  -6.459  0.00  0.00    -0.062 C 
ATOM     42  H   LIG d   1      11.465  -7.959  -6.793  0.00  0.00     0.023 H 
ATOM     43  H   LIG d   1      12.983  -7.044  -6.615  0.00  0.00     0.023 H 
ATOM     44  H   LIG d   1      13.030  -8.775  -7.028  0.00  0.00     0.023 H 
ENDBRANCH  39  41
BRANCH  39  45
ATOM     45  C   LIG d   1      13.933  -8.064  -4.411  0.00  0.00    -0.062 C 
ATOM     46  H   LIG d   1      14.477  -7.430  -5.111  0.00  0.00     0.023 H 
ATOM     47  H   LIG d   1      13.838  -7.550  -3.455  0.00  0.00     0.023 H 
ATOM     48  H   LIG d   1      14.477  -8.998  -4.268  0.00  0.00     0.023 H 
ENDBRANCH  39  45
ENDBRANCH   4  39
BRANCH   9  49
ATOM     49  C   LIG d   1       9.481  -5.025  -1.375  0.00  0.00    -0.043 C 
ATOM     50  H   LIG d   1       8.944  -5.672  -0.682  0.00  0.00     0.027 H 
ATOM     51  H   LIG d   1      10.133  -4.354  -0.815  0.00  0.00     0.027 H 
ATOM     52  H   LIG d   1       8.766  -4.438  -1.953  0.00  0.00     0.027 H 
ENDBRANCH   9  49
BRANCH   1  53
ATOM     53  C   LIG d   1       9.691  -5.126  -4.584  0.00  0.00     0.032 C 
ATOM     54  H   LIG d   1       8.915  -5.851  -4.338  0.00  0.00     0.037 H 
ATOM     55  H   LIG d   1      10.078  -5.334  -5.581  0.00  0.00     0.037 H 
BRANCH  53  56
ATOM     56  C   LIG d   1       9.109  -3.736  -4.550  0.00  0.00     0.218 A 
ATOM     57  N   LIG d   1       9.580  -2.689  -5.169  0.00  0.00    -0.112 NA
ATOM     58  N   LIG d   1       8.835  -1.671  -4.918  0.00  0.00    -0.107 NA
ATOM     59  C   LIG d   1       7.856  -2.035  -4.124  0.00  0.00     0.248 A 
ATOM     60  O   LIG d   1       8.015  -3.350  -3.872  0.00  0.00    -0.420 OA
BRANCH  59  61
ATOM     61  C   LIG d   1       6.783  -1.165  -3.599  0.00  0.00     0.038 A 
ATOM     62  C   LIG d   1       6.936   0.222  -3.612  0.00  0.00    -0.049 A 
ATOM     63  C   LIG d   1       5.930   1.029  -3.120  0.00  0.00    -0.058 A 
ATOM     64  H   LIG d   1       7.839   0.663  -4.008  0.00  0.00     0.062 H 
ATOM     65  C   LIG d   1       4.772   0.464  -2.614  0.00  0.00    -0.050 A 
ATOM     66  H   LIG d   1       6.047   2.102  -3.131  0.00  0.00     0.062 H 
ATOM     67  C   LIG d   1       4.617  -0.910  -2.592  0.00  0.00    -0.058 A 
ATOM     68  C   LIG d   1       5.613  -1.727  -3.086  0.00  0.00    -0.049 A 
ATOM     69  H   LIG d   1       3.713  -1.343  -2.191  0.00  0.00     0.062 H 
ATOM     70  H   LIG d   1       5.488  -2.800  -3.073  0.00  0.00     0.062 H 
BRANCH  65  71
ATOM     71  C   LIG d   1       3.678   1.353  -2.079  0.00  0.00    -0.040 C 
ATOM     72  H   LIG d   1       2.737   0.804  -2.069  0.00  0.00     0.028 H 
ATOM     73  H   LIG d   1       3.928   1.666  -1.065  0.00  0.00     0.028 H 
ATOM     74  H   LIG d   1       3.580   2.232  -2.717  0.00  0.00     0.028 H 
ENDBRANCH  65  71
ENDBRANCH  59  61
ENDBRANCH  53  56
ENDBRANCH   1  53
TORSDOF 11
ENDMDL
MODEL 7
REMARK VINA RESULT:      -6.1      9.525     13.672
REMARK  11 active torsions:
REMARK  status: ('A' for Active; 'I' for Inactive)
REMARK    1  A    between atoms: C_1  and  C_2 
REMARK    2  A    between atoms: C_5  and  C_8 
REMARK    3  A    between atoms: C_11  and  C_13 
REMARK    4  A    between atoms: C_13  and  C_14 
REMARK    5  A    between atoms: C_17  and  C_37 
REMARK    6  A    between atoms: C_19  and  C_24 
REMARK    7  A    between atoms: C_22  and  C_23 
REMARK    8  A    between atoms: C_24  and  N_25 
REMARK    9  A    between atoms: N_28  and  C_31 
REMARK   10  A    between atoms: C_37  and  C_38 
REMARK   11  A    between atoms: C_37  and  C_39 
ROOT
ATOM      1  C   LIG d   1       1.132  -2.183 -10.955  0.00  0.00    -0.011 C 
ATOM      2  H   LIG d   1       0.047  -2.274 -10.905  0.00  0.00     0.035 H 
ATOM      3  C   LIG d   1       1.559  -0.857 -10.322  0.00  0.00    -0.042 C 
ATOM      4  C   LIG d   1       3.085  -0.864 -10.161  0.00  0.00    -0.031 C 
ATOM      5  H   LIG d   1       3.552  -1.115 -11.114  0.00  0.00     0.031 H 
ATOM      6  C   LIG d   1       3.455  -1.917  -9.114  0.00  0.00    -0.007 C 
ATOM      7  H   LIG d   1       3.146  -1.570  -8.129  0.00  0.00     0.036 H 
ATOM      8  C   LIG d   1       2.772  -3.216  -9.422  0.00  0.00    -0.080 C 
ATOM      9  C   LIG d   1       1.761  -3.329 -10.219  0.00  0.00    -0.073 C 
ATOM     10  H   LIG d   1       1.263  -0.030 -10.968  0.00  0.00     0.027 H 
ATOM     11  H   LIG d   1       1.088  -0.749  -9.344  0.00  0.00     0.027 H 
ATOM     12  H   LIG d   1       3.149  -4.112  -8.950  0.00  0.00     0.058 H 
ENDROOT
BRANCH   6  13
ATOM     13  C   LIG d   1       4.971  -2.129  -9.124  0.00  0.00     0.005 C 
ATOM     14  H   LIG d   1       5.195  -3.136  -9.477  0.00  0.00     0.043 H 
ATOM     15  H   LIG d   1       5.436  -1.399  -9.786  0.00  0.00     0.043 H 
BRANCH  13  16
ATOM     16  N   LIG d   1       5.497  -1.960  -7.763  0.00  0.00    -0.299 N 
ATOM     17  C   LIG d   1       5.736  -0.542  -7.463  0.00  0.00     0.015 C 
ATOM     18  C   LIG d   1       6.450  -0.422  -6.112  0.00  0.00     0.028 C 
ATOM     19  H   LIG d   1       6.360  -0.105  -8.243  0.00  0.00     0.044 H 
ATOM     20  H   LIG d   1       4.783  -0.014  -7.419  0.00  0.00     0.044 H 
ATOM     21  N   LIG d   1       5.663  -1.147  -5.102  0.00  0.00    -0.297 N 
ATOM     22  H   LIG d   1       6.527   0.629  -5.830  0.00  0.00     0.048 H 
ATOM     23  H   LIG d   1       7.445  -0.859  -6.184  0.00  0.00     0.048 H 
ATOM     24  C   LIG d   1       5.268  -2.534  -5.393  0.00  0.00     0.028 C 
ATOM     25  C   LIG d   1       4.601  -2.570  -6.772  0.00  0.00     0.015 C 
ATOM     26  H   LIG d   1       4.563  -2.880  -4.636  0.00  0.00     0.048 H 
ATOM     27  H   LIG d   1       6.150  -3.174  -5.396  0.00  0.00     0.048 H 
ATOM     28  H   LIG d   1       3.663  -2.014  -6.739  0.00  0.00     0.044 H 
ATOM     29  H   LIG d   1       4.400  -3.604  -7.052  0.00  0.00     0.044 H 
BRANCH  21  30
ATOM     30  C   LIG d   1       5.306  -0.541  -3.910  0.00  0.00     0.218 A 
ATOM     31  N   LIG d   1       4.884  -1.292  -2.904  0.00  0.00    -0.223 NA
ATOM     32  C   LIG d   1       4.540  -0.745  -1.750  0.00  0.00     0.033 A 
ATOM     33  C   LIG d   1       4.614   0.632  -1.605  0.00  0.00    -0.025 A 
ATOM     34  H   LIG d   1       4.201  -1.363  -0.932  0.00  0.00     0.083 H 
ATOM     35  C   LIG d   1       5.054   1.387  -2.680  0.00  0.00     0.033 A 
ATOM     36  H   LIG d   1       4.335   1.105  -0.676  0.00  0.00     0.065 H 
ATOM     37  N   LIG d   1       5.388   0.777  -3.806  0.00  0.00    -0.223 NA
ATOM     38  H   LIG d   1       5.124   2.463  -2.600  0.00  0.00     0.083 H 
ENDBRANCH  21  30
ENDBRANCH  13  16
ENDBRANCH   6  13
BRANCH   4  39
ATOM     39  C   LIG d   1       3.561   0.515  -9.702  0.00  0.00    -0.043 C 
ATOM     40  H   LIG d   1       4.426   0.402  -9.049  0.00  0.00     0.030 H 
BRANCH  39  41
ATOM     41  C   LIG d   1       3.950   1.353 -10.922  0.00  0.00    -0.062 C 
ATOM     42  H   LIG d   1       4.042   2.399 -10.630  0.00  0.00     0.023 H 
ATOM     43  H   LIG d   1       4.903   1.000 -11.316  0.00  0.00     0.023 H 
ATOM     44  H   LIG d   1       3.182   1.256 -11.689  0.00  0.00     0.023 H 
ENDBRANCH  39  41
BRANCH  39  45
ATOM     45  C   LIG d   1       2.434   1.216  -8.941  0.00  0.00    -0.062 C 
ATOM     46  H   LIG d   1       1.963   1.955  -9.589  0.00  0.00     0.023 H 
ATOM     47  H   LIG d   1       1.692   0.480  -8.630  0.00  0.00     0.023 H 
ATOM     48  H   LIG d   1       2.843   1.713  -8.060  0.00  0.00     0.023 H 
ENDBRANCH  39  45
ENDBRANCH   4  39
BRANCH   9  49
ATOM     49  C   LIG d   1       1.176  -4.704 -10.420  0.00  0.00    -0.043 C 
ATOM     50  H   LIG d   1       0.178  -4.615 -10.846  0.00  0.00     0.027 H 
ATOM     51  H   LIG d   1       1.812  -5.273 -11.099  0.00  0.00     0.027 H 
ATOM     52  H   LIG d   1       1.119  -5.218  -9.460  0.00  0.00     0.027 H 
ENDBRANCH   9  49
BRANCH   1  53
ATOM     53  C   LIG d   1       1.577  -2.213 -12.418  0.00  0.00     0.032 C 
ATOM     54  H   LIG d   1       2.091  -3.153 -12.621  0.00  0.00     0.037 H 
ATOM     55  H   LIG d   1       2.253  -1.380 -12.609  0.00  0.00     0.037 H 
BRANCH  53  56
ATOM     56  C   LIG d   1       0.370  -2.098 -13.312  0.00  0.00     0.218 A 
ATOM     57  N   LIG d   1       0.225  -2.651 -14.485  0.00  0.00    -0.112 NA
ATOM     58  N   LIG d   1      -0.928  -2.343 -14.966  0.00  0.00    -0.107 NA
ATOM     59  C   LIG d   1      -1.564  -1.579 -14.109  0.00  0.00     0.248 A 
ATOM     60  O   LIG d   1      -0.751  -1.405 -13.048  0.00  0.00    -0.420 OA
BRANCH  59  61
ATOM     61  C   LIG d   1      -2.917  -1.008 -14.280  0.00  0.00     0.038 A 
ATOM     62  C   LIG d   1      -3.622  -1.221 -15.465  0.00  0.00    -0.049 A 
ATOM     63  C   LIG d   1      -4.885  -0.685 -15.618  0.00  0.00    -0.058 A 
ATOM     64  H   LIG d   1      -3.182  -1.804 -16.260  0.00  0.00     0.062 H 
ATOM     65  C   LIG d   1      -5.451   0.061 -14.599  0.00  0.00    -0.050 A 
ATOM     66  H   LIG d   1      -5.433  -0.850 -16.534  0.00  0.00     0.062 H 
ATOM     67  C   LIG d   1      -4.754   0.281 -13.424  0.00  0.00    -0.058 A 
ATOM     68  C   LIG d   1      -3.493  -0.254 -13.257  0.00  0.00    -0.049 A 
ATOM     69  H   LIG d   1      -5.200   0.869 -12.635  0.00  0.00     0.062 H 
ATOM     70  H   LIG d   1      -2.952  -0.085 -12.338  0.00  0.00     0.062 H 
BRANCH  65  71
ATOM     71  C   LIG d   1      -6.831   0.643 -14.774  0.00  0.00    -0.040 C 
ATOM     72  H   LIG d   1      -6.929   1.049 -15.780  0.00  0.00     0.028 H 
ATOM     73  H   LIG d   1      -7.576  -0.137 -14.622  0.00  0.00     0.028 H 
ATOM     74  H   LIG d   1      -6.983   1.439 -14.044  0.00  0.00     0.028 H 
ENDBRANCH  65  71
ENDBRANCH  59  61
ENDBRANCH  53  56
ENDBRANCH   1  53
TORSDOF 11
ENDMDL
MODEL 8
REMARK VINA RESULT:      -6.1     17.385     19.508
REMARK  11 active torsions:
REMARK  status: ('A' for Active; 'I' for Inactive)
REMARK    1  A    between atoms: C_1  and  C_2 
REMARK    2  A    between atoms: C_5  and  C_8 
REMARK    3  A    between atoms: C_11  and  C_13 
REMARK    4  A    between atoms: C_13  and  C_14 
REMARK    5  A    between atoms: C_17  and  C_37 
REMARK    6  A    between atoms: C_19  and  C_24 
REMARK    7  A    between atoms: C_22  and  C_23 
REMARK    8  A    between atoms: C_24  and  N_25 
REMARK    9  A    between atoms: N_28  and  C_31 
REMARK   10  A    between atoms: C_37  and  C_38 
REMARK   11  A    between atoms: C_37  and  C_39 
ROOT
ATOM      1  C   LIG d   1      -4.905   1.360 -13.048  0.00  0.00    -0.011 C 
ATOM      2  H   LIG d   1      -4.816   0.920 -12.054  0.00  0.00     0.035 H 
ATOM      3  C   LIG d   1      -5.869   2.547 -12.991  0.00  0.00    -0.042 C 
ATOM      4  C   LIG d   1      -5.779   3.309 -14.320  0.00  0.00    -0.031 C 
ATOM      5  H   LIG d   1      -5.918   2.615 -15.150  0.00  0.00     0.031 H 
ATOM      6  C   LIG d   1      -4.395   3.954 -14.414  0.00  0.00    -0.007 C 
ATOM      7  H   LIG d   1      -4.329   4.775 -13.701  0.00  0.00     0.036 H 
ATOM      8  C   LIG d   1      -3.331   2.942 -14.108  0.00  0.00    -0.080 C 
ATOM      9  C   LIG d   1      -3.554   1.817 -13.511  0.00  0.00    -0.073 C 
ATOM     10  H   LIG d   1      -6.888   2.186 -12.845  0.00  0.00     0.027 H 
ATOM     11  H   LIG d   1      -5.590   3.208 -12.171  0.00  0.00     0.027 H 
ATOM     12  H   LIG d   1      -2.317   3.167 -14.406  0.00  0.00     0.058 H 
ENDROOT
BRANCH   6  13
ATOM     13  C   LIG d   1      -4.184   4.495 -15.831  0.00  0.00     0.005 C 
ATOM     14  H   LIG d   1      -3.321   4.004 -16.282  0.00  0.00     0.043 H 
ATOM     15  H   LIG d   1      -5.072   4.297 -16.432  0.00  0.00     0.043 H 
BRANCH  13  16
ATOM     16  N   LIG d   1      -3.947   5.944 -15.770  0.00  0.00    -0.299 N 
ATOM     17  C   LIG d   1      -3.083   6.289 -14.633  0.00  0.00     0.015 C 
ATOM     18  C   LIG d   1      -3.008   7.814 -14.498  0.00  0.00     0.028 C 
ATOM     19  H   LIG d   1      -3.498   5.863 -13.720  0.00  0.00     0.044 H 
ATOM     20  H   LIG d   1      -2.084   5.889 -14.802  0.00  0.00     0.044 H 
ATOM     21  N   LIG d   1      -2.590   8.377 -15.790  0.00  0.00    -0.297 N 
ATOM     22  H   LIG d   1      -2.280   8.078 -13.730  0.00  0.00     0.048 H 
ATOM     23  H   LIG d   1      -3.988   8.206 -14.227  0.00  0.00     0.048 H 
ATOM     24  C   LIG d   1      -3.324   7.969 -16.998  0.00  0.00     0.028 C 
ATOM     25  C   LIG d   1      -3.387   6.439 -17.034  0.00  0.00     0.015 C 
ATOM     26  H   LIG d   1      -2.805   8.336 -17.884  0.00  0.00     0.048 H 
ATOM     27  H   LIG d   1      -4.335   8.376 -16.967  0.00  0.00     0.048 H 
ATOM     28  H   LIG d   1      -2.383   6.036 -17.170  0.00  0.00     0.044 H 
ATOM     29  H   LIG d   1      -4.021   6.120 -17.862  0.00  0.00     0.044 H 
BRANCH  21  30
ATOM     30  C   LIG d   1      -1.534   9.269 -15.868  0.00  0.00     0.218 A 
ATOM     31  N   LIG d   1      -1.781  10.543 -16.135  0.00  0.00    -0.223 NA
ATOM     32  C   LIG d   1      -0.795  11.422 -16.212  0.00  0.00     0.033 A 
ATOM     33  C   LIG d   1       0.509  10.993 -16.019  0.00  0.00    -0.025 A 
ATOM     34  H   LIG d   1      -1.004  12.459 -16.425  0.00  0.00     0.083 H 
ATOM     35  C   LIG d   1       0.732   9.652 -15.748  0.00  0.00     0.033 A 
ATOM     36  H   LIG d   1       1.333  11.687 -16.080  0.00  0.00     0.065 H 
ATOM     37  N   LIG d   1      -0.300   8.826 -15.680  0.00  0.00    -0.223 NA
ATOM     38  H   LIG d   1       1.737   9.286 -15.592  0.00  0.00     0.083 H 
ENDBRANCH  21  30
ENDBRANCH  13  16
ENDBRANCH   6  13
BRANCH   4  39
ATOM     39  C   LIG d   1      -6.860   4.391 -14.367  0.00  0.00    -0.043 C 
ATOM     40  H   LIG d   1      -6.661   5.067 -15.198  0.00  0.00     0.030 H 
BRANCH  39  41
ATOM     41  C   LIG d   1      -8.230   3.735 -14.561  0.00  0.00    -0.062 C 
ATOM     42  H   LIG d   1      -8.227   3.153 -15.483  0.00  0.00     0.023 H 
ATOM     43  H   LIG d   1      -8.441   3.079 -13.717  0.00  0.00     0.023 H 
ATOM     44  H   LIG d   1      -8.997   4.508 -14.621  0.00  0.00     0.023 H 
ENDBRANCH  39  41
BRANCH  39  45
ATOM     45  C   LIG d   1      -6.852   5.177 -13.055  0.00  0.00    -0.062 C 
ATOM     46  H   LIG d   1      -7.695   4.864 -12.439  0.00  0.00     0.023 H 
ATOM     47  H   LIG d   1      -5.922   4.984 -12.521  0.00  0.00     0.023 H 
ATOM     48  H   LIG d   1      -6.934   6.243 -13.268  0.00  0.00     0.023 H 
ENDBRANCH  39  45
ENDBRANCH   4  39
BRANCH   9  49
ATOM     49  C   LIG d   1      -2.377   0.909 -13.265  0.00  0.00    -0.043 C 
ATOM     50  H   LIG d   1      -2.732  -0.053 -12.895  0.00  0.00     0.027 H 
ATOM     51  H   LIG d   1      -1.831   0.760 -14.197  0.00  0.00     0.027 H 
ATOM     52  H   LIG d   1      -1.716   1.363 -12.526  0.00  0.00     0.027 H 
ENDBRANCH   9  49
BRANCH   1  53
ATOM     53  C   LIG d   1      -5.448   0.312 -14.020  0.00  0.00     0.032 C 
ATOM     54  H   LIG d   1      -4.804   0.264 -14.898  0.00  0.00     0.037 H 
ATOM     55  H   LIG d   1      -6.457   0.586 -14.325  0.00  0.00     0.037 H 
BRANCH  53  56
ATOM     56  C   LIG d   1      -5.474  -1.035 -13.343  0.00  0.00     0.218 A 
ATOM     57  N   LIG d   1      -6.477  -1.868 -13.327  0.00  0.00    -0.112 NA
ATOM     58  N   LIG d   1      -6.152  -2.918 -12.658  0.00  0.00    -0.107 NA
ATOM     59  C   LIG d   1      -4.921  -2.790 -12.223  0.00  0.00     0.248 A 
ATOM     60  O   LIG d   1      -4.470  -1.592 -12.645  0.00  0.00    -0.420 OA
BRANCH  59  61
ATOM     61  C   LIG d   1      -4.170  -3.774 -11.414  0.00  0.00     0.038 A 
ATOM     62  C   LIG d   1      -2.988  -4.329 -11.906  0.00  0.00    -0.049 A 
ATOM     63  C   LIG d   1      -2.292  -5.247 -11.146  0.00  0.00    -0.058 A 
ATOM     64  H   LIG d   1      -2.618  -4.040 -12.879  0.00  0.00     0.062 H 
ATOM     65  C   LIG d   1      -2.764  -5.616  -9.899  0.00  0.00    -0.050 A 
ATOM     66  H   LIG d   1      -1.376  -5.676 -11.525  0.00  0.00     0.062 H 
ATOM     67  C   LIG d   1      -3.938  -5.075  -9.408  0.00  0.00    -0.058 A 
ATOM     68  C   LIG d   1      -4.641  -4.152 -10.156  0.00  0.00    -0.049 A 
ATOM     69  H   LIG d   1      -4.304  -5.372  -8.437  0.00  0.00     0.062 H 
ATOM     70  H   LIG d   1      -5.555  -3.727  -9.770  0.00  0.00     0.062 H 
BRANCH  65  71
ATOM     71  C   LIG d   1      -1.998  -6.620  -9.075  0.00  0.00    -0.040 C 
ATOM     72  H   LIG d   1      -2.687  -7.158  -8.426  0.00  0.00     0.028 H 
ATOM     73  H   LIG d   1      -1.494  -7.324  -9.736  0.00  0.00     0.028 H 
ATOM     74  H   LIG d   1      -1.257  -6.099  -8.467  0.00  0.00     0.028 H 
ENDBRANCH  65  71
ENDBRANCH  59  61
ENDBRANCH  53  56
ENDBRANCH   1  53
TORSDOF 11
ENDMDL
MODEL 9
REMARK VINA RESULT:      -6.1     12.729     15.449
REMARK  11 active torsions:
REMARK  status: ('A' for Active; 'I' for Inactive)
REMARK    1  A    between atoms: C_1  and  C_2 
REMARK    2  A    between atoms: C_5  and  C_8 
REMARK    3  A    between atoms: C_11  and  C_13 
REMARK    4  A    between atoms: C_13  and  C_14 
REMARK    5  A    between atoms: C_17  and  C_37 
REMARK    6  A    between atoms: C_19  and  C_24 
REMARK    7  A    between atoms: C_22  and  C_23 
REMARK    8  A    between atoms: C_24  and  N_25 
REMARK    9  A    between atoms: N_28  and  C_31 
REMARK   10  A    between atoms: C_37  and  C_38 
REMARK   11  A    between atoms: C_37  and  C_39 
ROOT
ATOM      1  C   LIG d   1       7.170  -9.722  -1.852  0.00  0.00    -0.011 C 
ATOM      2  H   LIG d   1       6.174  -9.329  -1.648  0.00  0.00     0.035 H 
ATOM      3  C   LIG d   1       8.208  -8.627  -1.599  0.00  0.00    -0.042 C 
ATOM      4  C   LIG d   1       9.603  -9.263  -1.632  0.00  0.00    -0.031 C 
ATOM      5  H   LIG d   1       9.722  -9.835  -2.553  0.00  0.00     0.031 H 
ATOM      6  C   LIG d   1       9.738 -10.196  -0.426  0.00  0.00    -0.007 C 
ATOM      7  H   LIG d   1       9.805  -9.601   0.484  0.00  0.00     0.036 H 
ATOM      8  C   LIG d   1       8.550 -11.106  -0.341  0.00  0.00    -0.080 C 
ATOM      9  C   LIG d   1       7.434 -10.897  -0.958  0.00  0.00    -0.073 C 
ATOM     10  H   LIG d   1       8.134  -7.865  -2.375  0.00  0.00     0.027 H 
ATOM     11  H   LIG d   1       8.034  -8.176  -0.621  0.00  0.00     0.027 H 
ATOM     12  H   LIG d   1       8.632 -11.991   0.274  0.00  0.00     0.058 H 
ENDROOT
BRANCH   6  13
ATOM     13  C   LIG d   1      11.009 -11.036  -0.577  0.00  0.00     0.005 C 
ATOM     14  H   LIG d   1      10.741 -12.046  -0.890  0.00  0.00     0.043 H 
ATOM     15  H   LIG d   1      11.659 -10.583  -1.324  0.00  0.00     0.043 H 
BRANCH  13  16
ATOM     16  N   LIG d   1      11.712 -11.095   0.712  0.00  0.00    -0.299 N 
ATOM     17  C   LIG d   1      11.060 -10.232   1.707  0.00  0.00     0.015 C 
ATOM     18  C   LIG d   1      11.921 -10.179   2.974  0.00  0.00     0.028 C 
ATOM     19  H   LIG d   1      10.950  -9.227   1.300  0.00  0.00     0.044 H 
ATOM     20  H   LIG d   1      10.078 -10.637   1.951  0.00  0.00     0.044 H 
ATOM     21  N   LIG d   1      12.180 -11.557   3.420  0.00  0.00    -0.297 N 
ATOM     22  H   LIG d   1      11.389  -9.636   3.755  0.00  0.00     0.048 H 
ATOM     23  H   LIG d   1      12.865  -9.681   2.755  0.00  0.00     0.048 H 
ATOM     24  C   LIG d   1      12.707 -12.518   2.439  0.00  0.00     0.028 C 
ATOM     25  C   LIG d   1      11.815 -12.479   1.193  0.00  0.00     0.015 C 
ATOM     26  H   LIG d   1      12.695 -13.521   2.866  0.00  0.00     0.048 H 
ATOM     27  H   LIG d   1      13.726 -12.244   2.169  0.00  0.00     0.048 H 
ATOM     28  H   LIG d   1      10.822 -12.852   1.444  0.00  0.00     0.044 H 
ATOM     29  H   LIG d   1      12.252 -13.103   0.413  0.00  0.00     0.044 H 
BRANCH  21  30
ATOM     30  C   LIG d   1      11.937 -11.937   4.728  0.00  0.00     0.218 A 
ATOM     31  N   LIG d   1      12.873 -11.738   5.645  0.00  0.00    -0.223 NA
ATOM     32  C   LIG d   1      12.670 -12.086   6.905  0.00  0.00     0.033 A 
ATOM     33  C   LIG d   1      11.466 -12.675   7.259  0.00  0.00    -0.025 A 
ATOM     34  H   LIG d   1      13.435 -11.917   7.648  0.00  0.00     0.083 H 
ATOM     35  C   LIG d   1      10.512 -12.873   6.274  0.00  0.00     0.033 A 
ATOM     36  H   LIG d   1      11.276 -12.972   8.278  0.00  0.00     0.065 H 
ATOM     37  N   LIG d   1      10.776 -12.498   5.033  0.00  0.00    -0.223 NA
ATOM     38  H   LIG d   1       9.562 -13.329   6.516  0.00  0.00     0.083 H 
ENDBRANCH  21  30
ENDBRANCH  13  16
ENDBRANCH   6  13
BRANCH   4  39
ATOM     39  C   LIG d   1      10.670  -8.169  -1.564  0.00  0.00    -0.043 C 
ATOM     40  H   LIG d   1      11.253  -8.285  -0.651  0.00  0.00     0.030 H 
BRANCH  39  41
ATOM     41  C   LIG d   1      11.597  -8.284  -2.777  0.00  0.00    -0.062 C 
ATOM     42  H   LIG d   1      12.606  -7.984  -2.493  0.00  0.00     0.023 H 
ATOM     43  H   LIG d   1      11.609  -9.316  -3.129  0.00  0.00     0.023 H 
ATOM     44  H   LIG d   1      11.234  -7.633  -3.574  0.00  0.00     0.023 H 
ENDBRANCH  39  41
BRANCH  39  45
ATOM     45  C   LIG d   1       9.994  -6.797  -1.568  0.00  0.00    -0.062 C 
ATOM     46  H   LIG d   1       9.573  -6.596  -0.583  0.00  0.00     0.023 H 
ATOM     47  H   LIG d   1      10.729  -6.030  -1.812  0.00  0.00     0.023 H 
ATOM     48  H   LIG d   1       9.197  -6.785  -2.312  0.00  0.00     0.023 H 
ENDBRANCH  39  45
ENDBRANCH   4  39
BRANCH   9  49
ATOM     49  C   LIG d   1       6.326 -11.901  -0.764  0.00  0.00    -0.043 C 
ATOM     50  H   LIG d   1       6.692 -12.735  -0.166  0.00  0.00     0.027 H 
ATOM     51  H   LIG d   1       5.490 -11.425  -0.250  0.00  0.00     0.027 H 
ATOM     52  H   LIG d   1       5.994 -12.267  -1.735  0.00  0.00     0.027 H 
ENDBRANCH   9  49
BRANCH   1  53
ATOM     53  C   LIG d   1       7.250 -10.168  -3.313  0.00  0.00     0.032 C 
ATOM     54  H   LIG d   1       7.117 -11.248  -3.371  0.00  0.00     0.037 H 
ATOM     55  H   LIG d   1       8.223  -9.899  -3.723  0.00  0.00     0.037 H 
BRANCH  53  56
ATOM     56  C   LIG d   1       6.164  -9.487  -4.106  0.00  0.00     0.218 A 
ATOM     57  N   LIG d   1       4.953  -9.934  -4.294  0.00  0.00    -0.112 NA
ATOM     58  N   LIG d   1       4.295  -9.098  -5.018  0.00  0.00    -0.107 NA
ATOM     59  C   LIG d   1       5.068  -8.081  -5.317  0.00  0.00     0.248 A 
ATOM     60  O   LIG d   1       6.269  -8.312  -4.749  0.00  0.00    -0.420 OA
BRANCH  59  61
ATOM     61  C   LIG d   1       4.695  -6.906  -6.132  0.00  0.00     0.038 A 
ATOM     62  C   LIG d   1       4.643  -5.638  -5.550  0.00  0.00    -0.049 A 
ATOM     63  C   LIG d   1       4.294  -4.545  -6.317  0.00  0.00    -0.058 A 
ATOM     64  H   LIG d   1       4.876  -5.513  -4.504  0.00  0.00     0.062 H 
ATOM     65  C   LIG d   1       3.996  -4.704  -7.659  0.00  0.00    -0.050 A 
ATOM     66  H   LIG d   1       4.254  -3.564  -5.869  0.00  0.00     0.062 H 
ATOM     67  C   LIG d   1       4.040  -5.958  -8.240  0.00  0.00    -0.058 A 
ATOM     68  C   LIG d   1       4.392  -7.059  -7.486  0.00  0.00    -0.049 A 
ATOM     69  H   LIG d   1       3.801  -6.076  -9.287  0.00  0.00     0.062 H 
ATOM     70  H   LIG d   1       4.430  -8.037  -7.942  0.00  0.00     0.062 H 
BRANCH  65  71
ATOM     71  C   LIG d   1       3.615  -3.505  -8.489  0.00  0.00    -0.040 C 
ATOM     72  H   LIG d   1       2.907  -3.806  -9.260  0.00  0.00     0.028 H 
ATOM     73  H   LIG d   1       3.158  -2.750  -7.850  0.00  0.00     0.028 H 
ATOM     74  H   LIG d   1       4.509  -3.091  -8.958  0.00  0.00     0.028 H 
ENDBRANCH  65  71
ENDBRANCH  59  61
ENDBRANCH  53  56
ENDBRANCH   1  53
TORSDOF 11
ENDMDL
MODEL 10
REMARK VINA RESULT:      -6.0      8.389     12.776
REMARK  11 active torsions:
REMARK  status: ('A' for Active; 'I' for Inactive)
REMARK    1  A    between atoms: C_1  and  C_2 
REMARK    2  A    between atoms: C_5  and  C_8 
REMARK    3  A    between atoms: C_11  and  C_13 
REMARK    4  A    between atoms: C_13  and  C_14 
REMARK    5  A    between atoms: C_17  and  C_37 
REMARK    6  A    between atoms: C_19  and  C_24 
REMARK    7  A    between atoms: C_22  and  C_23 
REMARK    8  A    between atoms: C_24  and  N_25 
REMARK    9  A    between atoms: N_28  and  C_31 
REMARK   10  A    between atoms: C_37  and  C_38 
REMARK   11  A    between atoms: C_37  and  C_39 
ROOT
ATOM      1  C   LIG d   1       7.528  -1.448  -4.394  0.00  0.00    -0.011 C 
ATOM      2  H   LIG d   1       8.530  -1.170  -4.066  0.00  0.00     0.035 H 
ATOM      3  C   LIG d   1       6.510  -1.005  -3.340  0.00  0.00    -0.042 C 
ATOM      4  C   LIG d   1       5.102  -1.161  -3.929  0.00  0.00    -0.031 C 
ATOM      5  H   LIG d   1       4.980  -2.171  -4.322  0.00  0.00     0.031 H 
ATOM      6  C   LIG d   1       4.937  -0.145  -5.062  0.00  0.00    -0.007 C 
ATOM      7  H   LIG d   1       4.874   0.858  -4.641  0.00  0.00     0.036 H 
ATOM      8  C   LIG d   1       6.106  -0.220  -5.999  0.00  0.00    -0.080 C 
ATOM      9  C   LIG d   1       7.232  -0.784  -5.706  0.00  0.00    -0.073 C 
ATOM     10  H   LIG d   1       6.606  -1.629  -2.452  0.00  0.00     0.027 H 
ATOM     11  H   LIG d   1       6.684   0.039  -3.079  0.00  0.00     0.027 H 
ATOM     12  H   LIG d   1       6.000   0.222  -6.979  0.00  0.00     0.058 H 
ENDROOT
BRANCH   6  13
ATOM     13  C   LIG d   1       3.651  -0.452  -5.833  0.00  0.00     0.005 C 
ATOM     14  H   LIG d   1       3.266  -1.425  -5.525  0.00  0.00     0.043 H 
ATOM     15  H   LIG d   1       2.908   0.317  -5.623  0.00  0.00     0.043 H 
BRANCH  13  16
ATOM     16  N   LIG d   1       3.938  -0.474  -7.274  0.00  0.00    -0.299 N 
ATOM     17  C   LIG d   1       3.947  -1.850  -7.789  0.00  0.00     0.015 C 
ATOM     18  C   LIG d   1       4.425  -1.843  -9.245  0.00  0.00     0.028 C 
ATOM     19  H   LIG d   1       4.621  -2.458  -7.187  0.00  0.00     0.044 H 
ATOM     20  H   LIG d   1       2.939  -2.262  -7.738  0.00  0.00     0.044 H 
ATOM     21  N   LIG d   1       3.592  -0.900 -10.006  0.00  0.00    -0.297 N 
ATOM     22  H   LIG d   1       4.324  -2.844  -9.667  0.00  0.00     0.048 H 
ATOM     23  H   LIG d   1       5.467  -1.528  -9.286  0.00  0.00     0.048 H 
ATOM     24  C   LIG d   1       3.425   0.463  -9.478  0.00  0.00     0.028 C 
ATOM     25  C   LIG d   1       2.986   0.365  -8.013  0.00  0.00     0.015 C 
ATOM     26  H   LIG d   1       2.663   0.988 -10.055  0.00  0.00     0.048 H 
ATOM     27  H   LIG d   1       4.371   0.999  -9.542  0.00  0.00     0.048 H 
ATOM     28  H   LIG d   1       1.991  -0.078  -7.959  0.00  0.00     0.044 H 
ATOM     29  H   LIG d   1       2.963   1.363  -7.573  0.00  0.00     0.044 H 
BRANCH  21  30
ATOM     30  C   LIG d   1       2.984  -1.284 -11.189  0.00  0.00     0.218 A 
ATOM     31  N   LIG d   1       1.663  -1.374 -11.236  0.00  0.00    -0.223 NA
ATOM     32  C   LIG d   1       1.049  -1.733 -12.352  0.00  0.00     0.033 A 
ATOM     33  C   LIG d   1       1.807  -2.027 -13.476  0.00  0.00    -0.025 A 
ATOM     34  H   LIG d   1      -0.027  -1.800 -12.387  0.00  0.00     0.083 H 
ATOM     35  C   LIG d   1       3.186  -1.929 -13.388  0.00  0.00     0.033 A 
ATOM     36  H   LIG d   1       1.333  -2.327 -14.398  0.00  0.00     0.065 H 
ATOM     37  N   LIG d   1       3.737  -1.559 -12.243  0.00  0.00    -0.223 NA
ATOM     38  H   LIG d   1       3.806  -2.151 -14.246  0.00  0.00     0.083 H 
ENDBRANCH  21  30
ENDBRANCH  13  16
ENDBRANCH   6  13
BRANCH   4  39
ATOM     39  C   LIG d   1       4.058  -0.900  -2.842  0.00  0.00    -0.043 C 
ATOM     40  H   LIG d   1       3.156  -0.489  -3.295  0.00  0.00     0.030 H 
BRANCH  39  41
ATOM     41  C   LIG d   1       3.718  -2.216  -2.136  0.00  0.00    -0.062 C 
ATOM     42  H   LIG d   1       2.719  -2.539  -2.432  0.00  0.00     0.023 H 
ATOM     43  H   LIG d   1       4.445  -2.977  -2.417  0.00  0.00     0.023 H 
ATOM     44  H   LIG d   1       3.747  -2.066  -1.057  0.00  0.00     0.023 H 
ENDBRANCH  39  41
BRANCH  39  45
ATOM     45  C   LIG d   1       4.618   0.094  -1.825  0.00  0.00    -0.062 C 
ATOM     46  H   LIG d   1       3.912   0.913  -1.689  0.00  0.00     0.023 H 
ATOM     47  H   LIG d   1       4.776  -0.411  -0.871  0.00  0.00     0.023 H 
ATOM     48  H   LIG d   1       5.568   0.490  -2.186  0.00  0.00     0.023 H 
ENDBRANCH  39  45
ENDBRANCH   4  39
BRANCH   9  49
ATOM     49  C   LIG d   1       8.317  -0.769  -6.752  0.00  0.00    -0.043 C 
ATOM     50  H   LIG d   1       9.040  -1.555  -6.536  0.00  0.00     0.027 H 
ATOM     51  H   LIG d   1       7.876  -0.941  -7.734  0.00  0.00     0.027 H 
ATOM     52  H   LIG d   1       8.817   0.200  -6.743  0.00  0.00     0.027 H 
ENDBRANCH   9  49
BRANCH   1  53
ATOM     53  C   LIG d   1       7.452  -2.966  -4.565  0.00  0.00     0.032 C 
ATOM     54  H   LIG d   1       7.259  -3.204  -5.611  0.00  0.00     0.037 H 
ATOM     55  H   LIG d   1       6.646  -3.362  -3.948  0.00  0.00     0.037 H 
BRANCH  53  56
ATOM     56  C   LIG d   1       8.760  -3.585  -4.143  0.00  0.00     0.218 A 
ATOM     57  N   LIG d   1       9.950  -3.112  -4.392  0.00  0.00    -0.112 NA
ATOM     58  N   LIG d   1      10.837  -3.894  -3.884  0.00  0.00    -0.107 NA
ATOM     59  C   LIG d   1      10.238  -4.898  -3.288  0.00  0.00     0.248 A 
ATOM     60  O   LIG d   1       8.911  -4.724  -3.446  0.00  0.00    -0.420 OA
BRANCH  59  61
ATOM     61  C   LIG d   1      10.897  -6.017  -2.581  0.00  0.00     0.038 A 
ATOM     62  C   LIG d   1      12.144  -6.478  -3.007  0.00  0.00    -0.049 A 
ATOM     63  C   LIG d   1      12.754  -7.523  -2.343  0.00  0.00    -0.058 A 
ATOM     64  H   LIG d   1      12.631  -6.017  -3.854  0.00  0.00     0.062 H 
ATOM     65  C   LIG d   1      12.131  -8.112  -1.257  0.00  0.00    -0.050 A 
ATOM     66  H   LIG d   1      13.718  -7.879  -2.671  0.00  0.00     0.062 H 
ATOM     67  C   LIG d   1      10.893  -7.664  -0.833  0.00  0.00    -0.058 A 
ATOM     68  C   LIG d   1      10.275  -6.617  -1.485  0.00  0.00    -0.049 A 
ATOM     69  H   LIG d   1      10.411  -8.133   0.012  0.00  0.00     0.062 H 
ATOM     70  H   LIG d   1       9.311  -6.266  -1.150  0.00  0.00     0.062 H 
BRANCH  65  71
ATOM     71  C   LIG d   1      12.804  -9.253  -0.537  0.00  0.00    -0.040 C 
ATOM     72  H   LIG d   1      12.983 -10.069  -1.236  0.00  0.00     0.028 H 
ATOM     73  H   LIG d   1      13.754  -8.913  -0.124  0.00  0.00     0.028 H 
ATOM     74  H   LIG d   1      12.160  -9.601   0.272  0.00  0.00     0.028 H 
ENDBRANCH  65  71
ENDBRANCH  59  61
ENDBRANCH  53  56
ENDBRANCH   1  53
TORSDOF 11
ENDMDL
