MODEL 1
REMARK VINA RESULT:      -4.7      0.000      0.000
REMARK  4 active torsions:
REMARK  status: ('A' for Active; 'I' for Inactive)
REMARK    1  A    between atoms: C_1  and  C_2 
REMARK       I    between atoms: C_2  and  N_4 
REMARK    2  A    between atoms: N_4  and  C_5 
REMARK    3  A    between atoms: C_8  and  C_11 
REMARK    4  A    between atoms: C_11  and  O_12 
ROOT
ATOM      1  C   LIG d   1       3.250  -0.269  -5.875  0.00  0.00     0.033 A 
ATOM      2  C   LIG d   1       4.528  -0.686  -5.528  0.00  0.00    -0.040 A 
ATOM      3  C   LIG d   1       4.951  -0.592  -4.216  0.00  0.00    -0.055 A 
ATOM      4  C   LIG d   1       4.100  -0.094  -3.247  0.00  0.00    -0.022 A 
ATOM      5  C   LIG d   1       2.825   0.317  -3.589  0.00  0.00    -0.055 A 
ATOM      6  C   LIG d   1       2.398   0.232  -4.899  0.00  0.00    -0.040 A 
ATOM      7  H   LIG d   1       5.191  -1.081  -6.283  0.00  0.00     0.064 H 
ATOM      8  H   LIG d   1       5.947  -0.913  -3.947  0.00  0.00     0.062 H 
ATOM      9  H   LIG d   1       2.162   0.706  -2.830  0.00  0.00     0.062 H 
ATOM     10  H   LIG d   1       1.401   0.554  -5.164  0.00  0.00     0.064 H 
ENDROOT
BRANCH   1  11
ATOM     11  N   LIG d   1       2.820  -0.356  -7.203  0.00  0.00    -0.286 N 
ATOM     12  C   LIG d   1       2.891   0.722  -8.008  0.00  0.00     0.214 C 
ATOM     13  O   LIG d   1       3.246   1.792  -7.558  0.00  0.00    -0.276 OA
ATOM     14  H   LIG d   1       2.469  -1.194  -7.545  0.00  0.00     0.155 HD
BRANCH  12  15
ATOM     15  C   LIG d   1       2.526   0.602  -9.465  0.00  0.00     0.013 C 
ATOM     16  H   LIG d   1       3.319   1.035 -10.075  0.00  0.00     0.032 H 
ATOM     17  H   LIG d   1       2.402  -0.449  -9.722  0.00  0.00     0.032 H 
ATOM     18  H   LIG d   1       1.594   1.134  -9.651  0.00  0.00     0.032 H 
ENDBRANCH  12  15
ENDBRANCH   1  11
BRANCH   4  19
ATOM     19  C   LIG d   1       4.563   0.001  -1.816  0.00  0.00     0.069 C 
ATOM     20  H   LIG d   1       3.758  -0.313  -1.152  0.00  0.00     0.061 H 
ATOM     21  H   LIG d   1       5.429  -0.646  -1.670  0.00  0.00     0.061 H 
BRANCH  19  22
ATOM     22  O   LIG d   1       4.923   1.352  -1.521  0.00  0.00    -0.390 OA
ATOM     23  H   LIG d   1       5.797   1.448  -1.118  0.00  0.00     0.210 HD
ENDBRANCH  19  22
ENDBRANCH   4  19
TORSDOF 4
ENDMDL
MODEL 2
REMARK VINA RESULT:      -4.7      0.027      1.386
REMARK  4 active torsions:
REMARK  status: ('A' for Active; 'I' for Inactive)
REMARK    1  A    between atoms: C_1  and  C_2 
REMARK       I    between atoms: C_2  and  N_4 
REMARK    2  A    between atoms: N_4  and  C_5 
REMARK    3  A    between atoms: C_8  and  C_11 
REMARK    4  A    between atoms: C_11  and  O_12 
ROOT
ATOM      1  C   LIG d   1       3.237  -0.269  -5.867  0.00  0.00     0.033 A 
ATOM      2  C   LIG d   1       2.387   0.214  -4.881  0.00  0.00    -0.040 A 
ATOM      3  C   LIG d   1       2.822   0.289  -3.572  0.00  0.00    -0.055 A 
ATOM      4  C   LIG d   1       4.106  -0.105  -3.246  0.00  0.00    -0.022 A 
ATOM      5  C   LIG d   1       4.957  -0.581  -4.226  0.00  0.00    -0.055 A 
ATOM      6  C   LIG d   1       4.526  -0.664  -5.536  0.00  0.00    -0.040 A 
ATOM      7  H   LIG d   1       1.386   0.526  -5.137  0.00  0.00     0.064 H 
ATOM      8  H   LIG d   1       2.159   0.660  -2.804  0.00  0.00     0.062 H 
ATOM      9  H   LIG d   1       5.960  -0.887  -3.968  0.00  0.00     0.062 H 
ATOM     10  H   LIG d   1       5.192  -1.036  -6.300  0.00  0.00     0.064 H 
ENDROOT
BRANCH   1  11
ATOM     11  N   LIG d   1       2.798  -0.354  -7.193  0.00  0.00    -0.286 N 
ATOM     12  C   LIG d   1       2.894   0.717  -8.006  0.00  0.00     0.214 C 
ATOM     13  O   LIG d   1       3.280   1.779  -7.565  0.00  0.00    -0.276 OA
ATOM     14  H   LIG d   1       2.423  -1.184  -7.527  0.00  0.00     0.155 HD
BRANCH  12  15
ATOM     15  C   LIG d   1       2.518   0.596  -9.460  0.00  0.00     0.013 C 
ATOM     16  H   LIG d   1       2.273  -0.442  -9.687  0.00  0.00     0.032 H 
ATOM     17  H   LIG d   1       1.653   1.227  -9.665  0.00  0.00     0.032 H 
ATOM     18  H   LIG d   1       3.355   0.915 -10.079  0.00  0.00     0.032 H 
ENDBRANCH  12  15
ENDBRANCH   1  11
BRANCH   4  19
ATOM     19  C   LIG d   1       4.580  -0.016  -1.818  0.00  0.00     0.069 C 
ATOM     20  H   LIG d   1       3.799  -0.384  -1.152  0.00  0.00     0.061 H 
ATOM     21  H   LIG d   1       5.479  -0.620  -1.694  0.00  0.00     0.061 H 
BRANCH  19  22
ATOM     22  O   LIG d   1       4.874   1.346  -1.498  0.00  0.00    -0.390 OA
ATOM     23  H   LIG d   1       4.595   1.978  -2.173  0.00  0.00     0.210 HD
ENDBRANCH  19  22
ENDBRANCH   4  19
TORSDOF 4
ENDMDL
MODEL 3
REMARK VINA RESULT:      -4.6      3.126      4.149
REMARK  4 active torsions:
REMARK  status: ('A' for Active; 'I' for Inactive)
REMARK    1  A    between atoms: C_1  and  C_2 
REMARK       I    between atoms: C_2  and  N_4 
REMARK    2  A    between atoms: N_4  and  C_5 
REMARK    3  A    between atoms: C_8  and  C_11 
REMARK    4  A    between atoms: C_11  and  O_12 
ROOT
ATOM      1  C   LIG d   1       4.228  -2.453  -4.208  0.00  0.00     0.033 A 
ATOM      2  C   LIG d   1       4.203  -1.287  -4.962  0.00  0.00    -0.040 A 
ATOM      3  C   LIG d   1       4.070  -0.064  -4.334  0.00  0.00    -0.055 A 
ATOM      4  C   LIG d   1       3.975   0.001  -2.956  0.00  0.00    -0.022 A 
ATOM      5  C   LIG d   1       4.005  -1.159  -2.203  0.00  0.00    -0.055 A 
ATOM      6  C   LIG d   1       4.131  -2.385  -2.825  0.00  0.00    -0.040 A 
ATOM      7  H   LIG d   1       4.283  -1.337  -6.037  0.00  0.00     0.064 H 
ATOM      8  H   LIG d   1       4.046   0.843  -4.920  0.00  0.00     0.062 H 
ATOM      9  H   LIG d   1       3.930  -1.105  -1.127  0.00  0.00     0.062 H 
ATOM     10  H   LIG d   1       4.154  -3.289  -2.236  0.00  0.00     0.064 H 
ENDROOT
BRANCH   1  11
ATOM     11  N   LIG d   1       4.355  -3.695  -4.841  0.00  0.00    -0.286 N 
ATOM     12  C   LIG d   1       5.577  -4.198  -5.102  0.00  0.00     0.214 C 
ATOM     13  O   LIG d   1       6.567  -3.537  -4.868  0.00  0.00    -0.276 OA
ATOM     14  H   LIG d   1       3.561  -4.194  -5.093  0.00  0.00     0.155 HD
BRANCH  12  15
ATOM     15  C   LIG d   1       5.714  -5.579  -5.689  0.00  0.00     0.013 C 
ATOM     16  H   LIG d   1       6.330  -6.193  -5.031  0.00  0.00     0.032 H 
ATOM     17  H   LIG d   1       4.728  -6.031  -5.789  0.00  0.00     0.032 H 
ATOM     18  H   LIG d   1       6.185  -5.512  -6.669  0.00  0.00     0.032 H 
ENDBRANCH  12  15
ENDBRANCH   1  11
BRANCH   4  19
ATOM     19  C   LIG d   1       3.836   1.337  -2.274  0.00  0.00     0.069 C 
ATOM     20  H   LIG d   1       2.979   1.315  -1.601  0.00  0.00     0.061 H 
ATOM     21  H   LIG d   1       4.741   1.550  -1.703  0.00  0.00     0.061 H 
BRANCH  19  22
ATOM     22  O   LIG d   1       3.643   2.356  -3.257  0.00  0.00    -0.390 OA
ATOM     23  H   LIG d   1       2.924   2.174  -3.876  0.00  0.00     0.210 HD
ENDBRANCH  19  22
ENDBRANCH   4  19
TORSDOF 4
ENDMDL
MODEL 4
REMARK VINA RESULT:      -4.5      3.975      4.907
REMARK  4 active torsions:
REMARK  status: ('A' for Active; 'I' for Inactive)
REMARK    1  A    between atoms: C_1  and  C_2 
REMARK       I    between atoms: C_2  and  N_4 
REMARK    2  A    between atoms: N_4  and  C_5 
REMARK    3  A    between atoms: C_8  and  C_11 
REMARK    4  A    between atoms: C_11  and  O_12 
ROOT
ATOM      1  C   LIG d   1       6.646  -1.424  -3.136  0.00  0.00     0.033 A 
ATOM      2  C   LIG d   1       5.411  -1.833  -2.650  0.00  0.00    -0.040 A 
ATOM      3  C   LIG d   1       4.425  -0.898  -2.400  0.00  0.00    -0.055 A 
ATOM      4  C   LIG d   1       4.663   0.442  -2.643  0.00  0.00    -0.022 A 
ATOM      5  C   LIG d   1       5.890   0.852  -3.131  0.00  0.00    -0.055 A 
ATOM      6  C   LIG d   1       6.882  -0.077  -3.378  0.00  0.00    -0.040 A 
ATOM      7  H   LIG d   1       5.223  -2.880  -2.466  0.00  0.00     0.064 H 
ATOM      8  H   LIG d   1       3.466  -1.216  -2.017  0.00  0.00     0.062 H 
ATOM      9  H   LIG d   1       6.073   1.899  -3.320  0.00  0.00     0.062 H 
ATOM     10  H   LIG d   1       7.840   0.245  -3.759  0.00  0.00     0.064 H 
ENDROOT
BRANCH   1  11
ATOM     11  N   LIG d   1       7.649  -2.366  -3.385  0.00  0.00    -0.286 N 
ATOM     12  C   LIG d   1       7.712  -2.986  -4.579  0.00  0.00     0.214 C 
ATOM     13  O   LIG d   1       6.848  -2.793  -5.409  0.00  0.00    -0.276 OA
ATOM     14  H   LIG d   1       8.300  -2.575  -2.695  0.00  0.00     0.155 HD
BRANCH  12  15
ATOM     15  C   LIG d   1       8.853  -3.924  -4.883  0.00  0.00     0.013 C 
ATOM     16  H   LIG d   1       9.596  -3.406  -5.490  0.00  0.00     0.032 H 
ATOM     17  H   LIG d   1       9.310  -4.254  -3.951  0.00  0.00     0.032 H 
ATOM     18  H   LIG d   1       8.476  -4.788  -5.429  0.00  0.00     0.032 H 
ENDBRANCH  12  15
ENDBRANCH   1  11
BRANCH   4  19
ATOM     19  C   LIG d   1       3.583   1.458  -2.374  0.00  0.00     0.069 C 
ATOM     20  H   LIG d   1       2.635   0.946  -2.208  0.00  0.00     0.061 H 
ATOM     21  H   LIG d   1       3.843   2.039  -1.487  0.00  0.00     0.061 H 
BRANCH  19  22
ATOM     22  O   LIG d   1       3.462   2.333  -3.497  0.00  0.00    -0.390 OA
ATOM     23  H   LIG d   1       4.256   2.854  -3.677  0.00  0.00     0.210 HD
ENDBRANCH  19  22
ENDBRANCH   4  19
TORSDOF 4
ENDMDL
MODEL 5
REMARK VINA RESULT:      -4.3      2.098      5.756
REMARK  4 active torsions:
REMARK  status: ('A' for Active; 'I' for Inactive)
REMARK    1  A    between atoms: C_1  and  C_2 
REMARK       I    between atoms: C_2  and  N_4 
REMARK    2  A    between atoms: N_4  and  C_5 
REMARK    3  A    between atoms: C_8  and  C_11 
REMARK    4  A    between atoms: C_11  and  O_12 
ROOT
ATOM      1  C   LIG d   1       2.820   0.171  -7.176  0.00  0.00     0.033 A 
ATOM      2  C   LIG d   1       2.797   1.476  -7.650  0.00  0.00    -0.040 A 
ATOM      3  C   LIG d   1       3.183   1.745  -8.949  0.00  0.00    -0.055 A 
ATOM      4  C   LIG d   1       3.581   0.714  -9.780  0.00  0.00    -0.022 A 
ATOM      5  C   LIG d   1       3.600  -0.587  -9.313  0.00  0.00    -0.055 A 
ATOM      6  C   LIG d   1       3.221  -0.861  -8.014  0.00  0.00    -0.040 A 
ATOM      7  H   LIG d   1       2.481   2.280  -7.003  0.00  0.00     0.064 H 
ATOM      8  H   LIG d   1       3.170   2.761  -9.316  0.00  0.00     0.062 H 
ATOM      9  H   LIG d   1       3.911  -1.389  -9.965  0.00  0.00     0.062 H 
ATOM     10  H   LIG d   1       3.237  -1.878  -7.651  0.00  0.00     0.064 H 
ENDROOT
BRANCH   1  11
ATOM     11  N   LIG d   1       2.437  -0.105  -5.860  0.00  0.00    -0.286 N 
ATOM     12  C   LIG d   1       3.342  -0.037  -4.864  0.00  0.00     0.214 C 
ATOM     13  O   LIG d   1       4.509   0.177  -5.120  0.00  0.00    -0.276 OA
ATOM     14  H   LIG d   1       1.517  -0.345  -5.662  0.00  0.00     0.155 HD
BRANCH  12  15
ATOM     15  C   LIG d   1       2.908  -0.231  -3.434  0.00  0.00     0.013 C 
ATOM     16  H   LIG d   1       1.883  -0.601  -3.413  0.00  0.00     0.032 H 
ATOM     17  H   LIG d   1       3.565  -0.954  -2.951  0.00  0.00     0.032 H 
ATOM     18  H   LIG d   1       2.963   0.719  -2.906  0.00  0.00     0.032 H 
ENDBRANCH  12  15
ENDBRANCH   1  11
BRANCH   4  19
ATOM     19  C   LIG d   1       3.996   1.011 -11.199  0.00  0.00     0.069 C 
ATOM     20  H   LIG d   1       3.401   1.838 -11.586  0.00  0.00     0.061 H 
ATOM     21  H   LIG d   1       5.052   1.281 -11.220  0.00  0.00     0.061 H 
BRANCH  19  22
ATOM     22  O   LIG d   1       3.784  -0.148 -12.008  0.00  0.00    -0.390 OA
ATOM     23  H   LIG d   1       3.559  -0.943 -11.507  0.00  0.00     0.210 HD
ENDBRANCH  19  22
ENDBRANCH   4  19
TORSDOF 4
ENDMDL
MODEL 6
REMARK VINA RESULT:      -4.3     10.725     11.686
REMARK  4 active torsions:
REMARK  status: ('A' for Active; 'I' for Inactive)
REMARK    1  A    between atoms: C_1  and  C_2 
REMARK       I    between atoms: C_2  and  N_4 
REMARK    2  A    between atoms: N_4  and  C_5 
REMARK    3  A    between atoms: C_8  and  C_11 
REMARK    4  A    between atoms: C_11  and  O_12 
ROOT
ATOM      1  C   LIG d   1       9.403   9.227  -1.001  0.00  0.00     0.033 A 
ATOM      2  C   LIG d   1       9.193   7.944  -1.489  0.00  0.00    -0.040 A 
ATOM      3  C   LIG d   1       9.880   6.878  -0.941  0.00  0.00    -0.055 A 
ATOM      4  C   LIG d   1      10.766   7.086   0.100  0.00  0.00    -0.022 A 
ATOM      5  C   LIG d   1      10.973   8.363   0.591  0.00  0.00    -0.055 A 
ATOM      6  C   LIG d   1      10.294   9.433   0.043  0.00  0.00    -0.040 A 
ATOM      7  H   LIG d   1       8.497   7.780  -2.298  0.00  0.00     0.064 H 
ATOM      8  H   LIG d   1       9.720   5.880  -1.323  0.00  0.00     0.062 H 
ATOM      9  H   LIG d   1      11.666   8.522   1.404  0.00  0.00     0.062 H 
ATOM     10  H   LIG d   1      10.457  10.429   0.427  0.00  0.00     0.064 H 
ENDROOT
BRANCH   1  11
ATOM     11  N   LIG d   1       8.715  10.310  -1.559  0.00  0.00    -0.286 N 
ATOM     12  C   LIG d   1       9.233  10.969  -2.614  0.00  0.00     0.214 C 
ATOM     13  O   LIG d   1      10.337  10.680  -3.026  0.00  0.00    -0.276 OA
ATOM     14  H   LIG d   1       7.863  10.588  -1.185  0.00  0.00     0.155 HD
BRANCH  12  15
ATOM     15  C   LIG d   1       8.445  12.068  -3.279  0.00  0.00     0.013 C 
ATOM     16  H   LIG d   1       8.070  11.715  -4.240  0.00  0.00     0.032 H 
ATOM     17  H   LIG d   1       7.607  12.350  -2.642  0.00  0.00     0.032 H 
ATOM     18  H   LIG d   1       9.089  12.932  -3.436  0.00  0.00     0.032 H 
ENDBRANCH  12  15
ENDBRANCH   1  11
BRANCH   4  19
ATOM     19  C   LIG d   1      11.509   5.920   0.700  0.00  0.00     0.069 C 
ATOM     20  H   LIG d   1      11.832   5.247  -0.095  0.00  0.00     0.061 H 
ATOM     21  H   LIG d   1      12.381   6.285   1.244  0.00  0.00     0.061 H 
BRANCH  19  22
ATOM     22  O   LIG d   1      10.647   5.218   1.598  0.00  0.00    -0.390 OA
ATOM     23  H   LIG d   1       9.721   5.490   1.548  0.00  0.00     0.210 HD
ENDBRANCH  19  22
ENDBRANCH   4  19
TORSDOF 4
ENDMDL
MODEL 7
REMARK VINA RESULT:      -4.2      1.965      4.962
REMARK  4 active torsions:
REMARK  status: ('A' for Active; 'I' for Inactive)
REMARK    1  A    between atoms: C_1  and  C_2 
REMARK       I    between atoms: C_2  and  N_4 
REMARK    2  A    between atoms: N_4  and  C_5 
REMARK    3  A    between atoms: C_8  and  C_11 
REMARK    4  A    between atoms: C_11  and  O_12 
ROOT
ATOM      1  C   LIG d   1       3.963  -0.642  -6.180  0.00  0.00     0.033 A 
ATOM      2  C   LIG d   1       5.212  -0.580  -6.785  0.00  0.00    -0.040 A 
ATOM      3  C   LIG d   1       5.402   0.220  -7.894  0.00  0.00    -0.055 A 
ATOM      4  C   LIG d   1       4.354   0.969  -8.396  0.00  0.00    -0.022 A 
ATOM      5  C   LIG d   1       3.111   0.914  -7.793  0.00  0.00    -0.055 A 
ATOM      6  C   LIG d   1       2.912   0.111  -6.688  0.00  0.00    -0.040 A 
ATOM      7  H   LIG d   1       6.032  -1.161  -6.390  0.00  0.00     0.064 H 
ATOM      8  H   LIG d   1       6.372   0.264  -8.367  0.00  0.00     0.062 H 
ATOM      9  H   LIG d   1       2.294   1.500  -8.188  0.00  0.00     0.062 H 
ATOM     10  H   LIG d   1       1.941   0.069  -6.218  0.00  0.00     0.064 H 
ENDROOT
BRANCH   1  11
ATOM     11  N   LIG d   1       3.765  -1.457  -5.061  0.00  0.00    -0.286 N 
ATOM     12  C   LIG d   1       3.928  -0.953  -3.822  0.00  0.00     0.214 C 
ATOM     13  O   LIG d   1       4.332   0.182  -3.677  0.00  0.00    -0.276 OA
ATOM     14  H   LIG d   1       3.510  -2.386  -5.177  0.00  0.00     0.155 HD
BRANCH  12  15
ATOM     15  C   LIG d   1       3.614  -1.801  -2.616  0.00  0.00     0.013 C 
ATOM     16  H   LIG d   1       4.542  -2.162  -2.174  0.00  0.00     0.032 H 
ATOM     17  H   LIG d   1       3.071  -1.203  -1.884  0.00  0.00     0.032 H 
ATOM     18  H   LIG d   1       3.001  -2.649  -2.918  0.00  0.00     0.032 H 
ENDBRANCH  12  15
ENDBRANCH   1  11
BRANCH   4  19
ATOM     19  C   LIG d   1       4.567   1.846  -9.603  0.00  0.00     0.069 C 
ATOM     20  H   LIG d   1       4.757   1.222 -10.477  0.00  0.00     0.061 H 
ATOM     21  H   LIG d   1       3.676   2.451  -9.775  0.00  0.00     0.061 H 
BRANCH  19  22
ATOM     22  O   LIG d   1       5.688   2.703  -9.378  0.00  0.00    -0.390 OA
ATOM     23  H   LIG d   1       6.167   2.943 -10.182  0.00  0.00     0.210 HD
ENDBRANCH  19  22
ENDBRANCH   4  19
TORSDOF 4
ENDMDL
MODEL 8
REMARK VINA RESULT:      -4.1      1.881      5.046
REMARK  4 active torsions:
REMARK  status: ('A' for Active; 'I' for Inactive)
REMARK    1  A    between atoms: C_1  and  C_2 
REMARK       I    between atoms: C_2  and  N_4 
REMARK    2  A    between atoms: N_4  and  C_5 
REMARK    3  A    between atoms: C_8  and  C_11 
REMARK    4  A    between atoms: C_11  and  O_12 
ROOT
ATOM      1  C   LIG d   1       3.690  -0.429  -5.042  0.00  0.00     0.033 A 
ATOM      2  C   LIG d   1       4.506  -1.377  -5.646  0.00  0.00    -0.040 A 
ATOM      3  C   LIG d   1       4.456  -1.558  -7.015  0.00  0.00    -0.055 A 
ATOM      4  C   LIG d   1       3.603  -0.788  -7.785  0.00  0.00    -0.022 A 
ATOM      5  C   LIG d   1       2.794   0.161  -7.187  0.00  0.00    -0.055 A 
ATOM      6  C   LIG d   1       2.835   0.342  -5.818  0.00  0.00    -0.040 A 
ATOM      7  H   LIG d   1       5.175  -1.974  -5.046  0.00  0.00     0.064 H 
ATOM      8  H   LIG d   1       5.087  -2.298  -7.484  0.00  0.00     0.062 H 
ATOM      9  H   LIG d   1       2.129   0.760  -7.791  0.00  0.00     0.062 H 
ATOM     10  H   LIG d   1       2.202   1.083  -5.353  0.00  0.00     0.064 H 
ENDROOT
BRANCH   1  11
ATOM     11  N   LIG d   1       3.732  -0.248  -3.656  0.00  0.00    -0.286 N 
ATOM     12  C   LIG d   1       4.610   0.619  -3.115  0.00  0.00     0.214 C 
ATOM     13  O   LIG d   1       5.424   1.178  -3.820  0.00  0.00    -0.276 OA
ATOM     14  H   LIG d   1       3.129  -0.748  -3.083  0.00  0.00     0.155 HD
BRANCH  12  15
ATOM     15  C   LIG d   1       4.586   0.891  -1.633  0.00  0.00     0.013 C 
ATOM     16  H   LIG d   1       4.163   1.879  -1.452  0.00  0.00     0.032 H 
ATOM     17  H   LIG d   1       3.975   0.138  -1.135  0.00  0.00     0.032 H 
ATOM     18  H   LIG d   1       5.601   0.853  -1.240  0.00  0.00     0.032 H 
ENDBRANCH  12  15
ENDBRANCH   1  11
BRANCH   4  19
ATOM     19  C   LIG d   1       3.556  -0.983  -9.278  0.00  0.00     0.069 C 
ATOM     20  H   LIG d   1       4.522  -0.722  -9.710  0.00  0.00     0.061 H 
ATOM     21  H   LIG d   1       3.328  -2.026  -9.502  0.00  0.00     0.061 H 
BRANCH  19  22
ATOM     22  O   LIG d   1       2.543  -0.144  -9.837  0.00  0.00    -0.390 OA
ATOM     23  H   LIG d   1       2.824   0.343 -10.623  0.00  0.00     0.210 HD
ENDBRANCH  19  22
ENDBRANCH   4  19
TORSDOF 4
ENDMDL
MODEL 9
REMARK VINA RESULT:      -4.1      3.922      5.322
REMARK  4 active torsions:
REMARK  status: ('A' for Active; 'I' for Inactive)
REMARK    1  A    between atoms: C_1  and  C_2 
REMARK       I    between atoms: C_2  and  N_4 
REMARK    2  A    between atoms: N_4  and  C_5 
REMARK    3  A    between atoms: C_8  and  C_11 
REMARK    4  A    between atoms: C_11  and  O_12 
ROOT
ATOM      1  C   LIG d   1       5.497  -1.787  -3.263  0.00  0.00     0.033 A 
ATOM      2  C   LIG d   1       6.881  -1.859  -3.358  0.00  0.00    -0.040 A 
ATOM      3  C   LIG d   1       7.469  -2.848  -4.122  0.00  0.00    -0.055 A 
ATOM      4  C   LIG d   1       6.681  -3.760  -4.800  0.00  0.00    -0.022 A 
ATOM      5  C   LIG d   1       5.303  -3.688  -4.711  0.00  0.00    -0.055 A 
ATOM      6  C   LIG d   1       4.709  -2.705  -3.944  0.00  0.00    -0.040 A 
ATOM      7  H   LIG d   1       7.496  -1.144  -2.833  0.00  0.00     0.064 H 
ATOM      8  H   LIG d   1       8.545  -2.907  -4.193  0.00  0.00     0.062 H 
ATOM      9  H   LIG d   1       4.690  -4.402  -5.242  0.00  0.00     0.062 H 
ATOM     10  H   LIG d   1       3.633  -2.650  -3.875  0.00  0.00     0.064 H 
ENDROOT
BRANCH   1  11
ATOM     11  N   LIG d   1       4.898  -0.791  -2.484  0.00  0.00    -0.286 N 
ATOM     12  C   LIG d   1       4.468   0.348  -3.060  0.00  0.00     0.214 C 
ATOM     13  O   LIG d   1       4.678   0.549  -4.239  0.00  0.00    -0.276 OA
ATOM     14  H   LIG d   1       4.793  -0.920  -1.528  0.00  0.00     0.155 HD
BRANCH  12  15
ATOM     15  C   LIG d   1       3.730   1.376  -2.241  0.00  0.00     0.013 C 
ATOM     16  H   LIG d   1       3.725   1.071  -1.195  0.00  0.00     0.032 H 
ATOM     17  H   LIG d   1       4.227   2.341  -2.337  0.00  0.00     0.032 H 
ATOM     18  H   LIG d   1       2.705   1.459  -2.600  0.00  0.00     0.032 H 
ENDBRANCH  12  15
ENDBRANCH   1  11
BRANCH   4  19
ATOM     19  C   LIG d   1       7.326  -4.834  -5.637  0.00  0.00     0.069 C 
ATOM     20  H   LIG d   1       7.443  -4.477  -6.660  0.00  0.00     0.061 H 
ATOM     21  H   LIG d   1       8.304  -5.080  -5.223  0.00  0.00     0.061 H 
BRANCH  19  22
ATOM     22  O   LIG d   1       6.500  -6.001  -5.633  0.00  0.00    -0.390 OA
ATOM     23  H   LIG d   1       6.585  -6.546  -6.427  0.00  0.00     0.210 HD
ENDBRANCH  19  22
ENDBRANCH   4  19
TORSDOF 4
ENDMDL
MODEL 10
REMARK VINA RESULT:      -4.1      9.272      9.817
REMARK  4 active torsions:
REMARK  status: ('A' for Active; 'I' for Inactive)
REMARK    1  A    between atoms: C_1  and  C_2 
REMARK       I    between atoms: C_2  and  N_4 
REMARK    2  A    between atoms: N_4  and  C_5 
REMARK    3  A    between atoms: C_8  and  C_11 
REMARK    4  A    between atoms: C_11  and  O_12 
ROOT
ATOM      1  C   LIG d   1       9.633   6.798  -2.741  0.00  0.00     0.033 A 
ATOM      2  C   LIG d   1      10.255   5.578  -2.514  0.00  0.00    -0.040 A 
ATOM      3  C   LIG d   1      10.808   5.306  -1.277  0.00  0.00    -0.055 A 
ATOM      4  C   LIG d   1      10.731   6.243  -0.264  0.00  0.00    -0.022 A 
ATOM      5  C   LIG d   1      10.107   7.457  -0.485  0.00  0.00    -0.055 A 
ATOM      6  C   LIG d   1       9.558   7.737  -1.721  0.00  0.00    -0.040 A 
ATOM      7  H   LIG d   1      10.310   4.844  -3.303  0.00  0.00     0.064 H 
ATOM      8  H   LIG d   1      11.296   4.359  -1.102  0.00  0.00     0.062 H 
ATOM      9  H   LIG d   1      10.050   8.187   0.309  0.00  0.00     0.062 H 
ATOM     10  H   LIG d   1       9.072   8.686  -1.893  0.00  0.00     0.064 H 
ENDROOT
BRANCH   1  11
ATOM     11  N   LIG d   1       9.078   7.080  -3.994  0.00  0.00    -0.286 N 
ATOM     12  C   LIG d   1       9.805   7.731  -4.924  0.00  0.00     0.214 C 
ATOM     13  O   LIG d   1      10.909   8.150  -4.645  0.00  0.00    -0.276 OA
ATOM     14  H   LIG d   1       8.168   6.807  -4.195  0.00  0.00     0.155 HD
BRANCH  12  15
ATOM     15  C   LIG d   1       9.246   7.943  -6.307  0.00  0.00     0.013 C 
ATOM     16  H   LIG d   1      10.062   8.139  -7.002  0.00  0.00     0.032 H 
ATOM     17  H   LIG d   1       8.707   7.049  -6.621  0.00  0.00     0.032 H 
ATOM     18  H   LIG d   1       8.565   8.793  -6.297  0.00  0.00     0.032 H 
ENDBRANCH  12  15
ENDBRANCH   1  11
BRANCH   4  19
ATOM     19  C   LIG d   1      11.330   5.941   1.086  0.00  0.00     0.069 C 
ATOM     20  H   LIG d   1      12.316   5.495   0.955  0.00  0.00     0.061 H 
ATOM     21  H   LIG d   1      11.422   6.865   1.659  0.00  0.00     0.061 H 
BRANCH  19  22
ATOM     22  O   LIG d   1      10.484   5.028   1.789  0.00  0.00    -0.390 OA
ATOM     23  H   LIG d   1       9.631   5.401   2.047  0.00  0.00     0.210 HD
ENDBRANCH  19  22
ENDBRANCH   4  19
TORSDOF 4
ENDMDL
