MODEL 1
REMARK VINA RESULT:      -5.1      0.000      0.000
REMARK  4 active torsions:
REMARK  status: ('A' for Active; 'I' for Inactive)
REMARK    1  A    between atoms: C_1  and  C_2 
REMARK    2  A    between atoms: N_8  and  C_9 
REMARK    3  A    between atoms: C_9  and  C_11 
REMARK    4  A    between atoms: C_9  and  C_12 
ROOT
ATOM      1  C   LIG d   1       5.410  -1.754  -3.495  0.00  0.00     0.019 A 
ATOM      2  C   LIG d   1       6.505  -2.350  -4.013  0.00  0.00    -0.050 A 
ATOM      3  C   LIG d   1       7.638  -1.578  -4.335  0.00  0.00    -0.102 A 
ATOM      4  C   LIG d   1       7.604  -0.214  -4.111  0.00  0.00    -0.005 A 
ATOM      5  C   LIG d   1       6.445   0.360  -3.577  0.00  0.00     0.252 A 
ATOM      6  O   LIG d   1       6.397   1.564  -3.378  0.00  0.00    -0.268 OA
ATOM      7  N   LIG d   1       5.383  -0.413  -3.278  0.00  0.00    -0.304 N 
ATOM      8  O   LIG d   1       8.744  -2.162  -4.855  0.00  0.00    -0.874 OA
ATOM      9  H   LIG d   1       6.511  -3.418  -4.181  0.00  0.00     0.063 H 
ATOM     10  H   LIG d   1       8.460   0.400  -4.349  0.00  0.00     0.067 H 
ENDROOT
BRANCH   7  11
ATOM     11  C   LIG d   1       4.179   0.204  -2.715  0.00  0.00     0.074 C 
ATOM     12  H   LIG d   1       3.494  -0.609  -2.430  0.00  0.00     0.059 H 
BRANCH  11  13
ATOM     13  C   LIG d   1       4.561   1.052  -1.500  0.00  0.00    -0.039 C 
ATOM     14  H   LIG d   1       4.779   0.393  -0.647  0.00  0.00     0.025 H 
ATOM     15  H   LIG d   1       3.726   1.720  -1.243  0.00  0.00     0.025 H 
ATOM     16  H   LIG d   1       5.452   1.652  -1.737  0.00  0.00     0.025 H 
ENDBRANCH  11  13
BRANCH  11  17
ATOM     17  C   LIG d   1       3.530   1.079  -3.756  0.00  0.00     0.064 C 
ATOM     18  O   LIG d   1       3.318   2.245  -3.518  0.00  0.00    -0.548 OA
ATOM     19  O   LIG d   1       3.191   0.566  -4.948  0.00  0.00    -0.548 OA
ENDBRANCH  11  17
ENDBRANCH   7  11
BRANCH   1  20
ATOM     20  C   LIG d   1       4.201  -2.586  -3.152  0.00  0.00    -0.024 C 
ATOM     21  H   LIG d   1       3.642  -2.815  -4.071  0.00  0.00     0.029 H 
ATOM     22  H   LIG d   1       3.555  -2.026  -2.460  0.00  0.00     0.029 H 
ATOM     23  H   LIG d   1       4.525  -3.524  -2.675  0.00  0.00     0.029 H 
ENDBRANCH   1  20
TORSDOF 4
ENDMDL
MODEL 2
REMARK VINA RESULT:      -4.7      2.333      2.913
REMARK  4 active torsions:
REMARK  status: ('A' for Active; 'I' for Inactive)
REMARK    1  A    between atoms: C_1  and  C_2 
REMARK    2  A    between atoms: N_8  and  C_9 
REMARK    3  A    between atoms: C_9  and  C_11 
REMARK    4  A    between atoms: C_9  and  C_12 
ROOT
ATOM      1  C   LIG d   1       3.497  -0.227  -5.273  0.00  0.00     0.019 A 
ATOM      2  C   LIG d   1       3.913  -0.407  -6.545  0.00  0.00    -0.050 A 
ATOM      3  C   LIG d   1       5.232  -0.833  -6.796  0.00  0.00    -0.102 A 
ATOM      4  C   LIG d   1       6.079  -1.058  -5.727  0.00  0.00    -0.005 A 
ATOM      5  C   LIG d   1       5.604  -0.852  -4.427  0.00  0.00     0.252 A 
ATOM      6  O   LIG d   1       6.341  -1.041  -3.471  0.00  0.00    -0.268 OA
ATOM      7  N   LIG d   1       4.334  -0.449  -4.227  0.00  0.00    -0.304 N 
ATOM      8  O   LIG d   1       5.664  -1.018  -8.067  0.00  0.00    -0.874 OA
ATOM      9  H   LIG d   1       3.236  -0.226  -7.367  0.00  0.00     0.063 H 
ATOM     10  H   LIG d   1       7.095  -1.384  -5.893  0.00  0.00     0.067 H 
ENDROOT
BRANCH   7  11
ATOM     11  C   LIG d   1       3.851  -0.242  -2.859  0.00  0.00     0.074 C 
ATOM     12  H   LIG d   1       2.753  -0.187  -2.900  0.00  0.00     0.059 H 
BRANCH  11  13
ATOM     13  C   LIG d   1       4.310  -1.405  -1.975  0.00  0.00    -0.039 C 
ATOM     14  H   LIG d   1       4.513  -1.034  -0.959  0.00  0.00     0.025 H 
ATOM     15  H   LIG d   1       5.226  -1.844  -2.395  0.00  0.00     0.025 H 
ATOM     16  H   LIG d   1       3.520  -2.169  -1.936  0.00  0.00     0.025 H 
ENDBRANCH  11  13
BRANCH  11  17
ATOM     17  C   LIG d   1       4.409   1.049  -2.319  0.00  0.00     0.064 C 
ATOM     18  O   LIG d   1       4.866   1.090  -1.201  0.00  0.00    -0.548 OA
ATOM     19  O   LIG d   1       4.402   2.154  -3.082  0.00  0.00    -0.548 OA
ENDBRANCH  11  17
ENDBRANCH   7  11
BRANCH   1  20
ATOM     20  C   LIG d   1       2.084   0.228  -5.010  0.00  0.00    -0.024 C 
ATOM     21  H   LIG d   1       2.099   1.107  -4.350  0.00  0.00     0.029 H 
ATOM     22  H   LIG d   1       1.521  -0.584  -4.528  0.00  0.00     0.029 H 
ATOM     23  H   LIG d   1       1.601   0.493  -5.963  0.00  0.00     0.029 H 
ENDBRANCH   1  20
TORSDOF 4
ENDMDL
MODEL 3
REMARK VINA RESULT:      -4.6      2.659      4.069
REMARK  4 active torsions:
REMARK  status: ('A' for Active; 'I' for Inactive)
REMARK    1  A    between atoms: C_1  and  C_2 
REMARK    2  A    between atoms: N_8  and  C_9 
REMARK    3  A    between atoms: C_9  and  C_11 
REMARK    4  A    between atoms: C_9  and  C_12 
ROOT
ATOM      1  C   LIG d   1       5.061  -0.842  -5.975  0.00  0.00     0.019 A 
ATOM      2  C   LIG d   1       4.386  -0.628  -7.124  0.00  0.00    -0.050 A 
ATOM      3  C   LIG d   1       3.125  -0.003  -7.089  0.00  0.00    -0.102 A 
ATOM      4  C   LIG d   1       2.601   0.383  -5.869  0.00  0.00    -0.005 A 
ATOM      5  C   LIG d   1       3.337   0.135  -4.704  0.00  0.00     0.252 A 
ATOM      6  O   LIG d   1       2.886   0.464  -3.617  0.00  0.00    -0.268 OA
ATOM      7  N   LIG d   1       4.541  -0.462  -4.779  0.00  0.00    -0.304 N 
ATOM      8  O   LIG d   1       2.434   0.219  -8.234  0.00  0.00    -0.874 OA
ATOM      9  H   LIG d   1       4.812  -0.937  -8.068  0.00  0.00     0.063 H 
ATOM     10  H   LIG d   1       1.636   0.864  -5.815  0.00  0.00     0.067 H 
ENDROOT
BRANCH   7  11
ATOM     11  C   LIG d   1       5.300  -0.710  -3.550  0.00  0.00     0.074 C 
ATOM     12  H   LIG d   1       6.282  -1.111  -3.843  0.00  0.00     0.059 H 
BRANCH  11  13
ATOM     13  C   LIG d   1       5.452   0.600  -2.771  0.00  0.00    -0.039 C 
ATOM     14  H   LIG d   1       6.028   1.318  -3.372  0.00  0.00     0.025 H 
ATOM     15  H   LIG d   1       5.980   0.405  -1.827  0.00  0.00     0.025 H 
ATOM     16  H   LIG d   1       4.456   1.016  -2.557  0.00  0.00     0.025 H 
ENDBRANCH  11  13
BRANCH  11  17
ATOM     17  C   LIG d   1       4.568  -1.717  -2.702  0.00  0.00     0.064 C 
ATOM     18  O   LIG d   1       4.395  -1.504  -1.525  0.00  0.00    -0.548 OA
ATOM     19  O   LIG d   1       4.102  -2.848  -3.254  0.00  0.00    -0.548 OA
ENDBRANCH  11  17
ENDBRANCH   7  11
BRANCH   1  20
ATOM     20  C   LIG d   1       6.411  -1.512  -6.019  0.00  0.00    -0.024 C 
ATOM     21  H   LIG d   1       6.953  -1.306  -5.084  0.00  0.00     0.029 H 
ATOM     22  H   LIG d   1       6.987  -1.120  -6.870  0.00  0.00     0.029 H 
ATOM     23  H   LIG d   1       6.277  -2.598  -6.135  0.00  0.00     0.029 H 
ENDBRANCH   1  20
TORSDOF 4
ENDMDL
MODEL 4
REMARK VINA RESULT:      -4.5      2.310      4.315
REMARK  4 active torsions:
REMARK  status: ('A' for Active; 'I' for Inactive)
REMARK    1  A    between atoms: C_1  and  C_2 
REMARK    2  A    between atoms: N_8  and  C_9 
REMARK    3  A    between atoms: C_9  and  C_11 
REMARK    4  A    between atoms: C_9  and  C_12 
ROOT
ATOM      1  C   LIG d   1       6.227  -0.192  -4.231  0.00  0.00     0.019 A 
ATOM      2  C   LIG d   1       5.939   0.668  -3.231  0.00  0.00    -0.050 A 
ATOM      3  C   LIG d   1       5.010   0.301  -2.237  0.00  0.00    -0.102 A 
ATOM      4  C   LIG d   1       4.410  -0.942  -2.308  0.00  0.00    -0.005 A 
ATOM      5  C   LIG d   1       4.737  -1.798  -3.367  0.00  0.00     0.252 A 
ATOM      6  O   LIG d   1       4.211  -2.897  -3.446  0.00  0.00    -0.268 OA
ATOM      7  N   LIG d   1       5.633  -1.412  -4.295  0.00  0.00    -0.304 N 
ATOM      8  O   LIG d   1       4.711   1.154  -1.228  0.00  0.00    -0.874 OA
ATOM      9  H   LIG d   1       6.419   1.635  -3.194  0.00  0.00     0.063 H 
ATOM     10  H   LIG d   1       3.695  -1.247  -1.558  0.00  0.00     0.067 H 
ENDROOT
BRANCH   7  11
ATOM     11  C   LIG d   1       5.967  -2.322  -5.394  0.00  0.00     0.074 C 
ATOM     12  H   LIG d   1       6.796  -1.868  -5.959  0.00  0.00     0.059 H 
BRANCH  11  13
ATOM     13  C   LIG d   1       6.372  -3.683  -4.824  0.00  0.00    -0.039 C 
ATOM     14  H   LIG d   1       7.442  -3.856  -5.013  0.00  0.00     0.025 H 
ATOM     15  H   LIG d   1       5.782  -4.474  -5.309  0.00  0.00     0.025 H 
ATOM     16  H   LIG d   1       6.185  -3.697  -3.740  0.00  0.00     0.025 H 
ENDBRANCH  11  13
BRANCH  11  17
ATOM     17  C   LIG d   1       4.768  -2.489  -6.291  0.00  0.00     0.064 C 
ATOM     18  O   LIG d   1       4.216  -1.516  -6.749  0.00  0.00    -0.548 OA
ATOM     19  O   LIG d   1       4.316  -3.717  -6.584  0.00  0.00    -0.548 OA
ENDBRANCH  11  17
ENDBRANCH   7  11
BRANCH   1  20
ATOM     20  C   LIG d   1       7.222   0.206  -5.291  0.00  0.00    -0.024 C 
ATOM     21  H   LIG d   1       8.212  -0.199  -5.036  0.00  0.00     0.029 H 
ATOM     22  H   LIG d   1       7.278   1.303  -5.347  0.00  0.00     0.029 H 
ATOM     23  H   LIG d   1       6.900  -0.195  -6.264  0.00  0.00     0.029 H 
ENDBRANCH   1  20
TORSDOF 4
ENDMDL
MODEL 5
REMARK VINA RESULT:      -4.4      2.309      3.412
REMARK  4 active torsions:
REMARK  status: ('A' for Active; 'I' for Inactive)
REMARK    1  A    between atoms: C_1  and  C_2 
REMARK    2  A    between atoms: N_8  and  C_9 
REMARK    3  A    between atoms: C_9  and  C_11 
REMARK    4  A    between atoms: C_9  and  C_12 
ROOT
ATOM      1  C   LIG d   1       5.145  -0.628  -4.797  0.00  0.00     0.019 A 
ATOM      2  C   LIG d   1       5.483  -0.755  -6.098  0.00  0.00    -0.050 A 
ATOM      3  C   LIG d   1       4.532  -0.474  -7.099  0.00  0.00    -0.102 A 
ATOM      4  C   LIG d   1       3.265  -0.071  -6.725  0.00  0.00    -0.005 A 
ATOM      5  C   LIG d   1       2.959   0.040  -5.363  0.00  0.00     0.252 A 
ATOM      6  O   LIG d   1       1.842   0.390  -5.015  0.00  0.00    -0.268 OA
ATOM      7  N   LIG d   1       3.897  -0.232  -4.435  0.00  0.00    -0.304 N 
ATOM      8  O   LIG d   1       4.857  -0.597  -8.409  0.00  0.00    -0.874 OA
ATOM      9  H   LIG d   1       6.480  -1.071  -6.370  0.00  0.00     0.063 H 
ATOM     10  H   LIG d   1       2.518   0.149  -7.473  0.00  0.00     0.067 H 
ENDROOT
BRANCH   7  11
ATOM     11  C   LIG d   1       3.562  -0.106  -3.015  0.00  0.00     0.074 C 
ATOM     12  H   LIG d   1       2.468  -0.016  -2.938  0.00  0.00     0.059 H 
BRANCH  11  13
ATOM     13  C   LIG d   1       4.065  -1.340  -2.261  0.00  0.00    -0.039 C 
ATOM     14  H   LIG d   1       4.673  -1.022  -1.401  0.00  0.00     0.025 H 
ATOM     15  H   LIG d   1       4.678  -1.956  -2.935  0.00  0.00     0.025 H 
ATOM     16  H   LIG d   1       3.206  -1.928  -1.906  0.00  0.00     0.025 H 
ENDBRANCH  11  13
BRANCH  11  17
ATOM     17  C   LIG d   1       4.218   1.128  -2.452  0.00  0.00     0.064 C 
ATOM     18  O   LIG d   1       4.212   2.158  -3.084  0.00  0.00    -0.548 OA
ATOM     19  O   LIG d   1       4.805   1.085  -1.245  0.00  0.00    -0.548 OA
ENDBRANCH  11  17
ENDBRANCH   7  11
BRANCH   1  20
ATOM     20  C   LIG d   1       6.167  -0.930  -3.731  0.00  0.00    -0.024 C 
ATOM     21  H   LIG d   1       7.154  -0.573  -4.057  0.00  0.00     0.029 H 
ATOM     22  H   LIG d   1       6.207  -2.015  -3.559  0.00  0.00     0.029 H 
ATOM     23  H   LIG d   1       5.883  -0.421  -2.797  0.00  0.00     0.029 H 
ENDBRANCH   1  20
TORSDOF 4
ENDMDL
MODEL 6
REMARK VINA RESULT:      -4.4      1.582      1.887
REMARK  4 active torsions:
REMARK  status: ('A' for Active; 'I' for Inactive)
REMARK    1  A    between atoms: C_1  and  C_2 
REMARK    2  A    between atoms: N_8  and  C_9 
REMARK    3  A    between atoms: C_9  and  C_11 
REMARK    4  A    between atoms: C_9  and  C_12 
ROOT
ATOM      1  C   LIG d   1       5.753  -0.815  -5.209  0.00  0.00     0.019 A 
ATOM      2  C   LIG d   1       6.921  -0.617  -5.856  0.00  0.00    -0.050 A 
ATOM      3  C   LIG d   1       7.864   0.291  -5.337  0.00  0.00    -0.102 A 
ATOM      4  C   LIG d   1       7.571   0.965  -4.167  0.00  0.00    -0.005 A 
ATOM      5  C   LIG d   1       6.344   0.731  -3.535  0.00  0.00     0.252 A 
ATOM      6  O   LIG d   1       6.067   1.324  -2.503  0.00  0.00    -0.268 OA
ATOM      7  N   LIG d   1       5.470  -0.148  -4.060  0.00  0.00    -0.304 N 
ATOM      8  O   LIG d   1       9.041   0.500  -5.975  0.00  0.00    -0.874 OA
ATOM      9  H   LIG d   1       7.131  -1.155  -6.770  0.00  0.00     0.063 H 
ATOM     10  H   LIG d   1       8.277   1.667  -3.749  0.00  0.00     0.067 H 
ENDROOT
BRANCH   7  11
ATOM     11  C   LIG d   1       4.192  -0.385  -3.383  0.00  0.00     0.074 C 
ATOM     12  H   LIG d   1       3.630  -1.116  -3.984  0.00  0.00     0.059 H 
BRANCH  11  13
ATOM     13  C   LIG d   1       4.453  -0.920  -1.973  0.00  0.00    -0.039 C 
ATOM     14  H   LIG d   1       3.906  -0.307  -1.242  0.00  0.00     0.025 H 
ATOM     15  H   LIG d   1       5.530  -0.872  -1.757  0.00  0.00     0.025 H 
ATOM     16  H   LIG d   1       4.111  -1.963  -1.907  0.00  0.00     0.025 H 
ENDBRANCH  11  13
BRANCH  11  17
ATOM     17  C   LIG d   1       3.422   0.907  -3.297  0.00  0.00     0.064 C 
ATOM     18  O   LIG d   1       3.038   1.450  -4.305  0.00  0.00    -0.548 OA
ATOM     19  O   LIG d   1       3.158   1.451  -2.099  0.00  0.00    -0.548 OA
ENDBRANCH  11  17
ENDBRANCH   7  11
BRANCH   1  20
ATOM     20  C   LIG d   1       4.748  -1.789  -5.770  0.00  0.00    -0.024 C 
ATOM     21  H   LIG d   1       4.328  -1.386  -6.703  0.00  0.00     0.029 H 
ATOM     22  H   LIG d   1       3.939  -1.941  -5.040  0.00  0.00     0.029 H 
ATOM     23  H   LIG d   1       5.243  -2.750  -5.975  0.00  0.00     0.029 H 
ENDBRANCH   1  20
TORSDOF 4
ENDMDL
MODEL 7
REMARK VINA RESULT:      -4.4      2.428      4.113
REMARK  4 active torsions:
REMARK  status: ('A' for Active; 'I' for Inactive)
REMARK    1  A    between atoms: C_1  and  C_2 
REMARK    2  A    between atoms: N_8  and  C_9 
REMARK    3  A    between atoms: C_9  and  C_11 
REMARK    4  A    between atoms: C_9  and  C_12 
ROOT
ATOM      1  C   LIG d   1       3.441   0.186  -4.115  0.00  0.00     0.019 A 
ATOM      2  C   LIG d   1       3.540   0.785  -2.909  0.00  0.00    -0.050 A 
ATOM      3  C   LIG d   1       4.793   0.870  -2.271  0.00  0.00    -0.102 A 
ATOM      4  C   LIG d   1       5.902   0.335  -2.898  0.00  0.00    -0.005 A 
ATOM      5  C   LIG d   1       5.748  -0.281  -4.146  0.00  0.00     0.252 A 
ATOM      6  O   LIG d   1       6.718  -0.764  -4.710  0.00  0.00    -0.268 OA
ATOM      7  N   LIG d   1       4.535  -0.339  -4.726  0.00  0.00    -0.304 N 
ATOM      8  O   LIG d   1       4.908   1.469  -1.060  0.00  0.00    -0.874 OA
ATOM      9  H   LIG d   1       2.660   1.197  -2.435  0.00  0.00     0.063 H 
ATOM     10  H   LIG d   1       6.874   0.388  -2.429  0.00  0.00     0.067 H 
ENDROOT
BRANCH   7  11
ATOM     11  C   LIG d   1       4.392  -0.983  -6.034  0.00  0.00     0.074 C 
ATOM     12  H   LIG d   1       3.339  -0.883  -6.339  0.00  0.00     0.059 H 
BRANCH  11  13
ATOM     13  C   LIG d   1       5.322  -0.304  -7.041  0.00  0.00    -0.039 C 
ATOM     14  H   LIG d   1       5.245  -0.813  -8.013  0.00  0.00     0.025 H 
ATOM     15  H   LIG d   1       6.359  -0.362  -6.679  0.00  0.00     0.025 H 
ATOM     16  H   LIG d   1       5.031   0.750  -7.156  0.00  0.00     0.025 H 
ENDBRANCH  11  13
BRANCH  11  17
ATOM     17  C   LIG d   1       4.755  -2.441  -5.918  0.00  0.00     0.064 C 
ATOM     18  O   LIG d   1       4.281  -3.114  -5.033  0.00  0.00    -0.548 OA
ATOM     19  O   LIG d   1       5.600  -2.994  -6.802  0.00  0.00    -0.548 OA
ENDBRANCH  11  17
ENDBRANCH   7  11
BRANCH   1  20
ATOM     20  C   LIG d   1       2.097   0.098  -4.793  0.00  0.00    -0.024 C 
ATOM     21  H   LIG d   1       1.300   0.242  -4.049  0.00  0.00     0.029 H 
ATOM     22  H   LIG d   1       1.987  -0.891  -5.261  0.00  0.00     0.029 H 
ATOM     23  H   LIG d   1       2.024   0.879  -5.565  0.00  0.00     0.029 H 
ENDBRANCH   1  20
TORSDOF 4
ENDMDL
MODEL 8
REMARK VINA RESULT:      -4.3      1.756      4.166
REMARK  4 active torsions:
REMARK  status: ('A' for Active; 'I' for Inactive)
REMARK    1  A    between atoms: C_1  and  C_2 
REMARK    2  A    between atoms: N_8  and  C_9 
REMARK    3  A    between atoms: C_9  and  C_11 
REMARK    4  A    between atoms: C_9  and  C_12 
ROOT
ATOM      1  C   LIG d   1       4.117  -0.740  -2.960  0.00  0.00     0.019 A 
ATOM      2  C   LIG d   1       2.801  -0.579  -3.214  0.00  0.00    -0.050 A 
ATOM      3  C   LIG d   1       2.378  -0.202  -4.504  0.00  0.00    -0.102 A 
ATOM      4  C   LIG d   1       3.327  -0.003  -5.489  0.00  0.00    -0.005 A 
ATOM      5  C   LIG d   1       4.681  -0.176  -5.175  0.00  0.00     0.252 A 
ATOM      6  O   LIG d   1       5.532   0.002  -6.033  0.00  0.00    -0.268 OA
ATOM      7  N   LIG d   1       5.045  -0.542  -3.932  0.00  0.00    -0.304 N 
ATOM      8  O   LIG d   1       1.060  -0.036  -4.775  0.00  0.00    -0.874 OA
ATOM      9  H   LIG d   1       2.074  -0.740  -2.430  0.00  0.00     0.063 H 
ATOM     10  H   LIG d   1       3.029   0.288  -6.485  0.00  0.00     0.067 H 
ENDROOT
BRANCH   7  11
ATOM     11  C   LIG d   1       6.465  -0.724  -3.622  0.00  0.00     0.074 C 
ATOM     12  H   LIG d   1       6.535  -1.072  -2.581  0.00  0.00     0.059 H 
BRANCH  11  13
ATOM     13  C   LIG d   1       7.071  -1.748  -4.585  0.00  0.00    -0.039 C 
ATOM     14  H   LIG d   1       7.085  -2.738  -4.106  0.00  0.00     0.025 H 
ATOM     15  H   LIG d   1       8.098  -1.449  -4.839  0.00  0.00     0.025 H 
ATOM     16  H   LIG d   1       6.464  -1.793  -5.501  0.00  0.00     0.025 H 
ENDBRANCH  11  13
BRANCH  11  17
ATOM     17  C   LIG d   1       7.185   0.592  -3.771  0.00  0.00     0.064 C 
ATOM     18  O   LIG d   1       8.261   0.634  -4.318  0.00  0.00    -0.548 OA
ATOM     19  O   LIG d   1       6.627   1.718  -3.300  0.00  0.00    -0.548 OA
ENDBRANCH  11  17
ENDBRANCH   7  11
BRANCH   1  20
ATOM     20  C   LIG d   1       4.563  -1.145  -1.578  0.00  0.00    -0.024 C 
ATOM     21  H   LIG d   1       3.841  -1.857  -1.153  0.00  0.00     0.029 H 
ATOM     22  H   LIG d   1       4.620  -0.254  -0.936  0.00  0.00     0.029 H 
ATOM     23  H   LIG d   1       5.555  -1.618  -1.637  0.00  0.00     0.029 H 
ENDBRANCH   1  20
TORSDOF 4
ENDMDL
MODEL 9
REMARK VINA RESULT:      -4.2      1.725      2.718
REMARK  4 active torsions:
REMARK  status: ('A' for Active; 'I' for Inactive)
REMARK    1  A    between atoms: C_1  and  C_2 
REMARK    2  A    between atoms: N_8  and  C_9 
REMARK    3  A    between atoms: C_9  and  C_11 
REMARK    4  A    between atoms: C_9  and  C_12 
ROOT
ATOM      1  C   LIG d   1       5.897  -1.067  -3.395  0.00  0.00     0.019 A 
ATOM      2  C   LIG d   1       7.158  -1.546  -3.361  0.00  0.00    -0.050 A 
ATOM      3  C   LIG d   1       7.462  -2.766  -3.997  0.00  0.00    -0.102 A 
ATOM      4  C   LIG d   1       6.453  -3.451  -4.647  0.00  0.00    -0.005 A 
ATOM      5  C   LIG d   1       5.159  -2.917  -4.650  0.00  0.00     0.252 A 
ATOM      6  O   LIG d   1       4.255  -3.514  -5.216  0.00  0.00    -0.268 OA
ATOM      7  N   LIG d   1       4.909  -1.746  -4.035  0.00  0.00    -0.304 N 
ATOM      8  O   LIG d   1       8.724  -3.259  -3.972  0.00  0.00    -0.874 OA
ATOM      9  H   LIG d   1       7.933  -0.995  -2.847  0.00  0.00     0.063 H 
ATOM     10  H   LIG d   1       6.660  -4.389  -5.142  0.00  0.00     0.067 H 
ENDROOT
BRANCH   7  11
ATOM     11  C   LIG d   1       3.550  -1.199  -4.052  0.00  0.00     0.074 C 
ATOM     12  H   LIG d   1       2.885  -1.976  -4.458  0.00  0.00     0.059 H 
BRANCH  11  13
ATOM     13  C   LIG d   1       3.139  -0.814  -2.629  0.00  0.00    -0.039 C 
ATOM     14  H   LIG d   1       3.651   0.115  -2.338  0.00  0.00     0.025 H 
ATOM     15  H   LIG d   1       3.421  -1.619  -1.935  0.00  0.00     0.025 H 
ATOM     16  H   LIG d   1       2.051  -0.659  -2.591  0.00  0.00     0.025 H 
ENDBRANCH  11  13
BRANCH  11  17
ATOM     17  C   LIG d   1       3.510   0.022  -4.934  0.00  0.00     0.064 C 
ATOM     18  O   LIG d   1       4.106   0.027  -5.985  0.00  0.00    -0.548 OA
ATOM     19  O   LIG d   1       2.808   1.101  -4.556  0.00  0.00    -0.548 OA
ENDBRANCH  11  17
ENDBRANCH   7  11
BRANCH   1  20
ATOM     20  C   LIG d   1       5.578   0.239  -2.713  0.00  0.00    -0.024 C 
ATOM     21  H   LIG d   1       5.461   1.029  -3.469  0.00  0.00     0.029 H 
ATOM     22  H   LIG d   1       6.398   0.505  -2.030  0.00  0.00     0.029 H 
ATOM     23  H   LIG d   1       4.643   0.136  -2.142  0.00  0.00     0.029 H 
ENDBRANCH   1  20
TORSDOF 4
ENDMDL
MODEL 10
REMARK VINA RESULT:      -4.1      1.621      2.681
REMARK  4 active torsions:
REMARK  status: ('A' for Active; 'I' for Inactive)
REMARK    1  A    between atoms: C_1  and  C_2 
REMARK    2  A    between atoms: N_8  and  C_9 
REMARK    3  A    between atoms: C_9  and  C_11 
REMARK    4  A    between atoms: C_9  and  C_12 
ROOT
ATOM      1  C   LIG d   1       5.831   0.535  -3.160  0.00  0.00     0.019 A 
ATOM      2  C   LIG d   1       6.918   1.287  -3.432  0.00  0.00    -0.050 A 
ATOM      3  C   LIG d   1       7.836   0.863  -4.412  0.00  0.00    -0.102 A 
ATOM      4  C   LIG d   1       7.603  -0.325  -5.079  0.00  0.00    -0.005 A 
ATOM      5  C   LIG d   1       6.465  -1.075  -4.758  0.00  0.00     0.252 A 
ATOM      6  O   LIG d   1       6.247  -2.130  -5.334  0.00  0.00    -0.268 OA
ATOM      7  N   LIG d   1       5.608  -0.633  -3.818  0.00  0.00    -0.304 N 
ATOM      8  O   LIG d   1       8.932   1.608  -4.697  0.00  0.00    -0.874 OA
ATOM      9  H   LIG d   1       7.083   2.213  -2.900  0.00  0.00     0.063 H 
ATOM     10  H   LIG d   1       8.292  -0.673  -5.834  0.00  0.00     0.067 H 
ENDROOT
BRANCH   7  11
ATOM     11  C   LIG d   1       4.419  -1.427  -3.497  0.00  0.00     0.074 C 
ATOM     12  H   LIG d   1       4.509  -2.387  -4.027  0.00  0.00     0.059 H 
BRANCH  11  13
ATOM     13  C   LIG d   1       4.343  -1.640  -1.983  0.00  0.00    -0.039 C 
ATOM     14  H   LIG d   1       5.106  -2.372  -1.677  0.00  0.00     0.025 H 
ATOM     15  H   LIG d   1       3.346  -2.018  -1.716  0.00  0.00     0.025 H 
ATOM     16  H   LIG d   1       4.524  -0.685  -1.468  0.00  0.00     0.025 H 
ENDBRANCH  11  13
BRANCH  11  17
ATOM     17  C   LIG d   1       3.186  -0.698  -3.964  0.00  0.00     0.064 C 
ATOM     18  O   LIG d   1       2.196  -0.680  -3.271  0.00  0.00    -0.548 OA
ATOM     19  O   LIG d   1       3.189  -0.063  -5.146  0.00  0.00    -0.548 OA
ENDBRANCH  11  17
ENDBRANCH   7  11
BRANCH   1  20
ATOM     20  C   LIG d   1       4.852   0.994  -2.110  0.00  0.00    -0.024 C 
ATOM     21  H   LIG d   1       5.224   0.715  -1.114  0.00  0.00     0.029 H 
ATOM     22  H   LIG d   1       3.877   0.517  -2.284  0.00  0.00     0.029 H 
ATOM     23  H   LIG d   1       4.740   2.088  -2.167  0.00  0.00     0.029 H 
ENDBRANCH   1  20
TORSDOF 4
ENDMDL
