MODEL 1
REMARK VINA RESULT:      -7.1      0.000      0.000
REMARK  5 active torsions:
REMARK  status: ('A' for Active; 'I' for Inactive)
REMARK    1  A    between atoms: C_1  and  N_2 
REMARK    2  A    between atoms: C_11  and  C_12 
REMARK    3  A    between atoms: C_14  and  C_24 
REMARK    4  A    between atoms: N_16  and  C_18 
REMARK    5  A    between atoms: C_29  and  O_30 
ROOT
ATOM      1  C   LIG d   1       6.204  -3.405  -5.175  0.00  0.00     0.073 A 
ATOM      2  C   LIG d   1       5.070  -3.148  -4.209  0.00  0.00     0.017 A 
ATOM      3  C   LIG d   1       4.315  -1.957  -4.830  0.00  0.00     0.080 A 
ATOM      4  H   LIG d   1       3.290  -2.238  -5.074  0.00  0.00     0.058 H 
ATOM      5  N   LIG d   1       5.077  -1.666  -6.055  0.00  0.00    -0.216 N 
ATOM      6  N   LIG d   1       6.142  -2.558  -6.145  0.00  0.00    -0.183 NA
ATOM      7  H   LIG d   1       4.420  -4.020  -4.141  0.00  0.00     0.035 H 
ATOM      8  H   LIG d   1       5.459  -2.883  -3.225  0.00  0.00     0.035 H 
ENDROOT
BRANCH   1   9
ATOM      9  C   LIG d   1       7.224  -4.456  -5.027  0.00  0.00     0.054 A 
ATOM     10  C   LIG d   1       8.382  -4.222  -4.239  0.00  0.00     0.198 A 
ATOM     11  C   LIG d   1       9.371  -5.308  -4.127  0.00  0.00     0.046 A 
ATOM     12  O   LIG d   1       8.553  -3.154  -3.673  0.00  0.00    -0.286 OA
ATOM     13  C   LIG d   1       9.128  -6.519  -4.798  0.00  0.00     0.052 A 
ATOM     14  C   LIG d   1      10.532  -5.150  -3.368  0.00  0.00    -0.049 A 
ATOM     15  N   LIG d   1       7.980  -6.673  -5.547  0.00  0.00    -0.356 N 
ATOM     16  C   LIG d   1      10.056  -7.552  -4.699  0.00  0.00    -0.037 A 
ATOM     17  C   LIG d   1       7.065  -5.680  -5.664  0.00  0.00    -0.023 A 
ATOM     18  O   LIG d   1       5.963  -5.888  -6.415  0.00  0.00    -0.861 OA
ATOM     19  C   LIG d   1      11.198  -7.381  -3.947  0.00  0.00    -0.060 A 
ATOM     20  H   LIG d   1       9.880  -8.486  -5.211  0.00  0.00     0.064 H 
ATOM     21  C   LIG d   1      11.436  -6.185  -3.284  0.00  0.00    -0.061 A 
ATOM     22  H   LIG d   1      11.914  -8.185  -3.873  0.00  0.00     0.062 H 
ATOM     23  H   LIG d   1      12.336  -6.066  -2.698  0.00  0.00     0.062 H 
ATOM     24  H   LIG d   1      10.720  -4.221  -2.851  0.00  0.00     0.062 H 
BRANCH  15  25
ATOM     25  C   LIG d   1       7.746  -7.943  -6.239  0.00  0.00     0.011 C 
ATOM     26  H   LIG d   1       7.321  -8.664  -5.540  0.00  0.00     0.045 H 
ATOM     27  H   LIG d   1       7.052  -7.784  -7.064  0.00  0.00     0.045 H 
ATOM     28  H   LIG d   1       8.691  -8.324  -6.626  0.00  0.00     0.045 H 
ENDBRANCH  15  25
ENDBRANCH   1   9
BRANCH   5  29
ATOM     29  C   LIG d   1       4.782  -0.659  -6.972  0.00  0.00     0.052 A 
ATOM     30  C   LIG d   1       3.460  -0.369  -7.288  0.00  0.00    -0.039 A 
ATOM     31  C   LIG d   1       3.171   0.633  -8.193  0.00  0.00    -0.060 A 
ATOM     32  H   LIG d   1       2.658  -0.924  -6.822  0.00  0.00     0.064 H 
ATOM     33  C   LIG d   1       4.196   1.340  -8.794  0.00  0.00    -0.062 A 
ATOM     34  H   LIG d   1       2.143   0.862  -8.434  0.00  0.00     0.062 H 
ATOM     35  C   LIG d   1       5.513   1.051  -8.488  0.00  0.00    -0.060 A 
ATOM     36  H   LIG d   1       3.967   2.121  -9.505  0.00  0.00     0.062 H 
ATOM     37  C   LIG d   1       5.810   0.055  -7.579  0.00  0.00    -0.039 A 
ATOM     38  H   LIG d   1       6.311   1.606  -8.960  0.00  0.00     0.062 H 
ATOM     39  H   LIG d   1       6.839  -0.170  -7.340  0.00  0.00     0.064 H 
ENDBRANCH   5  29
BRANCH   3  40
ATOM     40  C   LIG d   1       4.332  -0.774  -3.897  0.00  0.00     0.017 A 
ATOM     41  C   LIG d   1       3.144  -0.147  -3.548  0.00  0.00     0.122 A 
ATOM     42  C   LIG d   1       3.163   0.939  -2.684  0.00  0.00    -0.020 A 
ATOM     43  C   LIG d   1       4.364   1.401  -2.184  0.00  0.00    -0.058 A 
ATOM     44  H   LIG d   1       2.239   1.425  -2.407  0.00  0.00     0.065 H 
ATOM     45  C   LIG d   1       5.548   0.779  -2.539  0.00  0.00    -0.061 A 
ATOM     46  H   LIG d   1       4.380   2.248  -1.516  0.00  0.00     0.062 H 
ATOM     47  C   LIG d   1       5.532  -0.306  -3.395  0.00  0.00    -0.053 A 
ATOM     48  H   LIG d   1       6.486   1.141  -2.146  0.00  0.00     0.062 H 
ATOM     49  H   LIG d   1       6.457  -0.791  -3.670  0.00  0.00     0.062 H 
BRANCH  41  50
ATOM     50  O   LIG d   1       1.964  -0.601  -4.046  0.00  0.00    -0.506 OA
ATOM     51  H   LIG d   1       1.762  -0.278  -4.935  0.00  0.00     0.292 HD
ENDBRANCH  41  50
ENDBRANCH   3  40
TORSDOF 5
ENDMDL
MODEL 2
REMARK VINA RESULT:      -7.1      3.654      7.062
REMARK  5 active torsions:
REMARK  status: ('A' for Active; 'I' for Inactive)
REMARK    1  A    between atoms: C_1  and  N_2 
REMARK    2  A    between atoms: C_11  and  C_12 
REMARK    3  A    between atoms: C_14  and  C_24 
REMARK    4  A    between atoms: N_16  and  C_18 
REMARK    5  A    between atoms: C_29  and  O_30 
ROOT
ATOM      1  C   LIG d   1       3.957  -1.214  -7.663  0.00  0.00     0.073 A 
ATOM      2  C   LIG d   1       3.341  -0.407  -6.543  0.00  0.00     0.017 A 
ATOM      3  C   LIG d   1       4.551   0.058  -5.710  0.00  0.00     0.080 A 
ATOM      4  H   LIG d   1       4.613   1.147  -5.699  0.00  0.00     0.058 H 
ATOM      5  N   LIG d   1       5.703  -0.518  -6.424  0.00  0.00    -0.216 N 
ATOM      6  N   LIG d   1       5.239  -1.232  -7.525  0.00  0.00    -0.183 NA
ATOM      7  H   LIG d   1       2.800   0.451  -6.943  0.00  0.00     0.035 H 
ATOM      8  H   LIG d   1       2.679  -1.030  -5.941  0.00  0.00     0.035 H 
ENDROOT
BRANCH   1   9
ATOM      9  C   LIG d   1       3.208  -1.883  -8.739  0.00  0.00     0.054 A 
ATOM     10  C   LIG d   1       2.485  -1.116  -9.691  0.00  0.00     0.198 A 
ATOM     11  C   LIG d   1       1.753  -1.838 -10.746  0.00  0.00     0.046 A 
ATOM     12  O   LIG d   1       2.471   0.104  -9.636  0.00  0.00    -0.286 OA
ATOM     13  C   LIG d   1       1.802  -3.242 -10.766  0.00  0.00     0.052 A 
ATOM     14  C   LIG d   1       1.023  -1.149 -11.716  0.00  0.00    -0.049 A 
ATOM     15  N   LIG d   1       2.525  -3.920  -9.807  0.00  0.00    -0.356 N 
ATOM     16  C   LIG d   1       1.114  -3.934 -11.759  0.00  0.00    -0.037 A 
ATOM     17  C   LIG d   1       3.198  -3.269  -8.827  0.00  0.00    -0.023 A 
ATOM     18  O   LIG d   1       3.883  -3.988  -7.913  0.00  0.00    -0.861 OA
ATOM     19  C   LIG d   1       0.396  -3.241 -12.709  0.00  0.00    -0.060 A 
ATOM     20  H   LIG d   1       1.144  -5.013 -11.784  0.00  0.00     0.064 H 
ATOM     21  C   LIG d   1       0.350  -1.854 -12.689  0.00  0.00    -0.061 A 
ATOM     22  H   LIG d   1      -0.136  -3.782 -13.478  0.00  0.00     0.062 H 
ATOM     23  H   LIG d   1      -0.216  -1.324 -13.441  0.00  0.00     0.062 H 
ATOM     24  H   LIG d   1       0.985  -0.069 -11.703  0.00  0.00     0.062 H 
BRANCH  15  25
ATOM     25  C   LIG d   1       2.562  -5.384  -9.846  0.00  0.00     0.011 C 
ATOM     26  H   LIG d   1       2.111  -5.783  -8.937  0.00  0.00     0.045 H 
ATOM     27  H   LIG d   1       2.005  -5.739 -10.713  0.00  0.00     0.045 H 
ATOM     28  H   LIG d   1       3.597  -5.719  -9.916  0.00  0.00     0.045 H 
ENDBRANCH  15  25
ENDBRANCH   1   9
BRANCH   5  29
ATOM     29  C   LIG d   1       7.039  -0.374  -6.054  0.00  0.00     0.052 A 
ATOM     30  C   LIG d   1       7.771  -1.482  -5.639  0.00  0.00    -0.039 A 
ATOM     31  C   LIG d   1       9.095  -1.338  -5.280  0.00  0.00    -0.060 A 
ATOM     32  H   LIG d   1       7.303  -2.455  -5.604  0.00  0.00     0.064 H 
ATOM     33  C   LIG d   1       9.692  -0.091  -5.320  0.00  0.00    -0.062 A 
ATOM     34  H   LIG d   1       9.665  -2.199  -4.963  0.00  0.00     0.062 H 
ATOM     35  C   LIG d   1       8.967   1.015  -5.725  0.00  0.00    -0.060 A 
ATOM     36  H   LIG d   1      10.729   0.020  -5.034  0.00  0.00     0.062 H 
ATOM     37  C   LIG d   1       7.644   0.877  -6.093  0.00  0.00    -0.039 A 
ATOM     38  H   LIG d   1       9.438   1.987  -5.755  0.00  0.00     0.062 H 
ATOM     39  H   LIG d   1       7.077   1.741  -6.410  0.00  0.00     0.064 H 
ENDBRANCH   5  29
BRANCH   3  40
ATOM     40  C   LIG d   1       4.468  -0.482  -4.307  0.00  0.00     0.017 A 
ATOM     41  C   LIG d   1       4.699   0.355  -3.225  0.00  0.00     0.122 A 
ATOM     42  C   LIG d   1       4.617  -0.145  -1.933  0.00  0.00    -0.020 A 
ATOM     43  C   LIG d   1       4.317  -1.477  -1.727  0.00  0.00    -0.058 A 
ATOM     44  H   LIG d   1       4.791   0.507  -1.089  0.00  0.00     0.065 H 
ATOM     45  C   LIG d   1       4.094  -2.311  -2.807  0.00  0.00    -0.061 A 
ATOM     46  H   LIG d   1       4.257  -1.867  -0.723  0.00  0.00     0.062 H 
ATOM     47  C   LIG d   1       4.170  -1.815  -4.095  0.00  0.00    -0.053 A 
ATOM     48  H   LIG d   1       3.859  -3.352  -2.645  0.00  0.00     0.062 H 
ATOM     49  H   LIG d   1       3.995  -2.469  -4.937  0.00  0.00     0.062 H 
BRANCH  41  50
ATOM     50  O   LIG d   1       5.000   1.665  -3.430  0.00  0.00    -0.506 OA
ATOM     51  H   LIG d   1       4.572   2.269  -2.808  0.00  0.00     0.292 HD
ENDBRANCH  41  50
ENDBRANCH   3  40
TORSDOF 5
ENDMDL
MODEL 3
REMARK VINA RESULT:      -7.1      5.817      8.011
REMARK  5 active torsions:
REMARK  status: ('A' for Active; 'I' for Inactive)
REMARK    1  A    between atoms: C_1  and  N_2 
REMARK    2  A    between atoms: C_11  and  C_12 
REMARK    3  A    between atoms: C_14  and  C_24 
REMARK    4  A    between atoms: N_16  and  C_18 
REMARK    5  A    between atoms: C_29  and  O_30 
ROOT
ATOM      1  C   LIG d   1       8.958   1.497  -4.917  0.00  0.00     0.073 A 
ATOM      2  C   LIG d   1       8.793   2.403  -6.115  0.00  0.00     0.017 A 
ATOM      3  C   LIG d   1      10.122   3.182  -6.178  0.00  0.00     0.080 A 
ATOM      4  H   LIG d   1      10.641   2.979  -7.115  0.00  0.00     0.058 H 
ATOM      5  N   LIG d   1      10.886   2.653  -5.037  0.00  0.00    -0.216 N 
ATOM      6  N   LIG d   1      10.115   1.695  -4.383  0.00  0.00    -0.183 NA
ATOM      7  H   LIG d   1       8.651   1.815  -7.022  0.00  0.00     0.035 H 
ATOM      8  H   LIG d   1       7.956   3.086  -5.966  0.00  0.00     0.035 H 
ENDROOT
BRANCH   1   9
ATOM      9  C   LIG d   1       7.949   0.542  -4.429  0.00  0.00     0.054 A 
ATOM     10  C   LIG d   1       6.876   0.989  -3.614  0.00  0.00     0.198 A 
ATOM     11  C   LIG d   1       5.897  -0.011  -3.153  0.00  0.00     0.046 A 
ATOM     12  O   LIG d   1       6.769   2.165  -3.304  0.00  0.00    -0.286 OA
ATOM     13  C   LIG d   1       6.065  -1.352  -3.537  0.00  0.00     0.052 A 
ATOM     14  C   LIG d   1       4.816   0.357  -2.350  0.00  0.00    -0.049 A 
ATOM     15  N   LIG d   1       7.134  -1.712  -4.331  0.00  0.00    -0.356 N 
ATOM     16  C   LIG d   1       5.146  -2.305  -3.108  0.00  0.00    -0.037 A 
ATOM     17  C   LIG d   1       8.046  -0.804  -4.756  0.00  0.00    -0.023 A 
ATOM     18  O   LIG d   1       9.074  -1.218  -5.526  0.00  0.00    -0.861 OA
ATOM     19  C   LIG d   1       4.084  -1.928  -2.315  0.00  0.00    -0.060 A 
ATOM     20  H   LIG d   1       5.265  -3.339  -3.396  0.00  0.00     0.064 H 
ATOM     21  C   LIG d   1       3.918  -0.602  -1.937  0.00  0.00    -0.061 A 
ATOM     22  H   LIG d   1       3.373  -2.671  -1.984  0.00  0.00     0.062 H 
ATOM     23  H   LIG d   1       3.081  -0.321  -1.316  0.00  0.00     0.062 H 
ATOM     24  H   LIG d   1       4.684   1.387  -2.055  0.00  0.00     0.062 H 
BRANCH  15  25
ATOM     25  C   LIG d   1       7.291  -3.116  -4.719  0.00  0.00     0.011 C 
ATOM     26  H   LIG d   1       6.308  -3.567  -4.856  0.00  0.00     0.045 H 
ATOM     27  H   LIG d   1       7.850  -3.174  -5.653  0.00  0.00     0.045 H 
ATOM     28  H   LIG d   1       7.832  -3.651  -3.938  0.00  0.00     0.045 H 
ENDBRANCH  15  25
ENDBRANCH   1   9
BRANCH   5  29
ATOM     29  C   LIG d   1      12.172   3.048  -4.670  0.00  0.00     0.052 A 
ATOM     30  C   LIG d   1      12.389   3.653  -3.437  0.00  0.00    -0.039 A 
ATOM     31  C   LIG d   1      13.664   4.038  -3.073  0.00  0.00    -0.060 A 
ATOM     32  H   LIG d   1      11.561   3.816  -2.762  0.00  0.00     0.064 H 
ATOM     33  C   LIG d   1      14.723   3.834  -3.939  0.00  0.00    -0.062 A 
ATOM     34  H   LIG d   1      13.834   4.503  -2.113  0.00  0.00     0.062 H 
ATOM     35  C   LIG d   1      14.510   3.239  -5.170  0.00  0.00    -0.060 A 
ATOM     36  H   LIG d   1      15.719   4.140  -3.654  0.00  0.00     0.062 H 
ATOM     37  C   LIG d   1      13.239   2.845  -5.537  0.00  0.00    -0.039 A 
ATOM     38  H   LIG d   1      15.340   3.081  -5.843  0.00  0.00     0.062 H 
ATOM     39  H   LIG d   1      13.073   2.380  -6.498  0.00  0.00     0.064 H 
ENDBRANCH   5  29
BRANCH   3  40
ATOM     40  C   LIG d   1       9.878   4.660  -6.017  0.00  0.00     0.017 A 
ATOM     41  C   LIG d   1      10.149   5.527  -7.066  0.00  0.00     0.122 A 
ATOM     42  C   LIG d   1       9.918   6.887  -6.916  0.00  0.00    -0.020 A 
ATOM     43  C   LIG d   1       9.431   7.376  -5.720  0.00  0.00    -0.058 A 
ATOM     44  H   LIG d   1      10.123   7.563  -7.733  0.00  0.00     0.065 H 
ATOM     45  C   LIG d   1       9.168   6.510  -4.674  0.00  0.00    -0.061 A 
ATOM     46  H   LIG d   1       9.255   8.434  -5.601  0.00  0.00     0.062 H 
ATOM     47  C   LIG d   1       9.392   5.155  -4.821  0.00  0.00    -0.053 A 
ATOM     48  H   LIG d   1       8.786   6.894  -3.739  0.00  0.00     0.062 H 
ATOM     49  H   LIG d   1       9.185   4.481  -4.003  0.00  0.00     0.062 H 
BRANCH  41  50
ATOM     50  O   LIG d   1      10.633   5.044  -8.240  0.00  0.00    -0.506 OA
ATOM     51  H   LIG d   1      10.078   5.243  -9.007  0.00  0.00     0.292 HD
ENDBRANCH  41  50
ENDBRANCH   3  40
TORSDOF 5
ENDMDL
MODEL 4
REMARK VINA RESULT:      -7.0      0.622      2.124
REMARK  5 active torsions:
REMARK  status: ('A' for Active; 'I' for Inactive)
REMARK    1  A    between atoms: C_1  and  N_2 
REMARK    2  A    between atoms: C_11  and  C_12 
REMARK    3  A    between atoms: C_14  and  C_24 
REMARK    4  A    between atoms: N_16  and  C_18 
REMARK    5  A    between atoms: C_29  and  O_30 
ROOT
ATOM      1  C   LIG d   1       6.158  -3.451  -5.165  0.00  0.00     0.073 A 
ATOM      2  C   LIG d   1       5.031  -3.184  -4.194  0.00  0.00     0.017 A 
ATOM      3  C   LIG d   1       4.286  -1.983  -4.809  0.00  0.00     0.080 A 
ATOM      4  H   LIG d   1       3.258  -2.253  -5.050  0.00  0.00     0.058 H 
ATOM      5  N   LIG d   1       5.047  -1.698  -6.037  0.00  0.00    -0.216 N 
ATOM      6  N   LIG d   1       6.103  -2.601  -6.133  0.00  0.00    -0.183 NA
ATOM      7  H   LIG d   1       4.372  -4.049  -4.126  0.00  0.00     0.035 H 
ATOM      8  H   LIG d   1       5.426  -2.926  -3.211  0.00  0.00     0.035 H 
ENDROOT
BRANCH   1   9
ATOM      9  C   LIG d   1       7.168  -4.513  -5.024  0.00  0.00     0.054 A 
ATOM     10  C   LIG d   1       6.943  -5.794  -5.592  0.00  0.00     0.198 A 
ATOM     11  C   LIG d   1       7.987  -6.819  -5.418  0.00  0.00     0.046 A 
ATOM     12  O   LIG d   1       5.915  -6.039  -6.204  0.00  0.00    -0.286 OA
ATOM     13  C   LIG d   1       9.151  -6.488  -4.706  0.00  0.00     0.052 A 
ATOM     14  C   LIG d   1       7.833  -8.101  -5.951  0.00  0.00    -0.049 A 
ATOM     15  N   LIG d   1       9.300  -5.221  -4.182  0.00  0.00    -0.356 N 
ATOM     16  C   LIG d   1      10.144  -7.448  -4.537  0.00  0.00    -0.037 A 
ATOM     17  C   LIG d   1       8.345  -4.270  -4.328  0.00  0.00    -0.023 A 
ATOM     18  O   LIG d   1       8.546  -3.050  -3.787  0.00  0.00    -0.861 OA
ATOM     19  C   LIG d   1       9.979  -8.709  -5.067  0.00  0.00    -0.060 A 
ATOM     20  H   LIG d   1      11.044  -7.204  -3.991  0.00  0.00     0.064 H 
ATOM     21  C   LIG d   1       8.829  -9.036  -5.772  0.00  0.00    -0.061 A 
ATOM     22  H   LIG d   1      10.752  -9.451  -4.933  0.00  0.00     0.062 H 
ATOM     23  H   LIG d   1       8.713 -10.028  -6.182  0.00  0.00     0.062 H 
ATOM     24  H   LIG d   1       6.939  -8.357  -6.500  0.00  0.00     0.062 H 
BRANCH  15  25
ATOM     25  C   LIG d   1      10.522  -4.895  -3.441  0.00  0.00     0.011 C 
ATOM     26  H   LIG d   1      10.401  -5.182  -2.397  0.00  0.00     0.045 H 
ATOM     27  H   LIG d   1      11.363  -5.439  -3.872  0.00  0.00     0.045 H 
ATOM     28  H   LIG d   1      10.711  -3.824  -3.505  0.00  0.00     0.045 H 
ENDBRANCH  15  25
ENDBRANCH   1   9
BRANCH   5  29
ATOM     29  C   LIG d   1       4.760  -0.685  -6.951  0.00  0.00     0.052 A 
ATOM     30  C   LIG d   1       3.440  -0.400  -7.283  0.00  0.00    -0.039 A 
ATOM     31  C   LIG d   1       3.158   0.607  -8.183  0.00  0.00    -0.060 A 
ATOM     32  H   LIG d   1       2.636  -0.962  -6.831  0.00  0.00     0.064 H 
ATOM     33  C   LIG d   1       4.188   1.325  -8.765  0.00  0.00    -0.062 A 
ATOM     34  H   LIG d   1       2.133   0.834  -8.437  0.00  0.00     0.062 H 
ATOM     35  C   LIG d   1       5.502   1.039  -8.443  0.00  0.00    -0.060 A 
ATOM     36  H   LIG d   1       3.965   2.110  -9.474  0.00  0.00     0.062 H 
ATOM     37  C   LIG d   1       5.792   0.038  -7.538  0.00  0.00    -0.039 A 
ATOM     38  H   LIG d   1       6.304   1.602  -8.900  0.00  0.00     0.062 H 
ATOM     39  H   LIG d   1       6.819  -0.184  -7.287  0.00  0.00     0.064 H 
ENDBRANCH   5  29
BRANCH   3  40
ATOM     40  C   LIG d   1       4.320  -0.803  -3.874  0.00  0.00     0.017 A 
ATOM     41  C   LIG d   1       3.143  -0.147  -3.541  0.00  0.00     0.122 A 
ATOM     42  C   LIG d   1       3.177   0.937  -2.675  0.00  0.00    -0.020 A 
ATOM     43  C   LIG d   1       4.382   1.367  -2.156  0.00  0.00    -0.058 A 
ATOM     44  H   LIG d   1       2.261   1.445  -2.410  0.00  0.00     0.065 H 
ATOM     45  C   LIG d   1       5.554   0.716  -2.495  0.00  0.00    -0.061 A 
ATOM     46  H   LIG d   1       4.409   2.213  -1.486  0.00  0.00     0.062 H 
ATOM     47  C   LIG d   1       5.523  -0.367  -3.353  0.00  0.00    -0.053 A 
ATOM     48  H   LIG d   1       6.495   1.054  -2.088  0.00  0.00     0.062 H 
ATOM     49  H   LIG d   1       6.440  -0.874  -3.616  0.00  0.00     0.062 H 
BRANCH  41  50
ATOM     50  O   LIG d   1       1.959  -0.570  -4.057  0.00  0.00    -0.506 OA
ATOM     51  H   LIG d   1       1.386  -1.013  -3.416  0.00  0.00     0.292 HD
ENDBRANCH  41  50
ENDBRANCH   3  40
TORSDOF 5
ENDMDL
MODEL 5
REMARK VINA RESULT:      -7.0      1.818      4.574
REMARK  5 active torsions:
REMARK  status: ('A' for Active; 'I' for Inactive)
REMARK    1  A    between atoms: C_1  and  N_2 
REMARK    2  A    between atoms: C_11  and  C_12 
REMARK    3  A    between atoms: C_14  and  C_24 
REMARK    4  A    between atoms: N_16  and  C_18 
REMARK    5  A    between atoms: C_29  and  O_30 
ROOT
ATOM      1  C   LIG d   1       6.254  -3.839  -5.438  0.00  0.00     0.073 A 
ATOM      2  C   LIG d   1       6.664  -2.922  -6.566  0.00  0.00     0.017 A 
ATOM      3  C   LIG d   1       6.188  -1.530  -6.106  0.00  0.00     0.080 A 
ATOM      4  H   LIG d   1       7.034  -0.850  -6.002  0.00  0.00     0.058 H 
ATOM      5  N   LIG d   1       5.571  -1.792  -4.796  0.00  0.00    -0.216 N 
ATOM      6  N   LIG d   1       5.663  -3.154  -4.519  0.00  0.00    -0.183 NA
ATOM      7  H   LIG d   1       7.747  -2.933  -6.694  0.00  0.00     0.035 H 
ATOM      8  H   LIG d   1       6.167  -3.209  -7.493  0.00  0.00     0.035 H 
ENDROOT
BRANCH   1   9
ATOM      9  C   LIG d   1       6.487  -5.292  -5.396  0.00  0.00     0.054 A 
ATOM     10  C   LIG d   1       5.442  -6.193  -5.732  0.00  0.00     0.198 A 
ATOM     11  C   LIG d   1       5.730  -7.637  -5.673  0.00  0.00     0.046 A 
ATOM     12  O   LIG d   1       4.339  -5.784  -6.059  0.00  0.00    -0.286 OA
ATOM     13  C   LIG d   1       7.015  -8.057  -5.290  0.00  0.00     0.052 A 
ATOM     14  C   LIG d   1       4.751  -8.580  -5.991  0.00  0.00    -0.049 A 
ATOM     15  N   LIG d   1       7.980  -7.122  -4.978  0.00  0.00    -0.356 N 
ATOM     16  C   LIG d   1       7.299  -9.418  -5.231  0.00  0.00    -0.037 A 
ATOM     17  C   LIG d   1       7.727  -5.792  -5.022  0.00  0.00    -0.023 A 
ATOM     18  O   LIG d   1       8.711  -4.926  -4.699  0.00  0.00    -0.861 OA
ATOM     19  C   LIG d   1       6.323 -10.338  -5.547  0.00  0.00    -0.060 A 
ATOM     20  H   LIG d   1       8.283  -9.753  -4.938  0.00  0.00     0.064 H 
ATOM     21  C   LIG d   1       5.054  -9.923  -5.925  0.00  0.00    -0.061 A 
ATOM     22  H   LIG d   1       6.547 -11.393  -5.500  0.00  0.00     0.062 H 
ATOM     23  H   LIG d   1       4.299 -10.655  -6.170  0.00  0.00     0.062 H 
ATOM     24  H   LIG d   1       3.763  -8.260  -6.286  0.00  0.00     0.062 H 
BRANCH  15  25
ATOM     25  C   LIG d   1       9.314  -7.581  -4.581  0.00  0.00     0.011 C 
ATOM     26  H   LIG d   1       9.859  -6.758  -4.119  0.00  0.00     0.045 H 
ATOM     27  H   LIG d   1       9.220  -8.400  -3.868  0.00  0.00     0.045 H 
ATOM     28  H   LIG d   1       9.856  -7.927  -5.462  0.00  0.00     0.045 H 
ENDBRANCH  15  25
ENDBRANCH   1   9
BRANCH   5  29
ATOM     29  C   LIG d   1       4.987  -0.834  -3.969  0.00  0.00     0.052 A 
ATOM     30  C   LIG d   1       5.737   0.244  -3.512  0.00  0.00    -0.039 A 
ATOM     31  C   LIG d   1       5.154   1.194  -2.699  0.00  0.00    -0.060 A 
ATOM     32  H   LIG d   1       6.775   0.339  -3.798  0.00  0.00     0.064 H 
ATOM     33  C   LIG d   1       3.827   1.069  -2.328  0.00  0.00    -0.062 A 
ATOM     34  H   LIG d   1       5.735   2.034  -2.348  0.00  0.00     0.062 H 
ATOM     35  C   LIG d   1       3.079  -0.004  -2.775  0.00  0.00    -0.060 A 
ATOM     36  H   LIG d   1       3.375   1.813  -1.688  0.00  0.00     0.062 H 
ATOM     37  C   LIG d   1       3.653  -0.955  -3.594  0.00  0.00    -0.039 A 
ATOM     38  H   LIG d   1       2.043  -0.098  -2.483  0.00  0.00     0.062 H 
ATOM     39  H   LIG d   1       3.068  -1.793  -3.943  0.00  0.00     0.064 H 
ENDBRANCH   5  29
BRANCH   3  40
ATOM     40  C   LIG d   1       5.175  -0.971  -7.071  0.00  0.00     0.017 A 
ATOM     41  C   LIG d   1       5.325   0.316  -7.567  0.00  0.00     0.122 A 
ATOM     42  C   LIG d   1       4.392   0.826  -8.460  0.00  0.00    -0.020 A 
ATOM     43  C   LIG d   1       3.311   0.057  -8.842  0.00  0.00    -0.058 A 
ATOM     44  H   LIG d   1       4.510   1.826  -8.852  0.00  0.00     0.065 H 
ATOM     45  C   LIG d   1       3.160  -1.223  -8.340  0.00  0.00    -0.061 A 
ATOM     46  H   LIG d   1       2.584   0.454  -9.533  0.00  0.00     0.062 H 
ATOM     47  C   LIG d   1       4.090  -1.736  -7.455  0.00  0.00    -0.053 A 
ATOM     48  H   LIG d   1       2.315  -1.824  -8.641  0.00  0.00     0.062 H 
ATOM     49  H   LIG d   1       3.971  -2.737  -7.066  0.00  0.00     0.062 H 
BRANCH  41  50
ATOM     50  O   LIG d   1       6.387   1.073  -7.185  0.00  0.00    -0.506 OA
ATOM     51  H   LIG d   1       6.767   0.816  -6.334  0.00  0.00     0.292 HD
ENDBRANCH  41  50
ENDBRANCH   3  40
TORSDOF 5
ENDMDL
MODEL 6
REMARK VINA RESULT:      -7.0      5.841      7.852
REMARK  5 active torsions:
REMARK  status: ('A' for Active; 'I' for Inactive)
REMARK    1  A    between atoms: C_1  and  N_2 
REMARK    2  A    between atoms: C_11  and  C_12 
REMARK    3  A    between atoms: C_14  and  C_24 
REMARK    4  A    between atoms: N_16  and  C_18 
REMARK    5  A    between atoms: C_29  and  O_30 
ROOT
ATOM      1  C   LIG d   1       8.650   2.135  -4.105  0.00  0.00     0.073 A 
ATOM      2  C   LIG d   1       9.747   2.458  -3.116  0.00  0.00     0.017 A 
ATOM      3  C   LIG d   1      10.248   3.847  -3.556  0.00  0.00     0.080 A 
ATOM      4  H   LIG d   1      10.095   4.579  -2.762  0.00  0.00     0.058 H 
ATOM      5  N   LIG d   1       9.405   4.165  -4.721  0.00  0.00    -0.216 N 
ATOM      6  N   LIG d   1       8.529   3.106  -4.945  0.00  0.00    -0.183 NA
ATOM      7  H   LIG d   1       9.349   2.498  -2.103  0.00  0.00     0.035 H 
ATOM      8  H   LIG d   1      10.551   1.723  -3.183  0.00  0.00     0.035 H 
ENDROOT
BRANCH   1   9
ATOM      9  C   LIG d   1       7.849   0.900  -4.112  0.00  0.00     0.054 A 
ATOM     10  C   LIG d   1       6.631   0.834  -3.386  0.00  0.00     0.198 A 
ATOM     11  C   LIG d   1       5.870  -0.427  -3.428  0.00  0.00     0.046 A 
ATOM     12  O   LIG d   1       6.226   1.793  -2.747  0.00  0.00    -0.286 OA
ATOM     13  C   LIG d   1       6.378  -1.501  -4.178  0.00  0.00     0.052 A 
ATOM     14  C   LIG d   1       4.663  -0.563  -2.739  0.00  0.00    -0.049 A 
ATOM     15  N   LIG d   1       7.570  -1.363  -4.858  0.00  0.00    -0.356 N 
ATOM     16  C   LIG d   1       5.668  -2.697  -4.224  0.00  0.00    -0.037 A 
ATOM     17  C   LIG d   1       8.284  -0.211  -4.823  0.00  0.00    -0.023 A 
ATOM     18  O   LIG d   1       9.446  -0.139  -5.504  0.00  0.00    -0.861 OA
ATOM     19  C   LIG d   1       4.478  -2.817  -3.539  0.00  0.00    -0.060 A 
ATOM     20  H   LIG d   1       6.049  -3.529  -4.798  0.00  0.00     0.064 H 
ATOM     21  C   LIG d   1       3.977  -1.755  -2.799  0.00  0.00    -0.061 A 
ATOM     22  H   LIG d   1       3.930  -3.747  -3.579  0.00  0.00     0.062 H 
ATOM     23  H   LIG d   1       3.043  -1.864  -2.268  0.00  0.00     0.062 H 
ATOM     24  H   LIG d   1       4.270   0.262  -2.163  0.00  0.00     0.062 H 
BRANCH  15  25
ATOM     25  C   LIG d   1       8.083  -2.495  -5.633  0.00  0.00     0.011 C 
ATOM     26  H   LIG d   1       8.396  -2.148  -6.619  0.00  0.00     0.045 H 
ATOM     27  H   LIG d   1       8.935  -2.935  -5.115  0.00  0.00     0.045 H 
ATOM     28  H   LIG d   1       7.299  -3.244  -5.744  0.00  0.00     0.045 H 
ENDBRANCH  15  25
ENDBRANCH   1   9
BRANCH   5  29
ATOM     29  C   LIG d   1       9.476   5.334  -5.477  0.00  0.00     0.052 A 
ATOM     30  C   LIG d   1       9.798   5.271  -6.828  0.00  0.00    -0.039 A 
ATOM     31  C   LIG d   1       9.861   6.429  -7.577  0.00  0.00    -0.060 A 
ATOM     32  H   LIG d   1       9.993   4.315  -7.294  0.00  0.00     0.064 H 
ATOM     33  C   LIG d   1       9.616   7.653  -6.981  0.00  0.00    -0.062 A 
ATOM     34  H   LIG d   1      10.106   6.380  -8.628  0.00  0.00     0.062 H 
ATOM     35  C   LIG d   1       9.302   7.721  -5.636  0.00  0.00    -0.060 A 
ATOM     36  H   LIG d   1       9.670   8.559  -7.568  0.00  0.00     0.062 H 
ATOM     37  C   LIG d   1       9.230   6.566  -4.883  0.00  0.00    -0.039 A 
ATOM     38  H   LIG d   1       9.111   8.679  -5.174  0.00  0.00     0.062 H 
ATOM     39  H   LIG d   1       8.984   6.619  -3.832  0.00  0.00     0.064 H 
ENDBRANCH   5  29
BRANCH   3  40
ATOM     40  C   LIG d   1      11.701   3.788  -3.950  0.00  0.00     0.017 A 
ATOM     41  C   LIG d   1      12.577   4.774  -3.521  0.00  0.00     0.122 A 
ATOM     42  C   LIG d   1      13.916   4.713  -3.882  0.00  0.00    -0.020 A 
ATOM     43  C   LIG d   1      14.371   3.678  -4.674  0.00  0.00    -0.058 A 
ATOM     44  H   LIG d   1      14.601   5.477  -3.545  0.00  0.00     0.065 H 
ATOM     45  C   LIG d   1      13.493   2.700  -5.106  0.00  0.00    -0.061 A 
ATOM     46  H   LIG d   1      15.411   3.632  -4.958  0.00  0.00     0.062 H 
ATOM     47  C   LIG d   1      12.160   2.755  -4.745  0.00  0.00    -0.053 A 
ATOM     48  H   LIG d   1      13.850   1.890  -5.725  0.00  0.00     0.062 H 
ATOM     49  H   LIG d   1      11.477   1.989  -5.082  0.00  0.00     0.062 H 
BRANCH  41  50
ATOM     50  O   LIG d   1      12.127   5.795  -2.746  0.00  0.00    -0.506 OA
ATOM     51  H   LIG d   1      12.757   6.086  -2.073  0.00  0.00     0.292 HD
ENDBRANCH  41  50
ENDBRANCH   3  40
TORSDOF 5
ENDMDL
MODEL 7
REMARK VINA RESULT:      -7.0      4.355      6.854
REMARK  5 active torsions:
REMARK  status: ('A' for Active; 'I' for Inactive)
REMARK    1  A    between atoms: C_1  and  N_2 
REMARK    2  A    between atoms: C_11  and  C_12 
REMARK    3  A    between atoms: C_14  and  C_24 
REMARK    4  A    between atoms: N_16  and  C_18 
REMARK    5  A    between atoms: C_29  and  O_30 
ROOT
ATOM      1  C   LIG d   1       7.862   0.918  -5.666  0.00  0.00     0.073 A 
ATOM      2  C   LIG d   1       7.904  -0.369  -4.875  0.00  0.00     0.017 A 
ATOM      3  C   LIG d   1       6.685  -1.161  -5.388  0.00  0.00     0.080 A 
ATOM      4  H   LIG d   1       7.002  -2.097  -5.848  0.00  0.00     0.058 H 
ATOM      5  N   LIG d   1       6.089  -0.265  -6.392  0.00  0.00    -0.216 N 
ATOM      6  N   LIG d   1       6.848   0.901  -6.462  0.00  0.00    -0.183 NA
ATOM      7  H   LIG d   1       8.826  -0.913  -5.079  0.00  0.00     0.035 H 
ATOM      8  H   LIG d   1       7.807  -0.166  -3.809  0.00  0.00     0.035 H 
ENDROOT
BRANCH   1   9
ATOM      9  C   LIG d   1       8.826   2.024  -5.542  0.00  0.00     0.054 A 
ATOM     10  C   LIG d   1       8.867   2.807  -4.359  0.00  0.00     0.198 A 
ATOM     11  C   LIG d   1       9.851   3.901  -4.290  0.00  0.00     0.046 A 
ATOM     12  O   LIG d   1       8.110   2.580  -3.428  0.00  0.00    -0.286 OA
ATOM     13  C   LIG d   1      10.700   4.121  -5.388  0.00  0.00     0.052 A 
ATOM     14  C   LIG d   1       9.949   4.711  -3.157  0.00  0.00    -0.049 A 
ATOM     15  N   LIG d   1      10.601   3.318  -6.505  0.00  0.00    -0.356 N 
ATOM     16  C   LIG d   1      11.633   5.152  -5.333  0.00  0.00    -0.037 A 
ATOM     17  C   LIG d   1       9.696   2.313  -6.585  0.00  0.00    -0.023 A 
ATOM     18  O   LIG d   1       9.644   1.565  -7.708  0.00  0.00    -0.861 OA
ATOM     19  C   LIG d   1      11.718   5.944  -4.209  0.00  0.00    -0.060 A 
ATOM     20  H   LIG d   1      12.291   5.330  -6.171  0.00  0.00     0.064 H 
ATOM     21  C   LIG d   1      10.880   5.725  -3.124  0.00  0.00    -0.061 A 
ATOM     22  H   LIG d   1      12.444   6.742  -4.171  0.00  0.00     0.062 H 
ATOM     23  H   LIG d   1      10.958   6.354  -2.249  0.00  0.00     0.062 H 
ATOM     24  H   LIG d   1       9.298   4.543  -2.311  0.00  0.00     0.062 H 
BRANCH  15  25
ATOM     25  C   LIG d   1      11.495   3.565  -7.640  0.00  0.00     0.011 C 
ATOM     26  H   LIG d   1      10.977   3.327  -8.569  0.00  0.00     0.045 H 
ATOM     27  H   LIG d   1      11.792   4.613  -7.648  0.00  0.00     0.045 H 
ATOM     28  H   LIG d   1      12.381   2.937  -7.546  0.00  0.00     0.045 H 
ENDBRANCH  15  25
ENDBRANCH   1   9
BRANCH   5  29
ATOM     29  C   LIG d   1       4.950  -0.539  -7.148  0.00  0.00     0.052 A 
ATOM     30  C   LIG d   1       3.770   0.154  -6.905  0.00  0.00    -0.039 A 
ATOM     31  C   LIG d   1       2.645  -0.114  -7.658  0.00  0.00    -0.060 A 
ATOM     32  H   LIG d   1       3.735   0.907  -6.130  0.00  0.00     0.064 H 
ATOM     33  C   LIG d   1       2.688  -1.081  -8.646  0.00  0.00    -0.062 A 
ATOM     34  H   LIG d   1       1.729   0.428  -7.473  0.00  0.00     0.062 H 
ATOM     35  C   LIG d   1       3.857  -1.778  -8.887  0.00  0.00    -0.060 A 
ATOM     36  H   LIG d   1       1.804  -1.292  -9.232  0.00  0.00     0.062 H 
ATOM     37  C   LIG d   1       4.988  -1.510  -8.142  0.00  0.00    -0.039 A 
ATOM     38  H   LIG d   1       3.886  -2.532  -9.660  0.00  0.00     0.062 H 
ATOM     39  H   LIG d   1       5.902  -2.054  -8.331  0.00  0.00     0.064 H 
ENDBRANCH   5  29
BRANCH   3  40
ATOM     40  C   LIG d   1       5.715  -1.425  -4.266  0.00  0.00     0.017 A 
ATOM     41  C   LIG d   1       5.006  -2.617  -4.226  0.00  0.00     0.122 A 
ATOM     42  C   LIG d   1       4.117  -2.859  -3.188  0.00  0.00    -0.020 A 
ATOM     43  C   LIG d   1       3.931  -1.908  -2.205  0.00  0.00    -0.058 A 
ATOM     44  H   LIG d   1       3.569  -3.789  -3.153  0.00  0.00     0.065 H 
ATOM     45  C   LIG d   1       4.633  -0.717  -2.250  0.00  0.00    -0.061 A 
ATOM     46  H   LIG d   1       3.236  -2.094  -1.399  0.00  0.00     0.062 H 
ATOM     47  C   LIG d   1       5.523  -0.476  -3.280  0.00  0.00    -0.053 A 
ATOM     48  H   LIG d   1       4.487   0.025  -1.480  0.00  0.00     0.062 H 
ATOM     49  H   LIG d   1       6.071   0.455  -3.312  0.00  0.00     0.062 H 
BRANCH  41  50
ATOM     50  O   LIG d   1       5.188  -3.549  -5.198  0.00  0.00    -0.506 OA
ATOM     51  H   LIG d   1       5.799  -3.275  -5.896  0.00  0.00     0.292 HD
ENDBRANCH  41  50
ENDBRANCH   3  40
TORSDOF 5
ENDMDL
MODEL 8
REMARK VINA RESULT:      -6.7      4.399      7.092
REMARK  5 active torsions:
REMARK  status: ('A' for Active; 'I' for Inactive)
REMARK    1  A    between atoms: C_1  and  N_2 
REMARK    2  A    between atoms: C_11  and  C_12 
REMARK    3  A    between atoms: C_14  and  C_24 
REMARK    4  A    between atoms: N_16  and  C_18 
REMARK    5  A    between atoms: C_29  and  O_30 
ROOT
ATOM      1  C   LIG d   1       7.775   1.031  -5.792  0.00  0.00     0.073 A 
ATOM      2  C   LIG d   1       7.861  -0.244  -4.986  0.00  0.00     0.017 A 
ATOM      3  C   LIG d   1       6.656  -1.074  -5.473  0.00  0.00     0.080 A 
ATOM      4  H   LIG d   1       6.991  -2.007  -5.926  0.00  0.00     0.058 H 
ATOM      5  N   LIG d   1       6.025  -0.206  -6.481  0.00  0.00    -0.216 N 
ATOM      6  N   LIG d   1       6.752   0.978  -6.575  0.00  0.00    -0.183 NA
ATOM      7  H   LIG d   1       8.794  -0.767  -5.195  0.00  0.00     0.035 H 
ATOM      8  H   LIG d   1       7.772  -0.030  -3.921  0.00  0.00     0.035 H 
ENDROOT
BRANCH   1   9
ATOM      9  C   LIG d   1       8.712   2.163  -5.695  0.00  0.00     0.054 A 
ATOM     10  C   LIG d   1       9.452   2.579  -6.833  0.00  0.00     0.198 A 
ATOM     11  C   LIG d   1      10.375   3.716  -6.677  0.00  0.00     0.046 A 
ATOM     12  O   LIG d   1       9.327   2.012  -7.906  0.00  0.00    -0.286 OA
ATOM     13  C   LIG d   1      10.483   4.336  -5.420  0.00  0.00     0.052 A 
ATOM     14  C   LIG d   1      11.133   4.181  -7.753  0.00  0.00    -0.049 A 
ATOM     15  N   LIG d   1       9.732   3.875  -4.359  0.00  0.00    -0.356 N 
ATOM     16  C   LIG d   1      11.352   5.411  -5.262  0.00  0.00    -0.037 A 
ATOM     17  C   LIG d   1       8.883   2.826  -4.486  0.00  0.00    -0.023 A 
ATOM     18  O   LIG d   1       8.179   2.417  -3.410  0.00  0.00    -0.861 OA
ATOM     19  C   LIG d   1      12.095   5.859  -6.333  0.00  0.00    -0.060 A 
ATOM     20  H   LIG d   1      11.443   5.895  -4.301  0.00  0.00     0.064 H 
ATOM     21  C   LIG d   1      11.987   5.247  -7.574  0.00  0.00    -0.061 A 
ATOM     22  H   LIG d   1      12.768   6.693  -6.205  0.00  0.00     0.062 H 
ATOM     23  H   LIG d   1      12.575   5.608  -8.405  0.00  0.00     0.062 H 
ATOM     24  H   LIG d   1      11.051   3.707  -8.720  0.00  0.00     0.062 H 
BRANCH  15  25
ATOM     25  C   LIG d   1       9.859   4.535  -3.057  0.00  0.00     0.011 C 
ATOM     26  H   LIG d   1      10.523   3.951  -2.418  0.00  0.00     0.045 H 
ATOM     27  H   LIG d   1      10.273   5.534  -3.195  0.00  0.00     0.045 H 
ATOM     28  H   LIG d   1       8.877   4.608  -2.590  0.00  0.00     0.045 H 
ENDBRANCH  15  25
ENDBRANCH   1   9
BRANCH   5  29
ATOM     29  C   LIG d   1       4.883  -0.518  -7.218  0.00  0.00     0.052 A 
ATOM     30  C   LIG d   1       3.718   0.220  -7.044  0.00  0.00    -0.039 A 
ATOM     31  C   LIG d   1       2.591  -0.088  -7.780  0.00  0.00    -0.060 A 
ATOM     32  H   LIG d   1       3.697   1.037  -6.338  0.00  0.00     0.064 H 
ATOM     33  C   LIG d   1       2.617  -1.137  -8.680  0.00  0.00    -0.062 A 
ATOM     34  H   LIG d   1       1.688   0.489  -7.650  0.00  0.00     0.062 H 
ATOM     35  C   LIG d   1       3.772  -1.879  -8.851  0.00  0.00    -0.060 A 
ATOM     36  H   LIG d   1       1.732  -1.379  -9.251  0.00  0.00     0.062 H 
ATOM     37  C   LIG d   1       4.905  -1.573  -8.124  0.00  0.00    -0.039 A 
ATOM     38  H   LIG d   1       3.787  -2.698  -9.555  0.00  0.00     0.062 H 
ATOM     39  H   LIG d   1       5.807  -2.152  -8.258  0.00  0.00     0.064 H 
ENDBRANCH   5  29
BRANCH   3  40
ATOM     40  C   LIG d   1       5.707  -1.348  -4.335  0.00  0.00     0.017 A 
ATOM     41  C   LIG d   1       5.056  -2.570  -4.253  0.00  0.00     0.122 A 
ATOM     42  C   LIG d   1       4.186  -2.821  -3.202  0.00  0.00    -0.020 A 
ATOM     43  C   LIG d   1       3.963  -1.851  -2.245  0.00  0.00    -0.058 A 
ATOM     44  H   LIG d   1       3.683  -3.775  -3.133  0.00  0.00     0.065 H 
ATOM     45  C   LIG d   1       4.608  -0.631  -2.333  0.00  0.00    -0.061 A 
ATOM     46  H   LIG d   1       3.284  -2.044  -1.429  0.00  0.00     0.062 H 
ATOM     47  C   LIG d   1       5.478  -0.379  -3.377  0.00  0.00    -0.053 A 
ATOM     48  H   LIG d   1       4.432   0.127  -1.584  0.00  0.00     0.062 H 
ATOM     49  H   LIG d   1       5.982   0.574  -3.442  0.00  0.00     0.062 H 
BRANCH  41  50
ATOM     50  O   LIG d   1       5.274  -3.522  -5.199  0.00  0.00    -0.506 OA
ATOM     51  H   LIG d   1       4.595  -4.210  -5.229  0.00  0.00     0.292 HD
ENDBRANCH  41  50
ENDBRANCH   3  40
TORSDOF 5
ENDMDL
MODEL 9
REMARK VINA RESULT:      -6.5      5.644      8.183
REMARK  5 active torsions:
REMARK  status: ('A' for Active; 'I' for Inactive)
REMARK    1  A    between atoms: C_1  and  N_2 
REMARK    2  A    between atoms: C_11  and  C_12 
REMARK    3  A    between atoms: C_14  and  C_24 
REMARK    4  A    between atoms: N_16  and  C_18 
REMARK    5  A    between atoms: C_29  and  O_30 
ROOT
ATOM      1  C   LIG d   1       9.292   2.211  -4.253  0.00  0.00     0.073 A 
ATOM      2  C   LIG d   1       8.739   2.065  -5.652  0.00  0.00     0.017 A 
ATOM      3  C   LIG d   1       7.397   1.336  -5.447  0.00  0.00     0.080 A 
ATOM      4  H   LIG d   1       6.568   1.954  -5.794  0.00  0.00     0.058 H 
ATOM      5  N   LIG d   1       7.325   1.148  -3.989  0.00  0.00    -0.216 N 
ATOM      6  N   LIG d   1       8.472   1.685  -3.409  0.00  0.00    -0.183 NA
ATOM      7  H   LIG d   1       8.578   3.044  -6.103  0.00  0.00     0.035 H 
ATOM      8  H   LIG d   1       9.410   1.465  -6.267  0.00  0.00     0.035 H 
ENDROOT
BRANCH   1   9
ATOM      9  C   LIG d   1      10.573   2.849  -3.908  0.00  0.00     0.054 A 
ATOM     10  C   LIG d   1      10.616   4.224  -3.557  0.00  0.00     0.198 A 
ATOM     11  C   LIG d   1      11.925   4.811  -3.222  0.00  0.00     0.046 A 
ATOM     12  O   LIG d   1       9.599   4.899  -3.535  0.00  0.00    -0.286 OA
ATOM     13  C   LIG d   1      13.065   3.991  -3.262  0.00  0.00     0.052 A 
ATOM     14  C   LIG d   1      12.042   6.156  -2.866  0.00  0.00    -0.049 A 
ATOM     15  N   LIG d   1      12.947   2.662  -3.613  0.00  0.00    -0.356 N 
ATOM     16  C   LIG d   1      14.307   4.535  -2.947  0.00  0.00    -0.037 A 
ATOM     17  C   LIG d   1      11.750   2.112  -3.930  0.00  0.00    -0.023 A 
ATOM     18  O   LIG d   1      11.698   0.807  -4.270  0.00  0.00    -0.861 OA
ATOM     19  C   LIG d   1      14.408   5.864  -2.599  0.00  0.00    -0.060 A 
ATOM     20  H   LIG d   1      15.191   3.915  -2.975  0.00  0.00     0.064 H 
ATOM     21  C   LIG d   1      13.281   6.673  -2.558  0.00  0.00    -0.061 A 
ATOM     22  H   LIG d   1      15.374   6.281  -2.355  0.00  0.00     0.062 H 
ATOM     23  H   LIG d   1      13.374   7.713  -2.283  0.00  0.00     0.062 H 
ATOM     24  H   LIG d   1      11.166   6.787  -2.834  0.00  0.00     0.062 H 
BRANCH  15  25
ATOM     25  C   LIG d   1      14.149   1.825  -3.649  0.00  0.00     0.011 C 
ATOM     26  H   LIG d   1      13.912   0.870  -4.118  0.00  0.00     0.045 H 
ATOM     27  H   LIG d   1      14.925   2.329  -4.224  0.00  0.00     0.045 H 
ATOM     28  H   LIG d   1      14.502   1.654  -2.633  0.00  0.00     0.045 H 
ENDBRANCH  15  25
ENDBRANCH   1   9
BRANCH   5  29
ATOM     29  C   LIG d   1       6.282   0.529  -3.302  0.00  0.00     0.052 A 
ATOM     30  C   LIG d   1       5.287   1.296  -2.707  0.00  0.00    -0.039 A 
ATOM     31  C   LIG d   1       4.252   0.680  -2.032  0.00  0.00    -0.060 A 
ATOM     32  H   LIG d   1       5.322   2.374  -2.776  0.00  0.00     0.064 H 
ATOM     33  C   LIG d   1       4.210  -0.699  -1.939  0.00  0.00    -0.062 A 
ATOM     34  H   LIG d   1       3.476   1.275  -1.574  0.00  0.00     0.062 H 
ATOM     35  C   LIG d   1       5.201  -1.466  -2.524  0.00  0.00    -0.060 A 
ATOM     36  H   LIG d   1       3.401  -1.179  -1.407  0.00  0.00     0.062 H 
ATOM     37  C   LIG d   1       6.236  -0.857  -3.206  0.00  0.00    -0.039 A 
ATOM     38  H   LIG d   1       5.164  -2.544  -2.449  0.00  0.00     0.062 H 
ATOM     39  H   LIG d   1       7.009  -1.457  -3.663  0.00  0.00     0.064 H 
ENDBRANCH   5  29
BRANCH   3  40
ATOM     40  C   LIG d   1       7.401   0.008  -6.157  0.00  0.00     0.017 A 
ATOM     41  C   LIG d   1       6.277  -0.409  -6.857  0.00  0.00     0.122 A 
ATOM     42  C   LIG d   1       6.286  -1.631  -7.514  0.00  0.00    -0.020 A 
ATOM     43  C   LIG d   1       7.408  -2.434  -7.461  0.00  0.00    -0.058 A 
ATOM     44  H   LIG d   1       5.414  -1.956  -8.063  0.00  0.00     0.065 H 
ATOM     45  C   LIG d   1       8.524  -2.019  -6.758  0.00  0.00    -0.061 A 
ATOM     46  H   LIG d   1       7.414  -3.387  -7.969  0.00  0.00     0.062 H 
ATOM     47  C   LIG d   1       8.520  -0.801  -6.106  0.00  0.00    -0.053 A 
ATOM     48  H   LIG d   1       9.401  -2.648  -6.719  0.00  0.00     0.062 H 
ATOM     49  H   LIG d   1       9.394  -0.478  -5.559  0.00  0.00     0.062 H 
BRANCH  41  50
ATOM     50  O   LIG d   1       5.172   0.381  -6.902  0.00  0.00    -0.506 OA
ATOM     51  H   LIG d   1       4.991   0.754  -7.776  0.00  0.00     0.292 HD
ENDBRANCH  41  50
ENDBRANCH   3  40
TORSDOF 5
ENDMDL
