MODEL 1
REMARK VINA RESULT:      -5.4      0.000      0.000
REMARK  7 active torsions:
REMARK  status: ('A' for Active; 'I' for Inactive)
REMARK    1  A    between atoms: C_1  and  C_2 
REMARK    2  A    between atoms: C_2  and  C_21 
REMARK    3  A    between atoms: C_7  and  C_8 
REMARK    4  A    between atoms: C_11  and  O_16 
REMARK    5  A    between atoms: C_12  and  O_14 
REMARK    6  A    between atoms: O_14  and  C_15 
REMARK    7  A    between atoms: O_16  and  C_17 
ROOT
ATOM      1  C   LIG d   1       4.514  -1.379  -7.932  0.00  0.00    -0.020 A 
ATOM      2  C   LIG d   1       3.472  -1.712  -8.812  0.00  0.00    -0.051 A 
ATOM      3  C   LIG d   1       3.332  -1.032 -10.000  0.00  0.00    -0.016 A 
ATOM      4  C   LIG d   1       4.220  -0.016 -10.332  0.00  0.00     0.162 A 
ATOM      5  C   LIG d   1       5.259   0.321  -9.464  0.00  0.00     0.162 A 
ATOM      6  C   LIG d   1       5.406  -0.349  -8.268  0.00  0.00    -0.009 A 
ATOM      7  H   LIG d   1       2.781  -2.501  -8.556  0.00  0.00     0.062 H 
ATOM      8  H   LIG d   1       2.529  -1.290 -10.676  0.00  0.00     0.066 H 
ATOM      9  H   LIG d   1       6.207  -0.087  -7.594  0.00  0.00     0.066 H 
ENDROOT
BRANCH   1  10
ATOM     10  C   LIG d   1       4.666  -2.099  -6.668  0.00  0.00    -0.034 C 
ATOM     11  C   LIG d   1       4.310  -1.490  -5.480  0.00  0.00     0.143 C 
ATOM     12  C   LIG d   1       4.593  -2.088  -4.147  0.00  0.00     0.349 C 
ATOM     13  C   LIG d   1       3.609  -0.179  -5.421  0.00  0.00     0.349 C 
ATOM     14  O   LIG d   1       4.869  -1.190  -3.161  0.00  0.00    -0.419 OA
ATOM     15  O   LIG d   1       4.578  -3.289  -3.953  0.00  0.00    -0.245 OA
ATOM     16  C   LIG d   1       3.989  -0.063  -3.091  0.00  0.00     0.255 C 
ATOM     17  O   LIG d   1       3.945   0.604  -4.357  0.00  0.00    -0.419 OA
ATOM     18  O   LIG d   1       2.797   0.167  -6.257  0.00  0.00    -0.245 OA
ATOM     19  H   LIG d   1       5.057  -3.105  -6.664  0.00  0.00     0.063 H 
BRANCH  16  20
ATOM     20  C   LIG d   1       2.583  -0.540  -2.719  0.00  0.00     0.013 C 
ATOM     21  H   LIG d   1       2.197   0.072  -1.903  0.00  0.00     0.030 H 
ATOM     22  H   LIG d   1       1.927  -0.448  -3.585  0.00  0.00     0.030 H 
ATOM     23  H   LIG d   1       2.625  -1.582  -2.403  0.00  0.00     0.030 H 
ENDBRANCH  16  20
BRANCH  16  24
ATOM     24  C   LIG d   1       4.494   0.908  -2.022  0.00  0.00     0.013 C 
ATOM     25  H   LIG d   1       4.524   0.403  -1.058  0.00  0.00     0.030 H 
ATOM     26  H   LIG d   1       5.496   1.249  -2.286  0.00  0.00     0.030 H 
ATOM     27  H   LIG d   1       3.823   1.765  -1.964  0.00  0.00     0.030 H 
ENDBRANCH  16  24
ENDBRANCH   1  10
BRANCH   5  28
ATOM     28  O   LIG d   1       6.125   1.317  -9.796  0.00  0.00    -0.491 OA
BRANCH  28  29
ATOM     29  C   LIG d   1       7.031   1.753  -8.780  0.00  0.00     0.079 C 
ATOM     30  H   LIG d   1       7.475   2.704  -9.074  0.00  0.00     0.066 H 
ATOM     31  H   LIG d   1       6.490   1.881  -7.842  0.00  0.00     0.066 H 
ATOM     32  H   LIG d   1       7.816   1.009  -8.649  0.00  0.00     0.066 H 
ENDBRANCH  28  29
ENDBRANCH   5  28
BRANCH   4  33
ATOM     33  O   LIG d   1       4.075   0.650 -11.506  0.00  0.00    -0.491 OA
BRANCH  33  34
ATOM     34  C   LIG d   1       4.242  -0.106 -12.706  0.00  0.00     0.079 C 
ATOM     35  H   LIG d   1       4.463   0.569 -13.534  0.00  0.00     0.066 H 
ATOM     36  H   LIG d   1       5.067  -0.808 -12.582  0.00  0.00     0.066 H 
ATOM     37  H   LIG d   1       3.326  -0.656 -12.920  0.00  0.00     0.066 H 
ENDBRANCH  33  34
ENDBRANCH   4  33
TORSDOF 7
ENDMDL
MODEL 2
REMARK VINA RESULT:      -5.4      3.422      6.342
REMARK  7 active torsions:
REMARK  status: ('A' for Active; 'I' for Inactive)
REMARK    1  A    between atoms: C_1  and  C_2 
REMARK    2  A    between atoms: C_2  and  C_21 
REMARK    3  A    between atoms: C_7  and  C_8 
REMARK    4  A    between atoms: C_11  and  O_16 
REMARK    5  A    between atoms: C_12  and  O_14 
REMARK    6  A    between atoms: O_14  and  C_15 
REMARK    7  A    between atoms: O_16  and  C_17 
ROOT
ATOM      1  C   LIG d   1       5.569  -2.683  -4.774  0.00  0.00    -0.020 A 
ATOM      2  C   LIG d   1       5.033  -2.719  -3.478  0.00  0.00    -0.051 A 
ATOM      3  C   LIG d   1       4.152  -1.744  -3.072  0.00  0.00    -0.016 A 
ATOM      4  C   LIG d   1       3.790  -0.722  -3.943  0.00  0.00     0.162 A 
ATOM      5  C   LIG d   1       4.317  -0.680  -5.234  0.00  0.00     0.162 A 
ATOM      6  C   LIG d   1       5.207  -1.648  -5.650  0.00  0.00    -0.009 A 
ATOM      7  H   LIG d   1       5.313  -3.511  -2.800  0.00  0.00     0.062 H 
ATOM      8  H   LIG d   1       3.740  -1.772  -2.074  0.00  0.00     0.066 H 
ATOM      9  H   LIG d   1       5.618  -1.614  -6.647  0.00  0.00     0.066 H 
ENDROOT
BRANCH   1  10
ATOM     10  C   LIG d   1       6.507  -3.718  -5.210  0.00  0.00    -0.034 C 
ATOM     11  C   LIG d   1       6.048  -4.988  -5.498  0.00  0.00     0.143 C 
ATOM     12  C   LIG d   1       6.957  -6.133  -5.781  0.00  0.00     0.349 C 
ATOM     13  C   LIG d   1       4.602  -5.334  -5.553  0.00  0.00     0.349 C 
ATOM     14  O   LIG d   1       6.509  -7.343  -5.347  0.00  0.00    -0.419 OA
ATOM     15  O   LIG d   1       8.020  -5.997  -6.356  0.00  0.00    -0.245 OA
ATOM     16  C   LIG d   1       5.138  -7.634  -5.641  0.00  0.00     0.255 C 
ATOM     17  O   LIG d   1       4.296  -6.593  -5.133  0.00  0.00    -0.419 OA
ATOM     18  O   LIG d   1       3.757  -4.552  -5.945  0.00  0.00    -0.245 OA
ATOM     19  H   LIG d   1       7.558  -3.488  -5.307  0.00  0.00     0.063 H 
BRANCH  16  20
ATOM     20  C   LIG d   1       4.956  -7.739  -7.157  0.00  0.00     0.013 C 
ATOM     21  H   LIG d   1       5.364  -8.688  -7.507  0.00  0.00     0.030 H 
ATOM     22  H   LIG d   1       3.895  -7.687  -7.401  0.00  0.00     0.030 H 
ATOM     23  H   LIG d   1       5.482  -6.917  -7.644  0.00  0.00     0.030 H 
ENDBRANCH  16  20
BRANCH  16  24
ATOM     24  C   LIG d   1       4.751  -8.964  -4.991  0.00  0.00     0.013 C 
ATOM     25  H   LIG d   1       5.638  -9.588  -4.886  0.00  0.00     0.030 H 
ATOM     26  H   LIG d   1       4.320  -8.775  -4.008  0.00  0.00     0.030 H 
ATOM     27  H   LIG d   1       4.018  -9.474  -5.617  0.00  0.00     0.030 H 
ENDBRANCH  16  24
ENDBRANCH   1  10
BRANCH   5  28
ATOM     28  O   LIG d   1       3.959   0.323  -6.081  0.00  0.00    -0.491 OA
BRANCH  28  29
ATOM     29  C   LIG d   1       3.026  -0.004  -7.114  0.00  0.00     0.079 C 
ATOM     30  H   LIG d   1       3.519   0.069  -8.084  0.00  0.00     0.066 H 
ATOM     31  H   LIG d   1       2.664  -1.021  -6.967  0.00  0.00     0.066 H 
ATOM     32  H   LIG d   1       2.187   0.690  -7.079  0.00  0.00     0.066 H 
ENDBRANCH  28  29
ENDBRANCH   5  28
BRANCH   4  33
ATOM     33  O   LIG d   1       2.920   0.236  -3.535  0.00  0.00    -0.491 OA
BRANCH  33  34
ATOM     34  C   LIG d   1       3.415   1.218  -2.623  0.00  0.00     0.079 C 
ATOM     35  H   LIG d   1       2.771   2.097  -2.649  0.00  0.00     0.066 H 
ATOM     36  H   LIG d   1       3.424   0.805  -1.614  0.00  0.00     0.066 H 
ATOM     37  H   LIG d   1       4.428   1.501  -2.909  0.00  0.00     0.066 H 
ENDBRANCH  33  34
ENDBRANCH   4  33
TORSDOF 7
ENDMDL
MODEL 3
REMARK VINA RESULT:      -5.4      1.976      3.454
REMARK  7 active torsions:
REMARK  status: ('A' for Active; 'I' for Inactive)
REMARK    1  A    between atoms: C_1  and  C_2 
REMARK    2  A    between atoms: C_2  and  C_21 
REMARK    3  A    between atoms: C_7  and  C_8 
REMARK    4  A    between atoms: C_11  and  O_16 
REMARK    5  A    between atoms: C_12  and  O_14 
REMARK    6  A    between atoms: O_14  and  C_15 
REMARK    7  A    between atoms: O_16  and  C_17 
ROOT
ATOM      1  C   LIG d   1       2.747   0.368  -8.721  0.00  0.00    -0.020 A 
ATOM      2  C   LIG d   1       3.570   1.071  -9.615  0.00  0.00    -0.051 A 
ATOM      3  C   LIG d   1       3.680   0.652 -10.921  0.00  0.00    -0.016 A 
ATOM      4  C   LIG d   1       2.978  -0.465 -11.359  0.00  0.00     0.162 A 
ATOM      5  C   LIG d   1       2.156  -1.168 -10.478  0.00  0.00     0.162 A 
ATOM      6  C   LIG d   1       2.043  -0.762  -9.164  0.00  0.00    -0.009 A 
ATOM      7  H   LIG d   1       4.116   1.939  -9.277  0.00  0.00     0.062 H 
ATOM      8  H   LIG d   1       4.315   1.194 -11.608  0.00  0.00     0.066 H 
ATOM      9  H   LIG d   1       1.410  -1.308  -8.481  0.00  0.00     0.066 H 
ENDROOT
BRANCH   1  10
ATOM     10  C   LIG d   1       2.626   0.809  -7.332  0.00  0.00    -0.034 C 
ATOM     11  C   LIG d   1       3.330   0.157  -6.338  0.00  0.00     0.143 C 
ATOM     12  C   LIG d   1       3.131   0.434  -4.889  0.00  0.00     0.349 C 
ATOM     13  C   LIG d   1       4.355  -0.884  -6.621  0.00  0.00     0.349 C 
ATOM     14  O   LIG d   1       3.277  -0.645  -4.072  0.00  0.00    -0.419 OA
ATOM     15  O   LIG d   1       2.857   1.542  -4.468  0.00  0.00    -0.245 OA
ATOM     16  C   LIG d   1       4.425  -1.461  -4.330  0.00  0.00     0.255 C 
ATOM     17  O   LIG d   1       4.428  -1.884  -5.698  0.00  0.00    -0.419 OA
ATOM     18  O   LIG d   1       5.074  -0.845  -7.600  0.00  0.00    -0.245 OA
ATOM     19  H   LIG d   1       1.988   1.643  -7.083  0.00  0.00     0.063 H 
BRANCH  16  20
ATOM     20  C   LIG d   1       5.695  -0.657  -4.045  0.00  0.00     0.013 C 
ATOM     21  H   LIG d   1       5.444   0.402  -3.973  0.00  0.00     0.030 H 
ATOM     22  H   LIG d   1       6.133  -0.991  -3.105  0.00  0.00     0.030 H 
ATOM     23  H   LIG d   1       6.409  -0.807  -4.854  0.00  0.00     0.030 H 
ENDBRANCH  16  20
BRANCH  16  24
ATOM     24  C   LIG d   1       4.388  -2.690  -3.419  0.00  0.00     0.013 C 
ATOM     25  H   LIG d   1       3.962  -3.533  -3.963  0.00  0.00     0.030 H 
ATOM     26  H   LIG d   1       5.401  -2.936  -3.101  0.00  0.00     0.030 H 
ATOM     27  H   LIG d   1       3.775  -2.474  -2.543  0.00  0.00     0.030 H 
ENDBRANCH  16  24
ENDBRANCH   1  10
BRANCH   5  28
ATOM     28  O   LIG d   1       1.471  -2.260 -10.913  0.00  0.00    -0.491 OA
BRANCH  28  29
ATOM     29  C   LIG d   1       1.848  -3.524 -10.361  0.00  0.00     0.079 C 
ATOM     30  H   LIG d   1       2.540  -4.024 -11.038  0.00  0.00     0.066 H 
ATOM     31  H   LIG d   1       2.334  -3.368  -9.397  0.00  0.00     0.066 H 
ATOM     32  H   LIG d   1       0.961  -4.141 -10.226  0.00  0.00     0.066 H 
ENDBRANCH  28  29
ENDBRANCH   5  28
BRANCH   4  33
ATOM     33  O   LIG d   1       3.092  -0.871 -12.649  0.00  0.00    -0.491 OA
BRANCH  33  34
ATOM     34  C   LIG d   1       4.315  -0.565 -13.320  0.00  0.00     0.079 C 
ATOM     35  H   LIG d   1       4.677  -1.452 -13.841  0.00  0.00     0.066 H 
ATOM     36  H   LIG d   1       4.144   0.234 -14.043  0.00  0.00     0.066 H 
ATOM     37  H   LIG d   1       5.059  -0.242 -12.592  0.00  0.00     0.066 H 
ENDBRANCH  33  34
ENDBRANCH   4  33
TORSDOF 7
ENDMDL
MODEL 4
REMARK VINA RESULT:      -5.3      2.922      4.559
REMARK  7 active torsions:
REMARK  status: ('A' for Active; 'I' for Inactive)
REMARK    1  A    between atoms: C_1  and  C_2 
REMARK    2  A    between atoms: C_2  and  C_21 
REMARK    3  A    between atoms: C_7  and  C_8 
REMARK    4  A    between atoms: C_11  and  O_16 
REMARK    5  A    between atoms: C_12  and  O_14 
REMARK    6  A    between atoms: O_14  and  C_15 
REMARK    7  A    between atoms: O_16  and  C_17 
ROOT
ATOM      1  C   LIG d   1       5.608  -3.293  -5.892  0.00  0.00    -0.020 A 
ATOM      2  C   LIG d   1       5.733  -4.585  -5.359  0.00  0.00    -0.051 A 
ATOM      3  C   LIG d   1       5.039  -5.630  -5.923  0.00  0.00    -0.016 A 
ATOM      4  C   LIG d   1       4.214  -5.411  -7.020  0.00  0.00     0.162 A 
ATOM      5  C   LIG d   1       4.086  -4.130  -7.558  0.00  0.00     0.162 A 
ATOM      6  C   LIG d   1       4.771  -3.073  -6.996  0.00  0.00    -0.009 A 
ATOM      7  H   LIG d   1       6.372  -4.758  -4.506  0.00  0.00     0.062 H 
ATOM      8  H   LIG d   1       5.135  -6.625  -5.511  0.00  0.00     0.066 H 
ATOM      9  H   LIG d   1       4.669  -2.080  -7.409  0.00  0.00     0.066 H 
ENDROOT
BRANCH   1  10
ATOM     10  C   LIG d   1       6.343  -2.178  -5.295  0.00  0.00    -0.034 C 
ATOM     11  C   LIG d   1       5.697  -1.301  -4.444  0.00  0.00     0.143 C 
ATOM     12  C   LIG d   1       6.327  -0.053  -3.936  0.00  0.00     0.349 C 
ATOM     13  C   LIG d   1       4.309  -1.523  -3.956  0.00  0.00     0.349 C 
ATOM     14  O   LIG d   1       5.472   0.992  -3.759  0.00  0.00    -0.419 OA
ATOM     15  O   LIG d   1       7.517   0.028  -3.698  0.00  0.00    -0.245 OA
ATOM     16  C   LIG d   1       4.245   0.677  -3.093  0.00  0.00     0.255 C 
ATOM     17  O   LIG d   1       3.575  -0.388  -3.777  0.00  0.00    -0.419 OA
ATOM     18  O   LIG d   1       3.863  -2.631  -3.732  0.00  0.00    -0.245 OA
ATOM     19  H   LIG d   1       7.390  -2.040  -5.519  0.00  0.00     0.063 H 
BRANCH  16  20
ATOM     20  C   LIG d   1       4.544   0.247  -1.654  0.00  0.00     0.013 C 
ATOM     21  H   LIG d   1       4.143   0.989  -0.964  0.00  0.00     0.030 H 
ATOM     22  H   LIG d   1       4.079  -0.720  -1.460  0.00  0.00     0.030 H 
ATOM     23  H   LIG d   1       5.622   0.167  -1.516  0.00  0.00     0.030 H 
ENDBRANCH  16  20
BRANCH  16  24
ATOM     24  C   LIG d   1       3.345   1.914  -3.075  0.00  0.00     0.013 C 
ATOM     25  H   LIG d   1       2.331   1.630  -3.350  0.00  0.00     0.030 H 
ATOM     26  H   LIG d   1       3.344   2.347  -2.075  0.00  0.00     0.030 H 
ATOM     27  H   LIG d   1       3.724   2.648  -3.787  0.00  0.00     0.030 H 
ENDBRANCH  16  24
ENDBRANCH   1  10
BRANCH   5  28
ATOM     28  O   LIG d   1       3.277  -3.922  -8.632  0.00  0.00    -0.491 OA
BRANCH  28  29
ATOM     29  C   LIG d   1       3.191  -2.585  -9.129  0.00  0.00     0.079 C 
ATOM     30  H   LIG d   1       2.385  -2.059  -8.617  0.00  0.00     0.066 H 
ATOM     31  H   LIG d   1       4.133  -2.068  -8.947  0.00  0.00     0.066 H 
ATOM     32  H   LIG d   1       2.988  -2.607 -10.199  0.00  0.00     0.066 H 
ENDBRANCH  28  29
ENDBRANCH   5  28
BRANCH   4  33
ATOM     33  O   LIG d   1       3.533  -6.448  -7.571  0.00  0.00    -0.491 OA
BRANCH  33  34
ATOM     34  C   LIG d   1       4.288  -7.612  -7.912  0.00  0.00     0.079 C 
ATOM     35  H   LIG d   1       5.353  -7.393  -7.830  0.00  0.00     0.066 H 
ATOM     36  H   LIG d   1       4.032  -8.423  -7.230  0.00  0.00     0.066 H 
ATOM     37  H   LIG d   1       4.055  -7.910  -8.934  0.00  0.00     0.066 H 
ENDBRANCH  33  34
ENDBRANCH   4  33
TORSDOF 7
ENDMDL
MODEL 5
REMARK VINA RESULT:      -5.2      1.536      1.700
REMARK  7 active torsions:
REMARK  status: ('A' for Active; 'I' for Inactive)
REMARK    1  A    between atoms: C_1  and  C_2 
REMARK    2  A    between atoms: C_2  and  C_21 
REMARK    3  A    between atoms: C_7  and  C_8 
REMARK    4  A    between atoms: C_11  and  O_16 
REMARK    5  A    between atoms: C_12  and  O_14 
REMARK    6  A    between atoms: O_14  and  C_15 
REMARK    7  A    between atoms: O_16  and  C_17 
ROOT
ATOM      1  C   LIG d   1       6.125  -0.967  -7.556  0.00  0.00    -0.020 A 
ATOM      2  C   LIG d   1       5.600  -1.989  -8.361  0.00  0.00    -0.051 A 
ATOM      3  C   LIG d   1       5.040  -1.683  -9.581  0.00  0.00    -0.016 A 
ATOM      4  C   LIG d   1       4.995  -0.364 -10.018  0.00  0.00     0.162 A 
ATOM      5  C   LIG d   1       5.517   0.658  -9.224  0.00  0.00     0.162 A 
ATOM      6  C   LIG d   1       6.074   0.364  -7.997  0.00  0.00    -0.009 A 
ATOM      7  H   LIG d   1       5.633  -3.014  -8.024  0.00  0.00     0.062 H 
ATOM      8  H   LIG d   1       4.635  -2.470 -10.200  0.00  0.00     0.066 H 
ATOM      9  H   LIG d   1       6.474   1.155  -7.381  0.00  0.00     0.066 H 
ENDROOT
BRANCH   1  10
ATOM     10  C   LIG d   1       6.720  -1.287  -6.258  0.00  0.00    -0.034 C 
ATOM     11  C   LIG d   1       6.026  -1.016  -5.095  0.00  0.00     0.143 C 
ATOM     12  C   LIG d   1       6.629  -1.153  -3.741  0.00  0.00     0.349 C 
ATOM     13  C   LIG d   1       4.609  -0.561  -5.086  0.00  0.00     0.349 C 
ATOM     14  O   LIG d   1       6.189  -0.250  -2.822  0.00  0.00    -0.419 OA
ATOM     15  O   LIG d   1       7.452  -2.009  -3.477  0.00  0.00    -0.245 OA
ATOM     16  C   LIG d   1       4.772  -0.050  -2.784  0.00  0.00     0.255 C 
ATOM     17  O   LIG d   1       4.292   0.307  -4.084  0.00  0.00    -0.419 OA
ATOM     18  O   LIG d   1       3.796  -0.936  -5.907  0.00  0.00    -0.245 OA
ATOM     19  H   LIG d   1       7.702  -1.735  -6.210  0.00  0.00     0.063 H 
BRANCH  16  20
ATOM     20  C   LIG d   1       4.090  -1.343  -2.328  0.00  0.00     0.013 C 
ATOM     21  H   LIG d   1       4.761  -1.893  -1.667  0.00  0.00     0.030 H 
ATOM     22  H   LIG d   1       3.171  -1.100  -1.795  0.00  0.00     0.030 H 
ATOM     23  H   LIG d   1       3.855  -1.956  -3.198  0.00  0.00     0.030 H 
ENDBRANCH  16  20
BRANCH  16  24
ATOM     24  C   LIG d   1       4.445   1.071  -1.795  0.00  0.00     0.013 C 
ATOM     25  H   LIG d   1       4.839   0.814  -0.812  0.00  0.00     0.030 H 
ATOM     26  H   LIG d   1       4.899   2.000  -2.138  0.00  0.00     0.030 H 
ATOM     27  H   LIG d   1       3.364   1.196  -1.733  0.00  0.00     0.030 H 
ENDBRANCH  16  24
ENDBRANCH   1  10
BRANCH   5  28
ATOM     28  O   LIG d   1       5.470   1.946  -9.659  0.00  0.00    -0.491 OA
BRANCH  28  29
ATOM     29  C   LIG d   1       4.354   2.732  -9.235  0.00  0.00     0.079 C 
ATOM     30  H   LIG d   1       4.712   3.662  -8.794  0.00  0.00     0.066 H 
ATOM     31  H   LIG d   1       3.723   2.959 -10.094  0.00  0.00     0.066 H 
ATOM     32  H   LIG d   1       3.778   2.177  -8.496  0.00  0.00     0.066 H 
ENDBRANCH  28  29
ENDBRANCH   5  28
BRANCH   4  33
ATOM     33  O   LIG d   1       4.442  -0.071 -11.223  0.00  0.00    -0.491 OA
BRANCH  33  34
ATOM     34  C   LIG d   1       3.038  -0.294 -11.364  0.00  0.00     0.079 C 
ATOM     35  H   LIG d   1       2.506   0.217 -10.561  0.00  0.00     0.066 H 
ATOM     36  H   LIG d   1       2.704   0.096 -12.326  0.00  0.00     0.066 H 
ATOM     37  H   LIG d   1       2.833  -1.364 -11.314  0.00  0.00     0.066 H 
ENDBRANCH  33  34
ENDBRANCH   4  33
TORSDOF 7
ENDMDL
MODEL 6
REMARK VINA RESULT:      -5.2      0.889      2.205
REMARK  7 active torsions:
REMARK  status: ('A' for Active; 'I' for Inactive)
REMARK    1  A    between atoms: C_1  and  C_2 
REMARK    2  A    between atoms: C_2  and  C_21 
REMARK    3  A    between atoms: C_7  and  C_8 
REMARK    4  A    between atoms: C_11  and  O_16 
REMARK    5  A    between atoms: C_12  and  O_14 
REMARK    6  A    between atoms: O_14  and  C_15 
REMARK    7  A    between atoms: O_16  and  C_17 
ROOT
ATOM      1  C   LIG d   1       4.427  -1.584  -7.943  0.00  0.00    -0.020 A 
ATOM      2  C   LIG d   1       5.454  -0.749  -8.408  0.00  0.00    -0.051 A 
ATOM      3  C   LIG d   1       5.318  -0.097  -9.612  0.00  0.00    -0.016 A 
ATOM      4  C   LIG d   1       4.164  -0.264 -10.370  0.00  0.00     0.162 A 
ATOM      5  C   LIG d   1       3.137  -1.092  -9.914  0.00  0.00     0.162 A 
ATOM      6  C   LIG d   1       3.266  -1.755  -8.712  0.00  0.00    -0.009 A 
ATOM      7  H   LIG d   1       6.351  -0.618  -7.821  0.00  0.00     0.062 H 
ATOM      8  H   LIG d   1       6.109   0.545  -9.969  0.00  0.00     0.066 H 
ATOM      9  H   LIG d   1       2.474  -2.399  -8.360  0.00  0.00     0.066 H 
ENDROOT
BRANCH   1  10
ATOM     10  C   LIG d   1       4.568  -2.280  -6.663  0.00  0.00    -0.034 C 
ATOM     11  C   LIG d   1       4.313  -1.610  -5.482  0.00  0.00     0.143 C 
ATOM     12  C   LIG d   1       4.597  -2.194  -4.143  0.00  0.00     0.349 C 
ATOM     13  C   LIG d   1       3.730  -0.242  -5.437  0.00  0.00     0.349 C 
ATOM     14  O   LIG d   1       4.988  -1.297  -3.196  0.00  0.00    -0.419 OA
ATOM     15  O   LIG d   1       4.488  -3.383  -3.912  0.00  0.00    -0.245 OA
ATOM     16  C   LIG d   1       4.211  -0.096  -3.128  0.00  0.00     0.255 C 
ATOM     17  O   LIG d   1       4.174   0.537  -4.411  0.00  0.00    -0.419 OA
ATOM     18  O   LIG d   1       2.918   0.150  -6.252  0.00  0.00    -0.245 OA
ATOM     19  H   LIG d   1       4.872  -3.316  -6.643  0.00  0.00     0.063 H 
BRANCH  16  20
ATOM     20  C   LIG d   1       2.786  -0.439  -2.688  0.00  0.00     0.013 C 
ATOM     21  H   LIG d   1       2.497  -1.401  -3.113  0.00  0.00     0.030 H 
ATOM     22  H   LIG d   1       2.744  -0.494  -1.601  0.00  0.00     0.030 H 
ATOM     23  H   LIG d   1       2.102   0.333  -3.040  0.00  0.00     0.030 H 
ENDBRANCH  16  20
BRANCH  16  24
ATOM     24  C   LIG d   1       4.840   0.856  -2.109  0.00  0.00     0.013 C 
ATOM     25  H   LIG d   1       5.921   0.721  -2.103  0.00  0.00     0.030 H 
ATOM     26  H   LIG d   1       4.604   1.885  -2.380  0.00  0.00     0.030 H 
ATOM     27  H   LIG d   1       4.441   0.642  -1.117  0.00  0.00     0.030 H 
ENDBRANCH  16  24
ENDBRANCH   1  10
BRANCH   5  28
ATOM     28  O   LIG d   1       2.011  -1.250 -10.661  0.00  0.00    -0.491 OA
BRANCH  28  29
ATOM     29  C   LIG d   1       1.346  -2.512 -10.571  0.00  0.00     0.079 C 
ATOM     30  H   LIG d   1       2.037  -3.307 -10.852  0.00  0.00     0.066 H 
ATOM     31  H   LIG d   1       1.007  -2.672  -9.548  0.00  0.00     0.066 H 
ATOM     32  H   LIG d   1       0.490  -2.520 -11.245  0.00  0.00     0.066 H 
ENDBRANCH  28  29
ENDBRANCH   5  28
BRANCH   4  33
ATOM     33  O   LIG d   1       4.037   0.383 -11.556  0.00  0.00    -0.491 OA
BRANCH  33  34
ATOM     34  C   LIG d   1       4.472  -0.314 -12.725  0.00  0.00     0.079 C 
ATOM     35  H   LIG d   1       4.014  -1.303 -12.750  0.00  0.00     0.066 H 
ATOM     36  H   LIG d   1       4.175   0.245 -13.613  0.00  0.00     0.066 H 
ATOM     37  H   LIG d   1       5.557  -0.416 -12.705  0.00  0.00     0.066 H 
ENDBRANCH  33  34
ENDBRANCH   4  33
TORSDOF 7
ENDMDL
MODEL 7
REMARK VINA RESULT:      -5.0      1.674      2.465
REMARK  7 active torsions:
REMARK  status: ('A' for Active; 'I' for Inactive)
REMARK    1  A    between atoms: C_1  and  C_2 
REMARK    2  A    between atoms: C_2  and  C_21 
REMARK    3  A    between atoms: C_7  and  C_8 
REMARK    4  A    between atoms: C_11  and  O_16 
REMARK    5  A    between atoms: C_12  and  O_14 
REMARK    6  A    between atoms: O_14  and  C_15 
REMARK    7  A    between atoms: O_16  and  C_17 
ROOT
ATOM      1  C   LIG d   1       6.415  -0.897  -7.409  0.00  0.00    -0.020 A 
ATOM      2  C   LIG d   1       6.544   0.444  -7.804  0.00  0.00    -0.051 A 
ATOM      3  C   LIG d   1       6.103   0.840  -9.046  0.00  0.00    -0.016 A 
ATOM      4  C   LIG d   1       5.529  -0.084  -9.911  0.00  0.00     0.162 A 
ATOM      5  C   LIG d   1       5.395  -1.418  -9.526  0.00  0.00     0.162 A 
ATOM      6  C   LIG d   1       5.840  -1.829  -8.287  0.00  0.00    -0.009 A 
ATOM      7  H   LIG d   1       6.989   1.163  -7.133  0.00  0.00     0.062 H 
ATOM      8  H   LIG d   1       6.203   1.872  -9.348  0.00  0.00     0.066 H 
ATOM      9  H   LIG d   1       5.740  -2.862  -7.990  0.00  0.00     0.066 H 
ENDROOT
BRANCH   1  10
ATOM     10  C   LIG d   1       6.883  -1.323  -6.091  0.00  0.00    -0.034 C 
ATOM     11  C   LIG d   1       6.127  -1.047  -4.968  0.00  0.00     0.143 C 
ATOM     12  C   LIG d   1       6.614  -1.295  -3.583  0.00  0.00     0.349 C 
ATOM     13  C   LIG d   1       4.754  -0.476  -5.036  0.00  0.00     0.349 C 
ATOM     14  O   LIG d   1       6.181  -0.399  -2.653  0.00  0.00    -0.419 OA
ATOM     15  O   LIG d   1       7.343  -2.227  -3.304  0.00  0.00    -0.245 OA
ATOM     16  C   LIG d   1       4.785  -0.084  -2.705  0.00  0.00     0.255 C 
ATOM     17  O   LIG d   1       4.434   0.370  -4.017  0.00  0.00    -0.419 OA
ATOM     18  O   LIG d   1       3.978  -0.744  -5.931  0.00  0.00    -0.245 OA
ATOM     19  H   LIG d   1       7.819  -1.853  -5.995  0.00  0.00     0.063 H 
BRANCH  16  20
ATOM     20  C   LIG d   1       3.969  -1.334  -2.365  0.00  0.00     0.013 C 
ATOM     21  H   LIG d   1       2.916  -1.066  -2.279  0.00  0.00     0.030 H 
ATOM     22  H   LIG d   1       4.093  -2.075  -3.155  0.00  0.00     0.030 H 
ATOM     23  H   LIG d   1       4.317  -1.748  -1.419  0.00  0.00     0.030 H 
ENDBRANCH  16  20
BRANCH  16  24
ATOM     24  C   LIG d   1       4.476   1.015  -1.687  0.00  0.00     0.013 C 
ATOM     25  H   LIG d   1       3.805   0.624  -0.923  0.00  0.00     0.030 H 
ATOM     26  H   LIG d   1       5.403   1.349  -1.221  0.00  0.00     0.030 H 
ATOM     27  H   LIG d   1       4.001   1.856  -2.193  0.00  0.00     0.030 H 
ENDBRANCH  16  24
ENDBRANCH   1  10
BRANCH   5  28
ATOM     28  O   LIG d   1       4.832  -2.318 -10.378  0.00  0.00    -0.491 OA
BRANCH  28  29
ATOM     29  C   LIG d   1       3.494  -2.731 -10.093  0.00  0.00     0.079 C 
ATOM     30  H   LIG d   1       2.793  -2.020 -10.531  0.00  0.00     0.066 H 
ATOM     31  H   LIG d   1       3.321  -3.719 -10.519  0.00  0.00     0.066 H 
ATOM     32  H   LIG d   1       3.347  -2.768  -9.014  0.00  0.00     0.066 H 
ENDBRANCH  28  29
ENDBRANCH   5  28
BRANCH   4  33
ATOM     33  O   LIG d   1       5.096   0.315 -11.134  0.00  0.00    -0.491 OA
BRANCH  33  34
ATOM     34  C   LIG d   1       3.860   1.030 -11.184  0.00  0.00     0.079 C 
ATOM     35  H   LIG d   1       4.053   2.098 -11.075  0.00  0.00     0.066 H 
ATOM     36  H   LIG d   1       3.373   0.846 -12.142  0.00  0.00     0.066 H 
ATOM     37  H   LIG d   1       3.212   0.693 -10.375  0.00  0.00     0.066 H 
ENDBRANCH  33  34
ENDBRANCH   4  33
TORSDOF 7
ENDMDL
MODEL 8
REMARK VINA RESULT:      -4.9      9.651     12.647
REMARK  7 active torsions:
REMARK  status: ('A' for Active; 'I' for Inactive)
REMARK    1  A    between atoms: C_1  and  C_2 
REMARK    2  A    between atoms: C_2  and  C_21 
REMARK    3  A    between atoms: C_7  and  C_8 
REMARK    4  A    between atoms: C_11  and  O_16 
REMARK    5  A    between atoms: C_12  and  O_14 
REMARK    6  A    between atoms: O_14  and  C_15 
REMARK    7  A    between atoms: O_16  and  C_17 
ROOT
ATOM      1  C   LIG d   1       6.809 -10.571  -1.347  0.00  0.00    -0.020 A 
ATOM      2  C   LIG d   1       7.056 -11.820  -0.757  0.00  0.00    -0.051 A 
ATOM      3  C   LIG d   1       8.319 -12.129  -0.306  0.00  0.00    -0.016 A 
ATOM      4  C   LIG d   1       9.351 -11.206  -0.431  0.00  0.00     0.162 A 
ATOM      5  C   LIG d   1       9.113  -9.961  -1.015  0.00  0.00     0.162 A 
ATOM      6  C   LIG d   1       7.854  -9.643  -1.478  0.00  0.00    -0.009 A 
ATOM      7  H   LIG d   1       6.256 -12.538  -0.659  0.00  0.00     0.062 H 
ATOM      8  H   LIG d   1       8.508 -13.091   0.148  0.00  0.00     0.066 H 
ATOM      9  H   LIG d   1       7.670  -8.682  -1.933  0.00  0.00     0.066 H 
ENDROOT
BRANCH   1  10
ATOM     10  C   LIG d   1       5.468 -10.239  -1.829  0.00  0.00    -0.034 C 
ATOM     11  C   LIG d   1       5.155 -10.405  -3.165  0.00  0.00     0.143 C 
ATOM     12  C   LIG d   1       3.875  -9.932  -3.761  0.00  0.00     0.349 C 
ATOM     13  C   LIG d   1       6.065 -11.073  -4.133  0.00  0.00     0.349 C 
ATOM     14  O   LIG d   1       3.967  -9.500  -5.049  0.00  0.00    -0.419 OA
ATOM     15  O   LIG d   1       2.828  -9.932  -3.143  0.00  0.00    -0.245 OA
ATOM     16  C   LIG d   1       4.713 -10.346  -5.930  0.00  0.00     0.255 C 
ATOM     17  O   LIG d   1       6.024 -10.572  -5.399  0.00  0.00    -0.419 OA
ATOM     18  O   LIG d   1       6.790 -11.997  -3.820  0.00  0.00    -0.245 OA
ATOM     19  H   LIG d   1       4.725  -9.863  -1.142  0.00  0.00     0.063 H 
BRANCH  16  20
ATOM     20  C   LIG d   1       3.989 -11.685  -6.082  0.00  0.00     0.013 C 
ATOM     21  H   LIG d   1       4.242 -12.331  -5.241  0.00  0.00     0.030 H 
ATOM     22  H   LIG d   1       2.913 -11.516  -6.102  0.00  0.00     0.030 H 
ATOM     23  H   LIG d   1       4.299 -12.162  -7.012  0.00  0.00     0.030 H 
ENDBRANCH  16  20
BRANCH  16  24
ATOM     24  C   LIG d   1       4.829  -9.674  -7.300  0.00  0.00     0.013 C 
ATOM     25  H   LIG d   1       4.822 -10.435  -8.079  0.00  0.00     0.030 H 
ATOM     26  H   LIG d   1       3.986  -8.997  -7.444  0.00  0.00     0.030 H 
ATOM     27  H   LIG d   1       5.760  -9.109  -7.350  0.00  0.00     0.030 H 
ENDBRANCH  16  24
ENDBRANCH   1  10
BRANCH   5  28
ATOM     28  O   LIG d   1      10.128  -9.063  -1.135  0.00  0.00    -0.491 OA
BRANCH  28  29
ATOM     29  C   LIG d   1       9.853  -7.869  -1.871  0.00  0.00     0.079 C 
ATOM     30  H   LIG d   1      10.656  -7.691  -2.587  0.00  0.00     0.066 H 
ATOM     31  H   LIG d   1       8.910  -7.982  -2.406  0.00  0.00     0.066 H 
ATOM     32  H   LIG d   1       9.784  -7.026  -1.185  0.00  0.00     0.066 H 
ENDBRANCH  28  29
ENDBRANCH   5  28
BRANCH   4  33
ATOM     33  O   LIG d   1      10.593 -11.518   0.017  0.00  0.00    -0.491 OA
BRANCH  33  34
ATOM     34  C   LIG d   1      10.759 -11.654   1.429  0.00  0.00     0.079 C 
ATOM     35  H   LIG d   1      11.815 -11.793   1.660  0.00  0.00     0.066 H 
ATOM     36  H   LIG d   1      10.395 -10.755   1.926  0.00  0.00     0.066 H 
ATOM     37  H   LIG d   1      10.194 -12.518   1.780  0.00  0.00     0.066 H 
ENDBRANCH  33  34
ENDBRANCH   4  33
TORSDOF 7
ENDMDL
MODEL 9
REMARK VINA RESULT:      -4.8      3.800      6.583
REMARK  7 active torsions:
REMARK  status: ('A' for Active; 'I' for Inactive)
REMARK    1  A    between atoms: C_1  and  C_2 
REMARK    2  A    between atoms: C_2  and  C_21 
REMARK    3  A    between atoms: C_7  and  C_8 
REMARK    4  A    between atoms: C_11  and  O_16 
REMARK    5  A    between atoms: C_12  and  O_14 
REMARK    6  A    between atoms: O_14  and  C_15 
REMARK    7  A    between atoms: O_16  and  C_17 
ROOT
ATOM      1  C   LIG d   1       5.579  -3.250  -5.438  0.00  0.00    -0.020 A 
ATOM      2  C   LIG d   1       5.211  -2.330  -6.431  0.00  0.00    -0.051 A 
ATOM      3  C   LIG d   1       4.371  -1.285  -6.122  0.00  0.00    -0.016 A 
ATOM      4  C   LIG d   1       3.885  -1.137  -4.828  0.00  0.00     0.162 A 
ATOM      5  C   LIG d   1       4.248  -2.047  -3.834  0.00  0.00     0.162 A 
ATOM      6  C   LIG d   1       5.083  -3.102  -4.133  0.00  0.00    -0.009 A 
ATOM      7  H   LIG d   1       5.587  -2.442  -7.437  0.00  0.00     0.062 H 
ATOM      8  H   LIG d   1       4.088  -0.577  -6.888  0.00  0.00     0.066 H 
ATOM      9  H   LIG d   1       5.361  -3.809  -3.365  0.00  0.00     0.066 H 
ENDROOT
BRANCH   1  10
ATOM     10  C   LIG d   1       6.471  -4.363  -5.761  0.00  0.00    -0.034 C 
ATOM     11  C   LIG d   1       5.983  -5.656  -5.781  0.00  0.00     0.143 C 
ATOM     12  C   LIG d   1       6.859  -6.850  -5.932  0.00  0.00     0.349 C 
ATOM     13  C   LIG d   1       4.536  -5.977  -5.653  0.00  0.00     0.349 C 
ATOM     14  O   LIG d   1       6.444  -7.956  -5.256  0.00  0.00    -0.419 OA
ATOM     15  O   LIG d   1       7.869  -6.837  -6.610  0.00  0.00    -0.245 OA
ATOM     16  C   LIG d   1       5.052  -8.267  -5.379  0.00  0.00     0.255 C 
ATOM     17  O   LIG d   1       4.262  -7.137  -4.993  0.00  0.00    -0.419 OA
ATOM     18  O   LIG d   1       3.664  -5.259  -6.104  0.00  0.00    -0.245 OA
ATOM     19  H   LIG d   1       7.511  -4.175  -5.985  0.00  0.00     0.063 H 
BRANCH  16  20
ATOM     20  C   LIG d   1       4.740  -8.632  -6.832  0.00  0.00     0.013 C 
ATOM     21  H   LIG d   1       5.520  -8.235  -7.481  0.00  0.00     0.030 H 
ATOM     22  H   LIG d   1       4.699  -9.717  -6.933  0.00  0.00     0.030 H 
ATOM     23  H   LIG d   1       3.779  -8.204  -7.116  0.00  0.00     0.030 H 
ENDBRANCH  16  20
BRANCH  16  24
ATOM     24  C   LIG d   1       4.716  -9.454  -4.474  0.00  0.00     0.013 C 
ATOM     25  H   LIG d   1       4.104  -9.114  -3.640  0.00  0.00     0.030 H 
ATOM     26  H   LIG d   1       4.167 -10.202  -5.047  0.00  0.00     0.030 H 
ATOM     27  H   LIG d   1       5.639  -9.893  -4.094  0.00  0.00     0.030 H 
ENDBRANCH  16  24
ENDBRANCH   1  10
BRANCH   5  28
ATOM     28  O   LIG d   1       3.769  -1.896  -2.569  0.00  0.00    -0.491 OA
BRANCH  28  29
ATOM     29  C   LIG d   1       4.499  -1.030  -1.698  0.00  0.00     0.079 C 
ATOM     30  H   LIG d   1       5.561  -1.267  -1.757  0.00  0.00     0.066 H 
ATOM     31  H   LIG d   1       4.342   0.006  -2.002  0.00  0.00     0.066 H 
ATOM     32  H   LIG d   1       4.152  -1.166  -0.675  0.00  0.00     0.066 H 
ENDBRANCH  28  29
ENDBRANCH   5  28
BRANCH   4  33
ATOM     33  O   LIG d   1       3.057  -0.103  -4.531  0.00  0.00    -0.491 OA
BRANCH  33  34
ATOM     34  C   LIG d   1       2.480   0.602  -5.631  0.00  0.00     0.079 C 
ATOM     35  H   LIG d   1       1.681   1.249  -5.269  0.00  0.00     0.066 H 
ATOM     36  H   LIG d   1       3.245   1.209  -6.116  0.00  0.00     0.066 H 
ATOM     37  H   LIG d   1       2.073  -0.111  -6.348  0.00  0.00     0.066 H 
ENDBRANCH  33  34
ENDBRANCH   4  33
TORSDOF 7
ENDMDL
MODEL 10
REMARK VINA RESULT:      -4.7      4.251      6.365
REMARK  7 active torsions:
REMARK  status: ('A' for Active; 'I' for Inactive)
REMARK    1  A    between atoms: C_1  and  C_2 
REMARK    2  A    between atoms: C_2  and  C_21 
REMARK    3  A    between atoms: C_7  and  C_8 
REMARK    4  A    between atoms: C_11  and  O_16 
REMARK    5  A    between atoms: C_12  and  O_14 
REMARK    6  A    between atoms: O_14  and  C_15 
REMARK    7  A    between atoms: O_16  and  C_17 
ROOT
ATOM      1  C   LIG d   1       6.947  -1.878  -3.761  0.00  0.00    -0.020 A 
ATOM      2  C   LIG d   1       5.755  -1.915  -3.022  0.00  0.00    -0.051 A 
ATOM      3  C   LIG d   1       5.076  -0.748  -2.754  0.00  0.00    -0.016 A 
ATOM      4  C   LIG d   1       5.568   0.468  -3.215  0.00  0.00     0.162 A 
ATOM      5  C   LIG d   1       6.752   0.514  -3.952  0.00  0.00     0.162 A 
ATOM      6  C   LIG d   1       7.444  -0.648  -4.220  0.00  0.00    -0.009 A 
ATOM      7  H   LIG d   1       5.371  -2.858  -2.663  0.00  0.00     0.062 H 
ATOM      8  H   LIG d   1       4.158  -0.777  -2.185  0.00  0.00     0.066 H 
ATOM      9  H   LIG d   1       8.362  -0.614  -4.787  0.00  0.00     0.066 H 
ENDROOT
BRANCH   1  10
ATOM     10  C   LIG d   1       7.672  -3.115  -4.047  0.00  0.00    -0.034 C 
ATOM     11  C   LIG d   1       7.136  -4.043  -4.920  0.00  0.00     0.143 C 
ATOM     12  C   LIG d   1       7.727  -5.393  -5.129  0.00  0.00     0.349 C 
ATOM     13  C   LIG d   1       5.918  -3.781  -5.732  0.00  0.00     0.349 C 
ATOM     14  O   LIG d   1       6.826  -6.382  -5.379  0.00  0.00    -0.419 OA
ATOM     15  O   LIG d   1       8.926  -5.596  -5.081  0.00  0.00    -0.245 OA
ATOM     16  C   LIG d   1       5.812  -6.063  -6.338  0.00  0.00     0.255 C 
ATOM     17  O   LIG d   1       5.126  -4.869  -5.946  0.00  0.00    -0.419 OA
ATOM     18  O   LIG d   1       5.650  -2.681  -6.173  0.00  0.00    -0.245 OA
ATOM     19  H   LIG d   1       8.626  -3.303  -3.577  0.00  0.00     0.063 H 
BRANCH  16  20
ATOM     20  C   LIG d   1       6.458  -5.851  -7.709  0.00  0.00     0.013 C 
ATOM     21  H   LIG d   1       6.997  -6.754  -7.999  0.00  0.00     0.030 H 
ATOM     22  H   LIG d   1       5.684  -5.637  -8.446  0.00  0.00     0.030 H 
ATOM     23  H   LIG d   1       7.153  -5.014  -7.657  0.00  0.00     0.030 H 
ENDBRANCH  16  20
BRANCH  16  24
ATOM     24  C   LIG d   1       4.812  -7.219  -6.421  0.00  0.00     0.013 C 
ATOM     25  H   LIG d   1       5.153  -8.040  -5.792  0.00  0.00     0.030 H 
ATOM     26  H   LIG d   1       3.835  -6.879  -6.078  0.00  0.00     0.030 H 
ATOM     27  H   LIG d   1       4.736  -7.559  -7.455  0.00  0.00     0.030 H 
ENDBRANCH  16  24
ENDBRANCH   1  10
BRANCH   5  28
ATOM     28  O   LIG d   1       7.227   1.707  -4.400  0.00  0.00    -0.491 OA
BRANCH  28  29
ATOM     29  C   LIG d   1       8.479   2.147  -3.868  0.00  0.00     0.079 C 
ATOM     30  H   LIG d   1       8.902   2.911  -4.519  0.00  0.00     0.066 H 
ATOM     31  H   LIG d   1       8.324   2.564  -2.873  0.00  0.00     0.066 H 
ATOM     32  H   LIG d   1       9.164   1.302  -3.806  0.00  0.00     0.066 H 
ENDBRANCH  28  29
ENDBRANCH   5  28
BRANCH   4  33
ATOM     33  O   LIG d   1       4.892   1.615  -2.947  0.00  0.00    -0.491 OA
BRANCH  33  34
ATOM     34  C   LIG d   1       3.565   1.482  -2.437  0.00  0.00     0.079 C 
ATOM     35  H   LIG d   1       3.449   0.502  -1.974  0.00  0.00     0.066 H 
ATOM     36  H   LIG d   1       3.382   2.258  -1.693  0.00  0.00     0.066 H 
ATOM     37  H   LIG d   1       2.850   1.586  -3.253  0.00  0.00     0.066 H 
ENDBRANCH  33  34
ENDBRANCH   4  33
TORSDOF 7
ENDMDL
