MODEL 1
REMARK VINA RESULT:      -6.4      0.000      0.000
REMARK  8 active torsions:
REMARK  status: ('A' for Active; 'I' for Inactive)
REMARK    1  A    between atoms: C_1  and  C_2 
REMARK    2  A    between atoms: C_2  and  O_3 
REMARK    3  A    between atoms: O_3  and  C_4 
REMARK    4  A    between atoms: C_4  and  C_6 
REMARK    5  A    between atoms: C_7  and  C_24 
REMARK    6  A    between atoms: C_12  and  O_15 
REMARK    7  A    between atoms: O_15  and  C_16 
REMARK    8  A    between atoms: C_16  and  C_17 
ROOT
ATOM      1  C   LIG d   1       2.661  -1.488 -10.603  0.00  0.00     0.107 A 
ATOM      2  C   LIG d   1       3.008  -1.076 -11.854  0.00  0.00     0.117 A 
ATOM      3  O   LIG d   1       3.403   0.200 -11.819  0.00  0.00    -0.459 OA
ATOM      4  C   LIG d   1       3.356   0.696 -10.564  0.00  0.00     0.136 A 
ATOM      5  C   LIG d   1       2.889  -0.324  -9.722  0.00  0.00     0.038 A 
ATOM      6  C   LIG d   1       2.731  -0.094  -8.360  0.00  0.00    -0.008 A 
ATOM      7  C   LIG d   1       3.048   1.146  -7.836  0.00  0.00     0.122 A 
ATOM      8  C   LIG d   1       3.518   2.156  -8.670  0.00  0.00    -0.016 A 
ATOM      9  C   LIG d   1       3.671   1.935 -10.021  0.00  0.00    -0.015 A 
ATOM     10  H   LIG d   1       2.366  -0.879  -7.715  0.00  0.00     0.066 H 
ATOM     11  H   LIG d   1       3.765   3.122  -8.254  0.00  0.00     0.066 H 
ATOM     12  H   LIG d   1       4.037   2.726 -10.659  0.00  0.00     0.066 H 
ENDROOT
BRANCH   7  13
ATOM     13  O   LIG d   1       2.904   1.378  -6.504  0.00  0.00    -0.487 OA
BRANCH  13  14
ATOM     14  C   LIG d   1       2.561   0.260  -5.684  0.00  0.00     0.115 C 
ATOM     15  H   LIG d   1       1.513   0.330  -5.393  0.00  0.00     0.075 H 
ATOM     16  H   LIG d   1       2.722  -0.663  -6.242  0.00  0.00     0.075 H 
BRANCH  14  17
ATOM     17  C   LIG d   1       3.426   0.258  -4.450  0.00  0.00    -0.009 A 
ATOM     18  C   LIG d   1       4.503  -0.605  -4.363  0.00  0.00    -0.037 A 
ATOM     19  C   LIG d   1       5.300  -0.603  -3.232  0.00  0.00     0.041 A 
ATOM     20  H   LIG d   1       4.723  -1.277  -5.178  0.00  0.00     0.064 H 
ATOM     21  C   LIG d   1       5.013   0.254  -2.184  0.00  0.00    -0.043 A 
ATOM     22 CL   LIG d   1       6.656  -1.683  -3.124  0.00  0.00    -0.084 Cl
ATOM     23  C   LIG d   1       3.933   1.112  -2.271  0.00  0.00    -0.060 A 
ATOM     24  H   LIG d   1       5.632   0.253  -1.300  0.00  0.00     0.063 H 
ATOM     25  C   LIG d   1       3.140   1.114  -3.403  0.00  0.00    -0.055 A 
ATOM     26  H   LIG d   1       3.709   1.782  -1.454  0.00  0.00     0.062 H 
ATOM     27  H   LIG d   1       2.296   1.785  -3.471  0.00  0.00     0.062 H 
ENDBRANCH  14  17
ENDBRANCH  13  14
ENDBRANCH   7  13
BRANCH   1  28
ATOM     28  C   LIG d   1       2.164  -2.814 -10.210  0.00  0.00     0.343 C 
ATOM     29  O   LIG d   1       0.968  -3.030 -10.182  0.00  0.00    -0.245 OA
BRANCH  28  30
ATOM     30  O   LIG d   1       3.035  -3.789  -9.882  0.00  0.00    -0.461 OA
BRANCH  30  31
ATOM     31  C   LIG d   1       3.584  -3.757  -8.538  0.00  0.00     0.090 C 
ATOM     32  H   LIG d   1       3.081  -2.982  -7.959  0.00  0.00     0.070 H 
ATOM     33  H   LIG d   1       3.432  -4.725  -8.060  0.00  0.00     0.070 H 
BRANCH  31  34
ATOM     34  C   LIG d   1       5.082  -3.450  -8.606  0.00  0.00    -0.031 C 
ATOM     35  H   LIG d   1       5.233  -2.372  -8.589  0.00  0.00     0.026 H 
ATOM     36  H   LIG d   1       5.583  -3.901  -7.750  0.00  0.00     0.026 H 
ATOM     37  H   LIG d   1       5.495  -3.861  -9.527  0.00  0.00     0.026 H 
ENDBRANCH  31  34
ENDBRANCH  30  31
ENDBRANCH  28  30
ENDBRANCH   1  28
BRANCH   2  38
ATOM     38  C   LIG d   1       2.944  -1.929 -13.095  0.00  0.00    -0.005 C 
ATOM     39  H   LIG d   1       3.543  -2.828 -12.949  0.00  0.00     0.031 H 
ATOM     40  H   LIG d   1       1.909  -2.210 -13.290  0.00  0.00     0.031 H 
ATOM     41  H   LIG d   1       3.333  -1.366 -13.943  0.00  0.00     0.031 H 
ENDBRANCH   2  38
TORSDOF 8
ENDMDL
MODEL 2
REMARK VINA RESULT:      -6.2      1.689      2.499
REMARK  8 active torsions:
REMARK  status: ('A' for Active; 'I' for Inactive)
REMARK    1  A    between atoms: C_1  and  C_2 
REMARK    2  A    between atoms: C_2  and  O_3 
REMARK    3  A    between atoms: O_3  and  C_4 
REMARK    4  A    between atoms: C_4  and  C_6 
REMARK    5  A    between atoms: C_7  and  C_24 
REMARK    6  A    between atoms: C_12  and  O_15 
REMARK    7  A    between atoms: O_15  and  C_16 
REMARK    8  A    between atoms: C_16  and  C_17 
ROOT
ATOM      1  C   LIG d   1       3.353  -3.642  -9.161  0.00  0.00     0.107 A 
ATOM      2  C   LIG d   1       2.745  -3.791 -10.370  0.00  0.00     0.117 A 
ATOM      3  O   LIG d   1       2.210  -2.628 -10.755  0.00  0.00    -0.459 OA
ATOM      4  C   LIG d   1       2.440  -1.655  -9.847  0.00  0.00     0.136 A 
ATOM      5  C   LIG d   1       3.167  -2.224  -8.792  0.00  0.00     0.038 A 
ATOM      6  C   LIG d   1       3.542  -1.449  -7.700  0.00  0.00    -0.008 A 
ATOM      7  C   LIG d   1       3.203  -0.109  -7.665  0.00  0.00     0.122 A 
ATOM      8  C   LIG d   1       2.487   0.457  -8.715  0.00  0.00    -0.016 A 
ATOM      9  C   LIG d   1       2.108  -0.307  -9.797  0.00  0.00    -0.015 A 
ATOM     10  H   LIG d   1       4.098  -1.890  -6.886  0.00  0.00     0.066 H 
ATOM     11  H   LIG d   1       2.226   1.505  -8.682  0.00  0.00     0.066 H 
ATOM     12  H   LIG d   1       1.552   0.142 -10.606  0.00  0.00     0.066 H 
ENDROOT
BRANCH   7  13
ATOM     13  O   LIG d   1       3.572   0.658  -6.604  0.00  0.00    -0.487 OA
BRANCH  13  14
ATOM     14  C   LIG d   1       2.748   0.594  -5.439  0.00  0.00     0.115 C 
ATOM     15  H   LIG d   1       2.572   1.600  -5.062  0.00  0.00     0.075 H 
ATOM     16  H   LIG d   1       1.795   0.129  -5.693  0.00  0.00     0.075 H 
BRANCH  14  17
ATOM     17  C   LIG d   1       3.439  -0.226  -4.380  0.00  0.00    -0.009 A 
ATOM     18  C   LIG d   1       4.815  -0.359  -4.398  0.00  0.00    -0.037 A 
ATOM     19  C   LIG d   1       5.450  -1.107  -3.422  0.00  0.00     0.041 A 
ATOM     20  H   LIG d   1       5.394   0.124  -5.170  0.00  0.00     0.064 H 
ATOM     21  C   LIG d   1       4.706  -1.732  -2.436  0.00  0.00    -0.043 A 
ATOM     22 CL   LIG d   1       7.178  -1.270  -3.440  0.00  0.00    -0.084 Cl
ATOM     23  C   LIG d   1       3.331  -1.602  -2.423  0.00  0.00    -0.060 A 
ATOM     24  H   LIG d   1       5.201  -2.319  -1.678  0.00  0.00     0.063 H 
ATOM     25  C   LIG d   1       2.697  -0.850  -3.394  0.00  0.00    -0.055 A 
ATOM     26  H   LIG d   1       2.750  -2.089  -1.653  0.00  0.00     0.062 H 
ATOM     27  H   LIG d   1       1.622  -0.748  -3.383  0.00  0.00     0.062 H 
ENDBRANCH  14  17
ENDBRANCH  13  14
ENDBRANCH   7  13
BRANCH   1  28
ATOM     28  C   LIG d   1       4.050  -4.677  -8.384  0.00  0.00     0.343 C 
ATOM     29  O   LIG d   1       5.148  -5.063  -8.733  0.00  0.00    -0.245 OA
BRANCH  28  30
ATOM     30  O   LIG d   1       3.469  -5.197  -7.284  0.00  0.00    -0.461 OA
BRANCH  30  31
ATOM     31  C   LIG d   1       4.338  -5.486  -6.156  0.00  0.00     0.090 C 
ATOM     32  H   LIG d   1       3.819  -6.143  -5.458  0.00  0.00     0.070 H 
ATOM     33  H   LIG d   1       5.245  -5.975  -6.511  0.00  0.00     0.070 H 
BRANCH  31  34
ATOM     34  C   LIG d   1       4.706  -4.181  -5.448  0.00  0.00    -0.031 C 
ATOM     35  H   LIG d   1       5.615  -3.771  -5.890  0.00  0.00     0.026 H 
ATOM     36  H   LIG d   1       3.893  -3.464  -5.561  0.00  0.00     0.026 H 
ATOM     37  H   LIG d   1       4.874  -4.376  -4.389  0.00  0.00     0.026 H 
ENDBRANCH  31  34
ENDBRANCH  30  31
ENDBRANCH  28  30
ENDBRANCH   1  28
BRANCH   2  38
ATOM     38  C   LIG d   1       2.675  -5.078 -11.152  0.00  0.00    -0.005 C 
ATOM     39  H   LIG d   1       3.309  -5.826 -10.676  0.00  0.00     0.031 H 
ATOM     40  H   LIG d   1       1.646  -5.434 -11.174  0.00  0.00     0.031 H 
ATOM     41  H   LIG d   1       3.021  -4.902 -12.170  0.00  0.00     0.031 H 
ENDBRANCH   2  38
TORSDOF 8
ENDMDL
MODEL 3
REMARK VINA RESULT:      -6.2      6.988     10.456
REMARK  8 active torsions:
REMARK  status: ('A' for Active; 'I' for Inactive)
REMARK    1  A    between atoms: C_1  and  C_2 
REMARK    2  A    between atoms: C_2  and  O_3 
REMARK    3  A    between atoms: O_3  and  C_4 
REMARK    4  A    between atoms: C_4  and  C_6 
REMARK    5  A    between atoms: C_7  and  C_24 
REMARK    6  A    between atoms: C_12  and  O_15 
REMARK    7  A    between atoms: O_15  and  C_16 
REMARK    8  A    between atoms: C_16  and  C_17 
ROOT
ATOM      1  C   LIG d   1      10.027   6.727  -2.858  0.00  0.00     0.107 A 
ATOM      2  C   LIG d   1      10.203   7.628  -3.864  0.00  0.00     0.117 A 
ATOM      3  O   LIG d   1      10.102   7.012  -5.047  0.00  0.00    -0.459 OA
ATOM      4  C   LIG d   1       9.844   5.696  -4.896  0.00  0.00     0.136 A 
ATOM      5  C   LIG d   1       9.782   5.430  -3.521  0.00  0.00     0.038 A 
ATOM      6  C   LIG d   1       9.534   4.140  -3.066  0.00  0.00    -0.008 A 
ATOM      7  C   LIG d   1       9.338   3.119  -3.978  0.00  0.00     0.122 A 
ATOM      8  C   LIG d   1       9.393   3.384  -5.343  0.00  0.00    -0.016 A 
ATOM      9  C   LIG d   1       9.644   4.659  -5.800  0.00  0.00    -0.015 A 
ATOM     10  H   LIG d   1       9.491   3.937  -2.006  0.00  0.00     0.066 H 
ATOM     11  H   LIG d   1       9.238   2.582  -6.050  0.00  0.00     0.066 H 
ATOM     12  H   LIG d   1       9.684   4.853  -6.861  0.00  0.00     0.066 H 
ENDROOT
BRANCH   7  13
ATOM     13  O   LIG d   1       9.088   1.856  -3.541  0.00  0.00    -0.487 OA
BRANCH  13  14
ATOM     14  C   LIG d   1       8.476   0.958  -4.469  0.00  0.00     0.115 C 
ATOM     15  H   LIG d   1       8.143   1.512  -5.345  0.00  0.00     0.075 H 
ATOM     16  H   LIG d   1       9.198   0.199  -4.771  0.00  0.00     0.075 H 
BRANCH  14  17
ATOM     17  C   LIG d   1       7.292   0.291  -3.816  0.00  0.00    -0.009 A 
ATOM     18  C   LIG d   1       6.295   1.059  -3.245  0.00  0.00    -0.037 A 
ATOM     19  C   LIG d   1       5.206   0.447  -2.651  0.00  0.00     0.041 A 
ATOM     20  H   LIG d   1       6.364   2.137  -3.267  0.00  0.00     0.064 H 
ATOM     21  C   LIG d   1       5.122  -0.933  -2.617  0.00  0.00    -0.043 A 
ATOM     22 CL   LIG d   1       3.950   1.412  -1.938  0.00  0.00    -0.084 Cl
ATOM     23  C   LIG d   1       6.122  -1.700  -3.183  0.00  0.00    -0.060 A 
ATOM     24  H   LIG d   1       4.274  -1.411  -2.149  0.00  0.00     0.063 H 
ATOM     25  C   LIG d   1       7.207  -1.088  -3.782  0.00  0.00    -0.055 A 
ATOM     26  H   LIG d   1       6.056  -2.778  -3.158  0.00  0.00     0.062 H 
ATOM     27  H   LIG d   1       7.989  -1.688  -4.225  0.00  0.00     0.062 H 
ENDBRANCH  14  17
ENDBRANCH  13  14
ENDBRANCH   7  13
BRANCH   1  28
ATOM     28  C   LIG d   1      10.072   6.990  -1.413  0.00  0.00     0.343 C 
ATOM     29  O   LIG d   1       9.092   7.430  -0.845  0.00  0.00    -0.245 OA
BRANCH  28  30
ATOM     30  O   LIG d   1      11.201   6.742  -0.719  0.00  0.00    -0.461 OA
BRANCH  30  31
ATOM     31  C   LIG d   1      11.224   5.538   0.093  0.00  0.00     0.090 C 
ATOM     32  H   LIG d   1      10.413   4.878  -0.214  0.00  0.00     0.070 H 
ATOM     33  H   LIG d   1      12.178   5.029  -0.037  0.00  0.00     0.070 H 
BRANCH  31  34
ATOM     34  C   LIG d   1      11.043   5.914   1.566  0.00  0.00    -0.031 C 
ATOM     35  H   LIG d   1      10.846   6.982   1.647  0.00  0.00     0.026 H 
ATOM     36  H   LIG d   1      10.204   5.357   1.982  0.00  0.00     0.026 H 
ATOM     37  H   LIG d   1      11.951   5.669   2.117  0.00  0.00     0.026 H 
ENDBRANCH  31  34
ENDBRANCH  30  31
ENDBRANCH  28  30
ENDBRANCH   1  28
BRANCH   2  38
ATOM     38  C   LIG d   1      10.482   9.096  -3.673  0.00  0.00    -0.005 C 
ATOM     39  H   LIG d   1      10.431   9.604  -4.637  0.00  0.00     0.031 H 
ATOM     40  H   LIG d   1       9.740   9.522  -2.999  0.00  0.00     0.031 H 
ATOM     41  H   LIG d   1      11.477   9.224  -3.247  0.00  0.00     0.031 H 
ENDBRANCH   2  38
TORSDOF 8
ENDMDL
MODEL 4
REMARK VINA RESULT:      -6.0      6.875     10.241
REMARK  8 active torsions:
REMARK  status: ('A' for Active; 'I' for Inactive)
REMARK    1  A    between atoms: C_1  and  C_2 
REMARK    2  A    between atoms: C_2  and  O_3 
REMARK    3  A    between atoms: O_3  and  C_4 
REMARK    4  A    between atoms: C_4  and  C_6 
REMARK    5  A    between atoms: C_7  and  C_24 
REMARK    6  A    between atoms: C_12  and  O_15 
REMARK    7  A    between atoms: O_15  and  C_16 
REMARK    8  A    between atoms: C_16  and  C_17 
ROOT
ATOM      1  C   LIG d   1      10.711   5.903  -3.023  0.00  0.00     0.107 A 
ATOM      2  C   LIG d   1      11.081   6.725  -4.044  0.00  0.00     0.117 A 
ATOM      3  O   LIG d   1      10.759   6.166  -5.215  0.00  0.00    -0.459 OA
ATOM      4  C   LIG d   1      10.155   4.971  -5.041  0.00  0.00     0.136 A 
ATOM      5  C   LIG d   1      10.087   4.727  -3.662  0.00  0.00     0.038 A 
ATOM      6  C   LIG d   1       9.515   3.554  -3.184  0.00  0.00    -0.008 A 
ATOM      7  C   LIG d   1       9.002   2.630  -4.077  0.00  0.00     0.122 A 
ATOM      8  C   LIG d   1       9.064   2.875  -5.445  0.00  0.00    -0.016 A 
ATOM      9  C   LIG d   1       9.635   4.033  -5.925  0.00  0.00    -0.015 A 
ATOM     10  H   LIG d   1       9.467   3.366  -2.121  0.00  0.00     0.066 H 
ATOM     11  H   LIG d   1       8.661   2.150  -6.137  0.00  0.00     0.066 H 
ATOM     12  H   LIG d   1       9.677   4.213  -6.989  0.00  0.00     0.066 H 
ENDROOT
BRANCH   7  13
ATOM     13  O   LIG d   1       8.435   1.483  -3.618  0.00  0.00    -0.487 OA
BRANCH  13  14
ATOM     14  C   LIG d   1       7.424   0.887  -4.433  0.00  0.00     0.115 C 
ATOM     15  H   LIG d   1       7.083   1.609  -5.175  0.00  0.00     0.075 H 
ATOM     16  H   LIG d   1       7.833   0.012  -4.939  0.00  0.00     0.075 H 
BRANCH  14  17
ATOM     17  C   LIG d   1       6.263   0.469  -3.568  0.00  0.00    -0.009 A 
ATOM     18  C   LIG d   1       5.790  -0.828  -3.626  0.00  0.00    -0.037 A 
ATOM     19  C   LIG d   1       4.727  -1.213  -2.828  0.00  0.00     0.041 A 
ATOM     20  H   LIG d   1       6.253  -1.542  -4.290  0.00  0.00     0.064 H 
ATOM     21  C   LIG d   1       4.130  -0.296  -1.982  0.00  0.00    -0.043 A 
ATOM     22 CL   LIG d   1       4.137  -2.845  -2.895  0.00  0.00    -0.084 Cl
ATOM     23  C   LIG d   1       4.601   1.002  -1.929  0.00  0.00    -0.060 A 
ATOM     24  H   LIG d   1       3.298  -0.594  -1.362  0.00  0.00     0.063 H 
ATOM     25  C   LIG d   1       5.666   1.385  -2.722  0.00  0.00    -0.055 A 
ATOM     26  H   LIG d   1       4.135   1.719  -1.268  0.00  0.00     0.062 H 
ATOM     27  H   LIG d   1       6.034   2.400  -2.680  0.00  0.00     0.062 H 
ENDBRANCH  14  17
ENDBRANCH  13  14
ENDBRANCH   7  13
BRANCH   1  28
ATOM     28  C   LIG d   1      10.895   6.138  -1.584  0.00  0.00     0.343 C 
ATOM     29  O   LIG d   1      11.982   5.956  -1.073  0.00  0.00    -0.245 OA
BRANCH  28  30
ATOM     30  O   LIG d   1       9.856   6.555  -0.832  0.00  0.00    -0.461 OA
BRANCH  30  31
ATOM     31  C   LIG d   1       9.305   7.863  -1.138  0.00  0.00     0.090 C 
ATOM     32  H   LIG d   1       9.292   8.008  -2.218  0.00  0.00     0.070 H 
ATOM     33  H   LIG d   1       8.289   7.930  -0.749  0.00  0.00     0.070 H 
BRANCH  31  34
ATOM     34  C   LIG d   1      10.171   8.946  -0.489  0.00  0.00    -0.031 C 
ATOM     35  H   LIG d   1      10.794   9.416  -1.249  0.00  0.00     0.026 H 
ATOM     36  H   LIG d   1       9.529   9.697  -0.029  0.00  0.00     0.026 H 
ATOM     37  H   LIG d   1      10.807   8.494   0.273  0.00  0.00     0.026 H 
ENDBRANCH  31  34
ENDBRANCH  30  31
ENDBRANCH  28  30
ENDBRANCH   1  28
BRANCH   2  38
ATOM     38  C   LIG d   1      11.762   8.059  -3.879  0.00  0.00    -0.005 C 
ATOM     39  H   LIG d   1      11.180   8.682  -3.200  0.00  0.00     0.031 H 
ATOM     40  H   LIG d   1      12.761   7.908  -3.470  0.00  0.00     0.031 H 
ATOM     41  H   LIG d   1      11.837   8.550  -4.849  0.00  0.00     0.031 H 
ENDBRANCH   2  38
TORSDOF 8
ENDMDL
MODEL 5
REMARK VINA RESULT:      -5.8      5.786      8.558
REMARK  8 active torsions:
REMARK  status: ('A' for Active; 'I' for Inactive)
REMARK    1  A    between atoms: C_1  and  C_2 
REMARK    2  A    between atoms: C_2  and  O_3 
REMARK    3  A    between atoms: O_3  and  C_4 
REMARK    4  A    between atoms: C_4  and  C_6 
REMARK    5  A    between atoms: C_7  and  C_24 
REMARK    6  A    between atoms: C_12  and  O_15 
REMARK    7  A    between atoms: O_15  and  C_16 
REMARK    8  A    between atoms: C_16  and  C_17 
ROOT
ATOM      1  C   LIG d   1       9.622   4.673  -5.375  0.00  0.00     0.107 A 
ATOM      2  C   LIG d   1      10.052   4.784  -6.663  0.00  0.00     0.117 A 
ATOM      3  O   LIG d   1       9.818   3.643  -7.319  0.00  0.00    -0.459 OA
ATOM      4  C   LIG d   1       9.219   2.731  -6.523  0.00  0.00     0.136 A 
ATOM      5  C   LIG d   1       9.059   3.313  -5.257  0.00  0.00     0.038 A 
ATOM      6  C   LIG d   1       8.470   2.594  -4.224  0.00  0.00    -0.008 A 
ATOM      7  C   LIG d   1       8.032   1.302  -4.453  0.00  0.00     0.122 A 
ATOM      8  C   LIG d   1       8.185   0.727  -5.711  0.00  0.00    -0.016 A 
ATOM      9  C   LIG d   1       8.773   1.433  -6.737  0.00  0.00    -0.015 A 
ATOM     10  H   LIG d   1       8.351   3.042  -3.248  0.00  0.00     0.066 H 
ATOM     11  H   LIG d   1       7.840  -0.282  -5.883  0.00  0.00     0.066 H 
ATOM     12  H   LIG d   1       8.886   0.977  -7.710  0.00  0.00     0.066 H 
ENDROOT
BRANCH   7  13
ATOM     13  O   LIG d   1       7.448   0.594  -3.450  0.00  0.00    -0.487 OA
BRANCH  13  14
ATOM     14  C   LIG d   1       7.037  -0.741  -3.751  0.00  0.00     0.115 C 
ATOM     15  H   LIG d   1       7.258  -0.962  -4.795  0.00  0.00     0.075 H 
ATOM     16  H   LIG d   1       7.574  -1.441  -3.110  0.00  0.00     0.075 H 
BRANCH  14  17
ATOM     17  C   LIG d   1       5.556  -0.877  -3.511  0.00  0.00    -0.009 A 
ATOM     18  C   LIG d   1       4.665  -0.113  -4.241  0.00  0.00    -0.037 A 
ATOM     19  C   LIG d   1       3.304  -0.242  -4.024  0.00  0.00     0.041 A 
ATOM     20  H   LIG d   1       5.030   0.580  -4.984  0.00  0.00     0.064 H 
ATOM     21  C   LIG d   1       2.837  -1.126  -3.068  0.00  0.00    -0.043 A 
ATOM     22 CL   LIG d   1       2.184   0.713  -4.946  0.00  0.00    -0.084 Cl
ATOM     23  C   LIG d   1       3.730  -1.885  -2.335  0.00  0.00    -0.060 A 
ATOM     24  H   LIG d   1       1.776  -1.223  -2.895  0.00  0.00     0.063 H 
ATOM     25  C   LIG d   1       5.088  -1.761  -2.556  0.00  0.00    -0.055 A 
ATOM     26  H   LIG d   1       3.365  -2.576  -1.589  0.00  0.00     0.062 H 
ATOM     27  H   LIG d   1       5.785  -2.354  -1.983  0.00  0.00     0.062 H 
ENDBRANCH  14  17
ENDBRANCH  13  14
ENDBRANCH   7  13
BRANCH   1  28
ATOM     28  C   LIG d   1       9.703   5.694  -4.321  0.00  0.00     0.343 C 
ATOM     29  O   LIG d   1       8.865   6.572  -4.259  0.00  0.00    -0.245 OA
BRANCH  28  30
ATOM     30  O   LIG d   1      10.708   5.655  -3.423  0.00  0.00    -0.461 OA
BRANCH  30  31
ATOM     31  C   LIG d   1      10.404   5.094  -2.118  0.00  0.00     0.090 C 
ATOM     32  H   LIG d   1       9.421   4.621  -2.147  0.00  0.00     0.070 H 
ATOM     33  H   LIG d   1      11.158   4.351  -1.857  0.00  0.00     0.070 H 
BRANCH  31  34
ATOM     34  C   LIG d   1      10.402   6.209  -1.071  0.00  0.00    -0.031 C 
ATOM     35  H   LIG d   1       9.763   5.922  -0.235  0.00  0.00     0.026 H 
ATOM     36  H   LIG d   1      11.418   6.371  -0.712  0.00  0.00     0.026 H 
ATOM     37  H   LIG d   1      10.024   7.128  -1.519  0.00  0.00     0.026 H 
ENDBRANCH  31  34
ENDBRANCH  30  31
ENDBRANCH  28  30
ENDBRANCH   1  28
BRANCH   2  38
ATOM     38  C   LIG d   1      10.703   6.007  -7.256  0.00  0.00    -0.005 C 
ATOM     39  H   LIG d   1      11.167   6.592  -6.461  0.00  0.00     0.031 H 
ATOM     40  H   LIG d   1      11.464   5.701  -7.973  0.00  0.00     0.031 H 
ATOM     41  H   LIG d   1       9.949   6.611  -7.760  0.00  0.00     0.031 H 
ENDBRANCH   2  38
TORSDOF 8
ENDMDL
MODEL 6
REMARK VINA RESULT:      -5.6      2.197      4.015
REMARK  8 active torsions:
REMARK  status: ('A' for Active; 'I' for Inactive)
REMARK    1  A    between atoms: C_1  and  C_2 
REMARK    2  A    between atoms: C_2  and  O_3 
REMARK    3  A    between atoms: O_3  and  C_4 
REMARK    4  A    between atoms: C_4  and  C_6 
REMARK    5  A    between atoms: C_7  and  C_24 
REMARK    6  A    between atoms: C_12  and  O_15 
REMARK    7  A    between atoms: O_15  and  C_16 
REMARK    8  A    between atoms: C_16  and  C_17 
ROOT
ATOM      1  C   LIG d   1       3.914  -1.002  -8.934  0.00  0.00     0.107 A 
ATOM      2  C   LIG d   1       4.741  -1.190 -10.000  0.00  0.00     0.117 A 
ATOM      3  O   LIG d   1       5.716  -2.045  -9.672  0.00  0.00    -0.459 OA
ATOM      4  C   LIG d   1       5.587  -2.474  -8.399  0.00  0.00     0.136 A 
ATOM      5  C   LIG d   1       4.455  -1.851  -7.853  0.00  0.00     0.038 A 
ATOM      6  C   LIG d   1       4.080  -2.104  -6.539  0.00  0.00    -0.008 A 
ATOM      7  C   LIG d   1       4.823  -2.984  -5.773  0.00  0.00     0.122 A 
ATOM      8  C   LIG d   1       5.942  -3.607  -6.316  0.00  0.00    -0.016 A 
ATOM      9  C   LIG d   1       6.322  -3.356  -7.617  0.00  0.00    -0.015 A 
ATOM     10  H   LIG d   1       3.211  -1.619  -6.119  0.00  0.00     0.066 H 
ATOM     11  H   LIG d   1       6.518  -4.294  -5.713  0.00  0.00     0.066 H 
ATOM     12  H   LIG d   1       7.192  -3.846  -8.028  0.00  0.00     0.066 H 
ENDROOT
BRANCH   7  13
ATOM     13  O   LIG d   1       4.459  -3.242  -4.488  0.00  0.00    -0.487 OA
BRANCH  13  14
ATOM     14  C   LIG d   1       5.416  -2.943  -3.470  0.00  0.00     0.115 C 
ATOM     15  H   LIG d   1       5.210  -3.549  -2.588  0.00  0.00     0.075 H 
ATOM     16  H   LIG d   1       6.419  -3.165  -3.837  0.00  0.00     0.075 H 
BRANCH  14  17
ATOM     17  C   LIG d   1       5.326  -1.483  -3.109  0.00  0.00    -0.009 A 
ATOM     18  C   LIG d   1       6.311  -0.607  -3.524  0.00  0.00    -0.037 A 
ATOM     19  C   LIG d   1       6.225   0.735  -3.196  0.00  0.00     0.041 A 
ATOM     20  H   LIG d   1       7.144  -0.968  -4.107  0.00  0.00     0.064 H 
ATOM     21  C   LIG d   1       5.160   1.196  -2.443  0.00  0.00    -0.043 A 
ATOM     22 CL   LIG d   1       7.459   1.838  -3.722  0.00  0.00    -0.084 Cl
ATOM     23  C   LIG d   1       4.179   0.318  -2.024  0.00  0.00    -0.060 A 
ATOM     24  H   LIG d   1       5.095   2.242  -2.183  0.00  0.00     0.063 H 
ATOM     25  C   LIG d   1       4.262  -1.021  -2.357  0.00  0.00    -0.055 A 
ATOM     26  H   LIG d   1       3.347   0.677  -1.437  0.00  0.00     0.062 H 
ATOM     27  H   LIG d   1       3.495  -1.708  -2.029  0.00  0.00     0.062 H 
ENDBRANCH  14  17
ENDBRANCH  13  14
ENDBRANCH   7  13
BRANCH   1  28
ATOM     28  C   LIG d   1       2.731  -0.133  -8.871  0.00  0.00     0.343 C 
ATOM     29  O   LIG d   1       1.676  -0.508  -9.344  0.00  0.00    -0.245 OA
BRANCH  28  30
ATOM     30  O   LIG d   1       2.816   1.080  -8.287  0.00  0.00    -0.461 OA
BRANCH  30  31
ATOM     31  C   LIG d   1       2.946   2.226  -9.169  0.00  0.00     0.090 C 
ATOM     32  H   LIG d   1       2.582   1.963 -10.163  0.00  0.00     0.070 H 
ATOM     33  H   LIG d   1       2.360   3.057  -8.774  0.00  0.00     0.070 H 
BRANCH  31  34
ATOM     34  C   LIG d   1       4.417   2.638  -9.257  0.00  0.00    -0.031 C 
ATOM     35  H   LIG d   1       4.675   3.255  -8.398  0.00  0.00     0.026 H 
ATOM     36  H   LIG d   1       5.044   1.746  -9.264  0.00  0.00     0.026 H 
ATOM     37  H   LIG d   1       4.582   3.204 -10.174  0.00  0.00     0.026 H 
ENDBRANCH  31  34
ENDBRANCH  30  31
ENDBRANCH  28  30
ENDBRANCH   1  28
BRANCH   2  38
ATOM     38  C   LIG d   1       4.586  -0.526 -11.343  0.00  0.00    -0.005 C 
ATOM     39  H   LIG d   1       5.129   0.420 -11.346  0.00  0.00     0.031 H 
ATOM     40  H   LIG d   1       4.987  -1.178 -12.119  0.00  0.00     0.031 H 
ATOM     41  H   LIG d   1       3.530  -0.340 -11.536  0.00  0.00     0.031 H 
ENDBRANCH   2  38
TORSDOF 8
ENDMDL
MODEL 7
REMARK VINA RESULT:      -5.5      6.244      8.485
REMARK  8 active torsions:
REMARK  status: ('A' for Active; 'I' for Inactive)
REMARK    1  A    between atoms: C_1  and  C_2 
REMARK    2  A    between atoms: C_2  and  O_3 
REMARK    3  A    between atoms: O_3  and  C_4 
REMARK    4  A    between atoms: C_4  and  C_6 
REMARK    5  A    between atoms: C_7  and  C_24 
REMARK    6  A    between atoms: C_12  and  O_15 
REMARK    7  A    between atoms: O_15  and  C_16 
REMARK    8  A    between atoms: C_16  and  C_17 
ROOT
ATOM      1  C   LIG d   1       6.785   0.554  -4.343  0.00  0.00     0.107 A 
ATOM      2  C   LIG d   1       6.899  -0.337  -5.366  0.00  0.00     0.117 A 
ATOM      3  O   LIG d   1       7.964  -0.034  -6.116  0.00  0.00    -0.459 OA
ATOM      4  C   LIG d   1       8.613   1.048  -5.634  0.00  0.00     0.136 A 
ATOM      5  C   LIG d   1       7.920   1.487  -4.497  0.00  0.00     0.038 A 
ATOM      6  C   LIG d   1       8.362   2.600  -3.791  0.00  0.00    -0.008 A 
ATOM      7  C   LIG d   1       9.499   3.267  -4.211  0.00  0.00     0.122 A 
ATOM      8  C   LIG d   1      10.190   2.828  -5.335  0.00  0.00    -0.016 A 
ATOM      9  C   LIG d   1       9.753   1.729  -6.041  0.00  0.00    -0.015 A 
ATOM     10  H   LIG d   1       7.824   2.940  -2.919  0.00  0.00     0.066 H 
ATOM     11  H   LIG d   1      11.078   3.353  -5.657  0.00  0.00     0.066 H 
ATOM     12  H   LIG d   1      10.298   1.396  -6.913  0.00  0.00     0.066 H 
ENDROOT
BRANCH   7  13
ATOM     13  O   LIG d   1       9.943   4.353  -3.522  0.00  0.00    -0.487 OA
BRANCH  13  14
ATOM     14  C   LIG d   1      10.954   4.129  -2.538  0.00  0.00     0.115 C 
ATOM     15  H   LIG d   1      10.776   3.173  -2.047  0.00  0.00     0.075 H 
ATOM     16  H   LIG d   1      11.933   4.114  -3.019  0.00  0.00     0.075 H 
BRANCH  14  17
ATOM     17  C   LIG d   1      10.914   5.235  -1.516  0.00  0.00    -0.009 A 
ATOM     18  C   LIG d   1      10.044   6.296  -1.680  0.00  0.00    -0.037 A 
ATOM     19  C   LIG d   1      10.003   7.309  -0.738  0.00  0.00     0.041 A 
ATOM     20  H   LIG d   1       9.393   6.332  -2.540  0.00  0.00     0.064 H 
ATOM     21  C   LIG d   1      10.842   7.265   0.361  0.00  0.00    -0.043 A 
ATOM     22 CL   LIG d   1       8.906   8.640  -0.940  0.00  0.00    -0.084 Cl
ATOM     23  C   LIG d   1      11.715   6.206   0.521  0.00  0.00    -0.060 A 
ATOM     24  H   LIG d   1      10.814   8.057   1.094  0.00  0.00     0.063 H 
ATOM     25  C   LIG d   1      11.751   5.191  -0.417  0.00  0.00    -0.055 A 
ATOM     26  H   LIG d   1      12.370   6.171   1.380  0.00  0.00     0.062 H 
ATOM     27  H   LIG d   1      12.434   4.363  -0.291  0.00  0.00     0.062 H 
ENDBRANCH  14  17
ENDBRANCH  13  14
ENDBRANCH   7  13
BRANCH   1  28
ATOM     28  C   LIG d   1       5.748   0.583  -3.302  0.00  0.00     0.343 C 
ATOM     29  O   LIG d   1       4.974   1.518  -3.241  0.00  0.00    -0.245 OA
BRANCH  28  30
ATOM     30  O   LIG d   1       5.656  -0.429  -2.416  0.00  0.00    -0.461 OA
BRANCH  30  31
ATOM     31  C   LIG d   1       4.336  -0.720  -1.884  0.00  0.00     0.090 C 
ATOM     32  H   LIG d   1       4.385  -0.765  -0.795  0.00  0.00     0.070 H 
ATOM     33  H   LIG d   1       3.641   0.064  -2.185  0.00  0.00     0.070 H 
BRANCH  31  34
ATOM     34  C   LIG d   1       3.852  -2.066  -2.428  0.00  0.00    -0.031 C 
ATOM     35  H   LIG d   1       3.232  -1.900  -3.308  0.00  0.00     0.026 H 
ATOM     36  H   LIG d   1       4.712  -2.678  -2.699  0.00  0.00     0.026 H 
ATOM     37  H   LIG d   1       3.268  -2.578  -1.663  0.00  0.00     0.026 H 
ENDBRANCH  31  34
ENDBRANCH  30  31
ENDBRANCH  28  30
ENDBRANCH   1  28
BRANCH   2  38
ATOM     38  C   LIG d   1       5.959  -1.487  -5.622  0.00  0.00    -0.005 C 
ATOM     39  H   LIG d   1       5.529  -1.389  -6.620  0.00  0.00     0.031 H 
ATOM     40  H   LIG d   1       6.506  -2.426  -5.553  0.00  0.00     0.031 H 
ATOM     41  H   LIG d   1       5.161  -1.475  -4.880  0.00  0.00     0.031 H 
ENDBRANCH   2  38
TORSDOF 8
ENDMDL
MODEL 8
REMARK VINA RESULT:      -5.4      3.506      6.887
REMARK  8 active torsions:
REMARK  status: ('A' for Active; 'I' for Inactive)
REMARK    1  A    between atoms: C_1  and  C_2 
REMARK    2  A    between atoms: C_2  and  O_3 
REMARK    3  A    between atoms: O_3  and  C_4 
REMARK    4  A    between atoms: C_4  and  C_6 
REMARK    5  A    between atoms: C_7  and  C_24 
REMARK    6  A    between atoms: C_12  and  O_15 
REMARK    7  A    between atoms: O_15  and  C_16 
REMARK    8  A    between atoms: C_16  and  C_17 
ROOT
ATOM      1  C   LIG d   1       6.298  -0.656  -5.294  0.00  0.00     0.107 A 
ATOM      2  C   LIG d   1       7.201  -1.647  -5.056  0.00  0.00     0.117 A 
ATOM      3  O   LIG d   1       7.931  -1.868  -6.153  0.00  0.00    -0.459 OA
ATOM      4  C   LIG d   1       7.571  -1.043  -7.159  0.00  0.00     0.136 A 
ATOM      5  C   LIG d   1       6.527  -0.233  -6.690  0.00  0.00     0.038 A 
ATOM      6  C   LIG d   1       5.948   0.717  -7.523  0.00  0.00    -0.008 A 
ATOM      7  C   LIG d   1       6.415   0.868  -8.817  0.00  0.00     0.122 A 
ATOM      8  C   LIG d   1       7.455   0.069  -9.280  0.00  0.00    -0.016 A 
ATOM      9  C   LIG d   1       8.029  -0.878  -8.461  0.00  0.00    -0.015 A 
ATOM     10  H   LIG d   1       5.141   1.337  -7.162  0.00  0.00     0.066 H 
ATOM     11  H   LIG d   1       7.816   0.193 -10.291  0.00  0.00     0.066 H 
ATOM     12  H   LIG d   1       8.837  -1.493  -8.831  0.00  0.00     0.066 H 
ENDROOT
BRANCH   7  13
ATOM     13  O   LIG d   1       5.858   1.800  -9.636  0.00  0.00    -0.487 OA
BRANCH  13  14
ATOM     14  C   LIG d   1       4.489   2.134  -9.403  0.00  0.00     0.115 C 
ATOM     15  H   LIG d   1       4.311   2.211  -8.331  0.00  0.00     0.075 H 
ATOM     16  H   LIG d   1       4.260   3.088  -9.880  0.00  0.00     0.075 H 
BRANCH  14  17
ATOM     17  C   LIG d   1       3.605   1.060  -9.983  0.00  0.00    -0.009 A 
ATOM     18  C   LIG d   1       3.863   0.559 -11.245  0.00  0.00    -0.037 A 
ATOM     19  C   LIG d   1       3.054  -0.431 -11.775  0.00  0.00     0.041 A 
ATOM     20  H   LIG d   1       4.698   0.938 -11.816  0.00  0.00     0.064 H 
ATOM     21  C   LIG d   1       1.981  -0.911 -11.046  0.00  0.00    -0.043 A 
ATOM     22 CL   LIG d   1       3.381  -1.064 -13.358  0.00  0.00    -0.084 Cl
ATOM     23  C   LIG d   1       1.722  -0.406  -9.786  0.00  0.00    -0.060 A 
ATOM     24  H   LIG d   1       1.347  -1.680 -11.460  0.00  0.00     0.063 H 
ATOM     25  C   LIG d   1       2.533   0.579  -9.254  0.00  0.00    -0.055 A 
ATOM     26  H   LIG d   1       0.884  -0.781  -9.216  0.00  0.00     0.062 H 
ATOM     27  H   LIG d   1       2.330   0.973  -8.269  0.00  0.00     0.062 H 
ENDBRANCH  14  17
ENDBRANCH  13  14
ENDBRANCH   7  13
BRANCH   1  28
ATOM     28  C   LIG d   1       5.301  -0.119  -4.357  0.00  0.00     0.343 C 
ATOM     29  O   LIG d   1       5.526   0.913  -3.756  0.00  0.00    -0.245 OA
BRANCH  28  30
ATOM     30  O   LIG d   1       4.137  -0.772  -4.166  0.00  0.00    -0.461 OA
BRANCH  30  31
ATOM     31  C   LIG d   1       2.933   0.037  -4.088  0.00  0.00     0.090 C 
ATOM     32  H   LIG d   1       2.136  -0.542  -3.621  0.00  0.00     0.070 H 
ATOM     33  H   LIG d   1       3.132   0.929  -3.495  0.00  0.00     0.070 H 
BRANCH  31  34
ATOM     34  C   LIG d   1       2.504   0.449  -5.499  0.00  0.00    -0.031 C 
ATOM     35  H   LIG d   1       1.677   1.155  -5.435  0.00  0.00     0.026 H 
ATOM     36  H   LIG d   1       3.344   0.918  -6.011  0.00  0.00     0.026 H 
ATOM     37  H   LIG d   1       2.186  -0.434  -6.054  0.00  0.00     0.026 H 
ENDBRANCH  31  34
ENDBRANCH  30  31
ENDBRANCH  28  30
ENDBRANCH   1  28
BRANCH   2  38
ATOM     38  C   LIG d   1       7.346  -2.391  -3.754  0.00  0.00    -0.005 C 
ATOM     39  H   LIG d   1       7.676  -3.412  -3.953  0.00  0.00     0.031 H 
ATOM     40  H   LIG d   1       8.082  -1.888  -3.128  0.00  0.00     0.031 H 
ATOM     41  H   LIG d   1       6.386  -2.414  -3.239  0.00  0.00     0.031 H 
ENDBRANCH   2  38
TORSDOF 8
ENDMDL
MODEL 9
REMARK VINA RESULT:      -5.4      6.140      9.576
REMARK  8 active torsions:
REMARK  status: ('A' for Active; 'I' for Inactive)
REMARK    1  A    between atoms: C_1  and  C_2 
REMARK    2  A    between atoms: C_2  and  O_3 
REMARK    3  A    between atoms: O_3  and  C_4 
REMARK    4  A    between atoms: C_4  and  C_6 
REMARK    5  A    between atoms: C_7  and  C_24 
REMARK    6  A    between atoms: C_12  and  O_15 
REMARK    7  A    between atoms: O_15  and  C_16 
REMARK    8  A    between atoms: C_16  and  C_17 
ROOT
ATOM      1  C   LIG d   1      10.855   4.028  -3.174  0.00  0.00     0.107 A 
ATOM      2  C   LIG d   1      12.176   3.868  -3.460  0.00  0.00     0.117 A 
ATOM      3  O   LIG d   1      12.370   2.695  -4.070  0.00  0.00    -0.459 OA
ATOM      4  C   LIG d   1      11.208   2.027  -4.234  0.00  0.00     0.136 A 
ATOM      5  C   LIG d   1      10.186   2.814  -3.684  0.00  0.00     0.038 A 
ATOM      6  C   LIG d   1       8.869   2.369  -3.704  0.00  0.00    -0.008 A 
ATOM      7  C   LIG d   1       8.569   1.147  -4.281  0.00  0.00     0.122 A 
ATOM      8  C   LIG d   1       9.583   0.370  -4.832  0.00  0.00    -0.016 A 
ATOM      9  C   LIG d   1      10.890   0.803  -4.810  0.00  0.00    -0.015 A 
ATOM     10  H   LIG d   1       8.083   2.974  -3.276  0.00  0.00     0.066 H 
ATOM     11  H   LIG d   1       9.342  -0.583  -5.281  0.00  0.00     0.066 H 
ATOM     12  H   LIG d   1      11.668   0.191  -5.241  0.00  0.00     0.066 H 
ENDROOT
BRANCH   7  13
ATOM     13  O   LIG d   1       7.283   0.707  -4.311  0.00  0.00    -0.487 OA
BRANCH  13  14
ATOM     14  C   LIG d   1       7.057  -0.661  -3.966  0.00  0.00     0.115 C 
ATOM     15  H   LIG d   1       7.325  -1.297  -4.809  0.00  0.00     0.075 H 
ATOM     16  H   LIG d   1       7.669  -0.924  -3.102  0.00  0.00     0.075 H 
BRANCH  14  17
ATOM     17  C   LIG d   1       5.602  -0.860  -3.629  0.00  0.00    -0.009 A 
ATOM     18  C   LIG d   1       4.629  -0.182  -4.339  0.00  0.00    -0.037 A 
ATOM     19  C   LIG d   1       3.293  -0.369  -4.032  0.00  0.00     0.041 A 
ATOM     20  H   LIG d   1       4.912   0.490  -5.135  0.00  0.00     0.064 H 
ATOM     21  C   LIG d   1       2.931  -1.225  -3.007  0.00  0.00    -0.043 A 
ATOM     22 CL   LIG d   1       2.070   0.478  -4.928  0.00  0.00    -0.084 Cl
ATOM     23  C   LIG d   1       3.906  -1.898  -2.295  0.00  0.00    -0.060 A 
ATOM     24  H   LIG d   1       1.889  -1.368  -2.765  0.00  0.00     0.063 H 
ATOM     25  C   LIG d   1       5.240  -1.716  -2.605  0.00  0.00    -0.055 A 
ATOM     26  H   LIG d   1       3.624  -2.567  -1.494  0.00  0.00     0.062 H 
ATOM     27  H   LIG d   1       6.001  -2.242  -2.048  0.00  0.00     0.062 H 
ENDBRANCH  14  17
ENDBRANCH  13  14
ENDBRANCH   7  13
BRANCH   1  28
ATOM     28  C   LIG d   1      10.224   5.170  -2.498  0.00  0.00     0.343 C 
ATOM     29  O   LIG d   1      10.366   5.321  -1.300  0.00  0.00    -0.245 OA
BRANCH  28  30
ATOM     30  O   LIG d   1       9.490   6.051  -3.207  0.00  0.00    -0.461 OA
BRANCH  30  31
ATOM     31  C   LIG d   1       9.710   6.087  -4.642  0.00  0.00     0.090 C 
ATOM     32  H   LIG d   1      10.771   5.948  -4.850  0.00  0.00     0.070 H 
ATOM     33  H   LIG d   1       9.138   5.290  -5.118  0.00  0.00     0.070 H 
BRANCH  31  34
ATOM     34  C   LIG d   1       9.256   7.440  -5.194  0.00  0.00    -0.031 C 
ATOM     35  H   LIG d   1       8.171   7.446  -5.294  0.00  0.00     0.026 H 
ATOM     36  H   LIG d   1       9.562   8.232  -4.510  0.00  0.00     0.026 H 
ATOM     37  H   LIG d   1       9.712   7.606  -6.170  0.00  0.00     0.026 H 
ENDBRANCH  31  34
ENDBRANCH  30  31
ENDBRANCH  28  30
ENDBRANCH   1  28
BRANCH   2  38
ATOM     38  C   LIG d   1      13.261   4.861  -3.127  0.00  0.00    -0.005 C 
ATOM     39  H   LIG d   1      14.125   4.333  -2.723  0.00  0.00     0.031 H 
ATOM     40  H   LIG d   1      13.552   5.396  -4.030  0.00  0.00     0.031 H 
ATOM     41  H   LIG d   1      12.889   5.570  -2.388  0.00  0.00     0.031 H 
ENDBRANCH   2  38
TORSDOF 8
ENDMDL
MODEL 10
REMARK VINA RESULT:      -5.3      6.262      8.486
REMARK  8 active torsions:
REMARK  status: ('A' for Active; 'I' for Inactive)
REMARK    1  A    between atoms: C_1  and  C_2 
REMARK    2  A    between atoms: C_2  and  O_3 
REMARK    3  A    between atoms: O_3  and  C_4 
REMARK    4  A    between atoms: C_4  and  C_6 
REMARK    5  A    between atoms: C_7  and  C_24 
REMARK    6  A    between atoms: C_12  and  O_15 
REMARK    7  A    between atoms: O_15  and  C_16 
REMARK    8  A    between atoms: C_16  and  C_17 
ROOT
ATOM      1  C   LIG d   1      10.691   4.603  -7.296  0.00  0.00     0.107 A 
ATOM      2  C   LIG d   1      11.550   5.445  -6.658  0.00  0.00     0.117 A 
ATOM      3  O   LIG d   1      11.410   5.319  -5.334  0.00  0.00    -0.459 OA
ATOM      4  C   LIG d   1      10.476   4.394  -5.024  0.00  0.00     0.136 A 
ATOM      5  C   LIG d   1       9.965   3.887  -6.228  0.00  0.00     0.038 A 
ATOM      6  C   LIG d   1       8.973   2.913  -6.214  0.00  0.00    -0.008 A 
ATOM      7  C   LIG d   1       8.499   2.437  -5.005  0.00  0.00     0.122 A 
ATOM      8  C   LIG d   1       9.011   2.935  -3.811  0.00  0.00    -0.016 A 
ATOM      9  C   LIG d   1       9.990   3.904  -3.818  0.00  0.00    -0.015 A 
ATOM     10  H   LIG d   1       8.577   2.528  -7.142  0.00  0.00     0.066 H 
ATOM     11  H   LIG d   1       8.637   2.558  -2.870  0.00  0.00     0.066 H 
ATOM     12  H   LIG d   1      10.381   4.283  -2.885  0.00  0.00     0.066 H 
ENDROOT
BRANCH   7  13
ATOM     13  O   LIG d   1       7.533   1.480  -4.983  0.00  0.00    -0.487 OA
BRANCH  13  14
ATOM     14  C   LIG d   1       7.595   0.521  -3.926  0.00  0.00     0.115 C 
ATOM     15  H   LIG d   1       7.925  -0.438  -4.324  0.00  0.00     0.075 H 
ATOM     16  H   LIG d   1       8.299   0.861  -3.166  0.00  0.00     0.075 H 
BRANCH  14  17
ATOM     17  C   LIG d   1       6.229   0.364  -3.309  0.00  0.00    -0.009 A 
ATOM     18  C   LIG d   1       5.684  -0.895  -3.148  0.00  0.00    -0.037 A 
ATOM     19  C   LIG d   1       4.431  -1.039  -2.577  0.00  0.00     0.041 A 
ATOM     20  H   LIG d   1       6.237  -1.767  -3.464  0.00  0.00     0.064 H 
ATOM     21  C   LIG d   1       3.721   0.079  -2.179  0.00  0.00    -0.043 A 
ATOM     22 CL   LIG d   1       3.748  -2.622  -2.369  0.00  0.00    -0.084 Cl
ATOM     23  C   LIG d   1       4.265   1.338  -2.345  0.00  0.00    -0.060 A 
ATOM     24  H   LIG d   1       2.742  -0.032  -1.737  0.00  0.00     0.063 H 
ATOM     25  C   LIG d   1       5.518   1.481  -2.910  0.00  0.00    -0.055 A 
ATOM     26  H   LIG d   1       3.711   2.212  -2.033  0.00  0.00     0.062 H 
ATOM     27  H   LIG d   1       5.944   2.466  -3.040  0.00  0.00     0.062 H 
ENDBRANCH  14  17
ENDBRANCH  13  14
ENDBRANCH   7  13
BRANCH   1  28
ATOM     28  C   LIG d   1      10.520   4.441  -8.747  0.00  0.00     0.343 C 
ATOM     29  O   LIG d   1      10.628   3.341  -9.252  0.00  0.00    -0.245 OA
BRANCH  28  30
ATOM     30  O   LIG d   1      10.244   5.514  -9.516  0.00  0.00    -0.461 OA
BRANCH  30  31
ATOM     31  C   LIG d   1       8.919   6.094  -9.385  0.00  0.00     0.090 C 
ATOM     32  H   LIG d   1       8.451   6.157 -10.368  0.00  0.00     0.070 H 
ATOM     33  H   LIG d   1       8.310   5.468  -8.731  0.00  0.00     0.070 H 
BRANCH  31  34
ATOM     34  C   LIG d   1       9.033   7.497  -8.785  0.00  0.00    -0.031 C 
ATOM     35  H   LIG d   1       9.999   7.604  -8.293  0.00  0.00     0.026 H 
ATOM     36  H   LIG d   1       8.945   8.239  -9.578  0.00  0.00     0.026 H 
ATOM     37  H   LIG d   1       8.236   7.647  -8.057  0.00  0.00     0.026 H 
ENDBRANCH  31  34
ENDBRANCH  30  31
ENDBRANCH  28  30
ENDBRANCH   1  28
BRANCH   2  38
ATOM     38  C   LIG d   1      12.508   6.387  -7.341  0.00  0.00    -0.005 C 
ATOM     39  H   LIG d   1      13.491   6.306  -6.876  0.00  0.00     0.031 H 
ATOM     40  H   LIG d   1      12.583   6.126  -8.396  0.00  0.00     0.031 H 
ATOM     41  H   LIG d   1      12.143   7.409  -7.245  0.00  0.00     0.031 H 
ENDBRANCH   2  38
TORSDOF 8
ENDMDL
