MODEL 1
REMARK VINA RESULT:      -7.4      0.000      0.000
REMARK  5 active torsions:
REMARK  status: ('A' for Active; 'I' for Inactive)
REMARK    1  A    between atoms: C_1  and  N_45 
REMARK    2  A    between atoms: C_3  and  N_19 
REMARK    3  A    between atoms: C_6  and  C_8 
REMARK    4  A    between atoms: C_10  and  C_13 
REMARK       I    between atoms: N_19  and  C_20 
REMARK    5  A    between atoms: C_20  and  C_22 
ROOT
ATOM      1  C   LIG d   1      10.851   2.178  -3.389  0.00  0.00    -0.012 C 
ATOM      2  C   LIG d   1       9.476   2.348  -4.070  0.00  0.00     0.069 C 
ATOM      3  H   LIG d   1       9.551   2.161  -5.141  0.00  0.00     0.055 H 
ATOM      4  C   LIG d   1       9.133   3.836  -3.797  0.00  0.00     0.023 C 
ATOM      5  C   LIG d   1      10.529   4.501  -3.886  0.00  0.00     0.061 C 
ATOM      6  H   LIG d   1      10.796   4.685  -4.926  0.00  0.00     0.095 H 
ATOM      7  H   LIG d   1      10.721   1.749  -2.396  0.00  0.00     0.083 H 
ATOM      8  H   LIG d   1      11.487   1.532  -3.994  0.00  0.00     0.083 H 
ATOM      9  H   LIG d   1       8.463   4.230  -4.562  0.00  0.00     0.035 H 
ATOM     10  H   LIG d   1       8.703   3.962  -2.802  0.00  0.00     0.035 H 
ATOM     11  N   LIG d   1      11.442   3.522  -3.268  0.00  0.00     0.243 N 
ATOM     12  H   LIG d   1      11.564   3.752  -2.275  0.00  0.00     0.204 HD
ENDROOT
BRANCH   2  13
ATOM     13  N   LIG d   1       8.483   1.463  -3.460  0.00  0.00    -0.303 N 
ATOM     14  C   LIG d   1       7.424   1.039  -4.178  0.00  0.00     0.244 C 
ATOM     15  O   LIG d   1       7.293   1.394  -5.333  0.00  0.00    -0.270 OA
ATOM     16  H   LIG d   1       8.586   1.180  -2.537  0.00  0.00     0.149 HD
BRANCH  14  17
ATOM     17  C   LIG d   1       6.422   0.146  -3.561  0.00  0.00     0.037 A 
ATOM     18  C   LIG d   1       6.384  -1.207  -3.906  0.00  0.00    -0.047 A 
ATOM     19  C   LIG d   1       5.446  -2.036  -3.328  0.00  0.00    -0.026 A 
ATOM     20  H   LIG d   1       7.086  -1.603  -4.624  0.00  0.00     0.063 H 
ATOM     21  C   LIG d   1       4.542  -1.530  -2.407  0.00  0.00     0.123 A 
ATOM     22  H   LIG d   1       5.415  -3.083  -3.593  0.00  0.00     0.065 H 
ATOM     23  C   LIG d   1       4.577  -0.187  -2.060  0.00  0.00    -0.026 A 
ATOM     24  F   LIG d   1       3.627  -2.346  -1.843  0.00  0.00    -0.205 F 
ATOM     25  C   LIG d   1       5.513   0.650  -2.629  0.00  0.00    -0.047 A 
ATOM     26  H   LIG d   1       3.871   0.203  -1.342  0.00  0.00     0.065 H 
ATOM     27  H   LIG d   1       5.542   1.695  -2.356  0.00  0.00     0.063 H 
ENDBRANCH  14  17
ENDBRANCH   2  13
BRANCH  11  28
ATOM     28  C   LIG d   1      12.767   3.559  -3.940  0.00  0.00    -0.042 C 
ATOM     29  H   LIG d   1      13.050   4.592  -4.143  0.00  0.00     0.078 H 
ATOM     30  H   LIG d   1      13.513   3.100  -3.290  0.00  0.00     0.078 H 
ATOM     31  H   LIG d   1      12.713   3.006  -4.877  0.00  0.00     0.078 H 
ENDBRANCH  11  28
BRANCH   5  32
ATOM     32  C   LIG d   1      10.550   5.790  -3.105  0.00  0.00     0.276 A 
ATOM     33  O   LIG d   1      10.107   6.980  -3.525  0.00  0.00    -0.332 OA
ATOM     34  N   LIG d   1      10.266   7.812  -2.656  0.00  0.00    -0.056 NA
ATOM     35  C   LIG d   1      10.817   7.264  -1.604  0.00  0.00     0.204 A 
ATOM     36  N   LIG d   1      10.998   5.954  -1.885  0.00  0.00    -0.186 NA
BRANCH  35  37
ATOM     37  C   LIG d   1      11.171   7.951  -0.337  0.00  0.00     0.041 A 
ATOM     38  C   LIG d   1      11.232   7.240   0.860  0.00  0.00     0.038 A 
ATOM     39  N   LIG d   1      11.551   7.847   1.985  0.00  0.00    -0.263 NA
ATOM     40  H   LIG d   1      11.020   6.181   0.864  0.00  0.00     0.084 H 
ATOM     41  C   LIG d   1      11.812   9.139   2.028  0.00  0.00     0.028 A 
ATOM     42  C   LIG d   1      11.768   9.914   0.884  0.00  0.00    -0.043 A 
ATOM     43  H   LIG d   1      12.065   9.598   2.972  0.00  0.00     0.083 H 
ATOM     44  C   LIG d   1      11.443   9.322  -0.324  0.00  0.00    -0.048 A 
ATOM     45  H   LIG d   1      11.983  10.971   0.932  0.00  0.00     0.063 H 
ATOM     46  H   LIG d   1      11.400   9.903  -1.233  0.00  0.00     0.063 H 
ENDBRANCH  35  37
ENDBRANCH   5  32
TORSDOF 5
ENDMDL
MODEL 2
REMARK VINA RESULT:      -7.4      8.568     13.707
REMARK  5 active torsions:
REMARK  status: ('A' for Active; 'I' for Inactive)
REMARK    1  A    between atoms: C_1  and  N_45 
REMARK    2  A    between atoms: C_3  and  N_19 
REMARK    3  A    between atoms: C_6  and  C_8 
REMARK    4  A    between atoms: C_10  and  C_13 
REMARK       I    between atoms: N_19  and  C_20 
REMARK    5  A    between atoms: C_20  and  C_22 
ROOT
ATOM      1  C   LIG d   1       3.827  -5.126  -7.057  0.00  0.00    -0.012 C 
ATOM      2  C   LIG d   1       4.927  -4.470  -6.196  0.00  0.00     0.069 C 
ATOM      3  H   LIG d   1       5.742  -4.108  -6.823  0.00  0.00     0.055 H 
ATOM      4  C   LIG d   1       5.406  -5.637  -5.293  0.00  0.00     0.023 C 
ATOM      5  C   LIG d   1       5.294  -6.845  -6.257  0.00  0.00     0.061 C 
ATOM      6  H   LIG d   1       6.169  -6.897  -6.903  0.00  0.00     0.095 H 
ATOM      7  H   LIG d   1       2.847  -4.919  -6.627  0.00  0.00     0.083 H 
ATOM      8  H   LIG d   1       3.875  -4.742  -8.076  0.00  0.00     0.083 H 
ATOM      9  H   LIG d   1       6.437  -5.486  -4.975  0.00  0.00     0.035 H 
ATOM     10  H   LIG d   1       4.747  -5.761  -4.433  0.00  0.00     0.035 H 
ATOM     11  N   LIG d   1       4.072  -6.579  -7.038  0.00  0.00     0.243 N 
ATOM     12  H   LIG d   1       3.276  -7.052  -6.595  0.00  0.00     0.204 HD
ENDROOT
BRANCH   2  13
ATOM     13  N   LIG d   1       4.373  -3.380  -5.390  0.00  0.00    -0.303 N 
ATOM     14  C   LIG d   1       5.186  -2.426  -4.895  0.00  0.00     0.244 C 
ATOM     15  O   LIG d   1       6.380  -2.471  -5.117  0.00  0.00    -0.270 OA
ATOM     16  H   LIG d   1       3.420  -3.344  -5.213  0.00  0.00     0.149 HD
BRANCH  14  17
ATOM     17  C   LIG d   1       4.626  -1.327  -4.082  0.00  0.00     0.037 A 
ATOM     18  C   LIG d   1       3.777  -0.385  -4.668  0.00  0.00    -0.047 A 
ATOM     19  C   LIG d   1       3.258   0.639  -3.905  0.00  0.00    -0.026 A 
ATOM     20  H   LIG d   1       3.527  -0.459  -5.716  0.00  0.00     0.063 H 
ATOM     21  C   LIG d   1       3.578   0.736  -2.559  0.00  0.00     0.123 A 
ATOM     22  H   LIG d   1       2.600   1.368  -4.356  0.00  0.00     0.065 H 
ATOM     23  C   LIG d   1       4.420  -0.198  -1.973  0.00  0.00    -0.026 A 
ATOM     24  F   LIG d   1       3.066   1.740  -1.816  0.00  0.00    -0.205 F 
ATOM     25  C   LIG d   1       4.941  -1.228  -2.726  0.00  0.00    -0.047 A 
ATOM     26  H   LIG d   1       4.666  -0.119  -0.924  0.00  0.00     0.065 H 
ATOM     27  H   LIG d   1       5.594  -1.957  -2.268  0.00  0.00     0.063 H 
ENDBRANCH  14  17
ENDBRANCH   2  13
BRANCH  11  28
ATOM     28  C   LIG d   1       4.227  -7.088  -8.426  0.00  0.00    -0.042 C 
ATOM     29  H   LIG d   1       3.987  -6.298  -9.138  0.00  0.00     0.078 H 
ATOM     30  H   LIG d   1       5.258  -7.411  -8.577  0.00  0.00     0.078 H 
ATOM     31  H   LIG d   1       3.556  -7.932  -8.580  0.00  0.00     0.078 H 
ENDBRANCH  11  28
BRANCH   5  32
ATOM     32  C   LIG d   1       5.139  -8.126  -5.479  0.00  0.00     0.276 A 
ATOM     33  O   LIG d   1       4.101  -8.968  -5.532  0.00  0.00    -0.332 OA
ATOM     34  N   LIG d   1       4.288  -9.905  -4.785  0.00  0.00    -0.056 NA
ATOM     35  C   LIG d   1       5.440  -9.776  -4.180  0.00  0.00     0.204 A 
ATOM     36  N   LIG d   1       6.000  -8.629  -4.629  0.00  0.00    -0.186 NA
BRANCH  35  37
ATOM     37  C   LIG d   1       6.027 -10.714  -3.192  0.00  0.00     0.041 A 
ATOM     38  C   LIG d   1       6.762 -11.820  -3.614  0.00  0.00     0.038 A 
ATOM     39  N   LIG d   1       7.287 -12.651  -2.739  0.00  0.00    -0.263 NA
ATOM     40  H   LIG d   1       6.905 -11.994  -4.671  0.00  0.00     0.084 H 
ATOM     41  C   LIG d   1       7.133 -12.482  -1.440  0.00  0.00     0.028 A 
ATOM     42  C   LIG d   1       6.412 -11.412  -0.941  0.00  0.00    -0.043 A 
ATOM     43  H   LIG d   1       7.576 -13.190  -0.755  0.00  0.00     0.083 H 
ATOM     44  C   LIG d   1       5.845 -10.507  -1.821  0.00  0.00    -0.048 A 
ATOM     45  H   LIG d   1       6.292 -11.284   0.125  0.00  0.00     0.063 H 
ATOM     46  H   LIG d   1       5.278  -9.663  -1.459  0.00  0.00     0.063 H 
ENDBRANCH  35  37
ENDBRANCH   5  32
TORSDOF 5
ENDMDL
MODEL 3
REMARK VINA RESULT:      -7.3      1.284      1.803
REMARK  5 active torsions:
REMARK  status: ('A' for Active; 'I' for Inactive)
REMARK    1  A    between atoms: C_1  and  N_45 
REMARK    2  A    between atoms: C_3  and  N_19 
REMARK    3  A    between atoms: C_6  and  C_8 
REMARK    4  A    between atoms: C_10  and  C_13 
REMARK       I    between atoms: N_19  and  C_20 
REMARK    5  A    between atoms: C_20  and  C_22 
ROOT
ATOM      1  C   LIG d   1      11.245   2.010  -3.439  0.00  0.00    -0.012 C 
ATOM      2  C   LIG d   1       9.811   2.427  -3.825  0.00  0.00     0.069 C 
ATOM      3  H   LIG d   1       9.728   2.571  -4.902  0.00  0.00     0.055 H 
ATOM      4  C   LIG d   1       9.624   3.772  -3.076  0.00  0.00     0.023 C 
ATOM      5  C   LIG d   1      11.045   4.383  -3.172  0.00  0.00     0.061 C 
ATOM      6  H   LIG d   1      11.185   4.865  -4.139  0.00  0.00     0.095 H 
ATOM      7  H   LIG d   1      11.215   1.304  -2.609  0.00  0.00     0.083 H 
ATOM      8  H   LIG d   1      11.744   1.556  -4.296  0.00  0.00     0.083 H 
ATOM      9  H   LIG d   1       8.893   4.403  -3.581  0.00  0.00     0.035 H 
ATOM     10  H   LIG d   1       9.341   3.604  -2.036  0.00  0.00     0.035 H 
ATOM     11  N   LIG d   1      11.952   3.232  -3.015  0.00  0.00     0.243 N 
ATOM     12  H   LIG d   1      12.221   3.144  -2.028  0.00  0.00     0.204 HD
ENDROOT
BRANCH   2  13
ATOM     13  N   LIG d   1       8.840   1.433  -3.362  0.00  0.00    -0.303 N 
ATOM     14  C   LIG d   1       7.608   1.388  -3.906  0.00  0.00     0.244 C 
ATOM     15  O   LIG d   1       7.302   2.175  -4.782  0.00  0.00    -0.270 OA
ATOM     16  H   LIG d   1       9.084   0.805  -2.663  0.00  0.00     0.149 HD
BRANCH  14  17
ATOM     17  C   LIG d   1       6.629   0.385  -3.439  0.00  0.00     0.037 A 
ATOM     18  C   LIG d   1       5.549   0.778  -2.646  0.00  0.00    -0.047 A 
ATOM     19  C   LIG d   1       4.638  -0.163  -2.213  0.00  0.00    -0.026 A 
ATOM     20  H   LIG d   1       5.426   1.815  -2.373  0.00  0.00     0.063 H 
ATOM     21  C   LIG d   1       4.794  -1.495  -2.562  0.00  0.00     0.123 A 
ATOM     22  H   LIG d   1       3.802   0.139  -1.600  0.00  0.00     0.065 H 
ATOM     23  C   LIG d   1       5.866  -1.890  -3.350  0.00  0.00    -0.026 A 
ATOM     24  F   LIG d   1       3.899  -2.412  -2.135  0.00  0.00    -0.205 F 
ATOM     25  C   LIG d   1       6.779  -0.957  -3.793  0.00  0.00    -0.047 A 
ATOM     26  H   LIG d   1       5.983  -2.929  -3.620  0.00  0.00     0.065 H 
ATOM     27  H   LIG d   1       7.611  -1.264  -4.409  0.00  0.00     0.063 H 
ENDBRANCH  14  17
ENDBRANCH   2  13
BRANCH  11  28
ATOM     28  C   LIG d   1      13.175   3.424  -3.837  0.00  0.00    -0.042 C 
ATOM     29  H   LIG d   1      13.347   2.543  -4.455  0.00  0.00     0.078 H 
ATOM     30  H   LIG d   1      13.044   4.296  -4.478  0.00  0.00     0.078 H 
ATOM     31  H   LIG d   1      14.031   3.581  -3.181  0.00  0.00     0.078 H 
ENDBRANCH  11  28
BRANCH   5  32
ATOM     32  C   LIG d   1      11.269   5.372  -2.057  0.00  0.00     0.276 A 
ATOM     33  O   LIG d   1      11.994   5.172  -0.951  0.00  0.00    -0.332 OA
ATOM     34  N   LIG d   1      11.975   6.165  -0.257  0.00  0.00    -0.056 NA
ATOM     35  C   LIG d   1      11.252   7.097  -0.823  0.00  0.00     0.204 A 
ATOM     36  N   LIG d   1      10.797   6.592  -1.992  0.00  0.00    -0.186 NA
BRANCH  35  37
ATOM     37  C   LIG d   1      10.987   8.455  -0.286  0.00  0.00     0.041 A 
ATOM     38  C   LIG d   1       9.903   9.198  -0.746  0.00  0.00     0.038 A 
ATOM     39  N   LIG d   1       9.662  10.402  -0.268  0.00  0.00    -0.263 NA
ATOM     40  H   LIG d   1       9.250   8.782  -1.501  0.00  0.00     0.084 H 
ATOM     41  C   LIG d   1      10.434  10.952   0.649  0.00  0.00     0.028 A 
ATOM     42  C   LIG d   1      11.533  10.280   1.153  0.00  0.00    -0.043 A 
ATOM     43  H   LIG d   1      10.205  11.943   1.012  0.00  0.00     0.083 H 
ATOM     44  C   LIG d   1      11.824   9.010   0.686  0.00  0.00    -0.048 A 
ATOM     45  H   LIG d   1      12.158  10.741   1.904  0.00  0.00     0.063 H 
ATOM     46  H   LIG d   1      12.675   8.463   1.062  0.00  0.00     0.063 H 
ENDBRANCH  35  37
ENDBRANCH   5  32
TORSDOF 5
ENDMDL
MODEL 4
REMARK VINA RESULT:      -6.9      3.468      9.241
REMARK  5 active torsions:
REMARK  status: ('A' for Active; 'I' for Inactive)
REMARK    1  A    between atoms: C_1  and  N_45 
REMARK    2  A    between atoms: C_3  and  N_19 
REMARK    3  A    between atoms: C_6  and  C_8 
REMARK    4  A    between atoms: C_10  and  C_13 
REMARK       I    between atoms: N_19  and  C_20 
REMARK    5  A    between atoms: C_20  and  C_22 
ROOT
ATOM      1  C   LIG d   1      10.171   5.813  -5.019  0.00  0.00    -0.012 C 
ATOM      2  C   LIG d   1      10.656   5.548  -3.578  0.00  0.00     0.069 C 
ATOM      3  H   LIG d   1      11.734   5.389  -3.558  0.00  0.00     0.055 H 
ATOM      4  C   LIG d   1       9.903   4.249  -3.188  0.00  0.00     0.023 C 
ATOM      5  C   LIG d   1       9.885   3.483  -4.535  0.00  0.00     0.061 C 
ATOM      6  H   LIG d   1      10.832   2.966  -4.690  0.00  0.00     0.095 H 
ATOM      7  H   LIG d   1       9.356   6.536  -5.008  0.00  0.00     0.083 H 
ATOM      8  H   LIG d   1      10.995   6.188  -5.625  0.00  0.00     0.083 H 
ATOM      9  H   LIG d   1      10.452   3.692  -2.429  0.00  0.00     0.035 H 
ATOM     10  H   LIG d   1       8.890   4.471  -2.852  0.00  0.00     0.035 H 
ATOM     11  N   LIG d   1       9.678   4.530  -5.551  0.00  0.00     0.243 N 
ATOM     12  H   LIG d   1       8.675   4.610  -5.757  0.00  0.00     0.204 HD
ENDROOT
BRANCH   2  13
ATOM     13  N   LIG d   1      10.282   6.654  -2.694  0.00  0.00    -0.303 N 
ATOM     14  C   LIG d   1      11.212   7.542  -2.292  0.00  0.00     0.244 C 
ATOM     15  O   LIG d   1      12.364   7.424  -2.664  0.00  0.00    -0.270 OA
ATOM     16  H   LIG d   1       9.363   6.748  -2.398  0.00  0.00     0.149 HD
BRANCH  14  17
ATOM     17  C   LIG d   1      10.834   8.657  -1.401  0.00  0.00     0.037 A 
ATOM     18  C   LIG d   1      10.038   9.699  -1.882  0.00  0.00    -0.047 A 
ATOM     19  C   LIG d   1       9.688  10.737  -1.045  0.00  0.00    -0.026 A 
ATOM     20  H   LIG d   1       9.696   9.691  -2.906  0.00  0.00     0.063 H 
ATOM     21  C   LIG d   1      10.125  10.749   0.271  0.00  0.00     0.123 A 
ATOM     22  H   LIG d   1       9.071  11.544  -1.415  0.00  0.00     0.065 H 
ATOM     23  C   LIG d   1      10.916   9.716   0.753  0.00  0.00    -0.026 A 
ATOM     24  F   LIG d   1       9.778  11.769   1.086  0.00  0.00    -0.205 F 
ATOM     25  C   LIG d   1      11.267   8.671  -0.073  0.00  0.00    -0.047 A 
ATOM     26  H   LIG d   1      11.253   9.730   1.779  0.00  0.00     0.065 H 
ATOM     27  H   LIG d   1      11.880   7.865   0.304  0.00  0.00     0.063 H 
ENDBRANCH  14  17
ENDBRANCH   2  13
BRANCH  11  28
ATOM     28  C   LIG d   1      10.404   4.184  -6.801  0.00  0.00    -0.042 C 
ATOM     29  H   LIG d   1      11.474   4.341  -6.663  0.00  0.00     0.078 H 
ATOM     30  H   LIG d   1      10.220   3.138  -7.046  0.00  0.00     0.078 H 
ATOM     31  H   LIG d   1      10.046   4.816  -7.614  0.00  0.00     0.078 H 
ENDBRANCH  11  28
BRANCH   5  32
ATOM     32  C   LIG d   1       8.742   2.501  -4.566  0.00  0.00     0.276 A 
ATOM     33  O   LIG d   1       8.215   1.929  -5.654  0.00  0.00    -0.332 OA
ATOM     34  N   LIG d   1       7.310   1.188  -5.336  0.00  0.00    -0.056 NA
ATOM     35  C   LIG d   1       7.154   1.198  -4.037  0.00  0.00     0.204 A 
ATOM     36  N   LIG d   1       8.082   2.042  -3.531  0.00  0.00    -0.186 NA
BRANCH  35  37
ATOM     37  C   LIG d   1       6.152   0.424  -3.264  0.00  0.00     0.041 A 
ATOM     38  C   LIG d   1       6.129  -0.967  -3.327  0.00  0.00     0.038 A 
ATOM     39  N   LIG d   1       5.244  -1.657  -2.637  0.00  0.00    -0.263 NA
ATOM     40  H   LIG d   1       6.849  -1.486  -3.944  0.00  0.00     0.084 H 
ATOM     41  C   LIG d   1       4.343  -1.066  -1.875  0.00  0.00     0.028 A 
ATOM     42  C   LIG d   1       4.297   0.312  -1.764  0.00  0.00    -0.043 A 
ATOM     43  H   LIG d   1       3.631  -1.667  -1.330  0.00  0.00     0.083 H 
ATOM     44  C   LIG d   1       5.210   1.080  -2.465  0.00  0.00    -0.048 A 
ATOM     45  H   LIG d   1       3.555   0.784  -1.138  0.00  0.00     0.063 H 
ATOM     46  H   LIG d   1       5.197   2.157  -2.397  0.00  0.00     0.063 H 
ENDBRANCH  35  37
ENDBRANCH   5  32
TORSDOF 5
ENDMDL
MODEL 5
REMARK VINA RESULT:      -6.9      3.321      9.232
REMARK  5 active torsions:
REMARK  status: ('A' for Active; 'I' for Inactive)
REMARK    1  A    between atoms: C_1  and  N_45 
REMARK    2  A    between atoms: C_3  and  N_19 
REMARK    3  A    between atoms: C_6  and  C_8 
REMARK    4  A    between atoms: C_10  and  C_13 
REMARK       I    between atoms: N_19  and  C_20 
REMARK    5  A    between atoms: C_20  and  C_22 
ROOT
ATOM      1  C   LIG d   1       9.983   4.649  -4.632  0.00  0.00    -0.012 C 
ATOM      2  C   LIG d   1      10.659   3.910  -3.458  0.00  0.00     0.069 C 
ATOM      3  H   LIG d   1      11.692   3.664  -3.702  0.00  0.00     0.055 H 
ATOM      4  C   LIG d   1       9.807   2.621  -3.320  0.00  0.00     0.023 C 
ATOM      5  C   LIG d   1       9.458   2.317  -4.799  0.00  0.00     0.061 C 
ATOM      6  H   LIG d   1      10.284   1.798  -5.284  0.00  0.00     0.095 H 
ATOM      7  H   LIG d   1       9.290   5.399  -4.248  0.00  0.00     0.083 H 
ATOM      8  H   LIG d   1      10.739   5.126  -5.256  0.00  0.00     0.083 H 
ATOM      9  H   LIG d   1      10.390   1.812  -2.882  0.00  0.00     0.035 H 
ATOM     10  H   LIG d   1       8.905   2.810  -2.737  0.00  0.00     0.035 H 
ATOM     11  N   LIG d   1       9.234   3.642  -5.404  0.00  0.00     0.243 N 
ATOM     12  H   LIG d   1       8.233   3.865  -5.372  0.00  0.00     0.204 HD
ENDROOT
BRANCH   2  13
ATOM     13  N   LIG d   1      10.595   4.712  -2.235  0.00  0.00    -0.303 N 
ATOM     14  C   LIG d   1      11.643   5.479  -1.875  0.00  0.00     0.244 C 
ATOM     15  O   LIG d   1      12.642   5.504  -2.566  0.00  0.00    -0.270 OA
ATOM     16  H   LIG d   1       9.797   4.692  -1.683  0.00  0.00     0.149 HD
BRANCH  14  17
ATOM     17  C   LIG d   1      11.577   6.288  -0.640  0.00  0.00     0.037 A 
ATOM     18  C   LIG d   1      11.895   7.647  -0.676  0.00  0.00    -0.047 A 
ATOM     19  C   LIG d   1      11.832   8.397   0.479  0.00  0.00    -0.026 A 
ATOM     20  H   LIG d   1      12.189   8.110  -1.606  0.00  0.00     0.063 H 
ATOM     21  C   LIG d   1      11.456   7.804   1.675  0.00  0.00     0.123 A 
ATOM     22  H   LIG d   1      12.077   9.449   0.453  0.00  0.00     0.065 H 
ATOM     23  C   LIG d   1      11.138   6.454   1.715  0.00  0.00    -0.026 A 
ATOM     24  F   LIG d   1      11.395   8.544   2.803  0.00  0.00    -0.205 F 
ATOM     25  C   LIG d   1      11.193   5.697   0.565  0.00  0.00    -0.047 A 
ATOM     26  H   LIG d   1      10.845   5.997   2.649  0.00  0.00     0.065 H 
ATOM     27  H   LIG d   1      10.942   4.646   0.596  0.00  0.00     0.063 H 
ENDBRANCH  14  17
ENDBRANCH   2  13
BRANCH  11  28
ATOM     28  C   LIG d   1       9.687   3.645  -6.820  0.00  0.00    -0.042 C 
ATOM     29  H   LIG d   1       9.071   4.330  -7.403  0.00  0.00     0.078 H 
ATOM     30  H   LIG d   1      10.728   3.967  -6.864  0.00  0.00     0.078 H 
ATOM     31  H   LIG d   1       9.599   2.639  -7.230  0.00  0.00     0.078 H 
ENDBRANCH  11  28
BRANCH   5  32
ATOM     32  C   LIG d   1       8.200   1.492  -4.884  0.00  0.00     0.276 A 
ATOM     33  O   LIG d   1       7.444   1.305  -5.972  0.00  0.00    -0.332 OA
ATOM     34  N   LIG d   1       6.503   0.588  -5.705  0.00  0.00    -0.056 NA
ATOM     35  C   LIG d   1       6.545   0.240  -4.445  0.00  0.00     0.204 A 
ATOM     36  N   LIG d   1       7.644   0.817  -3.908  0.00  0.00    -0.186 NA
BRANCH  35  37
ATOM     37  C   LIG d   1       5.572  -0.629  -3.738  0.00  0.00     0.041 A 
ATOM     38  C   LIG d   1       5.050  -1.760  -4.362  0.00  0.00     0.038 A 
ATOM     39  N   LIG d   1       4.190  -2.536  -3.735  0.00  0.00    -0.263 NA
ATOM     40  H   LIG d   1       5.358  -2.006  -5.369  0.00  0.00     0.084 H 
ATOM     41  C   LIG d   1       3.782  -2.273  -2.509  0.00  0.00     0.028 A 
ATOM     42  C   LIG d   1       4.249  -1.166  -1.824  0.00  0.00    -0.043 A 
ATOM     43  H   LIG d   1       3.072  -2.932  -2.032  0.00  0.00     0.083 H 
ATOM     44  C   LIG d   1       5.159  -0.323  -2.439  0.00  0.00    -0.048 A 
ATOM     45  H   LIG d   1       3.908  -0.961  -0.820  0.00  0.00     0.063 H 
ATOM     46  H   LIG d   1       5.540   0.548  -1.928  0.00  0.00     0.063 H 
ENDBRANCH  35  37
ENDBRANCH   5  32
TORSDOF 5
ENDMDL
MODEL 6
REMARK VINA RESULT:      -6.9      7.223     11.604
REMARK  5 active torsions:
REMARK  status: ('A' for Active; 'I' for Inactive)
REMARK    1  A    between atoms: C_1  and  N_45 
REMARK    2  A    between atoms: C_3  and  N_19 
REMARK    3  A    between atoms: C_6  and  C_8 
REMARK    4  A    between atoms: C_10  and  C_13 
REMARK       I    between atoms: N_19  and  C_20 
REMARK    5  A    between atoms: C_20  and  C_22 
ROOT
ATOM      1  C   LIG d   1       8.501  -4.899  -4.567  0.00  0.00    -0.012 C 
ATOM      2  C   LIG d   1       9.096  -3.838  -3.617  0.00  0.00     0.069 C 
ATOM      3  H   LIG d   1       9.853  -3.244  -4.128  0.00  0.00     0.055 H 
ATOM      4  C   LIG d   1       9.737  -4.695  -2.494  0.00  0.00     0.023 C 
ATOM      5  C   LIG d   1      10.256  -5.918  -3.292  0.00  0.00     0.061 C 
ATOM      6  H   LIG d   1      11.215  -5.688  -3.756  0.00  0.00     0.095 H 
ATOM      7  H   LIG d   1       7.441  -5.035  -4.353  0.00  0.00     0.083 H 
ATOM      8  H   LIG d   1       8.635  -4.586  -5.603  0.00  0.00     0.083 H 
ATOM      9  H   LIG d   1      10.559  -4.163  -2.017  0.00  0.00     0.035 H 
ATOM     10  H   LIG d   1       8.990  -4.998  -1.759  0.00  0.00     0.035 H 
ATOM     11  N   LIG d   1       9.218  -6.160  -4.311  0.00  0.00     0.243 N 
ATOM     12  H   LIG d   1       8.556  -6.862  -3.960  0.00  0.00     0.204 HD
ENDROOT
BRANCH   2  13
ATOM     13  N   LIG d   1       8.042  -2.977  -3.078  0.00  0.00    -0.303 N 
ATOM     14  C   LIG d   1       7.577  -1.942  -3.807  0.00  0.00     0.244 C 
ATOM     15  O   LIG d   1       8.034  -1.725  -4.912  0.00  0.00    -0.270 OA
ATOM     16  H   LIG d   1       7.677  -3.150  -2.196  0.00  0.00     0.149 HD
BRANCH  14  17
ATOM     17  C   LIG d   1       6.513  -1.073  -3.263  0.00  0.00     0.037 A 
ATOM     18  C   LIG d   1       5.398  -1.638  -2.640  0.00  0.00    -0.047 A 
ATOM     19  C   LIG d   1       4.409  -0.821  -2.134  0.00  0.00    -0.026 A 
ATOM     20  H   LIG d   1       5.311  -2.710  -2.554  0.00  0.00     0.063 H 
ATOM     21  C   LIG d   1       4.519   0.556  -2.243  0.00  0.00     0.123 A 
ATOM     22  H   LIG d   1       3.546  -1.256  -1.651  0.00  0.00     0.065 H 
ATOM     23  C   LIG d   1       5.625   1.121  -2.861  0.00  0.00    -0.026 A 
ATOM     24  F   LIG d   1       3.547   1.351  -1.745  0.00  0.00    -0.205 F 
ATOM     25  C   LIG d   1       6.622   0.315  -3.365  0.00  0.00    -0.047 A 
ATOM     26  H   LIG d   1       5.706   2.195  -2.943  0.00  0.00     0.065 H 
ATOM     27  H   LIG d   1       7.485   0.756  -3.843  0.00  0.00     0.063 H 
ENDBRANCH  14  17
ENDBRANCH   2  13
BRANCH  11  28
ATOM     28  C   LIG d   1       9.835  -6.661  -5.566  0.00  0.00    -0.042 C 
ATOM     29  H   LIG d   1      10.846  -7.017  -5.364  0.00  0.00     0.078 H 
ATOM     30  H   LIG d   1       9.234  -7.481  -5.960  0.00  0.00     0.078 H 
ATOM     31  H   LIG d   1       9.874  -5.854  -6.298  0.00  0.00     0.078 H 
ENDBRANCH  11  28
BRANCH   5  32
ATOM     32  C   LIG d   1      10.385  -7.119  -2.391  0.00  0.00     0.276 A 
ATOM     33  O   LIG d   1      10.305  -8.401  -2.761  0.00  0.00    -0.332 OA
ATOM     34  N   LIG d   1      10.453  -9.121  -1.796  0.00  0.00    -0.056 NA
ATOM     35  C   LIG d   1      10.639  -8.401  -0.721  0.00  0.00     0.204 A 
ATOM     36  N   LIG d   1      10.602  -7.103  -1.099  0.00  0.00    -0.186 NA
BRANCH  35  37
ATOM     37  C   LIG d   1      10.856  -8.911   0.656  0.00  0.00     0.041 A 
ATOM     38  C   LIG d   1      11.229  -8.045   1.681  0.00  0.00     0.038 A 
ATOM     39  N   LIG d   1      11.418  -8.495   2.905  0.00  0.00    -0.263 NA
ATOM     40  H   LIG d   1      11.360  -6.993   1.472  0.00  0.00     0.084 H 
ATOM     41  C   LIG d   1      11.275  -9.771   3.206  0.00  0.00     0.028 A 
ATOM     42  C   LIG d   1      10.912 -10.695   2.242  0.00  0.00    -0.043 A 
ATOM     43  H   LIG d   1      11.444 -10.100   4.220  0.00  0.00     0.083 H 
ATOM     44  C   LIG d   1      10.697 -10.270   0.943  0.00  0.00    -0.048 A 
ATOM     45  H   LIG d   1      10.798 -11.737   2.501  0.00  0.00     0.063 H 
ATOM     46  H   LIG d   1      10.413 -10.969   0.171  0.00  0.00     0.063 H 
ENDBRANCH  35  37
ENDBRANCH   5  32
TORSDOF 5
ENDMDL
MODEL 7
REMARK VINA RESULT:      -6.8      1.959      2.151
REMARK  5 active torsions:
REMARK  status: ('A' for Active; 'I' for Inactive)
REMARK    1  A    between atoms: C_1  and  N_45 
REMARK    2  A    between atoms: C_3  and  N_19 
REMARK    3  A    between atoms: C_6  and  C_8 
REMARK    4  A    between atoms: C_10  and  C_13 
REMARK       I    between atoms: N_19  and  C_20 
REMARK    5  A    between atoms: C_20  and  C_22 
ROOT
ATOM      1  C   LIG d   1      10.452   1.216  -4.442  0.00  0.00    -0.012 C 
ATOM      2  C   LIG d   1       8.997   1.590  -4.797  0.00  0.00     0.069 C 
ATOM      3  H   LIG d   1       8.823   1.487  -5.868  0.00  0.00     0.055 H 
ATOM      4  C   LIG d   1       8.904   3.078  -4.368  0.00  0.00     0.023 C 
ATOM      5  C   LIG d   1      10.322   3.594  -4.719  0.00  0.00     0.061 C 
ATOM      6  H   LIG d   1      10.387   3.835  -5.780  0.00  0.00     0.095 H 
ATOM      7  H   LIG d   1      10.481   0.722  -3.471  0.00  0.00     0.083 H 
ATOM      8  H   LIG d   1      10.863   0.559  -5.208  0.00  0.00     0.083 H 
ATOM      9  H   LIG d   1       8.144   3.604  -4.945  0.00  0.00     0.035 H 
ATOM     10  H   LIG d   1       8.710   3.165  -3.298  0.00  0.00     0.035 H 
ATOM     11  N   LIG d   1      11.216   2.474  -4.373  0.00  0.00     0.243 N 
ATOM     12  H   LIG d   1      11.570   2.605  -3.418  0.00  0.00     0.204 HD
ENDROOT
BRANCH   2  13
ATOM     13  N   LIG d   1       8.052   0.769  -4.039  0.00  0.00    -0.303 N 
ATOM     14  C   LIG d   1       6.899   0.365  -4.610  0.00  0.00     0.244 C 
ATOM     15  O   LIG d   1       6.644   0.685  -5.755  0.00  0.00    -0.270 OA
ATOM     16  H   LIG d   1       8.254   0.513  -3.125  0.00  0.00     0.149 HD
BRANCH  14  17
ATOM     17  C   LIG d   1       5.945  -0.464  -3.844  0.00  0.00     0.037 A 
ATOM     18  C   LIG d   1       5.619  -1.747  -4.290  0.00  0.00    -0.047 A 
ATOM     19  C   LIG d   1       4.728  -2.516  -3.571  0.00  0.00    -0.026 A 
ATOM     20  H   LIG d   1       6.063  -2.136  -5.194  0.00  0.00     0.063 H 
ATOM     21  C   LIG d   1       4.156  -2.018  -2.410  0.00  0.00     0.123 A 
ATOM     22  H   LIG d   1       4.475  -3.509  -3.914  0.00  0.00     0.065 H 
ATOM     23  C   LIG d   1       4.478  -0.745  -1.964  0.00  0.00    -0.026 A 
ATOM     24  F   LIG d   1       3.285  -2.777  -1.711  0.00  0.00    -0.205 F 
ATOM     25  C   LIG d   1       5.371   0.030  -2.671  0.00  0.00    -0.047 A 
ATOM     26  H   LIG d   1       4.031  -0.362  -1.059  0.00  0.00     0.065 H 
ATOM     27  H   LIG d   1       5.624   1.021  -2.322  0.00  0.00     0.063 H 
ENDBRANCH  14  17
ENDBRANCH   2  13
BRANCH  11  28
ATOM     28  C   LIG d   1      12.366   2.424  -5.313  0.00  0.00    -0.042 C 
ATOM     29  H   LIG d   1      12.347   3.297  -5.967  0.00  0.00     0.078 H 
ATOM     30  H   LIG d   1      13.296   2.418  -4.744  0.00  0.00     0.078 H 
ATOM     31  H   LIG d   1      12.303   1.518  -5.915  0.00  0.00     0.078 H 
ENDBRANCH  11  28
BRANCH   5  32
ATOM     32  C   LIG d   1      10.664   4.803  -3.886  0.00  0.00     0.276 A 
ATOM     33  O   LIG d   1      11.829   5.043  -3.275  0.00  0.00    -0.332 OA
ATOM     34  N   LIG d   1      11.779   6.103  -2.688  0.00  0.00    -0.056 NA
ATOM     35  C   LIG d   1      10.603   6.652  -2.850  0.00  0.00     0.204 A 
ATOM     36  N   LIG d   1       9.877   5.819  -3.630  0.00  0.00    -0.186 NA
BRANCH  35  37
ATOM     37  C   LIG d   1      10.152   7.950  -2.289  0.00  0.00     0.041 A 
ATOM     38  C   LIG d   1      10.624   9.150  -2.814  0.00  0.00     0.038 A 
ATOM     39  N   LIG d   1      10.222  10.304  -2.321  0.00  0.00    -0.263 NA
ATOM     40  H   LIG d   1      11.325   9.136  -3.637  0.00  0.00     0.084 H 
ATOM     41  C   LIG d   1       9.372  10.371  -1.314  0.00  0.00     0.028 A 
ATOM     42  C   LIG d   1       8.861   9.223  -0.735  0.00  0.00    -0.043 A 
ATOM     43  H   LIG d   1       9.071  11.336  -0.936  0.00  0.00     0.083 H 
ATOM     44  C   LIG d   1       9.250   7.987  -1.222  0.00  0.00    -0.048 A 
ATOM     45  H   LIG d   1       8.166   9.290   0.089  0.00  0.00     0.063 H 
ATOM     46  H   LIG d   1       8.868   7.076  -0.788  0.00  0.00     0.063 H 
ENDBRANCH  35  37
ENDBRANCH   5  32
TORSDOF 5
ENDMDL
MODEL 8
REMARK VINA RESULT:      -6.8      6.917     12.289
REMARK  5 active torsions:
REMARK  status: ('A' for Active; 'I' for Inactive)
REMARK    1  A    between atoms: C_1  and  N_45 
REMARK    2  A    between atoms: C_3  and  N_19 
REMARK    3  A    between atoms: C_6  and  C_8 
REMARK    4  A    between atoms: C_10  and  C_13 
REMARK       I    between atoms: N_19  and  C_20 
REMARK    5  A    between atoms: C_20  and  C_22 
ROOT
ATOM      1  C   LIG d   1       8.418  -4.388  -4.695  0.00  0.00    -0.012 C 
ATOM      2  C   LIG d   1       8.931  -3.495  -3.545  0.00  0.00     0.069 C 
ATOM      3  H   LIG d   1       9.775  -2.889  -3.875  0.00  0.00     0.055 H 
ATOM      4  C   LIG d   1       9.382  -4.526  -2.477  0.00  0.00     0.023 C 
ATOM      5  C   LIG d   1       9.945  -5.667  -3.362  0.00  0.00     0.061 C 
ATOM      6  H   LIG d   1      10.965  -5.440  -3.670  0.00  0.00     0.095 H 
ATOM      7  H   LIG d   1       7.334  -4.484  -4.633  0.00  0.00     0.083 H 
ATOM      8  H   LIG d   1       8.699  -3.954  -5.655  0.00  0.00     0.083 H 
ATOM      9  H   LIG d   1      10.159  -4.110  -1.836  0.00  0.00     0.035 H 
ATOM     10  H   LIG d   1       8.534  -4.873  -1.886  0.00  0.00     0.035 H 
ATOM     11  N   LIG d   1       9.037  -5.713  -4.523  0.00  0.00     0.243 N 
ATOM     12  H   LIG d   1       8.305  -6.412  -4.353  0.00  0.00     0.204 HD
ENDROOT
BRANCH   2  13
ATOM     13  N   LIG d   1       7.856  -2.646  -3.029  0.00  0.00    -0.303 N 
ATOM     14  C   LIG d   1       7.385  -1.626  -3.774  0.00  0.00     0.244 C 
ATOM     15  O   LIG d   1       7.854  -1.411  -4.875  0.00  0.00    -0.270 OA
ATOM     16  H   LIG d   1       7.482  -2.816  -2.151  0.00  0.00     0.149 HD
BRANCH  14  17
ATOM     17  C   LIG d   1       6.301  -0.769  -3.253  0.00  0.00     0.037 A 
ATOM     18  C   LIG d   1       5.178  -1.346  -2.657  0.00  0.00    -0.047 A 
ATOM     19  C   LIG d   1       4.168  -0.541  -2.172  0.00  0.00    -0.026 A 
ATOM     20  H   LIG d   1       5.099  -2.420  -2.575  0.00  0.00     0.063 H 
ATOM     21  C   LIG d   1       4.266   0.838  -2.277  0.00  0.00     0.123 A 
ATOM     22  H   LIG d   1       3.299  -0.986  -1.710  0.00  0.00     0.065 H 
ATOM     23  C   LIG d   1       5.380   1.416  -2.868  0.00  0.00    -0.026 A 
ATOM     24  F   LIG d   1       3.275   1.621  -1.800  0.00  0.00    -0.205 F 
ATOM     25  C   LIG d   1       6.397   0.621  -3.351  0.00  0.00    -0.047 A 
ATOM     26  H   LIG d   1       5.452   2.491  -2.946  0.00  0.00     0.065 H 
ATOM     27  H   LIG d   1       7.266   1.071  -3.808  0.00  0.00     0.063 H 
ENDBRANCH  14  17
ENDBRANCH   2  13
BRANCH  11  28
ATOM     28  C   LIG d   1       9.789  -6.087  -5.749  0.00  0.00    -0.042 C 
ATOM     29  H   LIG d   1      10.859  -6.104  -5.536  0.00  0.00     0.078 H 
ATOM     30  H   LIG d   1       9.470  -7.077  -6.078  0.00  0.00     0.078 H 
ATOM     31  H   LIG d   1       9.587  -5.360  -6.534  0.00  0.00     0.078 H 
ENDBRANCH  11  28
BRANCH   5  32
ATOM     32  C   LIG d   1       9.901  -6.978  -2.621  0.00  0.00     0.276 A 
ATOM     33  O   LIG d   1      10.916  -7.557  -1.970  0.00  0.00    -0.332 OA
ATOM     34  N   LIG d   1      10.551  -8.604  -1.479  0.00  0.00    -0.056 NA
ATOM     35  C   LIG d   1       9.289  -8.815  -1.753  0.00  0.00     0.204 A 
ATOM     36  N   LIG d   1       8.860  -7.763  -2.487  0.00  0.00    -0.186 NA
BRANCH  35  37
ATOM     37  C   LIG d   1       8.479  -9.984  -1.333  0.00  0.00     0.041 A 
ATOM     38  C   LIG d   1       7.093  -9.887  -1.234  0.00  0.00     0.038 A 
ATOM     39  N   LIG d   1       6.371 -10.925  -0.865  0.00  0.00    -0.263 NA
ATOM     40  H   LIG d   1       6.605  -8.951  -1.466  0.00  0.00     0.084 H 
ATOM     41  C   LIG d   1       6.924 -12.085  -0.567  0.00  0.00     0.028 A 
ATOM     42  C   LIG d   1       8.294 -12.261  -0.636  0.00  0.00    -0.043 A 
ATOM     43  H   LIG d   1       6.297 -12.910  -0.264  0.00  0.00     0.083 H 
ATOM     44  C   LIG d   1       9.095 -11.200  -1.023  0.00  0.00    -0.048 A 
ATOM     45  H   LIG d   1       8.735 -13.215  -0.389  0.00  0.00     0.063 H 
ATOM     46  H   LIG d   1      10.167 -11.310  -1.085  0.00  0.00     0.063 H 
ENDBRANCH  35  37
ENDBRANCH   5  32
TORSDOF 5
ENDMDL
MODEL 9
REMARK VINA RESULT:      -6.7      2.339      3.253
REMARK  5 active torsions:
REMARK  status: ('A' for Active; 'I' for Inactive)
REMARK    1  A    between atoms: C_1  and  N_45 
REMARK    2  A    between atoms: C_3  and  N_19 
REMARK    3  A    between atoms: C_6  and  C_8 
REMARK    4  A    between atoms: C_10  and  C_13 
REMARK       I    between atoms: N_19  and  C_20 
REMARK    5  A    between atoms: C_20  and  C_22 
ROOT
ATOM      1  C   LIG d   1      10.812   2.501  -3.088  0.00  0.00    -0.012 C 
ATOM      2  C   LIG d   1       9.608   2.400  -4.047  0.00  0.00     0.069 C 
ATOM      3  H   LIG d   1       9.909   1.963  -4.999  0.00  0.00     0.055 H 
ATOM      4  C   LIG d   1       9.183   3.880  -4.232  0.00  0.00     0.023 C 
ATOM      5  C   LIG d   1      10.552   4.604  -4.209  0.00  0.00     0.061 C 
ATOM      6  H   LIG d   1      11.027   4.548  -5.188  0.00  0.00     0.095 H 
ATOM      7  H   LIG d   1      10.487   2.318  -2.064  0.00  0.00     0.083 H 
ATOM      8  H   LIG d   1      11.575   1.776  -3.371  0.00  0.00     0.083 H 
ATOM      9  H   LIG d   1       8.680   4.025  -5.189  0.00  0.00     0.035 H 
ATOM     10  H   LIG d   1       8.552   4.211  -3.407  0.00  0.00     0.035 H 
ATOM     11  N   LIG d   1      11.336   3.874  -3.196  0.00  0.00     0.243 N 
ATOM     12  H   LIG d   1      11.242   4.347  -2.289  0.00  0.00     0.204 HD
ENDROOT
BRANCH   2  13
ATOM     13  N   LIG d   1       8.528   1.618  -3.441  0.00  0.00    -0.303 N 
ATOM     14  C   LIG d   1       7.765   0.812  -4.207  0.00  0.00     0.244 C 
ATOM     15  O   LIG d   1       7.975   0.735  -5.402  0.00  0.00    -0.270 OA
ATOM     16  H   LIG d   1       8.360   1.680  -2.487  0.00  0.00     0.149 HD
BRANCH  14  17
ATOM     17  C   LIG d   1       6.676   0.024  -3.595  0.00  0.00     0.037 A 
ATOM     18  C   LIG d   1       5.736   0.650  -2.773  0.00  0.00    -0.047 A 
ATOM     19  C   LIG d   1       4.721  -0.090  -2.204  0.00  0.00    -0.026 A 
ATOM     20  H   LIG d   1       5.803   1.711  -2.583  0.00  0.00     0.063 H 
ATOM     21  C   LIG d   1       4.634  -1.453  -2.447  0.00  0.00     0.123 A 
ATOM     22  H   LIG d   1       3.993   0.392  -1.569  0.00  0.00     0.065 H 
ATOM     23  C   LIG d   1       5.564  -2.078  -3.263  0.00  0.00    -0.026 A 
ATOM     24  F   LIG d   1       3.637  -2.173  -1.888  0.00  0.00    -0.205 F 
ATOM     25  C   LIG d   1       6.580  -1.347  -3.841  0.00  0.00    -0.047 A 
ATOM     26  H   LIG d   1       5.491  -3.140  -3.449  0.00  0.00     0.065 H 
ATOM     27  H   LIG d   1       7.302  -1.834  -4.479  0.00  0.00     0.063 H 
ENDBRANCH  14  17
ENDBRANCH   2  13
BRANCH  11  28
ATOM     28  C   LIG d   1      12.772   3.843  -3.580  0.00  0.00    -0.042 C 
ATOM     29  H   LIG d   1      13.226   2.912  -3.238  0.00  0.00     0.078 H 
ATOM     30  H   LIG d   1      12.855   3.910  -4.665  0.00  0.00     0.078 H 
ATOM     31  H   LIG d   1      13.287   4.687  -3.123  0.00  0.00     0.078 H 
ENDBRANCH  11  28
BRANCH   5  32
ATOM     32  C   LIG d   1      10.381   6.041  -3.791  0.00  0.00     0.276 A 
ATOM     33  O   LIG d   1      10.322   6.503  -2.538  0.00  0.00    -0.332 OA
ATOM     34  N   LIG d   1      10.181   7.707  -2.545  0.00  0.00    -0.056 NA
ATOM     35  C   LIG d   1      10.133   8.148  -3.775  0.00  0.00     0.204 A 
ATOM     36  N   LIG d   1      10.268   7.075  -4.588  0.00  0.00    -0.186 NA
BRANCH  35  37
ATOM     37  C   LIG d   1       9.968   9.560  -4.200  0.00  0.00     0.041 A 
ATOM     38  C   LIG d   1       9.959  10.586  -3.258  0.00  0.00     0.038 A 
ATOM     39  N   LIG d   1       9.818  11.841  -3.633  0.00  0.00    -0.263 NA
ATOM     40  H   LIG d   1      10.072  10.350  -2.209  0.00  0.00     0.084 H 
ATOM     41  C   LIG d   1       9.670  12.175  -4.900  0.00  0.00     0.028 A 
ATOM     42  C   LIG d   1       9.664  11.214  -5.895  0.00  0.00    -0.043 A 
ATOM     43  H   LIG d   1       9.553  13.215  -5.165  0.00  0.00     0.083 H 
ATOM     44  C   LIG d   1       9.815   9.882  -5.551  0.00  0.00    -0.048 A 
ATOM     45  H   LIG d   1       9.543  11.500  -6.929  0.00  0.00     0.063 H 
ATOM     46  H   LIG d   1       9.813   9.111  -6.307  0.00  0.00     0.063 H 
ENDBRANCH  35  37
ENDBRANCH   5  32
TORSDOF 5
ENDMDL
