MODEL 1
REMARK VINA RESULT:      -6.6      0.000      0.000
REMARK  13 active torsions:
REMARK  status: ('A' for Active; 'I' for Inactive)
REMARK    1  A    between atoms: C_1  and  C_2 
REMARK    2  A    between atoms: C_2  and  N_3 
REMARK    3  A    between atoms: N_11  and  C_42 
REMARK    4  A    between atoms: C_14  and  N_15 
REMARK    5  A    between atoms: N_18  and  C_21 
REMARK    6  A    between atoms: C_21  and  C_22 
REMARK       I    between atoms: C_22  and  N_24 
REMARK    7  A    between atoms: N_24  and  C_25 
REMARK    8  A    between atoms: C_28  and  O_40 
REMARK    9  A    between atoms: C_34  and  C_35 
REMARK   10  A    between atoms: C_35  and  O_37 
REMARK   11  A    between atoms: O_37  and  C_38 
REMARK   12  A    between atoms: C_38  and  C_39 
REMARK   13  A    between atoms: O_40  and  C_41 
ROOT
ATOM      1  N   LIG d   1       9.581   3.247  -4.264  0.00  0.00    -0.298 N 
ATOM      2  C   LIG d   1       8.738   2.166  -3.733  0.00  0.00     0.028 C 
ATOM      3  C   LIG d   1       8.931   0.923  -4.610  0.00  0.00     0.015 C 
ATOM      4  N   LIG d   1       8.678   1.276  -6.014  0.00  0.00    -0.291 N 
ATOM      5  C   LIG d   1       9.646   2.269  -6.496  0.00  0.00     0.015 C 
ATOM      6  C   LIG d   1       9.479   3.570  -5.695  0.00  0.00     0.028 C 
ATOM      7  H   LIG d   1       9.035   1.939  -2.709  0.00  0.00     0.048 H 
ATOM      8  H   LIG d   1       7.692   2.471  -3.755  0.00  0.00     0.048 H 
ATOM      9  H   LIG d   1       9.952   0.559  -4.505  0.00  0.00     0.044 H 
ATOM     10  H   LIG d   1       8.232   0.147  -4.299  0.00  0.00     0.044 H 
ATOM     11  H   LIG d   1      10.658   1.886  -6.365  0.00  0.00     0.044 H 
ATOM     12  H   LIG d   1       9.468   2.469  -7.553  0.00  0.00     0.044 H 
ATOM     13  H   LIG d   1       8.504   4.009  -5.902  0.00  0.00     0.048 H 
ATOM     14  H   LIG d   1      10.265   4.274  -5.968  0.00  0.00     0.048 H 
ENDROOT
BRANCH   4  15
ATOM     15  C   LIG d   1       8.683   0.078  -6.866  0.00  0.00     0.076 C 
ATOM     16  H   LIG d   1       9.195   0.302  -7.802  0.00  0.00     0.052 H 
ATOM     17  H   LIG d   1       9.201  -0.731  -6.352  0.00  0.00     0.052 H 
BRANCH  15  18
ATOM     18  C   LIG d   1       7.264  -0.336  -7.156  0.00  0.00     0.231 C 
ATOM     19  O   LIG d   1       7.028  -1.454  -7.564  0.00  0.00    -0.274 OA
ATOM     20  N   LIG d   1       6.255   0.537  -6.963  0.00  0.00    -0.282 N 
ATOM     21  H   LIG d   1       6.446   1.448  -6.691  0.00  0.00     0.155 HD
BRANCH  20  22
ATOM     22  C   LIG d   1       4.937   0.130  -7.153  0.00  0.00     0.073 A 
ATOM     23  C   LIG d   1       4.062  -0.307  -6.180  0.00  0.00     0.147 A 
ATOM     24  N   LIG d   1       2.847  -0.615  -6.773  0.00  0.00    -0.347 N 
ATOM     25  C   LIG d   1       2.919  -0.392  -8.131  0.00  0.00     0.049 A 
ATOM     26  H   LIG d   1       2.064  -0.942  -6.304  0.00  0.00     0.166 HD
ATOM     27  C   LIG d   1       4.212   0.078  -8.424  0.00  0.00     0.025 A 
ATOM     28  C   LIG d   1       1.996  -0.545  -9.162  0.00  0.00    -0.034 A 
ATOM     29  C   LIG d   1       4.561   0.386  -9.744  0.00  0.00    -0.009 A 
ATOM     30  C   LIG d   1       3.631   0.227 -10.750  0.00  0.00     0.121 A 
ATOM     31  H   LIG d   1       5.553   0.747  -9.972  0.00  0.00     0.066 H 
ATOM     32  C   LIG d   1       2.351  -0.238 -10.457  0.00  0.00    -0.018 A 
ATOM     33  H   LIG d   1       1.630  -0.359 -11.251  0.00  0.00     0.066 H 
ATOM     34  H   LIG d   1       1.000  -0.904  -8.948  0.00  0.00     0.064 H 
BRANCH  23  35
ATOM     35  C   LIG d   1       4.355  -0.419  -4.797  0.00  0.00     0.357 C 
ATOM     36  O   LIG d   1       4.015  -1.412  -4.182  0.00  0.00    -0.243 OA
BRANCH  35  37
ATOM     37  O   LIG d   1       5.009   0.576  -4.162  0.00  0.00    -0.460 OA
BRANCH  37  38
ATOM     38  C   LIG d   1       5.512   0.293  -2.855  0.00  0.00     0.090 C 
ATOM     39  H   LIG d   1       5.536  -0.785  -2.702  0.00  0.00     0.070 H 
ATOM     40  H   LIG d   1       6.519   0.697  -2.758  0.00  0.00     0.070 H 
BRANCH  38  41
ATOM     41  C   LIG d   1       4.601   0.937  -1.808  0.00  0.00    -0.031 C 
ATOM     42  H   LIG d   1       5.064   0.853  -0.824  0.00  0.00     0.026 H 
ATOM     43  H   LIG d   1       4.454   1.989  -2.052  0.00  0.00     0.026 H 
ATOM     44  H   LIG d   1       3.637   0.427  -1.801  0.00  0.00     0.026 H 
ENDBRANCH  38  41
ENDBRANCH  37  38
ENDBRANCH  35  37
ENDBRANCH  23  35
BRANCH  30  45
ATOM     45  O   LIG d   1       3.965   0.526 -12.035  0.00  0.00    -0.495 OA
BRANCH  45  46
ATOM     46  C   LIG d   1       4.348  -0.564 -12.875  0.00  0.00     0.079 C 
ATOM     47  H   LIG d   1       3.802  -1.459 -12.580  0.00  0.00     0.066 H 
ATOM     48  H   LIG d   1       4.115  -0.322 -13.913  0.00  0.00     0.066 H 
ATOM     49  H   LIG d   1       5.418  -0.741 -12.775  0.00  0.00     0.066 H 
ENDBRANCH  45  46
ENDBRANCH  30  45
ENDBRANCH  20  22
ENDBRANCH  15  18
ENDBRANCH   4  15
BRANCH   1  50
ATOM     50  C   LIG d   1      10.439   3.942  -3.443  0.00  0.00     0.201 A 
ATOM     51  N   LIG d   1      11.788   3.780  -3.397  0.00  0.00    -0.306 N 
ATOM     52  C   LIG d   1      12.267   4.673  -2.447  0.00  0.00     0.153 A 
ATOM     53  C   LIG d   1      11.156   5.345  -1.948  0.00  0.00     0.170 A 
ATOM     54  C   LIG d   1      13.543   4.989  -1.949  0.00  0.00     0.280 A 
ATOM     55  N   LIG d   1      11.344   6.310  -0.972  0.00  0.00    -0.280 N 
ATOM     56  N   LIG d   1      10.081   4.868  -2.576  0.00  0.00    -0.196 NA
ATOM     57  C   LIG d   1      12.584   6.581  -0.521  0.00  0.00     0.331 A 
ATOM     58  N   LIG d   1      13.663   5.937  -0.997  0.00  0.00    -0.273 N 
ATOM     59  O   LIG d   1      12.731   7.431   0.337  0.00  0.00    -0.246 OA
ATOM     60  H   LIG d   1      14.542   6.158  -0.651  0.00  0.00     0.173 HD
ATOM     61  O   LIG d   1      14.529   4.412  -2.372  0.00  0.00    -0.265 OA
BRANCH  51  62
ATOM     62  C   LIG d   1      12.583   2.847  -4.199  0.00  0.00     0.024 C 
ATOM     63  H   LIG d   1      13.618   3.188  -4.234  0.00  0.00     0.049 H 
ATOM     64  H   LIG d   1      12.180   2.802  -5.211  0.00  0.00     0.049 H 
BRANCH  62  65
ATOM     65  C   LIG d   1      12.527   1.456  -3.566  0.00  0.00    -0.047 C 
ATOM     66  H   LIG d   1      13.438   0.907  -3.810  0.00  0.00     0.025 H 
ATOM     67  H   LIG d   1      12.440   1.552  -2.483  0.00  0.00     0.025 H 
ATOM     68  H   LIG d   1      11.663   0.915  -3.952  0.00  0.00     0.025 H 
ENDBRANCH  62  65
ENDBRANCH  51  62
BRANCH  55  69
ATOM     69  C   LIG d   1      10.193   7.034  -0.427  0.00  0.00     0.018 C 
ATOM     70  H   LIG d   1       9.390   6.330  -0.211  0.00  0.00     0.046 H 
ATOM     71  H   LIG d   1      10.486   7.544   0.491  0.00  0.00     0.046 H 
ATOM     72  H   LIG d   1       9.847   7.768  -1.155  0.00  0.00     0.046 H 
ENDBRANCH  55  69
ENDBRANCH   1  50
TORSDOF 13
ENDMDL
MODEL 2
REMARK VINA RESULT:      -6.5      1.565      2.126
REMARK  13 active torsions:
REMARK  status: ('A' for Active; 'I' for Inactive)
REMARK    1  A    between atoms: C_1  and  C_2 
REMARK    2  A    between atoms: C_2  and  N_3 
REMARK    3  A    between atoms: N_11  and  C_42 
REMARK    4  A    between atoms: C_14  and  N_15 
REMARK    5  A    between atoms: N_18  and  C_21 
REMARK    6  A    between atoms: C_21  and  C_22 
REMARK       I    between atoms: C_22  and  N_24 
REMARK    7  A    between atoms: N_24  and  C_25 
REMARK    8  A    between atoms: C_28  and  O_40 
REMARK    9  A    between atoms: C_34  and  C_35 
REMARK   10  A    between atoms: C_35  and  O_37 
REMARK   11  A    between atoms: O_37  and  C_38 
REMARK   12  A    between atoms: C_38  and  C_39 
REMARK   13  A    between atoms: O_40  and  C_41 
ROOT
ATOM      1  N   LIG d   1       9.836   2.863  -3.818  0.00  0.00    -0.298 N 
ATOM      2  C   LIG d   1      10.919   2.155  -4.516  0.00  0.00     0.028 C 
ATOM      3  C   LIG d   1      10.414   1.739  -5.903  0.00  0.00     0.015 C 
ATOM      4  N   LIG d   1       9.167   0.977  -5.757  0.00  0.00    -0.291 N 
ATOM      5  C   LIG d   1       8.104   1.801  -5.166  0.00  0.00     0.015 C 
ATOM      6  C   LIG d   1       8.517   2.217  -3.745  0.00  0.00     0.028 C 
ATOM      7  H   LIG d   1      11.779   2.816  -4.624  0.00  0.00     0.048 H 
ATOM      8  H   LIG d   1      11.204   1.268  -3.950  0.00  0.00     0.048 H 
ATOM      9  H   LIG d   1      10.229   2.629  -6.503  0.00  0.00     0.044 H 
ATOM     10  H   LIG d   1      11.165   1.118  -6.391  0.00  0.00     0.044 H 
ATOM     11  H   LIG d   1       7.951   2.690  -5.778  0.00  0.00     0.044 H 
ATOM     12  H   LIG d   1       7.179   1.226  -5.121  0.00  0.00     0.044 H 
ATOM     13  H   LIG d   1       8.574   1.337  -3.105  0.00  0.00     0.048 H 
ATOM     14  H   LIG d   1       7.787   2.919  -3.341  0.00  0.00     0.048 H 
ENDROOT
BRANCH   4  15
ATOM     15  C   LIG d   1       8.741   0.413  -7.046  0.00  0.00     0.076 C 
ATOM     16  H   LIG d   1       9.215   0.966  -7.857  0.00  0.00     0.052 H 
ATOM     17  H   LIG d   1       9.035  -0.635  -7.098  0.00  0.00     0.052 H 
BRANCH  15  18
ATOM     18  C   LIG d   1       7.244   0.523  -7.171  0.00  0.00     0.231 C 
ATOM     19  O   LIG d   1       6.737   1.576  -7.499  0.00  0.00    -0.274 OA
ATOM     20  N   LIG d   1       6.466  -0.548  -6.917  0.00  0.00    -0.282 N 
ATOM     21  H   LIG d   1       6.865  -1.373  -6.600  0.00  0.00     0.155 HD
BRANCH  20  22
ATOM     22  C   LIG d   1       5.090  -0.471  -7.111  0.00  0.00     0.073 A 
ATOM     23  C   LIG d   1       4.119  -0.467  -6.131  0.00  0.00     0.147 A 
ATOM     24  N   LIG d   1       2.873  -0.375  -6.733  0.00  0.00    -0.347 N 
ATOM     25  C   LIG d   1       3.017  -0.326  -8.102  0.00  0.00     0.049 A 
ATOM     26  H   LIG d   1       2.026  -0.351  -6.261  0.00  0.00     0.166 HD
ATOM     27  C   LIG d   1       4.391  -0.383  -8.395  0.00  0.00     0.025 A 
ATOM     28  C   LIG d   1       2.098  -0.236  -9.145  0.00  0.00    -0.034 A 
ATOM     29  C   LIG d   1       4.824  -0.350  -9.726  0.00  0.00    -0.009 A 
ATOM     30  C   LIG d   1       3.897  -0.262 -10.742  0.00  0.00     0.121 A 
ATOM     31  H   LIG d   1       5.879  -0.394  -9.954  0.00  0.00     0.066 H 
ATOM     32  C   LIG d   1       2.536  -0.205 -10.450  0.00  0.00    -0.018 A 
ATOM     33  H   LIG d   1       1.818  -0.136 -11.253  0.00  0.00     0.066 H 
ATOM     34  H   LIG d   1       1.040  -0.191  -8.930  0.00  0.00     0.064 H 
BRANCH  23  35
ATOM     35  C   LIG d   1       4.356  -0.541  -4.735  0.00  0.00     0.357 C 
ATOM     36  O   LIG d   1       3.947  -1.494  -4.099  0.00  0.00    -0.243 OA
BRANCH  35  37
ATOM     37  O   LIG d   1       5.034   0.445  -4.111  0.00  0.00    -0.460 OA
BRANCH  37  38
ATOM     38  C   LIG d   1       5.480   0.184  -2.780  0.00  0.00     0.090 C 
ATOM     39  H   LIG d   1       5.428  -0.886  -2.582  0.00  0.00     0.070 H 
ATOM     40  H   LIG d   1       6.510   0.525  -2.669  0.00  0.00     0.070 H 
BRANCH  38  41
ATOM     41  C   LIG d   1       4.587   0.930  -1.787  0.00  0.00    -0.031 C 
ATOM     42  H   LIG d   1       3.768   1.411  -2.325  0.00  0.00     0.026 H 
ATOM     43  H   LIG d   1       4.180   0.225  -1.062  0.00  0.00     0.026 H 
ATOM     44  H   LIG d   1       5.174   1.687  -1.267  0.00  0.00     0.026 H 
ENDBRANCH  38  41
ENDBRANCH  37  38
ENDBRANCH  35  37
ENDBRANCH  23  35
BRANCH  30  45
ATOM     45  O   LIG d   1       4.312  -0.230 -12.038  0.00  0.00    -0.495 OA
BRANCH  45  46
ATOM     46  C   LIG d   1       3.617  -1.068 -12.963  0.00  0.00     0.079 C 
ATOM     47  H   LIG d   1       3.557  -2.079 -12.562  0.00  0.00     0.066 H 
ATOM     48  H   LIG d   1       2.611  -0.679 -13.120  0.00  0.00     0.066 H 
ATOM     49  H   LIG d   1       4.153  -1.083 -13.911  0.00  0.00     0.066 H 
ENDBRANCH  45  46
ENDBRANCH  30  45
ENDBRANCH  20  22
ENDBRANCH  15  18
ENDBRANCH   4  15
BRANCH   1  50
ATOM     50  C   LIG d   1      10.052   4.093  -3.242  0.00  0.00     0.201 A 
ATOM     51  N   LIG d   1       9.894   5.291  -3.864  0.00  0.00    -0.306 N 
ATOM     52  C   LIG d   1      10.207   6.272  -2.932  0.00  0.00     0.153 A 
ATOM     53  C   LIG d   1      10.553   5.602  -1.762  0.00  0.00     0.170 A 
ATOM     54  C   LIG d   1      10.235   7.677  -2.954  0.00  0.00     0.280 A 
ATOM     55  N   LIG d   1      10.915   6.347  -0.651  0.00  0.00    -0.280 N 
ATOM     56  N   LIG d   1      10.447   4.295  -2.001  0.00  0.00    -0.196 NA
ATOM     57  C   LIG d   1      10.929   7.692  -0.715  0.00  0.00     0.331 A 
ATOM     58  N   LIG d   1      10.597   8.346  -1.840  0.00  0.00    -0.273 N 
ATOM     59  O   LIG d   1      11.249   8.329   0.271  0.00  0.00    -0.246 OA
ATOM     60  H   LIG d   1      10.617   9.317  -1.851  0.00  0.00     0.173 HD
ATOM     61  O   LIG d   1       9.936   8.283  -3.967  0.00  0.00    -0.265 OA
BRANCH  51  62
ATOM     62  C   LIG d   1       9.471   5.506  -5.250  0.00  0.00     0.024 C 
ATOM     63  H   LIG d   1       8.924   6.446  -5.322  0.00  0.00     0.049 H 
ATOM     64  H   LIG d   1       8.825   4.686  -5.564  0.00  0.00     0.049 H 
BRANCH  62  65
ATOM     65  C   LIG d   1      10.702   5.562  -6.156  0.00  0.00    -0.047 C 
ATOM     66  H   LIG d   1      10.405   5.883  -7.155  0.00  0.00     0.025 H 
ATOM     67  H   LIG d   1      11.423   6.270  -5.747  0.00  0.00     0.025 H 
ATOM     68  H   LIG d   1      11.157   4.573  -6.213  0.00  0.00     0.025 H 
ENDBRANCH  62  65
ENDBRANCH  51  62
BRANCH  55  69
ATOM     69  C   LIG d   1      11.284   5.669   0.595  0.00  0.00     0.018 C 
ATOM     70  H   LIG d   1      12.313   5.316   0.524  0.00  0.00     0.046 H 
ATOM     71  H   LIG d   1      11.195   6.367   1.427  0.00  0.00     0.046 H 
ATOM     72  H   LIG d   1      10.619   4.821   0.758  0.00  0.00     0.046 H 
ENDBRANCH  55  69
ENDBRANCH   1  50
TORSDOF 13
ENDMDL
MODEL 3
REMARK VINA RESULT:      -6.4      3.087      4.302
REMARK  13 active torsions:
REMARK  status: ('A' for Active; 'I' for Inactive)
REMARK    1  A    between atoms: C_1  and  C_2 
REMARK    2  A    between atoms: C_2  and  N_3 
REMARK    3  A    between atoms: N_11  and  C_42 
REMARK    4  A    between atoms: C_14  and  N_15 
REMARK    5  A    between atoms: N_18  and  C_21 
REMARK    6  A    between atoms: C_21  and  C_22 
REMARK       I    between atoms: C_22  and  N_24 
REMARK    7  A    between atoms: N_24  and  C_25 
REMARK    8  A    between atoms: C_28  and  O_40 
REMARK    9  A    between atoms: C_34  and  C_35 
REMARK   10  A    between atoms: C_35  and  O_37 
REMARK   11  A    between atoms: O_37  and  C_38 
REMARK   12  A    between atoms: C_38  and  C_39 
REMARK   13  A    between atoms: O_40  and  C_41 
ROOT
ATOM      1  N   LIG d   1       9.700   2.978  -3.557  0.00  0.00    -0.298 N 
ATOM      2  C   LIG d   1      10.819   2.030  -3.657  0.00  0.00     0.028 C 
ATOM      3  C   LIG d   1      10.722   1.301  -5.002  0.00  0.00     0.015 C 
ATOM      4  N   LIG d   1       9.386   0.702  -5.134  0.00  0.00    -0.291 N 
ATOM      5  C   LIG d   1       8.340   1.732  -5.152  0.00  0.00     0.015 C 
ATOM      6  C   LIG d   1       8.340   2.477  -3.807  0.00  0.00     0.028 C 
ATOM      7  H   LIG d   1      11.764   2.572  -3.603  0.00  0.00     0.048 H 
ATOM      8  H   LIG d   1      10.761   1.306  -2.844  0.00  0.00     0.048 H 
ATOM      9  H   LIG d   1      10.884   2.011  -5.812  0.00  0.00     0.044 H 
ATOM     10  H   LIG d   1      11.478   0.517  -5.046  0.00  0.00     0.044 H 
ATOM     11  H   LIG d   1       8.535   2.436  -5.961  0.00  0.00     0.044 H 
ATOM     12  H   LIG d   1       7.368   1.262  -5.305  0.00  0.00     0.044 H 
ATOM     13  H   LIG d   1       8.047   1.797  -3.008  0.00  0.00     0.048 H 
ATOM     14  H   LIG d   1       7.644   3.315  -3.852  0.00  0.00     0.048 H 
ENDROOT
BRANCH   4  15
ATOM     15  C   LIG d   1       9.308  -0.149  -6.329  0.00  0.00     0.076 C 
ATOM     16  H   LIG d   1       9.363   0.474  -7.222  0.00  0.00     0.052 H 
ATOM     17  H   LIG d   1      10.137  -0.856  -6.327  0.00  0.00     0.052 H 
BRANCH  15  18
ATOM     18  C   LIG d   1       8.003  -0.902  -6.323  0.00  0.00     0.231 C 
ATOM     19  O   LIG d   1       7.386  -1.057  -7.356  0.00  0.00    -0.274 OA
ATOM     20  N   LIG d   1       7.521  -1.404  -5.169  0.00  0.00    -0.282 N 
ATOM     21  H   LIG d   1       7.984  -1.234  -4.334  0.00  0.00     0.155 HD
BRANCH  20  22
ATOM     22  C   LIG d   1       6.359  -2.170  -5.175  0.00  0.00     0.073 A 
ATOM     23  C   LIG d   1       5.068  -1.709  -5.016  0.00  0.00     0.147 A 
ATOM     24  N   LIG d   1       4.194  -2.784  -5.086  0.00  0.00    -0.347 N 
ATOM     25  C   LIG d   1       4.901  -3.949  -5.283  0.00  0.00     0.049 A 
ATOM     26  H   LIG d   1       3.230  -2.724  -5.007  0.00  0.00     0.166 HD
ATOM     27  C   LIG d   1       6.268  -3.622  -5.346  0.00  0.00     0.025 A 
ATOM     28  C   LIG d   1       4.510  -5.280  -5.416  0.00  0.00    -0.034 A 
ATOM     29  C   LIG d   1       7.220  -4.629  -5.541  0.00  0.00    -0.009 A 
ATOM     30  C   LIG d   1       6.810  -5.939  -5.670  0.00  0.00     0.121 A 
ATOM     31  H   LIG d   1       8.270  -4.380  -5.590  0.00  0.00     0.066 H 
ATOM     32  C   LIG d   1       5.456  -6.261  -5.608  0.00  0.00    -0.018 A 
ATOM     33  H   LIG d   1       5.145  -7.290  -5.710  0.00  0.00     0.066 H 
ATOM     34  H   LIG d   1       3.463  -5.541  -5.370  0.00  0.00     0.064 H 
BRANCH  23  35
ATOM     35  C   LIG d   1       4.695  -0.356  -4.817  0.00  0.00     0.357 C 
ATOM     36  O   LIG d   1       3.723   0.098  -5.392  0.00  0.00    -0.243 OA
BRANCH  35  37
ATOM     37  O   LIG d   1       5.417   0.430  -3.991  0.00  0.00    -0.460 OA
BRANCH  37  38
ATOM     38  C   LIG d   1       5.375   0.119  -2.597  0.00  0.00     0.090 C 
ATOM     39  H   LIG d   1       5.147  -0.939  -2.468  0.00  0.00     0.070 H 
ATOM     40  H   LIG d   1       6.343   0.340  -2.147  0.00  0.00     0.070 H 
BRANCH  38  41
ATOM     41  C   LIG d   1       4.294   0.961  -1.919  0.00  0.00    -0.031 C 
ATOM     42  H   LIG d   1       3.366   0.888  -2.488  0.00  0.00     0.026 H 
ATOM     43  H   LIG d   1       4.127   0.593  -0.906  0.00  0.00     0.026 H 
ATOM     44  H   LIG d   1       4.615   2.002  -1.879  0.00  0.00     0.026 H 
ENDBRANCH  38  41
ENDBRANCH  37  38
ENDBRANCH  35  37
ENDBRANCH  23  35
BRANCH  30  45
ATOM     45  O   LIG d   1       7.732  -6.922  -5.860  0.00  0.00    -0.495 OA
BRANCH  45  46
ATOM     46  C   LIG d   1       7.538  -8.140  -5.140  0.00  0.00     0.079 C 
ATOM     47  H   LIG d   1       7.249  -8.930  -5.833  0.00  0.00     0.066 H 
ATOM     48  H   LIG d   1       8.466  -8.418  -4.640  0.00  0.00     0.066 H 
ATOM     49  H   LIG d   1       6.753  -8.002  -4.398  0.00  0.00     0.066 H 
ENDBRANCH  45  46
ENDBRANCH  30  45
ENDBRANCH  20  22
ENDBRANCH  15  18
ENDBRANCH   4  15
BRANCH   1  50
ATOM     50  C   LIG d   1       9.918   4.297  -3.233  0.00  0.00     0.201 A 
ATOM     51  N   LIG d   1       9.867   5.340  -4.104  0.00  0.00    -0.306 N 
ATOM     52  C   LIG d   1      10.140   6.488  -3.371  0.00  0.00     0.153 A 
ATOM     53  C   LIG d   1      10.352   6.073  -2.060  0.00  0.00     0.170 A 
ATOM     54  C   LIG d   1      10.230   7.855  -3.683  0.00  0.00     0.280 A 
ATOM     55  N   LIG d   1      10.647   7.027  -1.100  0.00  0.00    -0.280 N 
ATOM     56  N   LIG d   1      10.211   4.747  -2.030  0.00  0.00    -0.196 NA
ATOM     57  C   LIG d   1      10.725   8.327  -1.441  0.00  0.00     0.331 A 
ATOM     58  N   LIG d   1      10.522   8.737  -2.704  0.00  0.00    -0.273 N 
ATOM     59  O   LIG d   1      10.985   9.150  -0.584  0.00  0.00    -0.246 OA
ATOM     60  H   LIG d   1      10.585   9.682  -2.915  0.00  0.00     0.173 HD
ATOM     61  O   LIG d   1      10.048   8.240  -4.824  0.00  0.00    -0.265 OA
BRANCH  51  62
ATOM     62  C   LIG d   1       9.577   5.267  -5.538  0.00  0.00     0.024 C 
ATOM     63  H   LIG d   1       9.148   6.211  -5.871  0.00  0.00     0.049 H 
ATOM     64  H   LIG d   1       8.868   4.460  -5.724  0.00  0.00     0.049 H 
BRANCH  62  65
ATOM     65  C   LIG d   1      10.871   4.996  -6.306  0.00  0.00    -0.047 C 
ATOM     66  H   LIG d   1      10.851   3.982  -6.708  0.00  0.00     0.025 H 
ATOM     67  H   LIG d   1      10.964   5.709  -7.126  0.00  0.00     0.025 H 
ATOM     68  H   LIG d   1      11.723   5.103  -5.634  0.00  0.00     0.025 H 
ENDBRANCH  62  65
ENDBRANCH  51  62
BRANCH  55  69
ATOM     69  C   LIG d   1      10.876   6.619   0.290  0.00  0.00     0.018 C 
ATOM     70  H   LIG d   1      11.866   6.947   0.605  0.00  0.00     0.046 H 
ATOM     71  H   LIG d   1      10.120   7.074   0.930  0.00  0.00     0.046 H 
ATOM     72  H   LIG d   1      10.811   5.534   0.366  0.00  0.00     0.046 H 
ENDBRANCH  55  69
ENDBRANCH   1  50
TORSDOF 13
ENDMDL
MODEL 4
REMARK VINA RESULT:      -6.3      3.867      5.484
REMARK  13 active torsions:
REMARK  status: ('A' for Active; 'I' for Inactive)
REMARK    1  A    between atoms: C_1  and  C_2 
REMARK    2  A    between atoms: C_2  and  N_3 
REMARK    3  A    between atoms: N_11  and  C_42 
REMARK    4  A    between atoms: C_14  and  N_15 
REMARK    5  A    between atoms: N_18  and  C_21 
REMARK    6  A    between atoms: C_21  and  C_22 
REMARK       I    between atoms: C_22  and  N_24 
REMARK    7  A    between atoms: N_24  and  C_25 
REMARK    8  A    between atoms: C_28  and  O_40 
REMARK    9  A    between atoms: C_34  and  C_35 
REMARK   10  A    between atoms: C_35  and  O_37 
REMARK   11  A    between atoms: O_37  and  C_38 
REMARK   12  A    between atoms: C_38  and  C_39 
REMARK   13  A    between atoms: O_40  and  C_41 
ROOT
ATOM      1  N   LIG d   1      10.297   4.041  -3.803  0.00  0.00    -0.298 N 
ATOM      2  C   LIG d   1      11.612   3.429  -4.044  0.00  0.00     0.028 C 
ATOM      3  C   LIG d   1      11.474   2.412  -5.182  0.00  0.00     0.015 C 
ATOM      4  N   LIG d   1      10.397   1.465  -4.860  0.00  0.00    -0.291 N 
ATOM      5  C   LIG d   1       9.100   2.146  -4.762  0.00  0.00     0.015 C 
ATOM      6  C   LIG d   1       9.142   3.153  -3.601  0.00  0.00     0.028 C 
ATOM      7  H   LIG d   1      12.328   4.200  -4.328  0.00  0.00     0.048 H 
ATOM      8  H   LIG d   1      11.952   2.923  -3.140  0.00  0.00     0.048 H 
ATOM      9  H   LIG d   1      11.234   2.933  -6.108  0.00  0.00     0.044 H 
ATOM     10  H   LIG d   1      12.412   1.869  -5.300  0.00  0.00     0.044 H 
ATOM     11  H   LIG d   1       8.894   2.671  -5.695  0.00  0.00     0.044 H 
ATOM     12  H   LIG d   1       8.316   1.412  -4.577  0.00  0.00     0.044 H 
ATOM     13  H   LIG d   1       9.249   2.622  -2.656  0.00  0.00     0.048 H 
ATOM     14  H   LIG d   1       8.225   3.741  -3.592  0.00  0.00     0.048 H 
ENDROOT
BRANCH   4  15
ATOM     15  C   LIG d   1      10.347   0.372  -5.841  0.00  0.00     0.076 C 
ATOM     16  H   LIG d   1      10.383   0.788  -6.848  0.00  0.00     0.052 H 
ATOM     17  H   LIG d   1      11.198  -0.291  -5.690  0.00  0.00     0.052 H 
BRANCH  15  18
ATOM     18  C   LIG d   1       9.066  -0.402  -5.664  0.00  0.00     0.231 C 
ATOM     19  O   LIG d   1       8.187  -0.322  -6.496  0.00  0.00    -0.274 OA
ATOM     20  N   LIG d   1       8.896  -1.182  -4.578  0.00  0.00    -0.282 N 
ATOM     21  H   LIG d   1       9.574  -1.203  -3.884  0.00  0.00     0.155 HD
BRANCH  20  22
ATOM     22  C   LIG d   1       7.749  -1.960  -4.453  0.00  0.00     0.073 A 
ATOM     23  C   LIG d   1       7.544  -3.217  -4.983  0.00  0.00     0.147 A 
ATOM     24  N   LIG d   1       6.276  -3.653  -4.632  0.00  0.00    -0.347 N 
ATOM     25  C   LIG d   1       5.641  -2.689  -3.880  0.00  0.00     0.049 A 
ATOM     26  H   LIG d   1       5.891  -4.508  -4.880  0.00  0.00     0.166 HD
ATOM     27  C   LIG d   1       6.523  -1.602  -3.737  0.00  0.00     0.025 A 
ATOM     28  C   LIG d   1       4.379  -2.628  -3.294  0.00  0.00    -0.034 A 
ATOM     29  C   LIG d   1       6.128  -0.473  -3.011  0.00  0.00    -0.009 A 
ATOM     30  C   LIG d   1       4.874  -0.434  -2.439  0.00  0.00     0.121 A 
ATOM     31  H   LIG d   1       6.803   0.363  -2.899  0.00  0.00     0.066 H 
ATOM     32  C   LIG d   1       4.002  -1.511  -2.582  0.00  0.00    -0.018 A 
ATOM     33  H   LIG d   1       3.023  -1.471  -2.130  0.00  0.00     0.066 H 
ATOM     34  H   LIG d   1       3.695  -3.457  -3.397  0.00  0.00     0.064 H 
BRANCH  23  35
ATOM     35  C   LIG d   1       8.480  -3.947  -5.760  0.00  0.00     0.357 C 
ATOM     36  O   LIG d   1       8.218  -4.240  -6.911  0.00  0.00    -0.243 OA
BRANCH  35  37
ATOM     37  O   LIG d   1       9.660  -4.319  -5.222  0.00  0.00    -0.460 OA
BRANCH  37  38
ATOM     38  C   LIG d   1       9.612  -5.082  -4.015  0.00  0.00     0.090 C 
ATOM     39  H   LIG d   1       8.575  -5.206  -3.705  0.00  0.00     0.070 H 
ATOM     40  H   LIG d   1      10.060  -6.061  -4.187  0.00  0.00     0.070 H 
BRANCH  38  41
ATOM     41  C   LIG d   1      10.390  -4.352  -2.919  0.00  0.00    -0.031 C 
ATOM     42  H   LIG d   1      10.237  -4.860  -1.965  0.00  0.00     0.026 H 
ATOM     43  H   LIG d   1      11.452  -4.352  -3.164  0.00  0.00     0.026 H 
ATOM     44  H   LIG d   1      10.034  -3.324  -2.844  0.00  0.00     0.026 H 
ENDBRANCH  38  41
ENDBRANCH  37  38
ENDBRANCH  35  37
ENDBRANCH  23  35
BRANCH  30  45
ATOM     45  O   LIG d   1       4.485   0.662  -1.732  0.00  0.00    -0.495 OA
BRANCH  45  46
ATOM     46  C   LIG d   1       3.679   1.623  -2.415  0.00  0.00     0.079 C 
ATOM     47  H   LIG d   1       4.156   1.892  -3.358  0.00  0.00     0.066 H 
ATOM     48  H   LIG d   1       2.695   1.197  -2.615  0.00  0.00     0.066 H 
ATOM     49  H   LIG d   1       3.571   2.512  -1.796  0.00  0.00     0.066 H 
ENDBRANCH  45  46
ENDBRANCH  30  45
ENDBRANCH  20  22
ENDBRANCH  15  18
ENDBRANCH   4  15
BRANCH   1  50
ATOM     50  C   LIG d   1      10.151   5.409  -3.761  0.00  0.00     0.201 A 
ATOM     51  N   LIG d   1      10.220   6.172  -2.638  0.00  0.00    -0.306 N 
ATOM     52  C   LIG d   1      10.026   7.488  -3.036  0.00  0.00     0.153 A 
ATOM     53  C   LIG d   1       9.841   7.456  -4.414  0.00  0.00     0.170 A 
ATOM     54  C   LIG d   1       9.988   8.723  -2.366  0.00  0.00     0.280 A 
ATOM     55  N   LIG d   1       9.624   8.649  -5.085  0.00  0.00    -0.280 N 
ATOM     56  N   LIG d   1       9.922   6.183  -4.801  0.00  0.00    -0.196 NA
ATOM     57  C   LIG d   1       9.594   9.811  -4.404  0.00  0.00     0.331 A 
ATOM     58  N   LIG d   1       9.772   9.851  -3.073  0.00  0.00    -0.273 N 
ATOM     59  O   LIG d   1       9.403  10.848  -5.010  0.00  0.00    -0.246 OA
ATOM     60  H   LIG d   1       9.745  10.706  -2.614  0.00  0.00     0.173 HD
ATOM     61  O   LIG d   1      10.147   8.774  -1.159  0.00  0.00    -0.265 OA
BRANCH  51  62
ATOM     62  C   LIG d   1      10.456   5.698  -1.272  0.00  0.00     0.024 C 
ATOM     63  H   LIG d   1      10.034   4.700  -1.156  0.00  0.00     0.049 H 
ATOM     64  H   LIG d   1       9.981   6.378  -0.564  0.00  0.00     0.049 H 
BRANCH  62  65
ATOM     65  C   LIG d   1      11.961   5.650  -1.002  0.00  0.00    -0.047 C 
ATOM     66  H   LIG d   1      12.163   6.026   0.001  0.00  0.00     0.025 H 
ATOM     67  H   LIG d   1      12.311   4.620  -1.081  0.00  0.00     0.025 H 
ATOM     68  H   LIG d   1      12.481   6.268  -1.734  0.00  0.00     0.025 H 
ENDBRANCH  62  65
ENDBRANCH  51  62
BRANCH  55  69
ATOM     69  C   LIG d   1       9.425   8.646  -6.537  0.00  0.00     0.018 C 
ATOM     70  H   LIG d   1       8.750   7.835  -6.809  0.00  0.00     0.046 H 
ATOM     71  H   LIG d   1       8.994   9.598  -6.846  0.00  0.00     0.046 H 
ATOM     72  H   LIG d   1      10.385   8.504  -7.035  0.00  0.00     0.046 H 
ENDBRANCH  55  69
ENDBRANCH   1  50
TORSDOF 13
ENDMDL
MODEL 5
REMARK VINA RESULT:      -6.2      3.680      9.644
REMARK  13 active torsions:
REMARK  status: ('A' for Active; 'I' for Inactive)
REMARK    1  A    between atoms: C_1  and  C_2 
REMARK    2  A    between atoms: C_2  and  N_3 
REMARK    3  A    between atoms: N_11  and  C_42 
REMARK    4  A    between atoms: C_14  and  N_15 
REMARK    5  A    between atoms: N_18  and  C_21 
REMARK    6  A    between atoms: C_21  and  C_22 
REMARK       I    between atoms: C_22  and  N_24 
REMARK    7  A    between atoms: N_24  and  C_25 
REMARK    8  A    between atoms: C_28  and  O_40 
REMARK    9  A    between atoms: C_34  and  C_35 
REMARK   10  A    between atoms: C_35  and  O_37 
REMARK   11  A    between atoms: O_37  and  C_38 
REMARK   12  A    between atoms: C_38  and  C_39 
REMARK   13  A    between atoms: O_40  and  C_41 
ROOT
ATOM      1  N   LIG d   1       7.741   1.152  -4.779  0.00  0.00    -0.298 N 
ATOM      2  C   LIG d   1       8.042   1.859  -6.033  0.00  0.00     0.028 C 
ATOM      3  C   LIG d   1       9.523   2.256  -6.023  0.00  0.00     0.015 C 
ATOM      4  N   LIG d   1       9.815   3.013  -4.798  0.00  0.00    -0.291 N 
ATOM      5  C   LIG d   1       9.606   2.189  -3.600  0.00  0.00     0.015 C 
ATOM      6  C   LIG d   1       8.124   1.791  -3.510  0.00  0.00     0.028 C 
ATOM      7  H   LIG d   1       7.846   1.201  -6.880  0.00  0.00     0.048 H 
ATOM      8  H   LIG d   1       7.424   2.753  -6.108  0.00  0.00     0.048 H 
ATOM      9  H   LIG d   1      10.140   1.359  -6.052  0.00  0.00     0.044 H 
ATOM     10  H   LIG d   1       9.738   2.876  -6.893  0.00  0.00     0.044 H 
ATOM     11  H   LIG d   1      10.223   1.292  -3.663  0.00  0.00     0.044 H 
ATOM     12  H   LIG d   1       9.882   2.759  -2.712  0.00  0.00     0.044 H 
ATOM     13  H   LIG d   1       7.513   2.678  -3.348  0.00  0.00     0.048 H 
ATOM     14  H   LIG d   1       7.981   1.089  -2.689  0.00  0.00     0.048 H 
ENDROOT
BRANCH   4  15
ATOM     15  C   LIG d   1      11.178   3.560  -4.830  0.00  0.00     0.076 C 
ATOM     16  H   LIG d   1      11.762   3.126  -4.017  0.00  0.00     0.052 H 
ATOM     17  H   LIG d   1      11.645   3.317  -5.784  0.00  0.00     0.052 H 
BRANCH  15  18
ATOM     18  C   LIG d   1      11.122   5.057  -4.664  0.00  0.00     0.231 C 
ATOM     19  O   LIG d   1      12.146   5.707  -4.660  0.00  0.00    -0.274 OA
ATOM     20  N   LIG d   1       9.932   5.673  -4.518  0.00  0.00    -0.282 N 
ATOM     21  H   LIG d   1       9.117   5.150  -4.465  0.00  0.00     0.155 HD
BRANCH  20  22
ATOM     22  C   LIG d   1       9.872   7.062  -4.447  0.00  0.00     0.073 A 
ATOM     23  C   LIG d   1       9.860   7.828  -3.300  0.00  0.00     0.147 A 
ATOM     24  N   LIG d   1       9.797   9.168  -3.653  0.00  0.00    -0.347 N 
ATOM     25  C   LIG d   1       9.761   9.288  -5.025  0.00  0.00     0.049 A 
ATOM     26  H   LIG d   1       9.779   9.909  -3.029  0.00  0.00     0.166 HD
ATOM     27  C   LIG d   1       9.806   7.994  -5.575  0.00  0.00     0.025 A 
ATOM     28  C   LIG d   1       9.694  10.391  -5.874  0.00  0.00    -0.034 A 
ATOM     29  C   LIG d   1       9.782   7.824  -6.963  0.00  0.00    -0.009 A 
ATOM     30  C   LIG d   1       9.715   8.929  -7.785  0.00  0.00     0.121 A 
ATOM     31  H   LIG d   1       9.816   6.832  -7.388  0.00  0.00     0.066 H 
ATOM     32  C   LIG d   1       9.671  10.209  -7.239  0.00  0.00    -0.018 A 
ATOM     33  H   LIG d   1       9.618  11.069  -7.890  0.00  0.00     0.066 H 
ATOM     34  H   LIG d   1       9.660  11.388  -5.462  0.00  0.00     0.064 H 
BRANCH  23  35
ATOM     35  C   LIG d   1       9.906   7.327  -1.974  0.00  0.00     0.357 C 
ATOM     36  O   LIG d   1       8.929   7.421  -1.254  0.00  0.00    -0.243 OA
BRANCH  35  37
ATOM     37  O   LIG d   1      11.033   6.750  -1.508  0.00  0.00    -0.460 OA
BRANCH  37  38
ATOM     38  C   LIG d   1      10.890   5.504  -0.826  0.00  0.00     0.090 C 
ATOM     39  H   LIG d   1       9.842   5.207  -0.827  0.00  0.00     0.070 H 
ATOM     40  H   LIG d   1      11.484   4.742  -1.332  0.00  0.00     0.070 H 
BRANCH  38  41
ATOM     41  C   LIG d   1      11.376   5.654   0.617  0.00  0.00    -0.031 C 
ATOM     42  H   LIG d   1      11.453   4.668   1.079  0.00  0.00     0.026 H 
ATOM     43  H   LIG d   1      12.354   6.135   0.624  0.00  0.00     0.026 H 
ATOM     44  H   LIG d   1      10.668   6.263   1.178  0.00  0.00     0.026 H 
ENDBRANCH  38  41
ENDBRANCH  37  38
ENDBRANCH  35  37
ENDBRANCH  23  35
BRANCH  30  45
ATOM     45  O   LIG d   1       9.691   8.768  -9.136  0.00  0.00    -0.495 OA
BRANCH  45  46
ATOM     46  C   LIG d   1      10.032   7.477  -9.642  0.00  0.00     0.079 C 
ATOM     47  H   LIG d   1      10.781   7.019  -8.995  0.00  0.00     0.066 H 
ATOM     48  H   LIG d   1       9.141   6.849  -9.666  0.00  0.00     0.066 H 
ATOM     49  H   LIG d   1      10.434   7.576 -10.650  0.00  0.00     0.066 H 
ENDBRANCH  45  46
ENDBRANCH  30  45
ENDBRANCH  20  22
ENDBRANCH  15  18
ENDBRANCH   4  15
BRANCH   1  50
ATOM     50  C   LIG d   1       7.111  -0.071  -4.791  0.00  0.00     0.201 A 
ATOM     51  N   LIG d   1       5.870  -0.321  -4.293  0.00  0.00    -0.306 N 
ATOM     52  C   LIG d   1       5.616  -1.669  -4.511  0.00  0.00     0.153 A 
ATOM     53  C   LIG d   1       6.744  -2.182  -5.142  0.00  0.00     0.170 A 
ATOM     54  C   LIG d   1       4.532  -2.522  -4.238  0.00  0.00     0.280 A 
ATOM     55  N   LIG d   1       6.763  -3.525  -5.483  0.00  0.00    -0.280 N 
ATOM     56  N   LIG d   1       7.615  -1.183  -5.285  0.00  0.00    -0.196 NA
ATOM     57  C   LIG d   1       5.705  -4.308  -5.202  0.00  0.00     0.331 A 
ATOM     58  N   LIG d   1       4.610  -3.821  -4.593  0.00  0.00    -0.273 N 
ATOM     59  O   LIG d   1       5.739  -5.485  -5.508  0.00  0.00    -0.246 OA
ATOM     60  H   LIG d   1       3.864  -4.413  -4.406  0.00  0.00     0.173 HD
ATOM     61  O   LIG d   1       3.535  -2.092  -3.686  0.00  0.00    -0.265 OA
BRANCH  51  62
ATOM     62  C   LIG d   1       4.974   0.646  -3.654  0.00  0.00     0.024 C 
ATOM     63  H   LIG d   1       3.948   0.453  -3.967  0.00  0.00     0.049 H 
ATOM     64  H   LIG d   1       5.260   1.656  -3.948  0.00  0.00     0.049 H 
BRANCH  62  65
ATOM     65  C   LIG d   1       5.078   0.509  -2.134  0.00  0.00    -0.047 C 
ATOM     66  H   LIG d   1       5.997  -0.021  -1.878  0.00  0.00     0.025 H 
ATOM     67  H   LIG d   1       5.091   1.500  -1.679  0.00  0.00     0.025 H 
ATOM     68  H   LIG d   1       4.221  -0.051  -1.760  0.00  0.00     0.025 H 
ENDBRANCH  62  65
ENDBRANCH  51  62
BRANCH  55  69
ATOM     69  C   LIG d   1       7.939  -4.094  -6.148  0.00  0.00     0.018 C 
ATOM     70  H   LIG d   1       7.635  -4.949  -6.752  0.00  0.00     0.046 H 
ATOM     71  H   LIG d   1       8.394  -3.339  -6.789  0.00  0.00     0.046 H 
ATOM     72  H   LIG d   1       8.660  -4.417  -5.397  0.00  0.00     0.046 H 
ENDBRANCH  55  69
ENDBRANCH   1  50
TORSDOF 13
ENDMDL
MODEL 6
REMARK VINA RESULT:      -6.1      3.884      5.223
REMARK  13 active torsions:
REMARK  status: ('A' for Active; 'I' for Inactive)
REMARK    1  A    between atoms: C_1  and  C_2 
REMARK    2  A    between atoms: C_2  and  N_3 
REMARK    3  A    between atoms: N_11  and  C_42 
REMARK    4  A    between atoms: C_14  and  N_15 
REMARK    5  A    between atoms: N_18  and  C_21 
REMARK    6  A    between atoms: C_21  and  C_22 
REMARK       I    between atoms: C_22  and  N_24 
REMARK    7  A    between atoms: N_24  and  C_25 
REMARK    8  A    between atoms: C_28  and  O_40 
REMARK    9  A    between atoms: C_34  and  C_35 
REMARK   10  A    between atoms: C_35  and  O_37 
REMARK   11  A    between atoms: O_37  and  C_38 
REMARK   12  A    between atoms: C_38  and  C_39 
REMARK   13  A    between atoms: O_40  and  C_41 
ROOT
ATOM      1  N   LIG d   1      10.039   4.136  -4.161  0.00  0.00    -0.298 N 
ATOM      2  C   LIG d   1       8.790   3.366  -4.256  0.00  0.00     0.028 C 
ATOM      3  C   LIG d   1       9.136   1.872  -4.230  0.00  0.00     0.015 C 
ATOM      4  N   LIG d   1      10.124   1.584  -5.279  0.00  0.00    -0.291 N 
ATOM      5  C   LIG d   1      11.384   2.299  -5.034  0.00  0.00     0.015 C 
ATOM      6  C   LIG d   1      11.128   3.813  -5.096  0.00  0.00     0.028 C 
ATOM      7  H   LIG d   1       8.146   3.606  -3.410  0.00  0.00     0.048 H 
ATOM      8  H   LIG d   1       8.280   3.607  -5.189  0.00  0.00     0.048 H 
ATOM      9  H   LIG d   1       9.551   1.612  -3.258  0.00  0.00     0.044 H 
ATOM     10  H   LIG d   1       8.234   1.288  -4.411  0.00  0.00     0.044 H 
ATOM     11  H   LIG d   1      11.768   2.032  -4.049  0.00  0.00     0.044 H 
ATOM     12  H   LIG d   1      12.113   2.023  -5.796  0.00  0.00     0.044 H 
ATOM     13  H   LIG d   1      10.839   4.098  -6.107  0.00  0.00     0.048 H 
ATOM     14  H   LIG d   1      12.031   4.350  -4.806  0.00  0.00     0.048 H 
ENDROOT
BRANCH   4  15
ATOM     15  C   LIG d   1      10.354   0.138  -5.402  0.00  0.00     0.076 C 
ATOM     16  H   LIG d   1      10.848  -0.071  -6.351  0.00  0.00     0.052 H 
ATOM     17  H   LIG d   1      10.985  -0.201  -4.581  0.00  0.00     0.052 H 
BRANCH  15  18
ATOM     18  C   LIG d   1       9.033  -0.585  -5.354  0.00  0.00     0.231 C 
ATOM     19  O   LIG d   1       8.166  -0.321  -6.160  0.00  0.00    -0.274 OA
ATOM     20  N   LIG d   1       8.814  -1.525  -4.413  0.00  0.00    -0.282 N 
ATOM     21  H   LIG d   1       9.484  -1.697  -3.734  0.00  0.00     0.155 HD
BRANCH  20  22
ATOM     22  C   LIG d   1       7.626  -2.251  -4.418  0.00  0.00     0.073 A 
ATOM     23  C   LIG d   1       7.393  -3.445  -5.067  0.00  0.00     0.147 A 
ATOM     24  N   LIG d   1       6.087  -3.843  -4.823  0.00  0.00    -0.347 N 
ATOM     25  C   LIG d   1       5.457  -2.916  -4.023  0.00  0.00     0.049 A 
ATOM     26  H   LIG d   1       5.678  -4.653  -5.165  0.00  0.00     0.166 HD
ATOM     27  C   LIG d   1       6.379  -1.892  -3.738  0.00  0.00     0.025 A 
ATOM     28  C   LIG d   1       4.168  -2.840  -3.500  0.00  0.00    -0.034 A 
ATOM     29  C   LIG d   1       5.998  -0.811  -2.936  0.00  0.00    -0.009 A 
ATOM     30  C   LIG d   1       4.716  -0.756  -2.430  0.00  0.00     0.121 A 
ATOM     31  H   LIG d   1       6.703  -0.024  -2.716  0.00  0.00     0.066 H 
ATOM     32  C   LIG d   1       3.805  -1.771  -2.713  0.00  0.00    -0.018 A 
ATOM     33  H   LIG d   1       2.804  -1.719  -2.311  0.00  0.00     0.066 H 
ATOM     34  H   LIG d   1       3.453  -3.621  -3.712  0.00  0.00     0.064 H 
BRANCH  23  35
ATOM     35  C   LIG d   1       8.336  -4.153  -5.855  0.00  0.00     0.357 C 
ATOM     36  O   LIG d   1       8.845  -3.617  -6.822  0.00  0.00    -0.243 OA
BRANCH  35  37
ATOM     37  O   LIG d   1       8.668  -5.421  -5.535  0.00  0.00    -0.460 OA
BRANCH  37  38
ATOM     38  C   LIG d   1       9.463  -5.608  -4.364  0.00  0.00     0.090 C 
ATOM     39  H   LIG d   1       9.381  -4.730  -3.724  0.00  0.00     0.070 H 
ATOM     40  H   LIG d   1       9.112  -6.487  -3.823  0.00  0.00     0.070 H 
BRANCH  38  41
ATOM     41  C   LIG d   1      10.925  -5.809  -4.767  0.00  0.00    -0.031 C 
ATOM     42  H   LIG d   1      11.480  -4.886  -4.595  0.00  0.00     0.026 H 
ATOM     43  H   LIG d   1      11.361  -6.611  -4.171  0.00  0.00     0.026 H 
ATOM     44  H   LIG d   1      10.978  -6.073  -5.824  0.00  0.00     0.026 H 
ENDBRANCH  38  41
ENDBRANCH  37  38
ENDBRANCH  35  37
ENDBRANCH  23  35
BRANCH  30  45
ATOM     45  O   LIG d   1       4.340   0.293  -1.650  0.00  0.00    -0.495 OA
BRANCH  45  46
ATOM     46  C   LIG d   1       3.716   1.398  -2.306  0.00  0.00     0.079 C 
ATOM     47  H   LIG d   1       3.689   2.254  -1.630  0.00  0.00     0.066 H 
ATOM     48  H   LIG d   1       4.284   1.659  -3.199  0.00  0.00     0.066 H 
ATOM     49  H   LIG d   1       2.700   1.126  -2.588  0.00  0.00     0.066 H 
ENDBRANCH  45  46
ENDBRANCH  30  45
ENDBRANCH  20  22
ENDBRANCH  15  18
ENDBRANCH   4  15
BRANCH   1  50
ATOM     50  C   LIG d   1      10.183   5.135  -3.228  0.00  0.00     0.201 A 
ATOM     51  N   LIG d   1       9.950   6.457  -3.448  0.00  0.00    -0.306 N 
ATOM     52  C   LIG d   1      10.208   7.114  -2.252  0.00  0.00     0.153 A 
ATOM     53  C   LIG d   1      10.599   6.135  -1.345  0.00  0.00     0.170 A 
ATOM     54  C   LIG d   1      10.150   8.455  -1.835  0.00  0.00     0.280 A 
ATOM     55  N   LIG d   1      10.921   6.516  -0.052  0.00  0.00    -0.280 N 
ATOM     56  N   LIG d   1      10.572   4.963  -1.981  0.00  0.00    -0.196 NA
ATOM     57  C   LIG d   1      10.854   7.812   0.307  0.00  0.00     0.331 A 
ATOM     58  N   LIG d   1      10.477   8.764  -0.563  0.00  0.00    -0.273 N 
ATOM     59  O   LIG d   1      11.140   8.127   1.446  0.00  0.00    -0.246 OA
ATOM     60  H   LIG d   1      10.438   9.689  -0.271  0.00  0.00     0.173 HD
ATOM     61  O   LIG d   1       9.810   9.328  -2.613  0.00  0.00    -0.265 OA
BRANCH  51  62
ATOM     62  C   LIG d   1       9.507   7.068  -4.704  0.00  0.00     0.024 C 
ATOM     63  H   LIG d   1       8.882   7.933  -4.486  0.00  0.00     0.049 H 
ATOM     64  H   LIG d   1       8.934   6.341  -5.279  0.00  0.00     0.049 H 
BRANCH  62  65
ATOM     65  C   LIG d   1      10.728   7.510  -5.513  0.00  0.00    -0.047 C 
ATOM     66  H   LIG d   1      10.832   6.874  -6.392  0.00  0.00     0.025 H 
ATOM     67  H   LIG d   1      10.599   8.546  -5.828  0.00  0.00     0.025 H 
ATOM     68  H   LIG d   1      11.622   7.427  -4.896  0.00  0.00     0.025 H 
ENDBRANCH  62  65
ENDBRANCH  51  62
BRANCH  55  69
ATOM     69  C   LIG d   1      11.337   5.506   0.925  0.00  0.00     0.018 C 
ATOM     70  H   LIG d   1      11.070   4.515   0.560  0.00  0.00     0.046 H 
ATOM     71  H   LIG d   1      12.417   5.562   1.067  0.00  0.00     0.046 H 
ATOM     72  H   LIG d   1      10.836   5.692   1.875  0.00  0.00     0.046 H 
ENDBRANCH  55  69
ENDBRANCH   1  50
TORSDOF 13
ENDMDL
MODEL 7
REMARK VINA RESULT:      -6.0      4.058      5.492
REMARK  13 active torsions:
REMARK  status: ('A' for Active; 'I' for Inactive)
REMARK    1  A    between atoms: C_1  and  C_2 
REMARK    2  A    between atoms: C_2  and  N_3 
REMARK    3  A    between atoms: N_11  and  C_42 
REMARK    4  A    between atoms: C_14  and  N_15 
REMARK    5  A    between atoms: N_18  and  C_21 
REMARK    6  A    between atoms: C_21  and  C_22 
REMARK       I    between atoms: C_22  and  N_24 
REMARK    7  A    between atoms: N_24  and  C_25 
REMARK    8  A    between atoms: C_28  and  O_40 
REMARK    9  A    between atoms: C_34  and  C_35 
REMARK   10  A    between atoms: C_35  and  O_37 
REMARK   11  A    between atoms: O_37  and  C_38 
REMARK   12  A    between atoms: C_38  and  C_39 
REMARK   13  A    between atoms: O_40  and  C_41 
ROOT
ATOM      1  N   LIG d   1       9.707   3.148  -7.119  0.00  0.00    -0.298 N 
ATOM      2  C   LIG d   1       8.432   2.421  -7.222  0.00  0.00     0.028 C 
ATOM      3  C   LIG d   1       8.398   1.342  -6.134  0.00  0.00     0.015 C 
ATOM      4  N   LIG d   1       9.601   0.505  -6.242  0.00  0.00    -0.291 N 
ATOM      5  C   LIG d   1      10.819   1.289  -6.000  0.00  0.00     0.015 C 
ATOM      6  C   LIG d   1      10.952   2.366  -7.088  0.00  0.00     0.028 C 
ATOM      7  H   LIG d   1       7.603   3.114  -7.076  0.00  0.00     0.048 H 
ATOM      8  H   LIG d   1       8.355   1.954  -8.204  0.00  0.00     0.048 H 
ATOM      9  H   LIG d   1       8.371   1.816  -5.154  0.00  0.00     0.044 H 
ATOM     10  H   LIG d   1       7.511   0.723  -6.265  0.00  0.00     0.044 H 
ATOM     11  H   LIG d   1      10.758   1.763  -5.021  0.00  0.00     0.044 H 
ATOM     12  H   LIG d   1      11.688   0.631  -6.033  0.00  0.00     0.044 H 
ATOM     13  H   LIG d   1      11.113   1.895  -8.057  0.00  0.00     0.048 H 
ATOM     14  H   LIG d   1      11.790   3.023  -6.854  0.00  0.00     0.048 H 
ENDROOT
BRANCH   4  15
ATOM     15  C   LIG d   1       9.524  -0.645  -5.330  0.00  0.00     0.076 C 
ATOM     16  H   LIG d   1      10.379  -1.300  -5.501  0.00  0.00     0.052 H 
ATOM     17  H   LIG d   1       9.536  -0.292  -4.299  0.00  0.00     0.052 H 
BRANCH  15  18
ATOM     18  C   LIG d   1       8.249  -1.405  -5.589  0.00  0.00     0.231 C 
ATOM     19  O   LIG d   1       7.924  -1.678  -6.725  0.00  0.00    -0.274 OA
ATOM     20  N   LIG d   1       7.469  -1.781  -4.556  0.00  0.00    -0.282 N 
ATOM     21  H   LIG d   1       7.698  -1.515  -3.652  0.00  0.00     0.155 HD
BRANCH  20  22
ATOM     22  C   LIG d   1       6.334  -2.553  -4.786  0.00  0.00     0.073 A 
ATOM     23  C   LIG d   1       5.025  -2.122  -4.760  0.00  0.00     0.147 A 
ATOM     24  N   LIG d   1       4.191  -3.193  -5.043  0.00  0.00    -0.347 N 
ATOM     25  C   LIG d   1       4.942  -4.329  -5.250  0.00  0.00     0.049 A 
ATOM     26  H   LIG d   1       3.223  -3.150  -5.088  0.00  0.00     0.166 HD
ATOM     27  C   LIG d   1       6.298  -3.984  -5.100  0.00  0.00     0.025 A 
ATOM     28  C   LIG d   1       4.600  -5.644  -5.555  0.00  0.00    -0.034 A 
ATOM     29  C   LIG d   1       7.288  -4.959  -5.257  0.00  0.00    -0.009 A 
ATOM     30  C   LIG d   1       6.927  -6.255  -5.559  0.00  0.00     0.121 A 
ATOM     31  H   LIG d   1       8.330  -4.698  -5.143  0.00  0.00     0.066 H 
ATOM     32  C   LIG d   1       5.585  -6.595  -5.707  0.00  0.00    -0.018 A 
ATOM     33  H   LIG d   1       5.312  -7.612  -5.944  0.00  0.00     0.066 H 
ATOM     34  H   LIG d   1       3.563  -5.919  -5.673  0.00  0.00     0.064 H 
BRANCH  23  35
ATOM     35  C   LIG d   1       4.599  -0.796  -4.489  0.00  0.00     0.357 C 
ATOM     36  O   LIG d   1       5.032   0.129  -5.151  0.00  0.00    -0.243 OA
BRANCH  35  37
ATOM     37  O   LIG d   1       3.716  -0.560  -3.497  0.00  0.00    -0.460 OA
BRANCH  37  38
ATOM     38  C   LIG d   1       4.218  -0.590  -2.160  0.00  0.00     0.090 C 
ATOM     39  H   LIG d   1       3.466  -1.020  -1.499  0.00  0.00     0.070 H 
ATOM     40  H   LIG d   1       5.123  -1.196  -2.125  0.00  0.00     0.070 H 
BRANCH  38  41
ATOM     41  C   LIG d   1       4.541   0.834  -1.704  0.00  0.00    -0.031 C 
ATOM     42  H   LIG d   1       4.258   0.954  -0.657  0.00  0.00     0.026 H 
ATOM     43  H   LIG d   1       5.610   1.018  -1.814  0.00  0.00     0.026 H 
ATOM     44  H   LIG d   1       3.985   1.547  -2.314  0.00  0.00     0.026 H 
ENDBRANCH  38  41
ENDBRANCH  37  38
ENDBRANCH  35  37
ENDBRANCH  23  35
BRANCH  30  45
ATOM     45  O   LIG d   1       7.887  -7.208  -5.713  0.00  0.00    -0.495 OA
BRANCH  45  46
ATOM     46  C   LIG d   1       7.651  -8.213  -6.701  0.00  0.00     0.079 C 
ATOM     47  H   LIG d   1       6.839  -7.895  -7.355  0.00  0.00     0.066 H 
ATOM     48  H   LIG d   1       8.555  -8.363  -7.290  0.00  0.00     0.066 H 
ATOM     49  H   LIG d   1       7.378  -9.146  -6.210  0.00  0.00     0.066 H 
ENDBRANCH  45  46
ENDBRANCH  30  45
ENDBRANCH  20  22
ENDBRANCH  15  18
ENDBRANCH   4  15
BRANCH   1  50
ATOM     50  C   LIG d   1       9.734   4.522  -7.059  0.00  0.00     0.201 A 
ATOM     51  N   LIG d   1       9.702   5.260  -5.918  0.00  0.00    -0.306 N 
ATOM     52  C   LIG d   1       9.753   6.594  -6.302  0.00  0.00     0.153 A 
ATOM     53  C   LIG d   1       9.811   6.598  -7.692  0.00  0.00     0.170 A 
ATOM     54  C   LIG d   1       9.758   7.817  -5.609  0.00  0.00     0.280 A 
ATOM     55  N   LIG d   1       9.872   7.815  -8.352  0.00  0.00    -0.280 N 
ATOM     56  N   LIG d   1       9.793   5.329  -8.099  0.00  0.00    -0.196 NA
ATOM     57  C   LIG d   1       9.873   8.964  -7.650  0.00  0.00     0.331 A 
ATOM     58  N   LIG d   1       9.817   8.969  -6.308  0.00  0.00    -0.273 N 
ATOM     59  O   LIG d   1       9.927  10.023  -8.246  0.00  0.00    -0.246 OA
ATOM     60  H   LIG d   1       9.821   9.816  -5.833  0.00  0.00     0.173 HD
ATOM     61  O   LIG d   1       9.707   7.836  -4.392  0.00  0.00    -0.265 OA
BRANCH  51  62
ATOM     62  C   LIG d   1       9.630   4.747  -4.548  0.00  0.00     0.024 C 
ATOM     63  H   LIG d   1       9.102   3.793  -4.544  0.00  0.00     0.049 H 
ATOM     64  H   LIG d   1       9.096   5.460  -3.920  0.00  0.00     0.049 H 
BRANCH  62  65
ATOM     65  C   LIG d   1      11.046   4.548  -4.003  0.00  0.00    -0.047 C 
ATOM     66  H   LIG d   1      11.665   4.071  -4.765  0.00  0.00     0.025 H 
ATOM     67  H   LIG d   1      11.474   5.516  -3.742  0.00  0.00     0.025 H 
ATOM     68  H   LIG d   1      11.009   3.915  -3.117  0.00  0.00     0.025 H 
ENDBRANCH  62  65
ENDBRANCH  51  62
BRANCH  55  69
ATOM     69  C   LIG d   1       9.933   7.851  -9.816  0.00  0.00     0.018 C 
ATOM     70  H   LIG d   1       9.201   7.156 -10.226  0.00  0.00     0.046 H 
ATOM     71  H   LIG d   1       9.713   8.860 -10.163  0.00  0.00     0.046 H 
ATOM     72  H   LIG d   1      10.932   7.563 -10.145  0.00  0.00     0.046 H 
ENDBRANCH  55  69
ENDBRANCH   1  50
TORSDOF 13
ENDMDL
MODEL 8
REMARK VINA RESULT:      -5.9      4.792     11.264
REMARK  13 active torsions:
REMARK  status: ('A' for Active; 'I' for Inactive)
REMARK    1  A    between atoms: C_1  and  C_2 
REMARK    2  A    between atoms: C_2  and  N_3 
REMARK    3  A    between atoms: N_11  and  C_42 
REMARK    4  A    between atoms: C_14  and  N_15 
REMARK    5  A    between atoms: N_18  and  C_21 
REMARK    6  A    between atoms: C_21  and  C_22 
REMARK       I    between atoms: C_22  and  N_24 
REMARK    7  A    between atoms: N_24  and  C_25 
REMARK    8  A    between atoms: C_28  and  O_40 
REMARK    9  A    between atoms: C_34  and  C_35 
REMARK   10  A    between atoms: C_35  and  O_37 
REMARK   11  A    between atoms: O_37  and  C_38 
REMARK   12  A    between atoms: C_38  and  C_39 
REMARK   13  A    between atoms: O_40  and  C_41 
ROOT
ATOM      1  N   LIG d   1       4.300  -0.287 -11.116  0.00  0.00    -0.298 N 
ATOM      2  C   LIG d   1       4.900  -1.229 -10.160  0.00  0.00     0.028 C 
ATOM      3  C   LIG d   1       4.052  -1.232  -8.882  0.00  0.00     0.015 C 
ATOM      4  N   LIG d   1       3.911   0.146  -8.391  0.00  0.00    -0.291 N 
ATOM      5  C   LIG d   1       3.189   0.984  -9.357  0.00  0.00     0.015 C 
ATOM      6  C   LIG d   1       4.006   1.079 -10.655  0.00  0.00     0.028 C 
ATOM      7  H   LIG d   1       4.913  -2.230 -10.591  0.00  0.00     0.048 H 
ATOM      8  H   LIG d   1       5.917  -0.916  -9.924  0.00  0.00     0.048 H 
ATOM      9  H   LIG d   1       3.068  -1.643  -9.100  0.00  0.00     0.044 H 
ATOM     10  H   LIG d   1       4.543  -1.840  -8.122  0.00  0.00     0.044 H 
ATOM     11  H   LIG d   1       2.216   0.541  -9.568  0.00  0.00     0.044 H 
ATOM     12  H   LIG d   1       3.052   1.983  -8.942  0.00  0.00     0.044 H 
ATOM     13  H   LIG d   1       4.938   1.610 -10.468  0.00  0.00     0.048 H 
ATOM     14  H   LIG d   1       3.429   1.605 -11.416  0.00  0.00     0.048 H 
ENDROOT
BRANCH   4  15
ATOM     15  C   LIG d   1       3.252   0.171  -7.077  0.00  0.00     0.076 C 
ATOM     16  H   LIG d   1       3.036   1.203  -6.799  0.00  0.00     0.052 H 
ATOM     17  H   LIG d   1       2.323  -0.396  -7.126  0.00  0.00     0.052 H 
BRANCH  15  18
ATOM     18  C   LIG d   1       4.165  -0.445  -6.048  0.00  0.00     0.231 C 
ATOM     19  O   LIG d   1       3.724  -1.236  -5.241  0.00  0.00    -0.274 OA
ATOM     20  N   LIG d   1       5.471  -0.115  -6.023  0.00  0.00    -0.282 N 
ATOM     21  H   LIG d   1       5.814   0.559  -6.631  0.00  0.00     0.155 HD
BRANCH  20  22
ATOM     22  C   LIG d   1       6.331  -0.744  -5.127  0.00  0.00     0.073 A 
ATOM     23  C   LIG d   1       6.893  -0.188  -3.997  0.00  0.00     0.147 A 
ATOM     24  N   LIG d   1       7.686  -1.139  -3.373  0.00  0.00    -0.347 N 
ATOM     25  C   LIG d   1       7.656  -2.316  -4.089  0.00  0.00     0.049 A 
ATOM     26  H   LIG d   1       8.189  -0.998  -2.556  0.00  0.00     0.166 HD
ATOM     27  C   LIG d   1       6.818  -2.123  -5.203  0.00  0.00     0.025 A 
ATOM     28  C   LIG d   1       8.269  -3.552  -3.899  0.00  0.00    -0.034 A 
ATOM     29  C   LIG d   1       6.608  -3.169  -6.108  0.00  0.00    -0.009 A 
ATOM     30  C   LIG d   1       7.225  -4.385  -5.901  0.00  0.00     0.121 A 
ATOM     31  H   LIG d   1       5.965  -3.024  -6.964  0.00  0.00     0.066 H 
ATOM     32  C   LIG d   1       8.054  -4.573  -4.797  0.00  0.00    -0.018 A 
ATOM     33  H   LIG d   1       8.532  -5.529  -4.644  0.00  0.00     0.066 H 
ATOM     34  H   LIG d   1       8.913  -3.710  -3.047  0.00  0.00     0.064 H 
BRANCH  23  35
ATOM     35  C   LIG d   1       6.690   1.141  -3.544  0.00  0.00     0.357 C 
ATOM     36  O   LIG d   1       7.642   1.886  -3.402  0.00  0.00    -0.243 OA
BRANCH  35  37
ATOM     37  O   LIG d   1       5.444   1.578  -3.268  0.00  0.00    -0.460 OA
BRANCH  37  38
ATOM     38  C   LIG d   1       4.816   1.053  -2.097  0.00  0.00     0.090 C 
ATOM     39  H   LIG d   1       5.397   0.213  -1.719  0.00  0.00     0.070 H 
ATOM     40  H   LIG d   1       4.761   1.830  -1.335  0.00  0.00     0.070 H 
BRANCH  38  41
ATOM     41  C   LIG d   1       3.403   0.579  -2.446  0.00  0.00    -0.031 C 
ATOM     42  H   LIG d   1       3.276  -0.455  -2.122  0.00  0.00     0.026 H 
ATOM     43  H   LIG d   1       2.673   1.210  -1.939  0.00  0.00     0.026 H 
ATOM     44  H   LIG d   1       3.254   0.644  -3.523  0.00  0.00     0.026 H 
ENDBRANCH  38  41
ENDBRANCH  37  38
ENDBRANCH  35  37
ENDBRANCH  23  35
BRANCH  30  45
ATOM     45  O   LIG d   1       7.024  -5.405  -6.779  0.00  0.00    -0.495 OA
BRANCH  45  46
ATOM     46  C   LIG d   1       5.760  -6.068  -6.724  0.00  0.00     0.079 C 
ATOM     47  H   LIG d   1       5.277  -5.852  -5.770  0.00  0.00     0.066 H 
ATOM     48  H   LIG d   1       5.127  -5.714  -7.538  0.00  0.00     0.066 H 
ATOM     49  H   LIG d   1       5.909  -7.143  -6.820  0.00  0.00     0.066 H 
ENDBRANCH  45  46
ENDBRANCH  30  45
ENDBRANCH  20  22
ENDBRANCH  15  18
ENDBRANCH   4  15
BRANCH   1  50
ATOM     50  C   LIG d   1       4.027  -0.670 -12.408  0.00  0.00     0.201 A 
ATOM     51  N   LIG d   1       3.006  -1.485 -12.788  0.00  0.00    -0.306 N 
ATOM     52  C   LIG d   1       3.085  -1.609 -14.169  0.00  0.00     0.153 A 
ATOM     53  C   LIG d   1       4.180  -0.849 -14.567  0.00  0.00     0.170 A 
ATOM     54  C   LIG d   1       2.334  -2.295 -15.139  0.00  0.00     0.280 A 
ATOM     55  N   LIG d   1       4.496  -0.792 -15.915  0.00  0.00    -0.280 N 
ATOM     56  N   LIG d   1       4.714  -0.308 -13.472  0.00  0.00    -0.196 NA
ATOM     57  C   LIG d   1       3.751  -1.465 -16.812  0.00  0.00     0.331 A 
ATOM     58  N   LIG d   1       2.692  -2.202 -16.436  0.00  0.00    -0.273 N 
ATOM     59  O   LIG d   1       4.043  -1.403 -17.991  0.00  0.00    -0.246 OA
ATOM     60  H   LIG d   1       2.176  -2.674 -17.109  0.00  0.00     0.173 HD
ATOM     61  O   LIG d   1       1.372  -2.967 -14.812  0.00  0.00    -0.265 OA
BRANCH  51  62
ATOM     62  C   LIG d   1       2.013  -2.107 -11.910  0.00  0.00     0.024 C 
ATOM     63  H   LIG d   1       2.479  -2.366 -10.959  0.00  0.00     0.049 H 
ATOM     64  H   LIG d   1       1.626  -3.011 -12.382  0.00  0.00     0.049 H 
BRANCH  62  65
ATOM     65  C   LIG d   1       0.864  -1.128 -11.664  0.00  0.00    -0.047 C 
ATOM     66  H   LIG d   1       0.600  -0.634 -12.601  0.00  0.00     0.025 H 
ATOM     67  H   LIG d   1      -0.002  -1.670 -11.284  0.00  0.00     0.025 H 
ATOM     68  H   LIG d   1       1.174  -0.380 -10.934  0.00  0.00     0.025 H 
ENDBRANCH  62  65
ENDBRANCH  51  62
BRANCH  55  69
ATOM     69  C   LIG d   1       5.644   0.001 -16.365  0.00  0.00     0.018 C 
ATOM     70  H   LIG d   1       6.509  -0.650 -16.485  0.00  0.00     0.046 H 
ATOM     71  H   LIG d   1       5.408   0.472 -17.319  0.00  0.00     0.046 H 
ATOM     72  H   LIG d   1       5.866   0.770 -15.625  0.00  0.00     0.046 H 
ENDBRANCH  55  69
ENDBRANCH   1  50
TORSDOF 13
ENDMDL
MODEL 9
REMARK VINA RESULT:      -5.9      5.184     12.447
REMARK  13 active torsions:
REMARK  status: ('A' for Active; 'I' for Inactive)
REMARK    1  A    between atoms: C_1  and  C_2 
REMARK    2  A    between atoms: C_2  and  N_3 
REMARK    3  A    between atoms: N_11  and  C_42 
REMARK    4  A    between atoms: C_14  and  N_15 
REMARK    5  A    between atoms: N_18  and  C_21 
REMARK    6  A    between atoms: C_21  and  C_22 
REMARK       I    between atoms: C_22  and  N_24 
REMARK    7  A    between atoms: N_24  and  C_25 
REMARK    8  A    between atoms: C_28  and  O_40 
REMARK    9  A    between atoms: C_34  and  C_35 
REMARK   10  A    between atoms: C_35  and  O_37 
REMARK   11  A    between atoms: O_37  and  C_38 
REMARK   12  A    between atoms: C_38  and  C_39 
REMARK   13  A    between atoms: O_40  and  C_41 
ROOT
ATOM      1  N   LIG d   1       2.248  -2.382 -10.395  0.00  0.00    -0.298 N 
ATOM      2  C   LIG d   1       3.450  -2.823  -9.673  0.00  0.00     0.028 C 
ATOM      3  C   LIG d   1       3.463  -2.152  -8.294  0.00  0.00     0.015 C 
ATOM      4  N   LIG d   1       3.336  -0.698  -8.459  0.00  0.00    -0.291 N 
ATOM      5  C   LIG d   1       2.050  -0.342  -9.074  0.00  0.00     0.015 C 
ATOM      6  C   LIG d   1       1.983  -0.938 -10.489  0.00  0.00     0.028 C 
ATOM      7  H   LIG d   1       3.429  -3.906  -9.552  0.00  0.00     0.048 H 
ATOM      8  H   LIG d   1       4.341  -2.530 -10.230  0.00  0.00     0.048 H 
ATOM      9  H   LIG d   1       2.629  -2.525  -7.701  0.00  0.00     0.044 H 
ATOM     10  H   LIG d   1       4.401  -2.380  -7.788  0.00  0.00     0.044 H 
ATOM     11  H   LIG d   1       1.235  -0.741  -8.470  0.00  0.00     0.044 H 
ATOM     12  H   LIG d   1       1.962   0.743  -9.133  0.00  0.00     0.044 H 
ATOM     13  H   LIG d   1       2.734  -0.468 -11.124  0.00  0.00     0.048 H 
ATOM     14  H   LIG d   1       0.991  -0.775 -10.910  0.00  0.00     0.048 H 
ENDROOT
BRANCH   4  15
ATOM     15  C   LIG d   1       3.516  -0.005  -7.176  0.00  0.00     0.076 C 
ATOM     16  H   LIG d   1       3.595   1.068  -7.352  0.00  0.00     0.052 H 
ATOM     17  H   LIG d   1       2.661  -0.206  -6.531  0.00  0.00     0.052 H 
BRANCH  15  18
ATOM     18  C   LIG d   1       4.775  -0.499  -6.513  0.00  0.00     0.231 C 
ATOM     19  O   LIG d   1       5.844  -0.387  -7.076  0.00  0.00    -0.274 OA
ATOM     20  N   LIG d   1       4.715  -1.067  -5.292  0.00  0.00    -0.282 N 
ATOM     21  H   LIG d   1       3.856  -1.209  -4.864  0.00  0.00     0.155 HD
BRANCH  20  22
ATOM     22  C   LIG d   1       5.885  -1.450  -4.643  0.00  0.00     0.073 A 
ATOM     23  C   LIG d   1       6.639  -0.680  -3.783  0.00  0.00     0.147 A 
ATOM     24  N   LIG d   1       7.726  -1.424  -3.347  0.00  0.00    -0.347 N 
ATOM     25  C   LIG d   1       7.696  -2.676  -3.921  0.00  0.00     0.049 A 
ATOM     26  H   LIG d   1       8.407  -1.110  -2.732  0.00  0.00     0.166 HD
ATOM     27  C   LIG d   1       6.559  -2.747  -4.746  0.00  0.00     0.025 A 
ATOM     28  C   LIG d   1       8.538  -3.781  -3.821  0.00  0.00    -0.034 A 
ATOM     29  C   LIG d   1       6.283  -3.920  -5.457  0.00  0.00    -0.009 A 
ATOM     30  C   LIG d   1       7.131  -5.001  -5.344  0.00  0.00     0.121 A 
ATOM     31  H   LIG d   1       5.411  -3.977  -6.092  0.00  0.00     0.066 H 
ATOM     32  C   LIG d   1       8.256  -4.929  -4.526  0.00  0.00    -0.018 A 
ATOM     33  H   LIG d   1       8.914  -5.781  -4.443  0.00  0.00     0.066 H 
ATOM     34  H   LIG d   1       9.413  -3.737  -3.189  0.00  0.00     0.064 H 
BRANCH  23  35
ATOM     35  C   LIG d   1       6.350   0.655  -3.402  0.00  0.00     0.357 C 
ATOM     36  O   LIG d   1       6.548   1.567  -4.183  0.00  0.00    -0.243 OA
BRANCH  35  37
ATOM     37  O   LIG d   1       5.857   0.915  -2.173  0.00  0.00    -0.460 OA
BRANCH  37  38
ATOM     38  C   LIG d   1       4.549   0.421  -1.880  0.00  0.00     0.090 C 
ATOM     39  H   LIG d   1       4.452  -0.596  -2.258  0.00  0.00     0.070 H 
ATOM     40  H   LIG d   1       4.393   0.425  -0.801  0.00  0.00     0.070 H 
BRANCH  38  41
ATOM     41  C   LIG d   1       3.504   1.316  -2.549  0.00  0.00    -0.031 C 
ATOM     42  H   LIG d   1       2.948   1.860  -1.784  0.00  0.00     0.026 H 
ATOM     43  H   LIG d   1       4.001   2.026  -3.210  0.00  0.00     0.026 H 
ATOM     44  H   LIG d   1       2.816   0.700  -3.130  0.00  0.00     0.026 H 
ENDBRANCH  38  41
ENDBRANCH  37  38
ENDBRANCH  35  37
ENDBRANCH  23  35
BRANCH  30  45
ATOM     45  O   LIG d   1       6.868  -6.144  -6.033  0.00  0.00    -0.495 OA
BRANCH  45  46
ATOM     46  C   LIG d   1       5.678  -6.853  -5.684  0.00  0.00     0.079 C 
ATOM     47  H   LIG d   1       5.658  -7.810  -6.206  0.00  0.00     0.066 H 
ATOM     48  H   LIG d   1       5.661  -7.027  -4.607  0.00  0.00     0.066 H 
ATOM     49  H   LIG d   1       4.807  -6.264  -5.970  0.00  0.00     0.066 H 
ENDBRANCH  45  46
ENDBRANCH  30  45
ENDBRANCH  20  22
ENDBRANCH  15  18
ENDBRANCH   4  15
BRANCH   1  50
ATOM     50  C   LIG d   1       1.396  -3.295 -10.973  0.00  0.00     0.201 A 
ATOM     51  N   LIG d   1       1.498  -3.770 -12.242  0.00  0.00    -0.306 N 
ATOM     52  C   LIG d   1       0.452  -4.667 -12.419  0.00  0.00     0.153 A 
ATOM     53  C   LIG d   1      -0.252  -4.688 -11.219  0.00  0.00     0.170 A 
ATOM     54  C   LIG d   1       0.020  -5.477 -13.483  0.00  0.00     0.280 A 
ATOM     55  N   LIG d   1      -1.361  -5.510 -11.112  0.00  0.00    -0.280 N 
ATOM     56  N   LIG d   1       0.354  -3.843 -10.383  0.00  0.00    -0.196 NA
ATOM     57  C   LIG d   1      -1.742  -6.270 -12.157  0.00  0.00     0.331 A 
ATOM     58  N   LIG d   1      -1.068  -6.256 -13.319  0.00  0.00    -0.273 N 
ATOM     59  O   LIG d   1      -2.718  -6.986 -12.045  0.00  0.00    -0.246 OA
ATOM     60  H   LIG d   1      -1.370  -6.817 -14.052  0.00  0.00     0.173 HD
ATOM     61  O   LIG d   1       0.622  -5.474 -14.543  0.00  0.00    -0.265 OA
BRANCH  51  62
ATOM     62  C   LIG d   1       2.516  -3.409 -13.232  0.00  0.00     0.024 C 
ATOM     63  H   LIG d   1       2.703  -4.259 -13.888  0.00  0.00     0.049 H 
ATOM     64  H   LIG d   1       3.439  -3.135 -12.719  0.00  0.00     0.049 H 
BRANCH  62  65
ATOM     65  C   LIG d   1       2.023  -2.223 -14.062  0.00  0.00    -0.047 C 
ATOM     66  H   LIG d   1       2.735  -2.016 -14.861  0.00  0.00     0.025 H 
ATOM     67  H   LIG d   1       1.051  -2.462 -14.495  0.00  0.00     0.025 H 
ATOM     68  H   LIG d   1       1.929  -1.346 -13.422  0.00  0.00     0.025 H 
ENDBRANCH  62  65
ENDBRANCH  51  62
BRANCH  55  69
ATOM     69  C   LIG d   1      -2.122  -5.553  -9.860  0.00  0.00     0.018 C 
ATOM     70  H   LIG d   1      -3.050  -4.994  -9.981  0.00  0.00     0.046 H 
ATOM     71  H   LIG d   1      -2.351  -6.589  -9.610  0.00  0.00     0.046 H 
ATOM     72  H   LIG d   1      -1.531  -5.108  -9.060  0.00  0.00     0.046 H 
ENDBRANCH  55  69
ENDBRANCH   1  50
TORSDOF 13
ENDMDL
