MODEL 1
REMARK VINA RESULT:      -4.7      0.000      0.000
REMARK  1 active torsions:
REMARK  status: ('A' for Active; 'I' for Inactive)
REMARK    1  A    between atoms: C_4  and  N_8 
ROOT
ATOM      1  C   LIG d   1       4.208  -1.386  -1.959  0.00  0.00    -0.043 A 
ATOM      2  C   LIG d   1       4.156  -2.498  -2.777  0.00  0.00    -0.062 A 
ATOM      3  C   LIG d   1       4.345  -2.361  -4.144  0.00  0.00    -0.029 A 
ATOM      4  C   LIG d   1       4.594  -1.109  -4.686  0.00  0.00     0.267 A 
ATOM      5  C   LIG d   1       4.652  -0.001  -3.863  0.00  0.00     0.033 A 
ATOM      6  C   LIG d   1       4.462  -0.139  -2.500  0.00  0.00     0.047 A 
ATOM      7 CL   LIG d   1       4.535   1.256  -1.469  0.00  0.00    -0.083 Cl
ATOM      8  H   LIG d   1       4.056  -1.492  -0.894  0.00  0.00     0.063 H 
ATOM      9  H   LIG d   1       3.962  -3.472  -2.353  0.00  0.00     0.061 H 
ATOM     10  H   LIG d   1       4.846   0.975  -4.285  0.00  0.00     0.070 H 
ATOM     11  O   LIG d   1       4.288  -3.453  -4.952  0.00  0.00    -0.869 OA
ENDROOT
BRANCH   4  12
ATOM     12  N   LIG d   1       4.798  -0.961  -6.144  0.00  0.00     0.079 N 
ATOM     13  O   LIG d   1       5.916  -1.069  -6.617  0.00  0.00     0.041 OA
ATOM     14  O   LIG d   1       3.850  -0.729  -6.871  0.00  0.00    -0.576 OA
ENDBRANCH   4  12
TORSDOF 1
ENDMDL
MODEL 2
REMARK VINA RESULT:      -4.7      2.011      2.802
REMARK  1 active torsions:
REMARK  status: ('A' for Active; 'I' for Inactive)
REMARK    1  A    between atoms: C_4  and  N_8 
ROOT
ATOM      1  C   LIG d   1       2.439  -0.501  -3.652  0.00  0.00    -0.043 A 
ATOM      2  C   LIG d   1       2.230   0.297  -4.760  0.00  0.00    -0.062 A 
ATOM      3  C   LIG d   1       3.164   0.315  -5.786  0.00  0.00    -0.029 A 
ATOM      4  C   LIG d   1       4.301  -0.474  -5.699  0.00  0.00     0.267 A 
ATOM      5  C   LIG d   1       4.503  -1.275  -4.592  0.00  0.00     0.033 A 
ATOM      6  C   LIG d   1       3.571  -1.290  -3.570  0.00  0.00     0.047 A 
ATOM      7 CL   LIG d   1       3.827  -2.298  -2.180  0.00  0.00    -0.083 Cl
ATOM      8  H   LIG d   1       1.714  -0.511  -2.851  0.00  0.00     0.063 H 
ATOM      9  H   LIG d   1       1.344   0.911  -4.826  0.00  0.00     0.061 H 
ATOM     10  H   LIG d   1       5.388  -1.889  -4.525  0.00  0.00     0.070 H 
ATOM     11  O   LIG d   1       2.964   1.104  -6.875  0.00  0.00    -0.869 OA
ENDROOT
BRANCH   4  12
ATOM     12  N   LIG d   1       5.298  -0.458  -6.793  0.00  0.00     0.079 N 
ATOM     13  O   LIG d   1       6.175   0.388  -6.806  0.00  0.00     0.041 OA
ATOM     14  O   LIG d   1       5.241  -1.289  -7.682  0.00  0.00    -0.576 OA
ENDBRANCH   4  12
TORSDOF 1
ENDMDL
MODEL 3
REMARK VINA RESULT:      -4.6      3.155      3.669
REMARK  1 active torsions:
REMARK  status: ('A' for Active; 'I' for Inactive)
REMARK    1  A    between atoms: C_4  and  N_8 
ROOT
ATOM      1  C   LIG d   1       4.151  -2.063  -2.592  0.00  0.00    -0.043 A 
ATOM      2  C   LIG d   1       4.227  -0.828  -1.978  0.00  0.00    -0.062 A 
ATOM      3  C   LIG d   1       5.111   0.130  -2.454  0.00  0.00    -0.029 A 
ATOM      4  C   LIG d   1       5.911  -0.153  -3.551  0.00  0.00     0.267 A 
ATOM      5  C   LIG d   1       5.827  -1.387  -4.166  0.00  0.00     0.033 A 
ATOM      6  C   LIG d   1       4.947  -2.341  -3.689  0.00  0.00     0.047 A 
ATOM      7 CL   LIG d   1       4.844  -3.891  -4.463  0.00  0.00    -0.083 Cl
ATOM      8  H   LIG d   1       3.466  -2.810  -2.218  0.00  0.00     0.063 H 
ATOM      9  H   LIG d   1       3.603  -0.609  -1.123  0.00  0.00     0.061 H 
ATOM     10  H   LIG d   1       6.451  -1.608  -5.020  0.00  0.00     0.070 H 
ATOM     11  O   LIG d   1       5.192   1.344  -1.848  0.00  0.00    -0.869 OA
ENDROOT
BRANCH   4  12
ATOM     12  N   LIG d   1       6.853   0.867  -4.063  0.00  0.00     0.079 N 
ATOM     13  O   LIG d   1       6.845   1.166  -5.244  0.00  0.00     0.041 OA
ATOM     14  O   LIG d   1       7.637   1.408  -3.304  0.00  0.00    -0.576 OA
ENDBRANCH   4  12
TORSDOF 1
ENDMDL
MODEL 4
REMARK VINA RESULT:      -4.5      3.495      3.727
REMARK  1 active torsions:
REMARK  status: ('A' for Active; 'I' for Inactive)
REMARK    1  A    between atoms: C_4  and  N_8 
ROOT
ATOM      1  C   LIG d   1       5.720  -2.805  -4.077  0.00  0.00    -0.043 A 
ATOM      2  C   LIG d   1       4.418  -2.530  -3.707  0.00  0.00    -0.062 A 
ATOM      3  C   LIG d   1       4.095  -1.290  -3.177  0.00  0.00    -0.029 A 
ATOM      4  C   LIG d   1       5.080  -0.325  -3.026  0.00  0.00     0.267 A 
ATOM      5  C   LIG d   1       6.380  -0.601  -3.403  0.00  0.00     0.033 A 
ATOM      6  C   LIG d   1       6.700  -1.839  -3.930  0.00  0.00     0.047 A 
ATOM      7 CL   LIG d   1       8.334  -2.184  -4.403  0.00  0.00    -0.083 Cl
ATOM      8  H   LIG d   1       5.972  -3.772  -4.486  0.00  0.00     0.063 H 
ATOM      9  H   LIG d   1       3.652  -3.283  -3.825  0.00  0.00     0.061 H 
ATOM     10  H   LIG d   1       7.147   0.150  -3.285  0.00  0.00     0.070 H 
ATOM     11  O   LIG d   1       2.815  -1.019  -2.807  0.00  0.00    -0.869 OA
ENDROOT
BRANCH   4  12
ATOM     12  N   LIG d   1       4.738   1.000  -2.462  0.00  0.00     0.079 N 
ATOM     13  O   LIG d   1       4.414   1.912  -3.202  0.00  0.00     0.041 OA
ATOM     14  O   LIG d   1       4.782   1.179  -1.259  0.00  0.00    -0.576 OA
ENDBRANCH   4  12
TORSDOF 1
ENDMDL
MODEL 5
REMARK VINA RESULT:      -4.5      3.397      4.000
REMARK  1 active torsions:
REMARK  status: ('A' for Active; 'I' for Inactive)
REMARK    1  A    between atoms: C_4  and  N_8 
ROOT
ATOM      1  C   LIG d   1       6.599  -1.954  -3.887  0.00  0.00    -0.043 A 
ATOM      2  C   LIG d   1       6.985  -0.681  -3.513  0.00  0.00    -0.062 A 
ATOM      3  C   LIG d   1       6.025   0.295  -3.285  0.00  0.00    -0.029 A 
ATOM      4  C   LIG d   1       4.680  -0.013  -3.427  0.00  0.00     0.267 A 
ATOM      5  C   LIG d   1       4.298  -1.288  -3.794  0.00  0.00     0.033 A 
ATOM      6  C   LIG d   1       5.257  -2.259  -4.022  0.00  0.00     0.047 A 
ATOM      7 CL   LIG d   1       4.775  -3.862  -4.484  0.00  0.00    -0.083 Cl
ATOM      8  H   LIG d   1       7.347  -2.712  -4.068  0.00  0.00     0.063 H 
ATOM      9  H   LIG d   1       8.032  -0.443  -3.403  0.00  0.00     0.061 H 
ATOM     10  H   LIG d   1       3.251  -1.528  -3.905  0.00  0.00     0.070 H 
ATOM     11  O   LIG d   1       6.402   1.550  -2.923  0.00  0.00    -0.869 OA
ENDROOT
BRANCH   4  12
ATOM     12  N   LIG d   1       3.654   1.026  -3.183  0.00  0.00     0.079 N 
ATOM     13  O   LIG d   1       3.149   1.616  -4.121  0.00  0.00     0.041 OA
ATOM     14  O   LIG d   1       3.315   1.291  -2.044  0.00  0.00    -0.576 OA
ENDBRANCH   4  12
TORSDOF 1
ENDMDL
MODEL 6
REMARK VINA RESULT:      -4.5      2.160      2.579
REMARK  1 active torsions:
REMARK  status: ('A' for Active; 'I' for Inactive)
REMARK    1  A    between atoms: C_4  and  N_8 
ROOT
ATOM      1  C   LIG d   1       5.233   0.587  -2.244  0.00  0.00    -0.043 A 
ATOM      2  C   LIG d   1       4.367  -0.439  -1.919  0.00  0.00    -0.062 A 
ATOM      3  C   LIG d   1       4.409  -1.632  -2.627  0.00  0.00    -0.029 A 
ATOM      4  C   LIG d   1       5.326  -1.793  -3.655  0.00  0.00     0.267 A 
ATOM      5  C   LIG d   1       6.194  -0.767  -3.973  0.00  0.00     0.033 A 
ATOM      6  C   LIG d   1       6.150   0.421  -3.266  0.00  0.00     0.047 A 
ATOM      7 CL   LIG d   1       7.242   1.710  -3.667  0.00  0.00    -0.083 Cl
ATOM      8  H   LIG d   1       5.197   1.517  -1.695  0.00  0.00     0.063 H 
ATOM      9  H   LIG d   1       3.654  -0.312  -1.118  0.00  0.00     0.061 H 
ATOM     10  H   LIG d   1       6.908  -0.893  -4.773  0.00  0.00     0.070 H 
ATOM     11  O   LIG d   1       3.553  -2.640  -2.313  0.00  0.00    -0.869 OA
ENDROOT
BRANCH   4  12
ATOM     12  N   LIG d   1       5.374  -3.065  -4.411  0.00  0.00     0.079 N 
ATOM     13  O   LIG d   1       6.426  -3.668  -4.521  0.00  0.00     0.041 OA
ATOM     14  O   LIG d   1       4.362  -3.507  -4.924  0.00  0.00    -0.576 OA
ENDBRANCH   4  12
TORSDOF 1
ENDMDL
MODEL 7
REMARK VINA RESULT:      -4.2      2.154      2.511
REMARK  1 active torsions:
REMARK  status: ('A' for Active; 'I' for Inactive)
REMARK    1  A    between atoms: C_4  and  N_8 
ROOT
ATOM      1  C   LIG d   1       4.517  -1.048  -2.619  0.00  0.00    -0.043 A 
ATOM      2  C   LIG d   1       3.297  -0.528  -3.004  0.00  0.00    -0.062 A 
ATOM      3  C   LIG d   1       3.049  -0.260  -4.343  0.00  0.00    -0.029 A 
ATOM      4  C   LIG d   1       4.027  -0.520  -5.292  0.00  0.00     0.267 A 
ATOM      5  C   LIG d   1       5.243  -1.046  -4.903  0.00  0.00     0.033 A 
ATOM      6  C   LIG d   1       5.488  -1.312  -3.568  0.00  0.00     0.047 A 
ATOM      7 CL   LIG d   1       7.018  -1.973  -3.083  0.00  0.00    -0.083 Cl
ATOM      8  H   LIG d   1       4.711  -1.254  -1.576  0.00  0.00     0.063 H 
ATOM      9  H   LIG d   1       2.537  -0.326  -2.264  0.00  0.00     0.061 H 
ATOM     10  H   LIG d   1       6.004  -1.249  -5.643  0.00  0.00     0.070 H 
ATOM     11  O   LIG d   1       1.851   0.258  -4.723  0.00  0.00    -0.869 OA
ENDROOT
BRANCH   4  12
ATOM     12  N   LIG d   1       3.765  -0.236  -6.721  0.00  0.00     0.079 N 
ATOM     13  O   LIG d   1       3.370  -1.123  -7.456  0.00  0.00     0.041 OA
ATOM     14  O   LIG d   1       3.945   0.885  -7.162  0.00  0.00    -0.576 OA
ENDBRANCH   4  12
TORSDOF 1
ENDMDL
MODEL 8
REMARK VINA RESULT:      -4.2      3.210      4.026
REMARK  1 active torsions:
REMARK  status: ('A' for Active; 'I' for Inactive)
REMARK    1  A    between atoms: C_4  and  N_8 
ROOT
ATOM      1  C   LIG d   1       2.786   0.525  -6.206  0.00  0.00    -0.043 A 
ATOM      2  C   LIG d   1       2.420   0.522  -4.874  0.00  0.00    -0.062 A 
ATOM      3  C   LIG d   1       3.032  -0.353  -3.989  0.00  0.00    -0.029 A 
ATOM      4  C   LIG d   1       4.016  -1.220  -4.444  0.00  0.00     0.267 A 
ATOM      5  C   LIG d   1       4.382  -1.210  -5.775  0.00  0.00     0.033 A 
ATOM      6  C   LIG d   1       3.770  -0.337  -6.656  0.00  0.00     0.047 A 
ATOM      7 CL   LIG d   1       4.233  -0.326  -8.329  0.00  0.00    -0.083 Cl
ATOM      8  H   LIG d   1       2.306   1.204  -6.896  0.00  0.00     0.063 H 
ATOM      9  H   LIG d   1       1.655   1.198  -4.522  0.00  0.00     0.061 H 
ATOM     10  H   LIG d   1       5.148  -1.885  -6.129  0.00  0.00     0.070 H 
ATOM     11  O   LIG d   1       2.670  -0.362  -2.679  0.00  0.00    -0.869 OA
ENDROOT
BRANCH   4  12
ATOM     12  N   LIG d   1       4.672  -2.154  -3.502  0.00  0.00     0.079 N 
ATOM     13  O   LIG d   1       5.684  -1.816  -2.914  0.00  0.00     0.041 OA
ATOM     14  O   LIG d   1       4.200  -3.261  -3.315  0.00  0.00    -0.576 OA
ENDBRANCH   4  12
TORSDOF 1
ENDMDL
MODEL 9
REMARK VINA RESULT:      -4.1      2.362      3.160
REMARK  1 active torsions:
REMARK  status: ('A' for Active; 'I' for Inactive)
REMARK    1  A    between atoms: C_4  and  N_8 
ROOT
ATOM      1  C   LIG d   1       6.574  -1.738  -3.158  0.00  0.00    -0.043 A 
ATOM      2  C   LIG d   1       7.249  -2.514  -4.080  0.00  0.00    -0.062 A 
ATOM      3  C   LIG d   1       6.551  -3.419  -4.868  0.00  0.00    -0.029 A 
ATOM      4  C   LIG d   1       5.176  -3.536  -4.731  0.00  0.00     0.267 A 
ATOM      5  C   LIG d   1       4.504  -2.754  -3.812  0.00  0.00     0.033 A 
ATOM      6  C   LIG d   1       5.202  -1.854  -3.028  0.00  0.00     0.047 A 
ATOM      7 CL   LIG d   1       4.356  -0.872  -1.873  0.00  0.00    -0.083 Cl
ATOM      8  H   LIG d   1       7.119  -1.037  -2.542  0.00  0.00     0.063 H 
ATOM      9  H   LIG d   1       8.320  -2.421  -4.185  0.00  0.00     0.061 H 
ATOM     10  H   LIG d   1       3.433  -2.845  -3.706  0.00  0.00     0.070 H 
ATOM     11  O   LIG d   1       7.214  -4.188  -5.772  0.00  0.00    -0.869 OA
ENDROOT
BRANCH   4  12
ATOM     12  N   LIG d   1       4.428  -4.499  -5.571  0.00  0.00     0.079 N 
ATOM     13  O   LIG d   1       4.113  -4.198  -6.709  0.00  0.00     0.041 OA
ATOM     14  O   LIG d   1       4.128  -5.591  -5.125  0.00  0.00    -0.576 OA
ENDBRANCH   4  12
TORSDOF 1
ENDMDL
MODEL 10
REMARK VINA RESULT:      -4.1      6.291      7.378
REMARK  1 active torsions:
REMARK  status: ('A' for Active; 'I' for Inactive)
REMARK    1  A    between atoms: C_4  and  N_8 
ROOT
ATOM      1  C   LIG d   1       3.275  -0.416 -11.939  0.00  0.00    -0.043 A 
ATOM      2  C   LIG d   1       4.298   0.419 -11.535  0.00  0.00    -0.062 A 
ATOM      3  C   LIG d   1       4.267   0.992 -10.272  0.00  0.00    -0.029 A 
ATOM      4  C   LIG d   1       3.210   0.720  -9.415  0.00  0.00     0.267 A 
ATOM      5  C   LIG d   1       2.192  -0.120  -9.821  0.00  0.00     0.033 A 
ATOM      6  C   LIG d   1       2.225  -0.690 -11.081  0.00  0.00     0.047 A 
ATOM      7 CL   LIG d   1       0.943  -1.746 -11.588  0.00  0.00    -0.083 Cl
ATOM      8  H   LIG d   1       3.297  -0.859 -12.924  0.00  0.00     0.063 H 
ATOM      9  H   LIG d   1       5.120   0.629 -12.203  0.00  0.00     0.061 H 
ATOM     10  H   LIG d   1       1.369  -0.332  -9.154  0.00  0.00     0.070 H 
ATOM     11  O   LIG d   1       5.270   1.819  -9.874  0.00  0.00    -0.869 OA
ENDROOT
BRANCH   4  12
ATOM     12  N   LIG d   1       3.175   1.329  -8.067  0.00  0.00     0.079 N 
ATOM     13  O   LIG d   1       2.744   2.459  -7.920  0.00  0.00     0.041 OA
ATOM     14  O   LIG d   1       3.578   0.702  -7.104  0.00  0.00    -0.576 OA
ENDBRANCH   4  12
TORSDOF 1
ENDMDL
