MODEL 1
REMARK VINA RESULT:      -6.9      0.000      0.000
REMARK  5 active torsions:
REMARK  status: ('A' for Active; 'I' for Inactive)
REMARK    1  A    between atoms: C_2  and  C_3 
REMARK    2  A    between atoms: C_2  and  N_16 
REMARK    3  A    between atoms: N_12  and  C_15 
REMARK    4  A    between atoms: N_16  and  C_17 
REMARK    5  A    between atoms: C_21  and  N_23 
ROOT
ATOM      1  C   LIG d   1       6.131  -1.350  -7.263  0.00  0.00     0.015 A 
ATOM      2  C   LIG d   1       4.767  -1.018  -7.455  0.00  0.00     0.195 A 
ATOM      3  O   LIG d   1       3.878  -1.768  -7.086  0.00  0.00    -0.287 OA
ATOM      4  C   LIG d   1       4.454   0.264  -8.113  0.00  0.00     0.046 A 
ATOM      5  C   LIG d   1       3.134   0.658  -8.335  0.00  0.00    -0.049 A 
ATOM      6  C   LIG d   1       2.877   1.860  -8.953  0.00  0.00    -0.061 A 
ATOM      7  C   LIG d   1       3.923   2.680  -9.355  0.00  0.00    -0.060 A 
ATOM      8  C   LIG d   1       5.231   2.304  -9.143  0.00  0.00    -0.037 A 
ATOM      9  C   LIG d   1       5.513   1.093  -8.519  0.00  0.00     0.052 A 
ATOM     10  N   LIG d   1       6.818   0.700  -8.298  0.00  0.00    -0.356 N 
ATOM     11  C   LIG d   1       7.116  -0.474  -7.688  0.00  0.00    -0.026 A 
ATOM     12  O   LIG d   1       8.412  -0.799  -7.494  0.00  0.00    -0.861 OA
ATOM     13  H   LIG d   1       2.319   0.021  -8.024  0.00  0.00     0.062 H 
ATOM     14  H   LIG d   1       1.857   2.168  -9.126  0.00  0.00     0.062 H 
ATOM     15  H   LIG d   1       3.708   3.622  -9.839  0.00  0.00     0.062 H 
ATOM     16  H   LIG d   1       6.037   2.949  -9.460  0.00  0.00     0.064 H 
ENDROOT
BRANCH   1  17
ATOM     17  C   LIG d   1       6.501  -2.623  -6.608  0.00  0.00    -0.137 C 
ATOM     18  C   LIG d   1       6.515  -3.758  -7.313  0.00  0.00    -0.113 C 
ATOM     19  H   LIG d   1       6.826  -4.680  -6.846  0.00  0.00     0.052 H 
ATOM     20  H   LIG d   1       6.209  -3.754  -8.349  0.00  0.00     0.052 H 
BRANCH  17  21
ATOM     21  N   LIG d   1       6.834  -2.639  -5.253  0.00  0.00    -0.646 NA
BRANCH  21  22
ATOM     22  C   LIG d   1       5.926  -2.159  -4.305  0.00  0.00    -0.135 A 
ATOM     23  C   LIG d   1       6.057  -0.870  -3.806  0.00  0.00     0.001 A 
ATOM     24  C   LIG d   1       5.154  -0.396  -2.874  0.00  0.00     0.272 A 
ATOM     25  H   LIG d   1       6.861  -0.236  -4.150  0.00  0.00     0.067 H 
ATOM     26  C   LIG d   1       4.128  -1.208  -2.429  0.00  0.00     0.015 A 
ATOM     27  C   LIG d   1       3.997  -2.495  -2.920  0.00  0.00    -0.057 A 
ATOM     28  H   LIG d   1       3.426  -0.837  -1.697  0.00  0.00     0.069 H 
ATOM     29  C   LIG d   1       4.893  -2.973  -3.856  0.00  0.00    -0.076 A 
ATOM     30  H   LIG d   1       3.194  -3.127  -2.572  0.00  0.00     0.062 H 
ATOM     31  H   LIG d   1       4.790  -3.977  -4.240  0.00  0.00     0.060 H 
BRANCH  24  32
ATOM     32  N   LIG d   1       5.289   0.980  -2.347  0.00  0.00     0.080 N 
ATOM     33  O   LIG d   1       4.828   1.261  -1.265  0.00  0.00     0.041 OA
ATOM     34  O   LIG d   1       5.860   1.824  -2.999  0.00  0.00    -0.576 OA
ENDBRANCH  24  32
ENDBRANCH  21  22
ENDBRANCH  17  21
ENDBRANCH   1  17
BRANCH  10  35
ATOM     35  C   LIG d   1       7.909   1.578  -8.729  0.00  0.00     0.011 C 
ATOM     36  H   LIG d   1       8.860   1.170  -8.387  0.00  0.00     0.045 H 
ATOM     37  H   LIG d   1       7.911   1.646  -9.817  0.00  0.00     0.045 H 
ATOM     38  H   LIG d   1       7.767   2.571  -8.302  0.00  0.00     0.045 H 
ENDBRANCH  10  35
TORSDOF 5
ENDMDL
MODEL 2
REMARK VINA RESULT:      -6.6      4.427      6.685
REMARK  5 active torsions:
REMARK  status: ('A' for Active; 'I' for Inactive)
REMARK    1  A    between atoms: C_2  and  C_3 
REMARK    2  A    between atoms: C_2  and  N_16 
REMARK    3  A    between atoms: N_12  and  C_15 
REMARK    4  A    between atoms: N_16  and  C_17 
REMARK    5  A    between atoms: C_21  and  N_23 
ROOT
ATOM      1  C   LIG d   1       8.138   0.765  -4.542  0.00  0.00     0.015 A 
ATOM      2  C   LIG d   1       7.075   1.306  -3.777  0.00  0.00     0.195 A 
ATOM      3  O   LIG d   1       6.952   2.512  -3.636  0.00  0.00    -0.287 OA
ATOM      4  C   LIG d   1       6.121   0.367  -3.158  0.00  0.00     0.046 A 
ATOM      5  C   LIG d   1       5.050   0.828  -2.392  0.00  0.00    -0.049 A 
ATOM      6  C   LIG d   1       4.178  -0.075  -1.828  0.00  0.00    -0.061 A 
ATOM      7  C   LIG d   1       4.361  -1.438  -2.017  0.00  0.00    -0.060 A 
ATOM      8  C   LIG d   1       5.415  -1.908  -2.770  0.00  0.00    -0.037 A 
ATOM      9  C   LIG d   1       6.307  -1.011  -3.350  0.00  0.00     0.052 A 
ATOM     10  N   LIG d   1       7.368  -1.464  -4.109  0.00  0.00    -0.356 N 
ATOM     11  C   LIG d   1       8.247  -0.609  -4.687  0.00  0.00    -0.026 A 
ATOM     12  O   LIG d   1       9.261  -1.112  -5.423  0.00  0.00    -0.861 OA
ATOM     13  H   LIG d   1       4.906   1.888  -2.243  0.00  0.00     0.062 H 
ATOM     14  H   LIG d   1       3.347   0.278  -1.235  0.00  0.00     0.062 H 
ATOM     15  H   LIG d   1       3.670  -2.137  -1.569  0.00  0.00     0.062 H 
ATOM     16  H   LIG d   1       5.548  -2.970  -2.911  0.00  0.00     0.064 H 
ENDROOT
BRANCH   1  17
ATOM     17  C   LIG d   1       9.123   1.661  -5.184  0.00  0.00    -0.137 C 
ATOM     18  C   LIG d   1       9.045   1.910  -6.494  0.00  0.00    -0.113 C 
ATOM     19  H   LIG d   1       9.738   2.598  -6.955  0.00  0.00     0.052 H 
ATOM     20  H   LIG d   1       8.293   1.420  -7.094  0.00  0.00     0.052 H 
BRANCH  17  21
ATOM     21  N   LIG d   1      10.135   2.245  -4.421  0.00  0.00    -0.646 NA
BRANCH  21  22
ATOM     22  C   LIG d   1      10.007   3.566  -3.986  0.00  0.00    -0.135 A 
ATOM     23  C   LIG d   1      10.382   3.912  -2.694  0.00  0.00     0.001 A 
ATOM     24  C   LIG d   1      10.260   5.221  -2.268  0.00  0.00     0.272 A 
ATOM     25  H   LIG d   1      10.773   3.160  -2.025  0.00  0.00     0.067 H 
ATOM     26  C   LIG d   1       9.754   6.184  -3.122  0.00  0.00     0.015 A 
ATOM     27  C   LIG d   1       9.375   5.841  -4.408  0.00  0.00    -0.057 A 
ATOM     28  H   LIG d   1       9.656   7.204  -2.786  0.00  0.00     0.069 H 
ATOM     29  C   LIG d   1       9.499   4.536  -4.842  0.00  0.00    -0.076 A 
ATOM     30  H   LIG d   1       8.981   6.595  -5.073  0.00  0.00     0.062 H 
ATOM     31  H   LIG d   1       9.203   4.269  -5.846  0.00  0.00     0.060 H 
BRANCH  24  32
ATOM     32  N   LIG d   1      10.665   5.592  -0.894  0.00  0.00     0.080 N 
ATOM     33  O   LIG d   1      10.043   6.431  -0.286  0.00  0.00     0.041 OA
ATOM     34  O   LIG d   1      11.621   5.057  -0.380  0.00  0.00    -0.576 OA
ENDBRANCH  24  32
ENDBRANCH  21  22
ENDBRANCH  17  21
ENDBRANCH   1  17
BRANCH  10  35
ATOM     35  C   LIG d   1       7.545  -2.906  -4.298  0.00  0.00     0.011 C 
ATOM     36  H   LIG d   1       6.793  -3.443  -3.720  0.00  0.00     0.045 H 
ATOM     37  H   LIG d   1       7.435  -3.149  -5.355  0.00  0.00     0.045 H 
ATOM     38  H   LIG d   1       8.539  -3.197  -3.959  0.00  0.00     0.045 H 
ENDBRANCH  10  35
TORSDOF 5
ENDMDL
MODEL 3
REMARK VINA RESULT:      -6.6      3.345      7.079
REMARK  5 active torsions:
REMARK  status: ('A' for Active; 'I' for Inactive)
REMARK    1  A    between atoms: C_2  and  C_3 
REMARK    2  A    between atoms: C_2  and  N_16 
REMARK    3  A    between atoms: N_12  and  C_15 
REMARK    4  A    between atoms: N_16  and  C_17 
REMARK    5  A    between atoms: C_21  and  N_23 
ROOT
ATOM      1  C   LIG d   1       3.799  -0.247  -7.167  0.00  0.00     0.015 A 
ATOM      2  C   LIG d   1       3.298   0.228  -5.929  0.00  0.00     0.195 A 
ATOM      3  O   LIG d   1       2.676   1.275  -5.862  0.00  0.00    -0.287 OA
ATOM      4  C   LIG d   1       3.553  -0.583  -4.724  0.00  0.00     0.046 A 
ATOM      5  C   LIG d   1       3.091  -0.179  -3.471  0.00  0.00    -0.049 A 
ATOM      6  C   LIG d   1       3.345  -0.960  -2.367  0.00  0.00    -0.061 A 
ATOM      7  C   LIG d   1       4.059  -2.143  -2.495  0.00  0.00    -0.060 A 
ATOM      8  C   LIG d   1       4.523  -2.555  -3.725  0.00  0.00    -0.037 A 
ATOM      9  C   LIG d   1       4.275  -1.781  -4.854  0.00  0.00     0.052 A 
ATOM     10  N   LIG d   1       4.731  -2.178  -6.095  0.00  0.00    -0.356 N 
ATOM     11  C   LIG d   1       4.498  -1.443  -7.210  0.00  0.00    -0.026 A 
ATOM     12  O   LIG d   1       4.964  -1.887  -8.396  0.00  0.00    -0.861 OA
ATOM     13  H   LIG d   1       2.535   0.742  -3.369  0.00  0.00     0.062 H 
ATOM     14  H   LIG d   1       2.988  -0.650  -1.396  0.00  0.00     0.062 H 
ATOM     15  H   LIG d   1       4.253  -2.747  -1.620  0.00  0.00     0.062 H 
ATOM     16  H   LIG d   1       5.077  -3.477  -3.813  0.00  0.00     0.064 H 
ENDROOT
BRANCH   1  17
ATOM     17  C   LIG d   1       3.573   0.527  -8.405  0.00  0.00    -0.137 C 
ATOM     18  C   LIG d   1       4.510   1.370  -8.847  0.00  0.00    -0.113 C 
ATOM     19  H   LIG d   1       4.364   1.903  -9.775  0.00  0.00     0.052 H 
ATOM     20  H   LIG d   1       5.413   1.523  -8.274  0.00  0.00     0.052 H 
BRANCH  17  21
ATOM     21  N   LIG d   1       2.379   0.378  -9.113  0.00  0.00    -0.646 NA
BRANCH  21  22
ATOM     22  C   LIG d   1       2.274  -0.599 -10.106  0.00  0.00    -0.135 A 
ATOM     23  C   LIG d   1       1.704  -1.831  -9.813  0.00  0.00     0.001 A 
ATOM     24  C   LIG d   1       1.595  -2.792 -10.799  0.00  0.00     0.272 A 
ATOM     25  H   LIG d   1       1.342  -2.036  -8.816  0.00  0.00     0.067 H 
ATOM     26  C   LIG d   1       2.062  -2.533 -12.074  0.00  0.00     0.015 A 
ATOM     27  C   LIG d   1       2.635  -1.309 -12.369  0.00  0.00    -0.057 A 
ATOM     28  H   LIG d   1       1.980  -3.287 -12.842  0.00  0.00     0.069 H 
ATOM     29  C   LIG d   1       2.742  -0.341 -11.389  0.00  0.00    -0.076 A 
ATOM     30  H   LIG d   1       2.998  -1.108 -13.365  0.00  0.00     0.062 H 
ATOM     31  H   LIG d   1       3.189   0.615 -11.619  0.00  0.00     0.060 H 
BRANCH  24  32
ATOM     32  N   LIG d   1       0.982  -4.104 -10.489  0.00  0.00     0.080 N 
ATOM     33  O   LIG d   1       1.684  -5.049 -10.216  0.00  0.00     0.041 OA
ATOM     34  O   LIG d   1      -0.221  -4.229 -10.511  0.00  0.00    -0.576 OA
ENDBRANCH  24  32
ENDBRANCH  21  22
ENDBRANCH  17  21
ENDBRANCH   1  17
BRANCH  10  35
ATOM     35  C   LIG d   1       5.483  -3.430  -6.211  0.00  0.00     0.011 C 
ATOM     36  H   LIG d   1       5.073  -4.026  -7.026  0.00  0.00     0.045 H 
ATOM     37  H   LIG d   1       6.530  -3.207  -6.415  0.00  0.00     0.045 H 
ATOM     38  H   LIG d   1       5.404  -3.989  -5.278  0.00  0.00     0.045 H 
ENDBRANCH  10  35
TORSDOF 5
ENDMDL
MODEL 4
REMARK VINA RESULT:      -6.6      1.984      2.705
REMARK  5 active torsions:
REMARK  status: ('A' for Active; 'I' for Inactive)
REMARK    1  A    between atoms: C_2  and  C_3 
REMARK    2  A    between atoms: C_2  and  N_16 
REMARK    3  A    between atoms: N_12  and  C_15 
REMARK    4  A    between atoms: N_16  and  C_17 
REMARK    5  A    between atoms: C_21  and  N_23 
ROOT
ATOM      1  C   LIG d   1       5.023  -1.722  -7.464  0.00  0.00     0.015 A 
ATOM      2  C   LIG d   1       4.332  -2.715  -8.202  0.00  0.00     0.195 A 
ATOM      3  O   LIG d   1       4.677  -3.885  -8.160  0.00  0.00    -0.287 OA
ATOM      4  C   LIG d   1       3.182  -2.291  -9.022  0.00  0.00     0.046 A 
ATOM      5  C   LIG d   1       2.454  -3.212  -9.775  0.00  0.00    -0.049 A 
ATOM      6  C   LIG d   1       1.386  -2.783 -10.530  0.00  0.00    -0.061 A 
ATOM      7  C   LIG d   1       1.034  -1.441 -10.545  0.00  0.00    -0.060 A 
ATOM      8  C   LIG d   1       1.744  -0.519  -9.808  0.00  0.00    -0.037 A 
ATOM      9  C   LIG d   1       2.826  -0.933  -9.037  0.00  0.00     0.052 A 
ATOM     10  N   LIG d   1       3.548  -0.023  -8.291  0.00  0.00    -0.356 N 
ATOM     11  C   LIG d   1       4.604  -0.404  -7.529  0.00  0.00    -0.026 A 
ATOM     12  O   LIG d   1       5.267   0.531  -6.816  0.00  0.00    -0.861 OA
ATOM     13  H   LIG d   1       2.727  -4.258  -9.765  0.00  0.00     0.062 H 
ATOM     14  H   LIG d   1       0.820  -3.494 -11.113  0.00  0.00     0.062 H 
ATOM     15  H   LIG d   1       0.193  -1.116 -11.142  0.00  0.00     0.062 H 
ATOM     16  H   LIG d   1       1.461   0.523  -9.827  0.00  0.00     0.064 H 
ENDROOT
BRANCH   1  17
ATOM     17  C   LIG d   1       6.183  -2.093  -6.625  0.00  0.00    -0.137 C 
ATOM     18  C   LIG d   1       7.415  -1.724  -6.988  0.00  0.00    -0.113 C 
ATOM     19  H   LIG d   1       8.257  -1.957  -6.354  0.00  0.00     0.052 H 
ATOM     20  H   LIG d   1       7.569  -1.197  -7.918  0.00  0.00     0.052 H 
BRANCH  17  21
ATOM     21  N   LIG d   1       5.991  -2.829  -5.456  0.00  0.00    -0.646 NA
BRANCH  21  22
ATOM     22  C   LIG d   1       5.368  -2.239  -4.353  0.00  0.00    -0.135 A 
ATOM     23  C   LIG d   1       5.705  -0.947  -3.973  0.00  0.00     0.001 A 
ATOM     24  C   LIG d   1       5.082  -0.364  -2.886  0.00  0.00     0.272 A 
ATOM     25  H   LIG d   1       6.450  -0.397  -4.528  0.00  0.00     0.067 H 
ATOM     26  C   LIG d   1       4.132  -1.069  -2.171  0.00  0.00     0.015 A 
ATOM     27  C   LIG d   1       3.797  -2.358  -2.544  0.00  0.00    -0.057 A 
ATOM     28  H   LIG d   1       3.650  -0.612  -1.320  0.00  0.00     0.069 H 
ATOM     29  C   LIG d   1       4.412  -2.945  -3.633  0.00  0.00    -0.076 A 
ATOM     30  H   LIG d   1       3.055  -2.906  -1.985  0.00  0.00     0.062 H 
ATOM     31  H   LIG d   1       4.150  -3.952  -3.924  0.00  0.00     0.060 H 
BRANCH  24  32
ATOM     32  N   LIG d   1       5.436   1.016  -2.483  0.00  0.00     0.080 N 
ATOM     33  O   LIG d   1       4.975   1.487  -1.470  0.00  0.00     0.041 OA
ATOM     34  O   LIG d   1       6.187   1.672  -3.169  0.00  0.00    -0.576 OA
ENDBRANCH  24  32
ENDBRANCH  21  22
ENDBRANCH  17  21
ENDBRANCH   1  17
BRANCH  10  35
ATOM     35  C   LIG d   1       3.161   1.390  -8.319  0.00  0.00     0.011 C 
ATOM     36  H   LIG d   1       3.407   1.853  -7.364  0.00  0.00     0.045 H 
ATOM     37  H   LIG d   1       3.700   1.897  -9.119  0.00  0.00     0.045 H 
ATOM     38  H   LIG d   1       2.089   1.469  -8.495  0.00  0.00     0.045 H 
ENDBRANCH  10  35
TORSDOF 5
ENDMDL
MODEL 5
REMARK VINA RESULT:      -6.6      1.754      2.602
REMARK  5 active torsions:
REMARK  status: ('A' for Active; 'I' for Inactive)
REMARK    1  A    between atoms: C_2  and  C_3 
REMARK    2  A    between atoms: C_2  and  N_16 
REMARK    3  A    between atoms: N_12  and  C_15 
REMARK    4  A    between atoms: N_16  and  C_17 
REMARK    5  A    between atoms: C_21  and  N_23 
ROOT
ATOM      1  C   LIG d   1       5.864  -1.802  -7.015  0.00  0.00     0.015 A 
ATOM      2  C   LIG d   1       5.350  -0.506  -7.266  0.00  0.00     0.195 A 
ATOM      3  O   LIG d   1       5.899   0.487  -6.817  0.00  0.00    -0.287 OA
ATOM      4  C   LIG d   1       4.129  -0.393  -8.086  0.00  0.00     0.046 A 
ATOM      5  C   LIG d   1       3.566   0.850  -8.374  0.00  0.00    -0.049 A 
ATOM      6  C   LIG d   1       2.427   0.920  -9.144  0.00  0.00    -0.061 A 
ATOM      7  C   LIG d   1       1.838  -0.239  -9.631  0.00  0.00    -0.060 A 
ATOM      8  C   LIG d   1       2.383  -1.474  -9.354  0.00  0.00    -0.037 A 
ATOM      9  C   LIG d   1       3.535  -1.566  -8.579  0.00  0.00     0.052 A 
ATOM     10  N   LIG d   1       4.095  -2.795  -8.292  0.00  0.00    -0.356 N 
ATOM     11  C   LIG d   1       5.220  -2.909  -7.543  0.00  0.00    -0.026 A 
ATOM     12  O   LIG d   1       5.723  -4.138  -7.303  0.00  0.00    -0.861 OA
ATOM     13  H   LIG d   1       4.022   1.753  -7.996  0.00  0.00     0.062 H 
ATOM     14  H   LIG d   1       1.989   1.881  -9.369  0.00  0.00     0.062 H 
ATOM     15  H   LIG d   1       0.944  -0.171 -10.233  0.00  0.00     0.062 H 
ATOM     16  H   LIG d   1       1.916  -2.369  -9.738  0.00  0.00     0.064 H 
ENDROOT
BRANCH   1  17
ATOM     17  C   LIG d   1       7.084  -1.972  -6.198  0.00  0.00    -0.137 C 
ATOM     18  C   LIG d   1       8.280  -1.670  -6.712  0.00  0.00    -0.113 C 
ATOM     19  H   LIG d   1       9.167  -1.753  -6.101  0.00  0.00     0.052 H 
ATOM     20  H   LIG d   1       8.361  -1.348  -7.739  0.00  0.00     0.052 H 
BRANCH  17  21
ATOM     21  N   LIG d   1       6.987  -2.450  -4.891  0.00  0.00    -0.646 NA
BRANCH  21  22
ATOM     22  C   LIG d   1       5.910  -2.068  -4.086  0.00  0.00    -0.135 A 
ATOM     23  C   LIG d   1       5.830  -0.769  -3.602  0.00  0.00     0.001 A 
ATOM     24  C   LIG d   1       4.761  -0.393  -2.812  0.00  0.00     0.272 A 
ATOM     25  H   LIG d   1       6.600  -0.052  -3.847  0.00  0.00     0.067 H 
ATOM     26  C   LIG d   1       3.778  -1.310  -2.493  0.00  0.00     0.015 A 
ATOM     27  C   LIG d   1       3.857  -2.607  -2.969  0.00  0.00    -0.057 A 
ATOM     28  H   LIG d   1       2.946  -1.015  -1.872  0.00  0.00     0.069 H 
ATOM     29  C   LIG d   1       4.920  -2.989  -3.764  0.00  0.00    -0.076 A 
ATOM     30  H   LIG d   1       3.087  -3.322  -2.720  0.00  0.00     0.062 H 
ATOM     31  H   LIG d   1       4.981  -4.001  -4.137  0.00  0.00     0.060 H 
BRANCH  24  32
ATOM     32  N   LIG d   1       4.671   0.994  -2.301  0.00  0.00     0.080 N 
ATOM     33  O   LIG d   1       3.623   1.411  -1.868  0.00  0.00     0.041 OA
ATOM     34  O   LIG d   1       5.647   1.709  -2.318  0.00  0.00    -0.576 OA
ENDBRANCH  24  32
ENDBRANCH  21  22
ENDBRANCH  17  21
ENDBRANCH   1  17
BRANCH  10  35
ATOM     35  C   LIG d   1       3.460  -4.007  -8.815  0.00  0.00     0.011 C 
ATOM     36  H   LIG d   1       4.001  -4.883  -8.459  0.00  0.00     0.045 H 
ATOM     37  H   LIG d   1       2.426  -4.053  -8.471  0.00  0.00     0.045 H 
ATOM     38  H   LIG d   1       3.480  -3.987  -9.905  0.00  0.00     0.045 H 
ENDBRANCH  10  35
TORSDOF 5
ENDMDL
MODEL 6
REMARK VINA RESULT:      -6.3      3.409      7.180
REMARK  5 active torsions:
REMARK  status: ('A' for Active; 'I' for Inactive)
REMARK    1  A    between atoms: C_2  and  C_3 
REMARK    2  A    between atoms: C_2  and  N_16 
REMARK    3  A    between atoms: N_12  and  C_15 
REMARK    4  A    between atoms: N_16  and  C_17 
REMARK    5  A    between atoms: C_21  and  N_23 
ROOT
ATOM      1  C   LIG d   1       3.965  -0.093  -7.224  0.00  0.00     0.015 A 
ATOM      2  C   LIG d   1       3.390   0.300  -5.990  0.00  0.00     0.195 A 
ATOM      3  O   LIG d   1       2.741   1.329  -5.897  0.00  0.00    -0.287 OA
ATOM      4  C   LIG d   1       3.598  -0.575  -4.822  0.00  0.00     0.046 A 
ATOM      5  C   LIG d   1       3.061  -0.254  -3.575  0.00  0.00    -0.049 A 
ATOM      6  C   LIG d   1       3.274  -1.092  -2.505  0.00  0.00    -0.061 A 
ATOM      7  C   LIG d   1       4.020  -2.253  -2.661  0.00  0.00    -0.060 A 
ATOM      8  C   LIG d   1       4.557  -2.583  -3.886  0.00  0.00    -0.037 A 
ATOM      9  C   LIG d   1       4.352  -1.749  -4.981  0.00  0.00     0.052 A 
ATOM     10  N   LIG d   1       4.882  -2.065  -6.216  0.00  0.00    -0.356 N 
ATOM     11  C   LIG d   1       4.692  -1.270  -7.298  0.00  0.00    -0.026 A 
ATOM     12  O   LIG d   1       5.229  -1.636  -8.481  0.00  0.00    -0.861 OA
ATOM     13  H   LIG d   1       2.481   0.649  -3.451  0.00  0.00     0.062 H 
ATOM     14  H   LIG d   1       2.860  -0.846  -1.538  0.00  0.00     0.062 H 
ATOM     15  H   LIG d   1       4.180  -2.903  -1.813  0.00  0.00     0.062 H 
ATOM     16  H   LIG d   1       5.135  -3.488  -3.996  0.00  0.00     0.064 H 
ENDROOT
BRANCH   1  17
ATOM     17  C   LIG d   1       3.788   0.748  -8.427  0.00  0.00    -0.137 C 
ATOM     18  C   LIG d   1       4.771   1.560  -8.826  0.00  0.00    -0.113 C 
ATOM     19  H   LIG d   1       4.658   2.142  -9.729  0.00  0.00     0.052 H 
ATOM     20  H   LIG d   1       5.677   1.639  -8.243  0.00  0.00     0.052 H 
BRANCH  17  21
ATOM     21  N   LIG d   1       2.593   0.694  -9.145  0.00  0.00    -0.646 NA
BRANCH  21  22
ATOM     22  C   LIG d   1       2.389  -0.317 -10.088  0.00  0.00    -0.135 A 
ATOM     23  C   LIG d   1       3.017  -0.252 -11.325  0.00  0.00     0.001 A 
ATOM     24  C   LIG d   1       2.819  -1.256 -12.253  0.00  0.00     0.272 A 
ATOM     25  H   LIG d   1       3.664   0.581 -11.560  0.00  0.00     0.067 H 
ATOM     26  C   LIG d   1       1.988  -2.320 -11.955  0.00  0.00     0.015 A 
ATOM     27  C   LIG d   1       1.356  -2.386 -10.726  0.00  0.00    -0.057 A 
ATOM     28  H   LIG d   1       1.832  -3.101 -12.683  0.00  0.00     0.069 H 
ATOM     29  C   LIG d   1       1.554  -1.387  -9.792  0.00  0.00    -0.076 A 
ATOM     30  H   LIG d   1       0.709  -3.218 -10.496  0.00  0.00     0.062 H 
ATOM     31  H   LIG d   1       1.062  -1.440  -8.832  0.00  0.00     0.060 H 
BRANCH  24  32
ATOM     32  N   LIG d   1       3.494  -1.191 -13.569  0.00  0.00     0.080 N 
ATOM     33  O   LIG d   1       3.237  -2.009 -14.420  0.00  0.00     0.041 OA
ATOM     34  O   LIG d   1       4.302  -0.318 -13.792  0.00  0.00    -0.576 OA
ENDBRANCH  24  32
ENDBRANCH  21  22
ENDBRANCH  17  21
ENDBRANCH   1  17
BRANCH  10  35
ATOM     35  C   LIG d   1       5.666  -3.294  -6.362  0.00  0.00     0.011 C 
ATOM     36  H   LIG d   1       6.570  -3.222  -5.759  0.00  0.00     0.045 H 
ATOM     37  H   LIG d   1       5.072  -4.145  -6.028  0.00  0.00     0.045 H 
ATOM     38  H   LIG d   1       5.938  -3.428  -7.409  0.00  0.00     0.045 H 
ENDBRANCH  10  35
TORSDOF 5
ENDMDL
MODEL 7
REMARK VINA RESULT:      -6.3      2.861      5.513
REMARK  5 active torsions:
REMARK  status: ('A' for Active; 'I' for Inactive)
REMARK    1  A    between atoms: C_2  and  C_3 
REMARK    2  A    between atoms: C_2  and  N_16 
REMARK    3  A    between atoms: N_12  and  C_15 
REMARK    4  A    between atoms: N_16  and  C_17 
REMARK    5  A    between atoms: C_21  and  N_23 
ROOT
ATOM      1  C   LIG d   1       7.571  -1.718  -4.949  0.00  0.00     0.015 A 
ATOM      2  C   LIG d   1       6.470  -2.114  -4.150  0.00  0.00     0.195 A 
ATOM      3  O   LIG d   1       6.082  -3.271  -4.142  0.00  0.00    -0.287 OA
ATOM      4  C   LIG d   1       5.808  -1.085  -3.328  0.00  0.00     0.046 A 
ATOM      5  C   LIG d   1       4.719  -1.401  -2.516  0.00  0.00    -0.049 A 
ATOM      6  C   LIG d   1       4.124  -0.416  -1.760  0.00  0.00    -0.061 A 
ATOM      7  C   LIG d   1       4.602   0.886  -1.804  0.00  0.00    -0.060 A 
ATOM      8  C   LIG d   1       5.676   1.213  -2.602  0.00  0.00    -0.037 A 
ATOM      9  C   LIG d   1       6.293   0.233  -3.372  0.00  0.00     0.052 A 
ATOM     10  N   LIG d   1       7.371   0.542  -4.176  0.00  0.00    -0.356 N 
ATOM     11  C   LIG d   1       7.991  -0.398  -4.933  0.00  0.00    -0.026 A 
ATOM     12  O   LIG d   1       9.045  -0.035  -5.694  0.00  0.00    -0.861 OA
ATOM     13  H   LIG d   1       4.344  -2.414  -2.480  0.00  0.00     0.062 H 
ATOM     14  H   LIG d   1       3.280  -0.658  -1.130  0.00  0.00     0.062 H 
ATOM     15  H   LIG d   1       4.126   1.650  -1.206  0.00  0.00     0.062 H 
ATOM     16  H   LIG d   1       6.040   2.230  -2.628  0.00  0.00     0.064 H 
ENDROOT
BRANCH   1  17
ATOM     17  C   LIG d   1       8.271  -2.709  -5.794  0.00  0.00    -0.137 C 
ATOM     18  C   LIG d   1       9.196  -3.510  -5.257  0.00  0.00    -0.113 C 
ATOM     19  H   LIG d   1       9.676  -4.264  -5.864  0.00  0.00     0.052 H 
ATOM     20  H   LIG d   1       9.468  -3.401  -4.218  0.00  0.00     0.052 H 
BRANCH  17  21
ATOM     21  N   LIG d   1       7.966  -2.808  -7.152  0.00  0.00    -0.646 NA
BRANCH  21  22
ATOM     22  C   LIG d   1       6.632  -2.835  -7.568  0.00  0.00    -0.135 A 
ATOM     23  C   LIG d   1       5.832  -3.930  -7.269  0.00  0.00     0.001 A 
ATOM     24  C   LIG d   1       4.512  -3.951  -7.677  0.00  0.00     0.272 A 
ATOM     25  H   LIG d   1       6.240  -4.763  -6.716  0.00  0.00     0.067 H 
ATOM     26  C   LIG d   1       3.990  -2.888  -8.390  0.00  0.00     0.015 A 
ATOM     27  C   LIG d   1       4.785  -1.797  -8.693  0.00  0.00    -0.057 A 
ATOM     28  H   LIG d   1       2.959  -2.908  -8.710  0.00  0.00     0.069 H 
ATOM     29  C   LIG d   1       6.104  -1.768  -8.284  0.00  0.00    -0.076 A 
ATOM     30  H   LIG d   1       4.375  -0.968  -9.249  0.00  0.00     0.062 H 
ATOM     31  H   LIG d   1       6.725  -0.916  -8.521  0.00  0.00     0.060 H 
BRANCH  24  32
ATOM     32  N   LIG d   1       3.656  -5.115  -7.353  0.00  0.00     0.080 N 
ATOM     33  O   LIG d   1       3.376  -5.357  -6.203  0.00  0.00     0.041 OA
ATOM     34  O   LIG d   1       3.239  -5.823  -8.241  0.00  0.00    -0.576 OA
ENDBRANCH  24  32
ENDBRANCH  21  22
ENDBRANCH  17  21
ENDBRANCH   1  17
BRANCH  10  35
ATOM     35  C   LIG d   1       7.862   1.922  -4.210  0.00  0.00     0.011 C 
ATOM     36  H   LIG d   1       7.878   2.277  -5.240  0.00  0.00     0.045 H 
ATOM     37  H   LIG d   1       7.204   2.556  -3.617  0.00  0.00     0.045 H 
ATOM     38  H   LIG d   1       8.871   1.959  -3.799  0.00  0.00     0.045 H 
ENDBRANCH  10  35
TORSDOF 5
ENDMDL
MODEL 8
REMARK VINA RESULT:      -6.2      2.341      5.064
REMARK  5 active torsions:
REMARK  status: ('A' for Active; 'I' for Inactive)
REMARK    1  A    between atoms: C_2  and  C_3 
REMARK    2  A    between atoms: C_2  and  N_16 
REMARK    3  A    between atoms: N_12  and  C_15 
REMARK    4  A    between atoms: N_16  and  C_17 
REMARK    5  A    between atoms: C_21  and  N_23 
ROOT
ATOM      1  C   LIG d   1       6.260  -1.852  -5.670  0.00  0.00     0.015 A 
ATOM      2  C   LIG d   1       5.078  -1.969  -4.898  0.00  0.00     0.195 A 
ATOM      3  O   LIG d   1       4.283  -2.874  -5.096  0.00  0.00    -0.287 OA
ATOM      4  C   LIG d   1       4.837  -0.963  -3.847  0.00  0.00     0.046 A 
ATOM      5  C   LIG d   1       3.694  -1.014  -3.048  0.00  0.00    -0.049 A 
ATOM      6  C   LIG d   1       3.500  -0.060  -2.075  0.00  0.00    -0.061 A 
ATOM      7  C   LIG d   1       4.433   0.951  -1.889  0.00  0.00    -0.060 A 
ATOM      8  C   LIG d   1       5.565   1.015  -2.671  0.00  0.00    -0.037 A 
ATOM      9  C   LIG d   1       5.781   0.059  -3.659  0.00  0.00     0.052 A 
ATOM     10  N   LIG d   1       6.911   0.107  -4.451  0.00  0.00    -0.356 N 
ATOM     11  C   LIG d   1       7.145  -0.816  -5.417  0.00  0.00    -0.026 A 
ATOM     12  O   LIG d   1       8.270  -0.720  -6.155  0.00  0.00    -0.861 OA
ATOM     13  H   LIG d   1       2.967  -1.800  -3.191  0.00  0.00     0.062 H 
ATOM     14  H   LIG d   1       2.617  -0.097  -1.455  0.00  0.00     0.062 H 
ATOM     15  H   LIG d   1       4.269   1.695  -1.123  0.00  0.00     0.062 H 
ATOM     16  H   LIG d   1       6.284   1.806  -2.518  0.00  0.00     0.064 H 
ENDROOT
BRANCH   1  17
ATOM     17  C   LIG d   1       6.551  -2.833  -6.736  0.00  0.00    -0.137 C 
ATOM     18  C   LIG d   1       7.065  -4.026  -6.426  0.00  0.00    -0.113 C 
ATOM     19  H   LIG d   1       7.237  -4.759  -7.200  0.00  0.00     0.052 H 
ATOM     20  H   LIG d   1       7.314  -4.257  -5.400  0.00  0.00     0.052 H 
BRANCH  17  21
ATOM     21  N   LIG d   1       6.290  -2.512  -8.069  0.00  0.00    -0.646 NA
BRANCH  21  22
ATOM     22  C   LIG d   1       5.126  -1.816  -8.404  0.00  0.00    -0.135 A 
ATOM     23  C   LIG d   1       5.157  -0.434  -8.545  0.00  0.00     0.001 A 
ATOM     24  C   LIG d   1       4.006   0.251  -8.882  0.00  0.00     0.272 A 
ATOM     25  H   LIG d   1       6.081   0.104  -8.395  0.00  0.00     0.067 H 
ATOM     26  C   LIG d   1       2.820  -0.436  -9.069  0.00  0.00     0.015 A 
ATOM     27  C   LIG d   1       2.784  -1.811  -8.925  0.00  0.00    -0.057 A 
ATOM     28  H   LIG d   1       1.921   0.102  -9.329  0.00  0.00     0.069 H 
ATOM     29  C   LIG d   1       3.933  -2.503  -8.593  0.00  0.00    -0.076 A 
ATOM     30  H   LIG d   1       1.858  -2.345  -9.073  0.00  0.00     0.062 H 
ATOM     31  H   LIG d   1       3.904  -3.577  -8.481  0.00  0.00     0.060 H 
BRANCH  24  32
ATOM     32  N   LIG d   1       4.040   1.722  -9.039  0.00  0.00     0.080 N 
ATOM     33  O   LIG d   1       4.795   2.228  -9.836  0.00  0.00     0.041 OA
ATOM     34  O   LIG d   1       3.312   2.419  -8.369  0.00  0.00    -0.576 OA
ENDBRANCH  24  32
ENDBRANCH  21  22
ENDBRANCH  17  21
ENDBRANCH   1  17
BRANCH  10  35
ATOM     35  C   LIG d   1       7.884   1.181  -4.240  0.00  0.00     0.011 C 
ATOM     36  H   LIG d   1       7.386   2.146  -4.331  0.00  0.00     0.045 H 
ATOM     37  H   LIG d   1       8.317   1.088  -3.244  0.00  0.00     0.045 H 
ATOM     38  H   LIG d   1       8.673   1.109  -4.989  0.00  0.00     0.045 H 
ENDBRANCH  10  35
TORSDOF 5
ENDMDL
MODEL 9
REMARK VINA RESULT:      -6.2      3.988      6.090
REMARK  5 active torsions:
REMARK  status: ('A' for Active; 'I' for Inactive)
REMARK    1  A    between atoms: C_2  and  C_3 
REMARK    2  A    between atoms: C_2  and  N_16 
REMARK    3  A    between atoms: N_12  and  C_15 
REMARK    4  A    between atoms: N_16  and  C_17 
REMARK    5  A    between atoms: C_21  and  N_23 
ROOT
ATOM      1  C   LIG d   1       7.836  -1.753  -4.871  0.00  0.00     0.015 A 
ATOM      2  C   LIG d   1       6.672  -2.242  -4.227  0.00  0.00     0.195 A 
ATOM      3  O   LIG d   1       6.339  -3.411  -4.330  0.00  0.00    -0.287 OA
ATOM      4  C   LIG d   1       5.876  -1.293  -3.426  0.00  0.00     0.046 A 
ATOM      5  C   LIG d   1       4.719  -1.702  -2.763  0.00  0.00    -0.049 A 
ATOM      6  C   LIG d   1       3.999  -0.792  -2.023  0.00  0.00    -0.061 A 
ATOM      7  C   LIG d   1       4.419   0.529  -1.937  0.00  0.00    -0.060 A 
ATOM      8  C   LIG d   1       5.559   0.947  -2.587  0.00  0.00    -0.037 A 
ATOM      9  C   LIG d   1       6.302   0.042  -3.338  0.00  0.00     0.052 A 
ATOM     10  N   LIG d   1       7.448   0.444  -3.995  0.00  0.00    -0.356 N 
ATOM     11  C   LIG d   1       8.190  -0.421  -4.730  0.00  0.00    -0.026 A 
ATOM     12  O   LIG d   1       9.304   0.030  -5.344  0.00  0.00    -0.861 OA
ATOM     13  H   LIG d   1       4.390  -2.729  -2.829  0.00  0.00     0.062 H 
ATOM     14  H   LIG d   1       3.103  -1.105  -1.509  0.00  0.00     0.062 H 
ATOM     15  H   LIG d   1       3.846   1.234  -1.353  0.00  0.00     0.062 H 
ATOM     16  H   LIG d   1       5.877   1.977  -2.512  0.00  0.00     0.064 H 
ENDROOT
BRANCH   1  17
ATOM     17  C   LIG d   1       8.669  -2.661  -5.687  0.00  0.00    -0.137 C 
ATOM     18  C   LIG d   1       8.333  -2.921  -6.954  0.00  0.00    -0.113 C 
ATOM     19  H   LIG d   1       8.965  -3.550  -7.563  0.00  0.00     0.052 H 
ATOM     20  H   LIG d   1       7.425  -2.507  -7.367  0.00  0.00     0.052 H 
BRANCH  17  21
ATOM     21  N   LIG d   1       9.808  -3.248  -5.133  0.00  0.00    -0.646 NA
BRANCH  21  22
ATOM     22  C   LIG d   1       9.678  -4.283  -4.204  0.00  0.00    -0.135 A 
ATOM     23  C   LIG d   1       9.264  -5.542  -4.619  0.00  0.00     0.001 A 
ATOM     24  C   LIG d   1       9.143  -6.566  -3.699  0.00  0.00     0.272 A 
ATOM     25  H   LIG d   1       9.041  -5.722  -5.660  0.00  0.00     0.067 H 
ATOM     26  C   LIG d   1       9.423  -6.335  -2.365  0.00  0.00     0.015 A 
ATOM     27  C   LIG d   1       9.831  -5.081  -1.947  0.00  0.00    -0.057 A 
ATOM     28  H   LIG d   1       9.324  -7.136  -1.648  0.00  0.00     0.069 H 
ATOM     29  C   LIG d   1       9.959  -4.055  -2.863  0.00  0.00    -0.076 A 
ATOM     30  H   LIG d   1      10.050  -4.904  -0.905  0.00  0.00     0.062 H 
ATOM     31  H   LIG d   1      10.279  -3.076  -2.537  0.00  0.00     0.060 H 
BRANCH  24  32
ATOM     32  N   LIG d   1       8.708  -7.910  -4.141  0.00  0.00     0.080 N 
ATOM     33  O   LIG d   1       8.071  -8.615  -3.394  0.00  0.00     0.041 OA
ATOM     34  O   LIG d   1       8.991  -8.303  -5.250  0.00  0.00    -0.576 OA
ENDBRANCH  24  32
ENDBRANCH  21  22
ENDBRANCH  17  21
ENDBRANCH   1  17
BRANCH  10  35
ATOM     35  C   LIG d   1       7.875   1.841  -3.892  0.00  0.00     0.011 C 
ATOM     36  H   LIG d   1       8.664   1.925  -3.145  0.00  0.00     0.045 H 
ATOM     37  H   LIG d   1       8.252   2.178  -4.858  0.00  0.00     0.045 H 
ATOM     38  H   LIG d   1       7.028   2.460  -3.596  0.00  0.00     0.045 H 
ENDBRANCH  10  35
TORSDOF 5
ENDMDL
