MODEL 1
REMARK VINA RESULT:      -4.5      0.000      0.000
REMARK  5 active torsions:
REMARK  status: ('A' for Active; 'I' for Inactive)
REMARK    1  A    between atoms: C_1  and  C_2 
REMARK    2  A    between atoms: C_1  and  C_5 
REMARK    3  A    between atoms: C_2  and  C_3 
REMARK    4  A    between atoms: C_5  and  C_7 
REMARK    5  A    between atoms: C_5  and  O_9 
ROOT
ATOM      1  C   LIG d   1       3.585  -1.463  -2.772  0.00  0.00    -0.017 C 
ATOM      2  H   LIG d   1       3.394  -2.482  -2.434  0.00  0.00     0.030 H 
ATOM      3  H   LIG d   1       2.636  -0.945  -2.917  0.00  0.00     0.030 H 
ENDROOT
BRANCH   1   4
ATOM      4  C   LIG d   1       4.414  -0.724  -1.719  0.00  0.00    -0.011 C 
ATOM      5  H   LIG d   1       3.983  -0.895  -0.733  0.00  0.00     0.033 H 
ATOM      6  H   LIG d   1       5.439  -1.094  -1.739  0.00  0.00     0.033 H 
BRANCH   4   7
ATOM      7  C   LIG d   1       4.407   0.752  -2.021  0.00  0.00     0.042 C 
ATOM      8  O   LIG d   1       3.368   1.368  -2.008  0.00  0.00    -0.550 OA
ATOM      9  O   LIG d   1       5.557   1.384  -2.304  0.00  0.00    -0.550 OA
ENDBRANCH   4   7
ENDBRANCH   1   4
BRANCH   1  10
ATOM     10  C   LIG d   1       4.354  -1.499  -4.094  0.00  0.00     0.095 C 
ATOM     11  H   LIG d   1       5.099  -0.704  -4.103  0.00  0.00     0.066 H 
BRANCH  10  12
ATOM     12  C   LIG d   1       5.040  -2.833  -4.240  0.00  0.00     0.070 C 
ATOM     13  O   LIG d   1       6.243  -2.905  -4.170  0.00  0.00    -0.547 OA
ATOM     14  O   LIG d   1       4.312  -3.943  -4.450  0.00  0.00    -0.547 OA
ENDBRANCH  10  12
BRANCH  10  15
ATOM     15  O   LIG d   1       3.444  -1.311  -5.179  0.00  0.00    -0.386 OA
ATOM     16  H   LIG d   1       3.247  -0.383  -5.372  0.00  0.00     0.210 HD
ENDBRANCH  10  15
ENDBRANCH   1  10
TORSDOF 5
ENDMDL
MODEL 2
REMARK VINA RESULT:      -4.4      1.088      2.110
REMARK  5 active torsions:
REMARK  status: ('A' for Active; 'I' for Inactive)
REMARK    1  A    between atoms: C_1  and  C_2 
REMARK    2  A    between atoms: C_1  and  C_5 
REMARK    3  A    between atoms: C_2  and  C_3 
REMARK    4  A    between atoms: C_5  and  C_7 
REMARK    5  A    between atoms: C_5  and  O_9 
ROOT
ATOM      1  C   LIG d   1       3.370  -1.322  -2.824  0.00  0.00    -0.017 C 
ATOM      2  H   LIG d   1       2.950  -2.232  -2.397  0.00  0.00     0.030 H 
ATOM      3  H   LIG d   1       2.569  -0.609  -3.021  0.00  0.00     0.030 H 
ENDROOT
BRANCH   1   4
ATOM      4  C   LIG d   1       4.367  -0.709  -1.838  0.00  0.00    -0.011 C 
ATOM      5  H   LIG d   1       4.058  -0.941  -0.819  0.00  0.00     0.033 H 
ATOM      6  H   LIG d   1       5.360  -1.121  -2.021  0.00  0.00     0.033 H 
BRANCH   4   7
ATOM      7  C   LIG d   1       4.402   0.786  -2.024  0.00  0.00     0.042 C 
ATOM      8  O   LIG d   1       3.384   1.430  -1.940  0.00  0.00    -0.550 OA
ATOM      9  O   LIG d   1       5.567   1.402  -2.282  0.00  0.00    -0.550 OA
ENDBRANCH   4   7
ENDBRANCH   1   4
BRANCH   1  10
ATOM     10  C   LIG d   1       4.088  -1.657  -4.133  0.00  0.00     0.095 C 
ATOM     11  H   LIG d   1       3.592  -2.500  -4.614  0.00  0.00     0.066 H 
BRANCH  10  12
ATOM     12  C   LIG d   1       4.049  -0.461  -5.049  0.00  0.00     0.070 C 
ATOM     13  O   LIG d   1       5.075  -0.014  -5.504  0.00  0.00    -0.547 OA
ATOM     14  O   LIG d   1       2.873   0.108  -5.359  0.00  0.00    -0.547 OA
ENDBRANCH  10  12
BRANCH  10  15
ATOM     15  O   LIG d   1       5.447  -2.000  -3.856  0.00  0.00    -0.386 OA
ATOM     16  H   LIG d   1       5.549  -2.721  -3.219  0.00  0.00     0.210 HD
ENDBRANCH  10  15
ENDBRANCH   1  10
TORSDOF 5
ENDMDL
MODEL 3
REMARK VINA RESULT:      -4.3      1.301      3.836
REMARK  5 active torsions:
REMARK  status: ('A' for Active; 'I' for Inactive)
REMARK    1  A    between atoms: C_1  and  C_2 
REMARK    2  A    between atoms: C_1  and  C_5 
REMARK    3  A    between atoms: C_2  and  C_3 
REMARK    4  A    between atoms: C_5  and  C_7 
REMARK    5  A    between atoms: C_5  and  O_9 
ROOT
ATOM      1  C   LIG d   1       3.913  -1.678  -2.323  0.00  0.00    -0.017 C 
ATOM      2  H   LIG d   1       3.361  -2.378  -1.695  0.00  0.00     0.030 H 
ATOM      3  H   LIG d   1       4.748  -1.265  -1.758  0.00  0.00     0.030 H 
ENDROOT
BRANCH   1   4
ATOM      4  C   LIG d   1       4.445  -2.411  -3.557  0.00  0.00    -0.011 C 
ATOM      5  H   LIG d   1       4.219  -3.474  -3.472  0.00  0.00     0.033 H 
ATOM      6  H   LIG d   1       3.971  -2.007  -4.451  0.00  0.00     0.033 H 
BRANCH   4   7
ATOM      7  C   LIG d   1       5.936  -2.221  -3.649  0.00  0.00     0.042 C 
ATOM      8  O   LIG d   1       6.457  -1.264  -3.128  0.00  0.00    -0.550 OA
ATOM      9  O   LIG d   1       6.687  -3.116  -4.309  0.00  0.00    -0.550 OA
ENDBRANCH   4   7
ENDBRANCH   1   4
BRANCH   1  10
ATOM     10  C   LIG d   1       2.983  -0.546  -2.763  0.00  0.00     0.095 C 
ATOM     11  H   LIG d   1       2.071  -0.571  -2.167  0.00  0.00     0.066 H 
BRANCH  10  12
ATOM     12  C   LIG d   1       3.675   0.778  -2.566  0.00  0.00     0.070 C 
ATOM     13  O   LIG d   1       4.376   0.957  -1.598  0.00  0.00    -0.547 OA
ATOM     14  O   LIG d   1       3.513   1.761  -3.467  0.00  0.00    -0.547 OA
ENDBRANCH  10  12
BRANCH  10  15
ATOM     15  O   LIG d   1       2.655  -0.709  -4.144  0.00  0.00    -0.386 OA
ATOM     16  H   LIG d   1       1.770  -1.071  -4.298  0.00  0.00     0.210 HD
ENDBRANCH  10  15
ENDBRANCH   1  10
TORSDOF 5
ENDMDL
MODEL 4
REMARK VINA RESULT:      -4.0      2.694      3.781
REMARK  5 active torsions:
REMARK  status: ('A' for Active; 'I' for Inactive)
REMARK    1  A    between atoms: C_1  and  C_2 
REMARK    2  A    between atoms: C_1  and  C_5 
REMARK    3  A    between atoms: C_2  and  C_3 
REMARK    4  A    between atoms: C_5  and  C_7 
REMARK    5  A    between atoms: C_5  and  O_9 
ROOT
ATOM      1  C   LIG d   1       2.643   0.451  -5.077  0.00  0.00    -0.017 C 
ATOM      2  H   LIG d   1       1.583   0.209  -5.161  0.00  0.00     0.030 H 
ATOM      3  H   LIG d   1       2.768   1.534  -5.068  0.00  0.00     0.030 H 
ENDROOT
BRANCH   1   4
ATOM      4  C   LIG d   1       3.200  -0.138  -3.779  0.00  0.00    -0.011 C 
ATOM      5  H   LIG d   1       2.379  -0.520  -3.173  0.00  0.00     0.033 H 
ATOM      6  H   LIG d   1       3.888  -0.951  -4.015  0.00  0.00     0.033 H 
BRANCH   4   7
ATOM      7  C   LIG d   1       3.933   0.934  -3.016  0.00  0.00     0.042 C 
ATOM      8  O   LIG d   1       4.998   1.340  -3.416  0.00  0.00    -0.550 OA
ATOM      9  O   LIG d   1       3.402   1.439  -1.892  0.00  0.00    -0.550 OA
ENDBRANCH   4   7
ENDBRANCH   1   4
BRANCH   1  10
ATOM     10  C   LIG d   1       3.396  -0.140  -6.271  0.00  0.00     0.095 C 
ATOM     11  H   LIG d   1       3.234  -1.218  -6.306  0.00  0.00     0.066 H 
BRANCH  10  12
ATOM     12  C   LIG d   1       2.890   0.485  -7.545  0.00  0.00     0.070 C 
ATOM     13  O   LIG d   1       3.099   1.654  -7.770  0.00  0.00    -0.547 OA
ATOM     14  O   LIG d   1       2.205  -0.256  -8.431  0.00  0.00    -0.547 OA
ENDBRANCH  10  12
BRANCH  10  15
ATOM     15  O   LIG d   1       4.793   0.127  -6.132  0.00  0.00    -0.386 OA
ATOM     16  H   LIG d   1       5.253  -0.482  -5.537  0.00  0.00     0.210 HD
ENDBRANCH  10  15
ENDBRANCH   1  10
TORSDOF 5
ENDMDL
MODEL 5
REMARK VINA RESULT:      -3.9      2.095      2.929
REMARK  5 active torsions:
REMARK  status: ('A' for Active; 'I' for Inactive)
REMARK    1  A    between atoms: C_1  and  C_2 
REMARK    2  A    between atoms: C_1  and  C_5 
REMARK    3  A    between atoms: C_2  and  C_3 
REMARK    4  A    between atoms: C_5  and  C_7 
REMARK    5  A    between atoms: C_5  and  O_9 
ROOT
ATOM      1  C   LIG d   1       4.684   0.225  -2.007  0.00  0.00    -0.017 C 
ATOM      2  H   LIG d   1       4.818   0.459  -0.951  0.00  0.00     0.030 H 
ATOM      3  H   LIG d   1       4.349  -0.807  -2.110  0.00  0.00     0.030 H 
ENDROOT
BRANCH   1   4
ATOM      4  C   LIG d   1       3.634   1.163  -2.608  0.00  0.00    -0.011 C 
ATOM      5  H   LIG d   1       2.931   1.465  -1.832  0.00  0.00     0.033 H 
ATOM      6  H   LIG d   1       4.128   2.046  -3.016  0.00  0.00     0.033 H 
BRANCH   4   7
ATOM      7  C   LIG d   1       2.894   0.448  -3.708  0.00  0.00     0.042 C 
ATOM      8  O   LIG d   1       2.418  -0.643  -3.507  0.00  0.00    -0.550 OA
ATOM      9  O   LIG d   1       2.761   1.026  -4.913  0.00  0.00    -0.550 OA
ENDBRANCH   4   7
ENDBRANCH   1   4
BRANCH   1  10
ATOM     10  C   LIG d   1       6.013   0.407  -2.743  0.00  0.00     0.095 C 
ATOM     11  H   LIG d   1       6.823   0.485  -2.017  0.00  0.00     0.066 H 
BRANCH  10  12
ATOM     12  C   LIG d   1       6.256  -0.777  -3.643  0.00  0.00     0.070 C 
ATOM     13  O   LIG d   1       5.988  -0.708  -4.818  0.00  0.00    -0.547 OA
ATOM     14  O   LIG d   1       6.772  -1.909  -3.137  0.00  0.00    -0.547 OA
ENDBRANCH  10  12
BRANCH  10  15
ATOM     15  O   LIG d   1       5.962   1.600  -3.529  0.00  0.00    -0.386 OA
ATOM     16  H   LIG d   1       5.296   1.580  -4.231  0.00  0.00     0.210 HD
ENDBRANCH  10  15
ENDBRANCH   1  10
TORSDOF 5
ENDMDL
MODEL 6
REMARK VINA RESULT:      -3.8      1.601      1.979
REMARK  5 active torsions:
REMARK  status: ('A' for Active; 'I' for Inactive)
REMARK    1  A    between atoms: C_1  and  C_2 
REMARK    2  A    between atoms: C_1  and  C_5 
REMARK    3  A    between atoms: C_2  and  C_3 
REMARK    4  A    between atoms: C_5  and  C_7 
REMARK    5  A    between atoms: C_5  and  O_9 
ROOT
ATOM      1  C   LIG d   1       4.941  -1.324  -3.336  0.00  0.00    -0.017 C 
ATOM      2  H   LIG d   1       4.256  -2.141  -3.563  0.00  0.00     0.030 H 
ATOM      3  H   LIG d   1       4.850  -0.551  -4.099  0.00  0.00     0.030 H 
ENDROOT
BRANCH   1   4
ATOM      4  C   LIG d   1       4.592  -0.732  -1.968  0.00  0.00    -0.011 C 
ATOM      5  H   LIG d   1       3.642  -1.141  -1.627  0.00  0.00     0.033 H 
ATOM      6  H   LIG d   1       5.375  -0.985  -1.253  0.00  0.00     0.033 H 
BRANCH   4   7
ATOM      7  C   LIG d   1       4.483   0.766  -2.082  0.00  0.00     0.042 C 
ATOM      8  O   LIG d   1       3.413   1.307  -1.937  0.00  0.00    -0.550 OA
ATOM      9  O   LIG d   1       5.576   1.500  -2.345  0.00  0.00    -0.550 OA
ENDBRANCH   4   7
ENDBRANCH   1   4
BRANCH   1  10
ATOM     10  C   LIG d   1       6.376  -1.853  -3.312  0.00  0.00     0.095 C 
ATOM     11  H   LIG d   1       6.495  -2.546  -2.479  0.00  0.00     0.066 H 
BRANCH  10  12
ATOM     12  C   LIG d   1       6.669  -2.569  -4.605  0.00  0.00     0.070 C 
ATOM     13  O   LIG d   1       6.694  -1.954  -5.645  0.00  0.00    -0.547 OA
ATOM     14  O   LIG d   1       6.902  -3.892  -4.603  0.00  0.00    -0.547 OA
ENDBRANCH  10  12
BRANCH  10  15
ATOM     15  O   LIG d   1       7.284  -0.761  -3.157  0.00  0.00    -0.386 OA
ATOM     16  H   LIG d   1       7.301  -0.387  -2.265  0.00  0.00     0.210 HD
ENDBRANCH  10  15
ENDBRANCH   1  10
TORSDOF 5
ENDMDL
MODEL 7
REMARK VINA RESULT:      -3.6      9.842     10.959
REMARK  5 active torsions:
REMARK  status: ('A' for Active; 'I' for Inactive)
REMARK    1  A    between atoms: C_1  and  C_2 
REMARK    2  A    between atoms: C_1  and  C_5 
REMARK    3  A    between atoms: C_2  and  C_3 
REMARK    4  A    between atoms: C_5  and  C_7 
REMARK    5  A    between atoms: C_5  and  O_9 
ROOT
ATOM      1  C   LIG d   1      10.212   6.363  -1.038  0.00  0.00    -0.017 C 
ATOM      2  H   LIG d   1       9.289   6.273  -0.464  0.00  0.00     0.030 H 
ATOM      3  H   LIG d   1      10.149   5.736  -1.927  0.00  0.00     0.030 H 
ENDROOT
BRANCH   1   4
ATOM      4  C   LIG d   1      10.414   7.822  -1.455  0.00  0.00    -0.011 C 
ATOM      5  H   LIG d   1      11.324   8.208  -0.995  0.00  0.00     0.033 H 
ATOM      6  H   LIG d   1      10.500   7.880  -2.540  0.00  0.00     0.033 H 
BRANCH   4   7
ATOM      7  C   LIG d   1       9.234   8.641  -1.000  0.00  0.00     0.042 C 
ATOM      8  O   LIG d   1       8.191   8.099  -0.725  0.00  0.00    -0.550 OA
ATOM      9  O   LIG d   1       9.344   9.975  -0.898  0.00  0.00    -0.550 OA
ENDBRANCH   4   7
ENDBRANCH   1   4
BRANCH   1  10
ATOM     10  C   LIG d   1      11.393   5.911  -0.177  0.00  0.00     0.095 C 
ATOM     11  H   LIG d   1      12.295   6.436  -0.491  0.00  0.00     0.066 H 
BRANCH  10  12
ATOM     12  C   LIG d   1      11.109   6.221   1.270  0.00  0.00     0.070 C 
ATOM     13  O   LIG d   1      10.567   5.399   1.970  0.00  0.00    -0.547 OA
ATOM     14  O   LIG d   1      11.458   7.412   1.783  0.00  0.00    -0.547 OA
ENDBRANCH  10  12
BRANCH  10  15
ATOM     15  O   LIG d   1      11.584   4.503  -0.333  0.00  0.00    -0.386 OA
ATOM     16  H   LIG d   1      12.266   4.268  -0.978  0.00  0.00     0.210 HD
ENDBRANCH  10  15
ENDBRANCH   1  10
TORSDOF 5
ENDMDL
MODEL 8
REMARK VINA RESULT:      -3.6      2.175      3.928
REMARK  5 active torsions:
REMARK  status: ('A' for Active; 'I' for Inactive)
REMARK    1  A    between atoms: C_1  and  C_2 
REMARK    2  A    between atoms: C_1  and  C_5 
REMARK    3  A    between atoms: C_2  and  C_3 
REMARK    4  A    between atoms: C_5  and  C_7 
REMARK    5  A    between atoms: C_5  and  O_9 
ROOT
ATOM      1  C   LIG d   1       5.642  -0.944  -4.651  0.00  0.00    -0.017 C 
ATOM      2  H   LIG d   1       5.777  -1.245  -5.690  0.00  0.00     0.030 H 
ATOM      3  H   LIG d   1       4.868  -0.178  -4.593  0.00  0.00     0.030 H 
ENDROOT
BRANCH   1   4
ATOM      4  C   LIG d   1       5.222  -2.157  -3.818  0.00  0.00    -0.011 C 
ATOM      5  H   LIG d   1       4.831  -2.932  -4.478  0.00  0.00     0.033 H 
ATOM      6  H   LIG d   1       6.085  -2.541  -3.275  0.00  0.00     0.033 H 
BRANCH   4   7
ATOM      7  C   LIG d   1       4.154  -1.747  -2.838  0.00  0.00     0.042 C 
ATOM      8  O   LIG d   1       2.998  -1.708  -3.183  0.00  0.00    -0.550 OA
ATOM      9  O   LIG d   1       4.488  -1.427  -1.578  0.00  0.00    -0.550 OA
ENDBRANCH   4   7
ENDBRANCH   1   4
BRANCH   1  10
ATOM     10  C   LIG d   1       6.957  -0.382  -4.108  0.00  0.00     0.095 C 
ATOM     11  H   LIG d   1       7.719  -0.422  -4.887  0.00  0.00     0.066 H 
BRANCH  10  12
ATOM     12  C   LIG d   1       6.754   1.046  -3.676  0.00  0.00     0.070 C 
ATOM     13  O   LIG d   1       6.031   1.299  -2.741  0.00  0.00    -0.547 OA
ATOM     14  O   LIG d   1       7.376   2.041  -4.330  0.00  0.00    -0.547 OA
ENDBRANCH  10  12
BRANCH  10  15
ATOM     15  O   LIG d   1       7.381  -1.162  -2.988  0.00  0.00    -0.386 OA
ATOM     16  H   LIG d   1       7.751  -2.024  -3.227  0.00  0.00     0.210 HD
ENDBRANCH  10  15
ENDBRANCH   1  10
TORSDOF 5
ENDMDL
MODEL 9
REMARK VINA RESULT:      -3.6      8.231      9.511
REMARK  5 active torsions:
REMARK  status: ('A' for Active; 'I' for Inactive)
REMARK    1  A    between atoms: C_1  and  C_2 
REMARK    2  A    between atoms: C_1  and  C_5 
REMARK    3  A    between atoms: C_2  and  C_3 
REMARK    4  A    between atoms: C_5  and  C_7 
REMARK    5  A    between atoms: C_5  and  O_9 
ROOT
ATOM      1  C   LIG d   1       4.749 -11.033  -2.830  0.00  0.00    -0.017 C 
ATOM      2  H   LIG d   1       4.577 -11.834  -3.550  0.00  0.00     0.030 H 
ATOM      3  H   LIG d   1       4.419 -11.356  -1.843  0.00  0.00     0.030 H 
ENDROOT
BRANCH   1   4
ATOM      4  C   LIG d   1       6.242 -10.698  -2.786  0.00  0.00    -0.011 C 
ATOM      5  H   LIG d   1       6.812 -11.530  -3.198  0.00  0.00     0.033 H 
ATOM      6  H   LIG d   1       6.430  -9.800  -3.373  0.00  0.00     0.033 H 
BRANCH   4   7
ATOM      7  C   LIG d   1       6.660 -10.461  -1.358  0.00  0.00     0.042 C 
ATOM      8  O   LIG d   1       7.430  -9.569  -1.093  0.00  0.00    -0.550 OA
ATOM      9  O   LIG d   1       6.174 -11.240  -0.379  0.00  0.00    -0.550 OA
ENDBRANCH   4   7
ENDBRANCH   1   4
BRANCH   1  10
ATOM     10  C   LIG d   1       3.960  -9.792  -3.251  0.00  0.00     0.095 C 
ATOM     11  H   LIG d   1       4.247  -8.948  -2.624  0.00  0.00     0.066 H 
BRANCH  10  12
ATOM     12  C   LIG d   1       4.259  -9.470  -4.693  0.00  0.00     0.070 C 
ATOM     13  O   LIG d   1       4.135 -10.322  -5.540  0.00  0.00    -0.547 OA
ATOM     14  O   LIG d   1       4.663  -8.236  -5.035  0.00  0.00    -0.547 OA
ENDBRANCH  10  12
BRANCH  10  15
ATOM     15  O   LIG d   1       2.561 -10.043  -3.100  0.00  0.00    -0.386 OA
ATOM     16  H   LIG d   1       2.204 -10.677  -3.738  0.00  0.00     0.210 HD
ENDBRANCH  10  15
ENDBRANCH   1  10
TORSDOF 5
ENDMDL
MODEL 10
REMARK VINA RESULT:      -3.5      3.520      5.009
REMARK  5 active torsions:
REMARK  status: ('A' for Active; 'I' for Inactive)
REMARK    1  A    between atoms: C_1  and  C_2 
REMARK    2  A    between atoms: C_1  and  C_5 
REMARK    3  A    between atoms: C_2  and  C_3 
REMARK    4  A    between atoms: C_5  and  C_7 
REMARK    5  A    between atoms: C_5  and  O_9 
ROOT
ATOM      1  C   LIG d   1       3.510  -0.125  -6.319  0.00  0.00    -0.017 C 
ATOM      2  H   LIG d   1       3.861  -1.149  -6.194  0.00  0.00     0.030 H 
ATOM      3  H   LIG d   1       4.367   0.541  -6.431  0.00  0.00     0.030 H 
ENDROOT
BRANCH   1   4
ATOM      4  C   LIG d   1       2.630  -0.036  -7.568  0.00  0.00    -0.011 C 
ATOM      5  H   LIG d   1       2.728  -0.955  -8.146  0.00  0.00     0.033 H 
ATOM      6  H   LIG d   1       1.590   0.098  -7.270  0.00  0.00     0.033 H 
BRANCH   4   7
ATOM      7  C   LIG d   1       3.067   1.135  -8.408  0.00  0.00     0.042 C 
ATOM      8  O   LIG d   1       3.581   0.949  -9.485  0.00  0.00    -0.550 OA
ATOM      9  O   LIG d   1       2.882   2.387  -7.960  0.00  0.00    -0.550 OA
ENDBRANCH   4   7
ENDBRANCH   1   4
BRANCH   1  10
ATOM     10  C   LIG d   1       2.698   0.290  -5.091  0.00  0.00     0.095 C 
ATOM     11  H   LIG d   1       1.708  -0.164  -5.140  0.00  0.00     0.066 H 
BRANCH  10  12
ATOM     12  C   LIG d   1       3.402  -0.173  -3.842  0.00  0.00     0.070 C 
ATOM     13  O   LIG d   1       2.818  -0.176  -2.785  0.00  0.00    -0.547 OA
ATOM     14  O   LIG d   1       4.680  -0.582  -3.905  0.00  0.00    -0.547 OA
ENDBRANCH  10  12
BRANCH  10  15
ATOM     15  O   LIG d   1       2.568   1.713  -5.065  0.00  0.00    -0.386 OA
ATOM     16  H   LIG d   1       3.007   2.162  -5.801  0.00  0.00     0.210 HD
ENDBRANCH  10  15
ENDBRANCH   1  10
TORSDOF 5
ENDMDL
