MODEL 1
REMARK VINA RESULT:      -6.0      0.000      0.000
REMARK  2 active torsions:
REMARK  status: ('A' for Active; 'I' for Inactive)
REMARK    1  A    between atoms: C_3  and  N_8 
REMARK    2  A    between atoms: N_13  and  C_14 
ROOT
ATOM      1  N   LIG d   1       6.380  -0.907  -5.710  0.00  0.00    -0.190 N 
ATOM      2  C   LIG d   1       7.826  -1.136  -5.812  0.00  0.00     0.086 C 
ATOM      3  C   LIG d   1       8.212  -0.879  -7.282  0.00  0.00    -0.005 C 
ATOM      4  C   LIG d   1       6.844  -0.903  -8.002  0.00  0.00     0.055 C 
ATOM      5  C   LIG d   1       5.866  -0.513  -6.914  0.00  0.00     0.294 C 
ATOM      6  N   LIG d   1       4.729   0.097  -7.095  0.00  0.00    -0.046 NA
ATOM      7  H   LIG d   1       8.360  -0.445  -5.160  0.00  0.00     0.073 H 
ATOM      8  H   LIG d   1       8.061  -2.165  -5.538  0.00  0.00     0.073 H 
ATOM      9  H   LIG d   1       8.689   0.095  -7.392  0.00  0.00     0.031 H 
ATOM     10  H   LIG d   1       8.859  -1.672  -7.656  0.00  0.00     0.031 H 
ATOM     11  H   LIG d   1       6.825  -0.180  -8.817  0.00  0.00     0.039 H 
ATOM     12  H   LIG d   1       6.622  -1.905  -8.372  0.00  0.00     0.039 H 
ENDROOT
BRANCH   1  13
ATOM     13  C   LIG d   1       5.629  -1.074  -4.543  0.00  0.00     0.122 A 
ATOM     14  C   LIG d   1       5.020  -2.293  -4.276  0.00  0.00    -0.017 A 
ATOM     15  C   LIG d   1       4.278  -2.456  -3.122  0.00  0.00    -0.057 A 
ATOM     16  H   LIG d   1       5.126  -3.114  -4.971  0.00  0.00     0.066 H 
ATOM     17  C   LIG d   1       4.143  -1.408  -2.232  0.00  0.00    -0.043 A 
ATOM     18  H   LIG d   1       3.801  -3.403  -2.917  0.00  0.00     0.062 H 
ATOM     19  C   LIG d   1       4.749  -0.191  -2.494  0.00  0.00     0.045 A 
ATOM     20  H   LIG d   1       3.562  -1.538  -1.331  0.00  0.00     0.063 H 
ATOM     21  C   LIG d   1       5.491  -0.022  -3.647  0.00  0.00     0.001 A 
ATOM     22 CL   LIG d   1       4.574   1.124  -1.374  0.00  0.00    -0.083 Cl
ATOM     23  H   LIG d   1       5.964   0.927  -3.851  0.00  0.00     0.067 H 
ENDBRANCH   1  13
BRANCH   6  24
ATOM     24  C   LIG d   1       4.271   0.329  -8.364  0.00  0.00     0.179 A 
ATOM     25  C   LIG d   1       4.566   1.528  -9.028  0.00  0.00     0.007 A 
ATOM     26  C   LIG d   1       4.090   1.717 -10.307  0.00  0.00     0.032 A 
ATOM     27  H   LIG d   1       5.161   2.289  -8.546  0.00  0.00     0.068 H 
ATOM     28  N   LIG d   1       3.357   0.793 -10.901  0.00  0.00    -0.263 NA
ATOM     29  H   LIG d   1       4.316   2.635 -10.828  0.00  0.00     0.083 H 
ATOM     30  C   LIG d   1       3.051  -0.347 -10.309  0.00  0.00     0.032 A 
ATOM     31  C   LIG d   1       3.491  -0.622  -9.034  0.00  0.00     0.007 A 
ATOM     32  H   LIG d   1       2.449  -1.074 -10.834  0.00  0.00     0.083 H 
ATOM     33  H   LIG d   1       3.237  -1.557  -8.556  0.00  0.00     0.068 H 
ENDBRANCH   6  24
TORSDOF 2
ENDMDL
MODEL 2
REMARK VINA RESULT:      -5.8      3.941      5.456
REMARK  2 active torsions:
REMARK  status: ('A' for Active; 'I' for Inactive)
REMARK    1  A    between atoms: C_3  and  N_8 
REMARK    2  A    between atoms: N_13  and  C_14 
ROOT
ATOM      1  N   LIG d   1       5.794  -2.861  -5.126  0.00  0.00    -0.190 N 
ATOM      2  C   LIG d   1       7.124  -2.329  -5.448  0.00  0.00     0.086 C 
ATOM      3  C   LIG d   1       7.869  -3.438  -6.218  0.00  0.00    -0.005 C 
ATOM      4  C   LIG d   1       7.013  -4.692  -5.922  0.00  0.00     0.055 C 
ATOM      5  C   LIG d   1       5.641  -4.120  -5.634  0.00  0.00     0.294 C 
ATOM      6  N   LIG d   1       4.505  -4.727  -5.839  0.00  0.00    -0.046 NA
ATOM      7  H   LIG d   1       7.029  -1.441  -6.072  0.00  0.00     0.073 H 
ATOM      8  H   LIG d   1       7.660  -2.086  -4.531  0.00  0.00     0.073 H 
ATOM      9  H   LIG d   1       7.884  -3.224  -7.286  0.00  0.00     0.031 H 
ATOM     10  H   LIG d   1       8.881  -3.562  -5.833  0.00  0.00     0.031 H 
ATOM     11  H   LIG d   1       6.984  -5.350  -6.790  0.00  0.00     0.039 H 
ATOM     12  H   LIG d   1       7.395  -5.221  -5.049  0.00  0.00     0.039 H 
ENDROOT
BRANCH   1  13
ATOM     13  C   LIG d   1       4.820  -2.176  -4.395  0.00  0.00     0.122 A 
ATOM     14  C   LIG d   1       4.511  -2.576  -3.101  0.00  0.00    -0.017 A 
ATOM     15  C   LIG d   1       3.548  -1.897  -2.380  0.00  0.00    -0.057 A 
ATOM     16  H   LIG d   1       5.024  -3.418  -2.659  0.00  0.00     0.066 H 
ATOM     17  C   LIG d   1       2.892  -0.819  -2.945  0.00  0.00    -0.043 A 
ATOM     18  H   LIG d   1       3.305  -2.211  -1.376  0.00  0.00     0.062 H 
ATOM     19  C   LIG d   1       3.198  -0.417  -4.233  0.00  0.00     0.045 A 
ATOM     20  H   LIG d   1       2.140  -0.290  -2.379  0.00  0.00     0.063 H 
ATOM     21  C   LIG d   1       4.159  -1.092  -4.960  0.00  0.00     0.001 A 
ATOM     22 CL   LIG d   1       2.370   0.937  -4.939  0.00  0.00    -0.083 Cl
ATOM     23  H   LIG d   1       4.398  -0.779  -5.965  0.00  0.00     0.067 H 
ENDBRANCH   1  13
BRANCH   6  24
ATOM     24  C   LIG d   1       4.491  -6.036  -6.239  0.00  0.00     0.179 A 
ATOM     25  C   LIG d   1       4.797  -7.067  -5.341  0.00  0.00     0.007 A 
ATOM     26  C   LIG d   1       4.764  -8.371  -5.785  0.00  0.00     0.032 A 
ATOM     27  H   LIG d   1       5.051  -6.844  -4.315  0.00  0.00     0.068 H 
ATOM     28  N   LIG d   1       4.461  -8.653  -7.039  0.00  0.00    -0.263 NA
ATOM     29  H   LIG d   1       4.994  -9.173  -5.099  0.00  0.00     0.083 H 
ATOM     30  C   LIG d   1       4.172  -7.712  -7.918  0.00  0.00     0.032 A 
ATOM     31  C   LIG d   1       4.174  -6.383  -7.559  0.00  0.00     0.007 A 
ATOM     32  H   LIG d   1       3.928  -7.989  -8.934  0.00  0.00     0.083 H 
ATOM     33  H   LIG d   1       3.936  -5.618  -8.284  0.00  0.00     0.068 H 
ENDBRANCH   6  24
TORSDOF 2
ENDMDL
MODEL 3
REMARK VINA RESULT:      -5.7      3.752      5.050
REMARK  2 active torsions:
REMARK  status: ('A' for Active; 'I' for Inactive)
REMARK    1  A    between atoms: C_3  and  N_8 
REMARK    2  A    between atoms: N_13  and  C_14 
ROOT
ATOM      1  N   LIG d   1       6.929  -1.378  -4.187  0.00  0.00    -0.190 N 
ATOM      2  C   LIG d   1       7.583  -2.669  -4.432  0.00  0.00     0.086 C 
ATOM      3  C   LIG d   1       9.025  -2.357  -4.877  0.00  0.00    -0.005 C 
ATOM      4  C   LIG d   1       8.954  -0.854  -5.233  0.00  0.00     0.055 C 
ATOM      5  C   LIG d   1       7.803  -0.347  -4.390  0.00  0.00     0.294 C 
ATOM      6  N   LIG d   1       7.669   0.867  -3.934  0.00  0.00    -0.046 NA
ATOM      7  H   LIG d   1       7.594  -3.261  -3.518  0.00  0.00     0.073 H 
ATOM      8  H   LIG d   1       7.057  -3.209  -5.221  0.00  0.00     0.073 H 
ATOM      9  H   LIG d   1       9.727  -2.527  -4.061  0.00  0.00     0.031 H 
ATOM     10  H   LIG d   1       9.297  -2.948  -5.752  0.00  0.00     0.031 H 
ATOM     11  H   LIG d   1       9.882  -0.350  -4.963  0.00  0.00     0.039 H 
ATOM     12  H   LIG d   1       8.737  -0.719  -6.293  0.00  0.00     0.039 H 
ENDROOT
BRANCH   1  13
ATOM     13  C   LIG d   1       5.594  -1.223  -3.803  0.00  0.00     0.122 A 
ATOM     14  C   LIG d   1       5.142  -1.781  -2.614  0.00  0.00    -0.017 A 
ATOM     15  C   LIG d   1       3.822  -1.628  -2.237  0.00  0.00    -0.057 A 
ATOM     16  H   LIG d   1       5.823  -2.336  -1.985  0.00  0.00     0.066 H 
ATOM     17  C   LIG d   1       2.951  -0.918  -3.041  0.00  0.00    -0.043 A 
ATOM     18  H   LIG d   1       3.470  -2.065  -1.315  0.00  0.00     0.062 H 
ATOM     19  C   LIG d   1       3.397  -0.359  -4.227  0.00  0.00     0.045 A 
ATOM     20  H   LIG d   1       1.919  -0.799  -2.744  0.00  0.00     0.063 H 
ATOM     21  C   LIG d   1       4.716  -0.510  -4.609  0.00  0.00     0.001 A 
ATOM     22 CL   LIG d   1       2.298   0.531  -5.234  0.00  0.00    -0.083 Cl
ATOM     23  H   LIG d   1       5.064  -0.075  -5.534  0.00  0.00     0.067 H 
ENDBRANCH   1  13
BRANCH   6  24
ATOM     24  C   LIG d   1       8.554   1.841  -4.311  0.00  0.00     0.179 A 
ATOM     25  C   LIG d   1       8.501   2.406  -5.592  0.00  0.00     0.007 A 
ATOM     26  C   LIG d   1       9.408   3.389  -5.927  0.00  0.00     0.032 A 
ATOM     27  H   LIG d   1       7.758   2.080  -6.305  0.00  0.00     0.068 H 
ATOM     28  N   LIG d   1      10.323   3.789  -5.064  0.00  0.00    -0.263 NA
ATOM     29  H   LIG d   1       9.372   3.833  -6.911  0.00  0.00     0.083 H 
ATOM     30  C   LIG d   1      10.411   3.279  -3.849  0.00  0.00     0.032 A 
ATOM     31  C   LIG d   1       9.542   2.298  -3.428  0.00  0.00     0.007 A 
ATOM     32  H   LIG d   1      11.176   3.638  -3.176  0.00  0.00     0.083 H 
ATOM     33  H   LIG d   1       9.619   1.886  -2.433  0.00  0.00     0.068 H 
ENDBRANCH   6  24
TORSDOF 2
ENDMDL
MODEL 4
REMARK VINA RESULT:      -5.7      3.960      6.194
REMARK  2 active torsions:
REMARK  status: ('A' for Active; 'I' for Inactive)
REMARK    1  A    between atoms: C_3  and  N_8 
REMARK    2  A    between atoms: N_13  and  C_14 
ROOT
ATOM      1  N   LIG d   1       7.015   0.640  -4.859  0.00  0.00    -0.190 N 
ATOM      2  C   LIG d   1       6.900   0.191  -6.252  0.00  0.00     0.086 C 
ATOM      3  C   LIG d   1       8.101   0.791  -7.011  0.00  0.00    -0.005 C 
ATOM      4  C   LIG d   1       8.604   1.885  -6.041  0.00  0.00     0.055 C 
ATOM      5  C   LIG d   1       8.142   1.393  -4.685  0.00  0.00     0.294 C 
ATOM      6  N   LIG d   1       8.723   1.643  -3.546  0.00  0.00    -0.046 NA
ATOM      7  H   LIG d   1       6.935  -0.896  -6.298  0.00  0.00     0.073 H 
ATOM      8  H   LIG d   1       5.966   0.553  -6.684  0.00  0.00     0.073 H 
ATOM      9  H   LIG d   1       8.870   0.037  -7.175  0.00  0.00     0.031 H 
ATOM     10  H   LIG d   1       7.781   1.230  -7.956  0.00  0.00     0.031 H 
ATOM     11  H   LIG d   1       9.690   1.960  -6.076  0.00  0.00     0.039 H 
ATOM     12  H   LIG d   1       8.144   2.846  -6.273  0.00  0.00     0.039 H 
ENDROOT
BRANCH   1  13
ATOM     13  C   LIG d   1       6.095   0.343  -3.850  0.00  0.00     0.122 A 
ATOM     14  C   LIG d   1       5.711   1.326  -2.947  0.00  0.00    -0.017 A 
ATOM     15  C   LIG d   1       4.801   1.030  -1.951  0.00  0.00    -0.057 A 
ATOM     16  H   LIG d   1       6.124   2.321  -3.024  0.00  0.00     0.066 H 
ATOM     17  C   LIG d   1       4.272  -0.243  -1.852  0.00  0.00    -0.043 A 
ATOM     18  H   LIG d   1       4.506   1.793  -1.246  0.00  0.00     0.062 H 
ATOM     19  C   LIG d   1       4.651  -1.225  -2.751  0.00  0.00     0.045 A 
ATOM     20  H   LIG d   1       3.560  -0.471  -1.072  0.00  0.00     0.063 H 
ATOM     21  C   LIG d   1       5.561  -0.935  -3.749  0.00  0.00     0.001 A 
ATOM     22 CL   LIG d   1       3.984  -2.823  -2.622  0.00  0.00    -0.083 Cl
ATOM     23  H   LIG d   1       5.857  -1.701  -4.450  0.00  0.00     0.067 H 
ENDBRANCH   1  13
BRANCH   6  24
ATOM     24  C   LIG d   1       9.779   2.513  -3.492  0.00  0.00     0.179 A 
ATOM     25  C   LIG d   1      11.095   2.059  -3.655  0.00  0.00     0.007 A 
ATOM     26  C   LIG d   1      12.128   2.970  -3.600  0.00  0.00     0.032 A 
ATOM     27  H   LIG d   1      11.297   1.011  -3.825  0.00  0.00     0.068 H 
ATOM     28  N   LIG d   1      11.891   4.251  -3.387  0.00  0.00    -0.263 NA
ATOM     29  H   LIG d   1      13.145   2.630  -3.728  0.00  0.00     0.083 H 
ATOM     30  C   LIG d   1      10.667   4.720  -3.223  0.00  0.00     0.032 A 
ATOM     31  C   LIG d   1       9.576   3.881  -3.270  0.00  0.00     0.007 A 
ATOM     32  H   LIG d   1      10.520   5.776  -3.052  0.00  0.00     0.083 H 
ATOM     33  H   LIG d   1       8.577   4.271  -3.135  0.00  0.00     0.068 H 
ENDBRANCH   6  24
TORSDOF 2
ENDMDL
MODEL 5
REMARK VINA RESULT:      -5.5      3.118      5.997
REMARK  2 active torsions:
REMARK  status: ('A' for Active; 'I' for Inactive)
REMARK    1  A    between atoms: C_3  and  N_8 
REMARK    2  A    between atoms: N_13  and  C_14 
ROOT
ATOM      1  N   LIG d   1       4.614  -0.883  -4.858  0.00  0.00    -0.190 N 
ATOM      2  C   LIG d   1       3.974  -1.466  -3.673  0.00  0.00     0.086 C 
ATOM      3  C   LIG d   1       4.953  -1.268  -2.499  0.00  0.00    -0.005 C 
ATOM      4  C   LIG d   1       6.279  -0.924  -3.216  0.00  0.00     0.055 C 
ATOM      5  C   LIG d   1       5.823  -0.335  -4.535  0.00  0.00     0.294 C 
ATOM      6  N   LIG d   1       6.474   0.547  -5.240  0.00  0.00    -0.046 NA
ATOM      7  H   LIG d   1       3.035  -0.953  -3.466  0.00  0.00     0.073 H 
ATOM      8  H   LIG d   1       3.791  -2.529  -3.833  0.00  0.00     0.073 H 
ATOM      9  H   LIG d   1       4.633  -0.443  -1.863  0.00  0.00     0.031 H 
ATOM     10  H   LIG d   1       5.054  -2.187  -1.921  0.00  0.00     0.031 H 
ATOM     11  H   LIG d   1       6.849  -0.194  -2.642  0.00  0.00     0.039 H 
ATOM     12  H   LIG d   1       6.869  -1.825  -3.386  0.00  0.00     0.039 H 
ENDROOT
BRANCH   1  13
ATOM     13  C   LIG d   1       4.065  -0.893  -6.144  0.00  0.00     0.122 A 
ATOM     14  C   LIG d   1       3.138   0.073  -6.512  0.00  0.00    -0.017 A 
ATOM     15  C   LIG d   1       2.597   0.061  -7.783  0.00  0.00    -0.057 A 
ATOM     16  H   LIG d   1       2.841   0.834  -5.805  0.00  0.00     0.066 H 
ATOM     17  C   LIG d   1       2.978  -0.911  -8.689  0.00  0.00    -0.043 A 
ATOM     18  H   LIG d   1       1.873   0.810  -8.068  0.00  0.00     0.062 H 
ATOM     19  C   LIG d   1       3.902  -1.876  -8.325  0.00  0.00     0.045 A 
ATOM     20  H   LIG d   1       2.553  -0.918  -9.682  0.00  0.00     0.063 H 
ATOM     21  C   LIG d   1       4.446  -1.869  -7.056  0.00  0.00     0.001 A 
ATOM     22 CL   LIG d   1       4.377  -3.096  -9.466  0.00  0.00    -0.083 Cl
ATOM     23  H   LIG d   1       5.167  -2.621  -6.772  0.00  0.00     0.067 H 
ENDBRANCH   1  13
BRANCH   6  24
ATOM     24  C   LIG d   1       7.735   0.927  -4.866  0.00  0.00     0.179 A 
ATOM     25  C   LIG d   1       8.865   0.274  -5.376  0.00  0.00     0.007 A 
ATOM     26  C   LIG d   1      10.116   0.694  -4.979  0.00  0.00     0.032 A 
ATOM     27  H   LIG d   1       8.757  -0.543  -6.074  0.00  0.00     0.068 H 
ATOM     28  N   LIG d   1      10.256   1.688  -4.121  0.00  0.00    -0.263 NA
ATOM     29  H   LIG d   1      10.992   0.199  -5.370  0.00  0.00     0.083 H 
ATOM     30  C   LIG d   1       9.219   2.327  -3.613  0.00  0.00     0.032 A 
ATOM     31  C   LIG d   1       7.933   1.978  -3.961  0.00  0.00     0.007 A 
ATOM     32  H   LIG d   1       9.381   3.135  -2.915  0.00  0.00     0.083 H 
ATOM     33  H   LIG d   1       7.088   2.505  -3.541  0.00  0.00     0.068 H 
ENDBRANCH   6  24
TORSDOF 2
ENDMDL
MODEL 6
REMARK VINA RESULT:      -5.5      3.113      6.428
REMARK  2 active torsions:
REMARK  status: ('A' for Active; 'I' for Inactive)
REMARK    1  A    between atoms: C_3  and  N_8 
REMARK    2  A    between atoms: N_13  and  C_14 
ROOT
ATOM      1  N   LIG d   1       3.185  -0.057  -5.858  0.00  0.00    -0.190 N 
ATOM      2  C   LIG d   1       2.322   0.426  -4.773  0.00  0.00     0.086 C 
ATOM      3  C   LIG d   1       2.854  -0.205  -3.471  0.00  0.00    -0.005 C 
ATOM      4  C   LIG d   1       3.769  -1.338  -3.990  0.00  0.00     0.055 C 
ATOM      5  C   LIG d   1       4.178  -0.858  -5.367  0.00  0.00     0.294 C 
ATOM      6  N   LIG d   1       5.290  -1.155  -5.978  0.00  0.00    -0.046 NA
ATOM      7  H   LIG d   1       2.374   1.512  -4.711  0.00  0.00     0.073 H 
ATOM      8  H   LIG d   1       1.293   0.110  -4.948  0.00  0.00     0.073 H 
ATOM      9  H   LIG d   1       3.429   0.522  -2.897  0.00  0.00     0.031 H 
ATOM     10  H   LIG d   1       2.036  -0.610  -2.876  0.00  0.00     0.031 H 
ATOM     11  H   LIG d   1       4.640  -1.455  -3.346  0.00  0.00     0.039 H 
ATOM     12  H   LIG d   1       3.216  -2.275  -4.064  0.00  0.00     0.039 H 
ENDROOT
BRANCH   1  13
ATOM     13  C   LIG d   1       3.012   0.254  -7.210  0.00  0.00     0.122 A 
ATOM     14  C   LIG d   1       3.077   1.574  -7.634  0.00  0.00    -0.017 A 
ATOM     15  C   LIG d   1       2.905   1.879  -8.970  0.00  0.00    -0.057 A 
ATOM     16  H   LIG d   1       3.262   2.363  -6.919  0.00  0.00     0.066 H 
ATOM     17  C   LIG d   1       2.669   0.871  -9.886  0.00  0.00    -0.043 A 
ATOM     18  H   LIG d   1       2.952   2.907  -9.300  0.00  0.00     0.062 H 
ATOM     19  C   LIG d   1       2.604  -0.447  -9.467  0.00  0.00     0.045 A 
ATOM     20  H   LIG d   1       2.535   1.112 -10.930  0.00  0.00     0.063 H 
ATOM     21  C   LIG d   1       2.774  -0.758  -8.132  0.00  0.00     0.001 A 
ATOM     22 CL   LIG d   1       2.306  -1.710 -10.621  0.00  0.00    -0.083 Cl
ATOM     23  H   LIG d   1       2.723  -1.786  -7.805  0.00  0.00     0.067 H 
ENDBRANCH   1  13
BRANCH   6  24
ATOM     24  C   LIG d   1       6.150  -2.067  -5.428  0.00  0.00     0.179 A 
ATOM     25  C   LIG d   1       6.076  -3.425  -5.770  0.00  0.00     0.007 A 
ATOM     26  C   LIG d   1       6.966  -4.307  -5.197  0.00  0.00     0.032 A 
ATOM     27  H   LIG d   1       5.335  -3.773  -6.474  0.00  0.00     0.068 H 
ATOM     28  N   LIG d   1       7.871  -3.890  -4.330  0.00  0.00    -0.263 NA
ATOM     29  H   LIG d   1       6.920  -5.354  -5.457  0.00  0.00     0.083 H 
ATOM     30  C   LIG d   1       7.971  -2.622  -3.977  0.00  0.00     0.032 A 
ATOM     31  C   LIG d   1       7.127  -1.671  -4.505  0.00  0.00     0.007 A 
ATOM     32  H   LIG d   1       8.727  -2.326  -3.264  0.00  0.00     0.083 H 
ATOM     33  H   LIG d   1       7.215  -0.635  -4.212  0.00  0.00     0.068 H 
ENDBRANCH   6  24
TORSDOF 2
ENDMDL
MODEL 7
REMARK VINA RESULT:      -5.4      2.708      3.838
REMARK  2 active torsions:
REMARK  status: ('A' for Active; 'I' for Inactive)
REMARK    1  A    between atoms: C_3  and  N_8 
REMARK    2  A    between atoms: N_13  and  C_14 
ROOT
ATOM      1  N   LIG d   1       4.506  -1.633  -4.415  0.00  0.00    -0.190 N 
ATOM      2  C   LIG d   1       3.598  -1.460  -3.274  0.00  0.00     0.086 C 
ATOM      3  C   LIG d   1       2.505  -0.471  -3.726  0.00  0.00    -0.005 C 
ATOM      4  C   LIG d   1       3.118   0.157  -4.999  0.00  0.00     0.055 C 
ATOM      5  C   LIG d   1       4.075  -0.910  -5.491  0.00  0.00     0.294 C 
ATOM      6  N   LIG d   1       4.425  -1.105  -6.731  0.00  0.00    -0.046 NA
ATOM      7  H   LIG d   1       3.149  -2.415  -3.006  0.00  0.00     0.073 H 
ATOM      8  H   LIG d   1       4.144  -1.051  -2.423  0.00  0.00     0.073 H 
ATOM      9  H   LIG d   1       1.581  -0.997  -3.962  0.00  0.00     0.031 H 
ATOM     10  H   LIG d   1       2.334   0.290  -2.964  0.00  0.00     0.031 H 
ATOM     11  H   LIG d   1       2.345   0.355  -5.741  0.00  0.00     0.039 H 
ATOM     12  H   LIG d   1       3.661   1.070  -4.755  0.00  0.00     0.039 H 
ENDROOT
BRANCH   1  13
ATOM     13  C   LIG d   1       5.657  -2.426  -4.401  0.00  0.00     0.122 A 
ATOM     14  C   LIG d   1       6.804  -1.976  -3.762  0.00  0.00    -0.017 A 
ATOM     15  C   LIG d   1       7.941  -2.761  -3.749  0.00  0.00    -0.057 A 
ATOM     16  H   LIG d   1       6.808  -1.012  -3.274  0.00  0.00     0.066 H 
ATOM     17  C   LIG d   1       7.937  -3.995  -4.372  0.00  0.00    -0.043 A 
ATOM     18  H   LIG d   1       8.834  -2.409  -3.256  0.00  0.00     0.062 H 
ATOM     19  C   LIG d   1       6.794  -4.448  -5.009  0.00  0.00     0.045 A 
ATOM     20  H   LIG d   1       8.827  -4.607  -4.360  0.00  0.00     0.063 H 
ATOM     21  C   LIG d   1       5.655  -3.667  -5.026  0.00  0.00     0.001 A 
ATOM     22 CL   LIG d   1       6.794  -5.999  -5.791  0.00  0.00    -0.083 Cl
ATOM     23  H   LIG d   1       4.764  -4.020  -5.523  0.00  0.00     0.067 H 
ENDBRANCH   1  13
BRANCH   6  24
ATOM     24  C   LIG d   1       4.017  -0.232  -7.703  0.00  0.00     0.179 A 
ATOM     25  C   LIG d   1       4.853   0.806  -8.138  0.00  0.00     0.007 A 
ATOM     26  C   LIG d   1       4.404   1.657  -9.124  0.00  0.00     0.032 A 
ATOM     27  H   LIG d   1       5.837   0.933  -7.710  0.00  0.00     0.068 H 
ATOM     28  N   LIG d   1       3.201   1.512  -9.648  0.00  0.00    -0.263 NA
ATOM     29  H   LIG d   1       5.043   2.457  -9.468  0.00  0.00     0.083 H 
ATOM     30  C   LIG d   1       2.380   0.552  -9.264  0.00  0.00     0.032 A 
ATOM     31  C   LIG d   1       2.749  -0.347  -8.290  0.00  0.00     0.007 A 
ATOM     32  H   LIG d   1       1.405   0.471  -9.721  0.00  0.00     0.083 H 
ATOM     33  H   LIG d   1       2.073  -1.131  -7.980  0.00  0.00     0.068 H 
ENDBRANCH   6  24
TORSDOF 2
ENDMDL
MODEL 8
REMARK VINA RESULT:      -5.3      3.859      5.987
REMARK  2 active torsions:
REMARK  status: ('A' for Active; 'I' for Inactive)
REMARK    1  A    between atoms: C_3  and  N_8 
REMARK    2  A    between atoms: N_13  and  C_14 
ROOT
ATOM      1  N   LIG d   1       5.300  -3.533  -4.748  0.00  0.00    -0.190 N 
ATOM      2  C   LIG d   1       4.743  -4.711  -5.424  0.00  0.00     0.086 C 
ATOM      3  C   LIG d   1       5.942  -5.559  -5.893  0.00  0.00    -0.005 C 
ATOM      4  C   LIG d   1       7.124  -4.568  -5.782  0.00  0.00     0.055 C 
ATOM      5  C   LIG d   1       6.664  -3.590  -4.722  0.00  0.00     0.294 C 
ATOM      6  N   LIG d   1       7.440  -2.918  -3.918  0.00  0.00    -0.046 NA
ATOM      7  H   LIG d   1       4.129  -5.283  -4.730  0.00  0.00     0.073 H 
ATOM      8  H   LIG d   1       4.146  -4.400  -6.282  0.00  0.00     0.073 H 
ATOM      9  H   LIG d   1       6.092  -6.414  -5.234  0.00  0.00     0.031 H 
ATOM     10  H   LIG d   1       5.805  -5.883  -6.925  0.00  0.00     0.031 H 
ATOM     11  H   LIG d   1       8.030  -5.084  -5.466  0.00  0.00     0.039 H 
ATOM     12  H   LIG d   1       7.284  -4.053  -6.730  0.00  0.00     0.039 H 
ENDROOT
BRANCH   1  13
ATOM     13  C   LIG d   1       4.538  -2.492  -4.210  0.00  0.00     0.122 A 
ATOM     14  C   LIG d   1       4.248  -2.470  -2.852  0.00  0.00    -0.017 A 
ATOM     15  C   LIG d   1       3.495  -1.441  -2.323  0.00  0.00    -0.057 A 
ATOM     16  H   LIG d   1       4.613  -3.259  -2.210  0.00  0.00     0.066 H 
ATOM     17  C   LIG d   1       3.030  -0.430  -3.143  0.00  0.00    -0.043 A 
ATOM     18  H   LIG d   1       3.267  -1.426  -1.267  0.00  0.00     0.062 H 
ATOM     19  C   LIG d   1       3.317  -0.447  -4.497  0.00  0.00     0.045 A 
ATOM     20  H   LIG d   1       2.441   0.374  -2.727  0.00  0.00     0.063 H 
ATOM     21  C   LIG d   1       4.069  -1.475  -5.032  0.00  0.00     0.001 A 
ATOM     22 CL   LIG d   1       2.729   0.823  -5.524  0.00  0.00    -0.083 Cl
ATOM     23  H   LIG d   1       4.293  -1.488  -6.089  0.00  0.00     0.067 H 
ENDBRANCH   1  13
BRANCH   6  24
ATOM     24  C   LIG d   1       8.799  -2.973  -4.074  0.00  0.00     0.179 A 
ATOM     25  C   LIG d   1       9.452  -2.148  -5.001  0.00  0.00     0.007 A 
ATOM     26  C   LIG d   1      10.822  -2.231  -5.120  0.00  0.00     0.032 A 
ATOM     27  H   LIG d   1       8.889  -1.454  -5.608  0.00  0.00     0.068 H 
ATOM     28  N   LIG d   1      11.516  -3.081  -4.386  0.00  0.00    -0.263 NA
ATOM     29  H   LIG d   1      11.334  -1.596  -5.829  0.00  0.00     0.083 H 
ATOM     30  C   LIG d   1      10.941  -3.879  -3.506  0.00  0.00     0.032 A 
ATOM     31  C   LIG d   1       9.577  -3.857  -3.316  0.00  0.00     0.007 A 
ATOM     32  H   LIG d   1      11.549  -4.558  -2.926  0.00  0.00     0.083 H 
ATOM     33  H   LIG d   1       9.113  -4.513  -2.594  0.00  0.00     0.068 H 
ENDBRANCH   6  24
TORSDOF 2
ENDMDL
MODEL 9
REMARK VINA RESULT:      -5.3      1.946      2.683
REMARK  2 active torsions:
REMARK  status: ('A' for Active; 'I' for Inactive)
REMARK    1  A    between atoms: C_3  and  N_8 
REMARK    2  A    between atoms: N_13  and  C_14 
ROOT
ATOM      1  N   LIG d   1       4.739  -2.855  -6.678  0.00  0.00    -0.190 N 
ATOM      2  C   LIG d   1       4.305  -4.190  -7.105  0.00  0.00     0.086 C 
ATOM      3  C   LIG d   1       3.623  -4.016  -8.477  0.00  0.00    -0.005 C 
ATOM      4  C   LIG d   1       3.373  -2.491  -8.542  0.00  0.00     0.055 C 
ATOM      5  C   LIG d   1       4.440  -1.921  -7.630  0.00  0.00     0.294 C 
ATOM      6  N   LIG d   1       4.981  -0.740  -7.737  0.00  0.00    -0.046 NA
ATOM      7  H   LIG d   1       5.166  -4.851  -7.198  0.00  0.00     0.073 H 
ATOM      8  H   LIG d   1       3.596  -4.599  -6.384  0.00  0.00     0.073 H 
ATOM      9  H   LIG d   1       4.287  -4.333  -9.281  0.00  0.00     0.031 H 
ATOM     10  H   LIG d   1       2.681  -4.563  -8.513  0.00  0.00     0.031 H 
ATOM     11  H   LIG d   1       3.498  -2.124  -9.560  0.00  0.00     0.039 H 
ATOM     12  H   LIG d   1       2.380  -2.248  -8.163  0.00  0.00     0.039 H 
ENDROOT
BRANCH   1  13
ATOM     13  C   LIG d   1       5.368  -2.575  -5.462  0.00  0.00     0.122 A 
ATOM     14  C   LIG d   1       6.739  -2.758  -5.328  0.00  0.00    -0.017 A 
ATOM     15  C   LIG d   1       7.358  -2.481  -4.125  0.00  0.00    -0.057 A 
ATOM     16  H   LIG d   1       7.320  -3.117  -6.165  0.00  0.00     0.066 H 
ATOM     17  C   LIG d   1       6.615  -2.021  -3.054  0.00  0.00    -0.043 A 
ATOM     18  H   LIG d   1       8.423  -2.628  -4.020  0.00  0.00     0.062 H 
ATOM     19  C   LIG d   1       5.250  -1.836  -3.183  0.00  0.00     0.045 A 
ATOM     20  H   LIG d   1       7.102  -1.805  -2.114  0.00  0.00     0.063 H 
ATOM     21  C   LIG d   1       4.625  -2.112  -4.384  0.00  0.00     0.001 A 
ATOM     22 CL   LIG d   1       4.321  -1.259  -1.834  0.00  0.00    -0.083 Cl
ATOM     23  H   LIG d   1       3.559  -1.968  -4.485  0.00  0.00     0.067 H 
ENDBRANCH   1  13
BRANCH   6  24
ATOM     24  C   LIG d   1       4.506   0.149  -8.663  0.00  0.00     0.179 A 
ATOM     25  C   LIG d   1       3.583   1.141  -8.302  0.00  0.00     0.007 A 
ATOM     26  C   LIG d   1       3.137   2.020  -9.264  0.00  0.00     0.032 A 
ATOM     27  H   LIG d   1       3.232   1.217  -7.283  0.00  0.00     0.068 H 
ATOM     28  N   LIG d   1       3.557   1.929 -10.513  0.00  0.00    -0.263 NA
ATOM     29  H   LIG d   1       2.429   2.789  -8.994  0.00  0.00     0.083 H 
ATOM     30  C   LIG d   1       4.421   1.007 -10.896  0.00  0.00     0.032 A 
ATOM     31  C   LIG d   1       4.925   0.092  -9.999  0.00  0.00     0.007 A 
ATOM     32  H   LIG d   1       4.738   0.971 -11.928  0.00  0.00     0.083 H 
ATOM     33  H   LIG d   1       5.632  -0.659 -10.319  0.00  0.00     0.068 H 
ENDBRANCH   6  24
TORSDOF 2
ENDMDL
MODEL 10
REMARK VINA RESULT:      -5.2      4.356      5.685
REMARK  2 active torsions:
REMARK  status: ('A' for Active; 'I' for Inactive)
REMARK    1  A    between atoms: C_3  and  N_8 
REMARK    2  A    between atoms: N_13  and  C_14 
ROOT
ATOM      1  N   LIG d   1       8.195  -2.065  -4.708  0.00  0.00    -0.190 N 
ATOM      2  C   LIG d   1       9.113  -1.194  -5.452  0.00  0.00     0.086 C 
ATOM      3  C   LIG d   1       8.478   0.211  -5.462  0.00  0.00    -0.005 C 
ATOM      4  C   LIG d   1       7.017  -0.072  -5.043  0.00  0.00     0.055 C 
ATOM      5  C   LIG d   1       7.123  -1.356  -4.246  0.00  0.00     0.294 C 
ATOM      6  N   LIG d   1       6.327  -1.720  -3.280  0.00  0.00    -0.046 NA
ATOM      7  H   LIG d   1      10.082  -1.163  -4.956  0.00  0.00     0.073 H 
ATOM      8  H   LIG d   1       9.228  -1.560  -6.473  0.00  0.00     0.073 H 
ATOM      9  H   LIG d   1       8.969   0.861  -4.739  0.00  0.00     0.031 H 
ATOM     10  H   LIG d   1       8.516   0.644  -6.462  0.00  0.00     0.031 H 
ATOM     11  H   LIG d   1       6.631   0.737  -4.424  0.00  0.00     0.039 H 
ATOM     12  H   LIG d   1       6.387  -0.221  -5.920  0.00  0.00     0.039 H 
ENDROOT
BRANCH   1  13
ATOM     13  C   LIG d   1       8.388  -3.435  -4.505  0.00  0.00     0.122 A 
ATOM     14  C   LIG d   1       7.876  -4.352  -5.414  0.00  0.00    -0.017 A 
ATOM     15  C   LIG d   1       8.068  -5.705  -5.211  0.00  0.00    -0.057 A 
ATOM     16  H   LIG d   1       7.328  -4.007  -6.278  0.00  0.00     0.066 H 
ATOM     17  C   LIG d   1       8.770  -6.147  -4.106  0.00  0.00    -0.043 A 
ATOM     18  H   LIG d   1       7.666  -6.418  -5.915  0.00  0.00     0.062 H 
ATOM     19  C   LIG d   1       9.283  -5.235  -3.198  0.00  0.00     0.045 A 
ATOM     20  H   LIG d   1       8.919  -7.205  -3.950  0.00  0.00     0.063 H 
ATOM     21  C   LIG d   1       9.094  -3.882  -3.395  0.00  0.00     0.001 A 
ATOM     22 CL   LIG d   1      10.163  -5.795  -1.810  0.00  0.00    -0.083 Cl
ATOM     23  H   LIG d   1       9.493  -3.171  -2.687  0.00  0.00     0.067 H 
ENDBRANCH   1  13
BRANCH   6  24
ATOM     24  C   LIG d   1       5.215  -0.975  -2.992  0.00  0.00     0.179 A 
ATOM     25  C   LIG d   1       5.322   0.247  -2.313  0.00  0.00     0.007 A 
ATOM     26  C   LIG d   1       4.177   0.967  -2.050  0.00  0.00     0.032 A 
ATOM     27  H   LIG d   1       6.287   0.620  -2.006  0.00  0.00     0.068 H 
ATOM     28  N   LIG d   1       2.992   0.514  -2.417  0.00  0.00    -0.263 NA
ATOM     29  H   LIG d   1       4.250   1.911  -1.532  0.00  0.00     0.083 H 
ATOM     30  C   LIG d   1       2.846  -0.634  -3.053  0.00  0.00     0.032 A 
ATOM     31  C   LIG d   1       3.937  -1.414  -3.363  0.00  0.00     0.007 A 
ATOM     32  H   LIG d   1       1.857  -0.964  -3.335  0.00  0.00     0.083 H 
ATOM     33  H   LIG d   1       3.811  -2.352  -3.884  0.00  0.00     0.068 H 
ENDBRANCH   6  24
TORSDOF 2
ENDMDL
