MODEL 1
REMARK VINA RESULT:      -6.3      0.000      0.000
REMARK  4 active torsions:
REMARK  status: ('A' for Active; 'I' for Inactive)
REMARK    1  A    between atoms: C_2  and  C_3 
REMARK    2  A    between atoms: C_2  and  N_16 
REMARK    3  A    between atoms: N_12  and  C_15 
REMARK    4  A    between atoms: N_16  and  N_17 
REMARK       I    between atoms: N_17  and  C_18 
REMARK       I    between atoms: C_18  and  N_20 
ROOT
ATOM      1  C   LIG d   1       4.355  -1.303  -6.424  0.00  0.00     0.053 A 
ATOM      2  C   LIG d   1       3.593  -0.295  -5.781  0.00  0.00     0.198 A 
ATOM      3  O   LIG d   1       2.686   0.276  -6.363  0.00  0.00    -0.286 OA
ATOM      4  C   LIG d   1       3.929   0.039  -4.385  0.00  0.00     0.046 A 
ATOM      5  C   LIG d   1       3.223   1.020  -3.688  0.00  0.00    -0.049 A 
ATOM      6  C   LIG d   1       3.563   1.308  -2.385  0.00  0.00    -0.061 A 
ATOM      7  C   LIG d   1       4.603   0.630  -1.766  0.00  0.00    -0.060 A 
ATOM      8  C   LIG d   1       5.310  -0.341  -2.442  0.00  0.00    -0.037 A 
ATOM      9  C   LIG d   1       4.982  -0.649  -3.758  0.00  0.00     0.052 A 
ATOM     10  N   LIG d   1       5.679  -1.618  -4.451  0.00  0.00    -0.356 N 
ATOM     11  C   LIG d   1       5.375  -1.937  -5.732  0.00  0.00    -0.023 A 
ATOM     12  O   LIG d   1       6.089  -2.898  -6.355  0.00  0.00    -0.861 OA
ATOM     13  H   LIG d   1       2.413   1.549  -4.168  0.00  0.00     0.062 H 
ATOM     14  H   LIG d   1       3.017   2.066  -1.843  0.00  0.00     0.062 H 
ATOM     15  H   LIG d   1       4.861   0.865  -0.744  0.00  0.00     0.062 H 
ATOM     16  H   LIG d   1       6.118  -0.862  -1.950  0.00  0.00     0.064 H 
ENDROOT
BRANCH   1  17
ATOM     17  C   LIG d   1       4.060  -1.678  -7.823  0.00  0.00     0.049 C 
ATOM     18  C   LIG d   1       4.561  -0.956  -8.829  0.00  0.00    -0.075 C 
ATOM     19  H   LIG d   1       4.412  -1.276  -9.849  0.00  0.00     0.055 H 
ATOM     20  H   LIG d   1       5.111  -0.050  -8.621  0.00  0.00     0.055 H 
BRANCH  17  21
ATOM     21  N   LIG d   1       3.256  -2.786  -8.093  0.00  0.00    -0.263 N 
ATOM     22  H   LIG d   1       2.291  -2.714  -8.021  0.00  0.00     0.170 HD
BRANCH  21  23
ATOM     23  N   LIG d   1       3.842  -4.001  -8.469  0.00  0.00    -0.221 N 
ATOM     24  C   LIG d   1       3.913  -5.018  -7.586  0.00  0.00     0.313 C 
ATOM     25  O   LIG d   1       4.422  -6.073  -7.914  0.00  0.00    -0.252 OA
ATOM     26  N   LIG d   1       3.421  -4.864  -6.341  0.00  0.00    -0.312 N 
ATOM     27  H   LIG d   1       3.014  -4.022  -6.081  0.00  0.00     0.146 HD
ATOM     28  H   LIG d   1       3.471  -5.595  -5.706  0.00  0.00     0.146 HD
ATOM     29  H   LIG d   1       4.196  -4.112  -9.366  0.00  0.00     0.174 HD
ENDBRANCH  21  23
ENDBRANCH  17  21
ENDBRANCH   1  17
BRANCH  10  30
ATOM     30  C   LIG d   1       6.774  -2.324  -3.781  0.00  0.00     0.011 C 
ATOM     31  H   LIG d   1       7.726  -1.890  -4.086  0.00  0.00     0.045 H 
ATOM     32  H   LIG d   1       6.661  -2.230  -2.702  0.00  0.00     0.045 H 
ATOM     33  H   LIG d   1       6.750  -3.378  -4.059  0.00  0.00     0.045 H 
ENDBRANCH  10  30
TORSDOF 4
ENDMDL
MODEL 2
REMARK VINA RESULT:      -6.3      2.454      2.938
REMARK  4 active torsions:
REMARK  status: ('A' for Active; 'I' for Inactive)
REMARK    1  A    between atoms: C_2  and  C_3 
REMARK    2  A    between atoms: C_2  and  N_16 
REMARK    3  A    between atoms: N_12  and  C_15 
REMARK    4  A    between atoms: N_16  and  N_17 
REMARK       I    between atoms: N_17  and  C_18 
REMARK       I    between atoms: C_18  and  N_20 
ROOT
ATOM      1  C   LIG d   1       6.449  -2.570  -4.604  0.00  0.00     0.053 A 
ATOM      2  C   LIG d   1       5.182  -2.449  -3.980  0.00  0.00     0.198 A 
ATOM      3  O   LIG d   1       4.400  -3.384  -3.954  0.00  0.00    -0.286 OA
ATOM      4  C   LIG d   1       4.839  -1.155  -3.361  0.00  0.00     0.046 A 
ATOM      5  C   LIG d   1       3.610  -0.962  -2.728  0.00  0.00    -0.049 A 
ATOM      6  C   LIG d   1       3.321   0.259  -2.160  0.00  0.00    -0.061 A 
ATOM      7  C   LIG d   1       4.245   1.294  -2.215  0.00  0.00    -0.060 A 
ATOM      8  C   LIG d   1       5.462   1.118  -2.837  0.00  0.00    -0.037 A 
ATOM      9  C   LIG d   1       5.774  -0.108  -3.416  0.00  0.00     0.052 A 
ATOM     10  N   LIG d   1       6.988  -0.303  -4.042  0.00  0.00    -0.356 N 
ATOM     11  C   LIG d   1       7.316  -1.489  -4.610  0.00  0.00    -0.023 A 
ATOM     12  O   LIG d   1       8.521  -1.621  -5.203  0.00  0.00    -0.861 OA
ATOM     13  H   LIG d   1       2.890  -1.765  -2.684  0.00  0.00     0.062 H 
ATOM     14  H   LIG d   1       2.372   0.411  -1.669  0.00  0.00     0.062 H 
ATOM     15  H   LIG d   1       4.007   2.247  -1.767  0.00  0.00     0.062 H 
ATOM     16  H   LIG d   1       6.172   1.930  -2.874  0.00  0.00     0.064 H 
ENDROOT
BRANCH   1  17
ATOM     17  C   LIG d   1       6.844  -3.845  -5.239  0.00  0.00     0.049 C 
ATOM     18  C   LIG d   1       7.801  -4.597  -4.689  0.00  0.00    -0.075 C 
ATOM     19  H   LIG d   1       8.033  -5.565  -5.106  0.00  0.00     0.055 H 
ATOM     20  H   LIG d   1       8.344  -4.235  -3.828  0.00  0.00     0.055 H 
BRANCH  17  21
ATOM     21  N   LIG d   1       6.219  -4.262  -6.414  0.00  0.00    -0.263 N 
ATOM     22  H   LIG d   1       6.120  -3.645  -7.157  0.00  0.00     0.170 HD
BRANCH  21  23
ATOM     23  N   LIG d   1       5.734  -5.572  -6.523  0.00  0.00    -0.221 N 
ATOM     24  C   LIG d   1       4.406  -5.801  -6.529  0.00  0.00     0.313 C 
ATOM     25  O   LIG d   1       3.986  -6.939  -6.624  0.00  0.00    -0.252 OA
ATOM     26  N   LIG d   1       3.544  -4.770  -6.430  0.00  0.00    -0.312 N 
ATOM     27  H   LIG d   1       3.880  -3.863  -6.356  0.00  0.00     0.146 HD
ATOM     28  H   LIG d   1       2.588  -4.935  -6.435  0.00  0.00     0.146 HD
ATOM     29  H   LIG d   1       6.355  -6.314  -6.595  0.00  0.00     0.174 HD
ENDBRANCH  21  23
ENDBRANCH  17  21
ENDBRANCH   1  17
BRANCH  10  30
ATOM     30  C   LIG d   1       7.951   0.801  -4.091  0.00  0.00     0.011 C 
ATOM     31  H   LIG d   1       7.678   1.553  -3.351  0.00  0.00     0.045 H 
ATOM     32  H   LIG d   1       8.949   0.422  -3.873  0.00  0.00     0.045 H 
ATOM     33  H   LIG d   1       7.941   1.248  -5.085  0.00  0.00     0.045 H 
ENDBRANCH  10  30
TORSDOF 4
ENDMDL
MODEL 3
REMARK VINA RESULT:      -6.2      2.324      3.536
REMARK  4 active torsions:
REMARK  status: ('A' for Active; 'I' for Inactive)
REMARK    1  A    between atoms: C_2  and  C_3 
REMARK    2  A    between atoms: C_2  and  N_16 
REMARK    3  A    between atoms: N_12  and  C_15 
REMARK    4  A    between atoms: N_16  and  N_17 
REMARK       I    between atoms: N_17  and  C_18 
REMARK       I    between atoms: C_18  and  N_20 
ROOT
ATOM      1  C   LIG d   1       3.890  -1.051  -6.996  0.00  0.00     0.053 A 
ATOM      2  C   LIG d   1       3.524  -0.073  -6.037  0.00  0.00     0.198 A 
ATOM      3  O   LIG d   1       3.025   0.987  -6.376  0.00  0.00    -0.286 OA
ATOM      4  C   LIG d   1       3.765  -0.377  -4.615  0.00  0.00     0.046 A 
ATOM      5  C   LIG d   1       3.431   0.536  -3.615  0.00  0.00    -0.049 A 
ATOM      6  C   LIG d   1       3.670   0.220  -2.296  0.00  0.00    -0.061 A 
ATOM      7  C   LIG d   1       4.240  -0.999  -1.960  0.00  0.00    -0.060 A 
ATOM      8  C   LIG d   1       4.575  -1.912  -2.936  0.00  0.00    -0.037 A 
ATOM      9  C   LIG d   1       4.342  -1.613  -4.275  0.00  0.00     0.052 A 
ATOM     10  N   LIG d   1       4.671  -2.515  -5.266  0.00  0.00    -0.356 N 
ATOM     11  C   LIG d   1       4.449  -2.247  -6.577  0.00  0.00    -0.023 A 
ATOM     12  O   LIG d   1       4.787  -3.171  -7.500  0.00  0.00    -0.861 OA
ATOM     13  H   LIG d   1       2.988   1.486  -3.874  0.00  0.00     0.062 H 
ATOM     14  H   LIG d   1       3.412   0.925  -1.520  0.00  0.00     0.062 H 
ATOM     15  H   LIG d   1       4.423  -1.236  -0.922  0.00  0.00     0.062 H 
ATOM     16  H   LIG d   1       5.019  -2.857  -2.662  0.00  0.00     0.064 H 
ENDROOT
BRANCH   1  17
ATOM     17  C   LIG d   1       3.669  -0.797  -8.436  0.00  0.00     0.049 C 
ATOM     18  C   LIG d   1       2.449  -0.943  -8.961  0.00  0.00    -0.075 C 
ATOM     19  H   LIG d   1       2.271  -0.680  -9.993  0.00  0.00     0.055 H 
ATOM     20  H   LIG d   1       1.643  -1.328  -8.353  0.00  0.00     0.055 H 
BRANCH  17  21
ATOM     21  N   LIG d   1       4.735  -0.406  -9.247  0.00  0.00    -0.263 N 
ATOM     22  H   LIG d   1       5.384  -1.063  -9.544  0.00  0.00     0.170 HD
BRANCH  21  23
ATOM     23  N   LIG d   1       4.867   0.934  -9.633  0.00  0.00    -0.221 N 
ATOM     24  C   LIG d   1       5.707   1.749  -8.964  0.00  0.00     0.313 C 
ATOM     25  O   LIG d   1       5.821   2.912  -9.300  0.00  0.00    -0.252 OA
ATOM     26  N   LIG d   1       6.419   1.274  -7.924  0.00  0.00    -0.312 N 
ATOM     27  H   LIG d   1       6.329   0.346  -7.657  0.00  0.00     0.146 HD
ATOM     28  H   LIG d   1       7.025   1.860  -7.443  0.00  0.00     0.146 HD
ATOM     29  H   LIG d   1       4.353   1.275 -10.382  0.00  0.00     0.174 HD
ENDBRANCH  21  23
ENDBRANCH  17  21
ENDBRANCH   1  17
BRANCH  10  30
ATOM     30  C   LIG d   1       5.272  -3.797  -4.893  0.00  0.00     0.011 C 
ATOM     31  H   LIG d   1       6.002  -3.639  -4.099  0.00  0.00     0.045 H 
ATOM     32  H   LIG d   1       4.494  -4.474  -4.542  0.00  0.00     0.045 H 
ATOM     33  H   LIG d   1       5.768  -4.232  -5.761  0.00  0.00     0.045 H 
ENDBRANCH  10  30
TORSDOF 4
ENDMDL
MODEL 4
REMARK VINA RESULT:      -6.0      4.303      6.432
REMARK  4 active torsions:
REMARK  status: ('A' for Active; 'I' for Inactive)
REMARK    1  A    between atoms: C_2  and  C_3 
REMARK    2  A    between atoms: C_2  and  N_16 
REMARK    3  A    between atoms: N_12  and  C_15 
REMARK    4  A    between atoms: N_16  and  N_17 
REMARK       I    between atoms: N_17  and  C_18 
REMARK       I    between atoms: C_18  and  N_20 
ROOT
ATOM      1  C   LIG d   1       7.862   0.116  -4.441  0.00  0.00     0.053 A 
ATOM      2  C   LIG d   1       6.790   0.695  -3.715  0.00  0.00     0.198 A 
ATOM      3  O   LIG d   1       6.779   1.885  -3.450  0.00  0.00    -0.286 OA
ATOM      4  C   LIG d   1       5.689  -0.188  -3.290  0.00  0.00     0.046 A 
ATOM      5  C   LIG d   1       4.601   0.310  -2.572  0.00  0.00    -0.049 A 
ATOM      6  C   LIG d   1       3.589  -0.542  -2.190  0.00  0.00    -0.061 A 
ATOM      7  C   LIG d   1       3.647  -1.890  -2.515  0.00  0.00    -0.060 A 
ATOM      8  C   LIG d   1       4.715  -2.397  -3.224  0.00  0.00    -0.037 A 
ATOM      9  C   LIG d   1       5.748  -1.553  -3.620  0.00  0.00     0.052 A 
ATOM     10  N   LIG d   1       6.825  -2.042  -4.330  0.00  0.00    -0.356 N 
ATOM     11  C   LIG d   1       7.841  -1.239  -4.731  0.00  0.00    -0.023 A 
ATOM     12  O   LIG d   1       8.864  -1.776  -5.428  0.00  0.00    -0.861 OA
ATOM     13  H   LIG d   1       4.554   1.359  -2.318  0.00  0.00     0.062 H 
ATOM     14  H   LIG d   1       2.746  -0.159  -1.635  0.00  0.00     0.062 H 
ATOM     15  H   LIG d   1       2.848  -2.548  -2.210  0.00  0.00     0.062 H 
ATOM     16  H   LIG d   1       4.750  -3.447  -3.470  0.00  0.00     0.064 H 
ENDROOT
BRANCH   1  17
ATOM     17  C   LIG d   1       8.992   0.956  -4.892  0.00  0.00     0.049 C 
ATOM     18  C   LIG d   1       9.079   1.326  -6.173  0.00  0.00    -0.075 C 
ATOM     19  H   LIG d   1       9.858   2.005  -6.487  0.00  0.00     0.055 H 
ATOM     20  H   LIG d   1       8.372   0.943  -6.895  0.00  0.00     0.055 H 
BRANCH  17  21
ATOM     21  N   LIG d   1       9.967   1.361  -3.982  0.00  0.00    -0.263 N 
ATOM     22  H   LIG d   1      10.776   0.836  -3.873  0.00  0.00     0.170 HD
BRANCH  21  23
ATOM     23  N   LIG d   1       9.780   2.525  -3.226  0.00  0.00    -0.221 N 
ATOM     24  C   LIG d   1      10.845   3.187  -2.733  0.00  0.00     0.313 C 
ATOM     25  O   LIG d   1      10.682   4.198  -2.076  0.00  0.00    -0.252 OA
ATOM     26  N   LIG d   1      12.091   2.729  -2.967  0.00  0.00    -0.312 N 
ATOM     27  H   LIG d   1      12.220   1.924  -3.492  0.00  0.00     0.146 HD
ATOM     28  H   LIG d   1      12.857   3.206  -2.613  0.00  0.00     0.146 HD
ATOM     29  H   LIG d   1       8.883   2.854  -3.057  0.00  0.00     0.174 HD
ENDBRANCH  21  23
ENDBRANCH  17  21
ENDBRANCH   1  17
BRANCH  10  30
ATOM     30  C   LIG d   1       6.870  -3.468  -4.665  0.00  0.00     0.011 C 
ATOM     31  H   LIG d   1       6.392  -4.043  -3.871  0.00  0.00     0.045 H 
ATOM     32  H   LIG d   1       6.344  -3.638  -5.603  0.00  0.00     0.045 H 
ATOM     33  H   LIG d   1       7.908  -3.785  -4.768  0.00  0.00     0.045 H 
ENDBRANCH  10  30
TORSDOF 4
ENDMDL
MODEL 5
REMARK VINA RESULT:      -6.0      2.233      5.437
REMARK  4 active torsions:
REMARK  status: ('A' for Active; 'I' for Inactive)
REMARK    1  A    between atoms: C_2  and  C_3 
REMARK    2  A    between atoms: C_2  and  N_16 
REMARK    3  A    between atoms: N_12  and  C_15 
REMARK    4  A    between atoms: N_16  and  N_17 
REMARK       I    between atoms: N_17  and  C_18 
REMARK       I    between atoms: C_18  and  N_20 
ROOT
ATOM      1  C   LIG d   1       3.944  -0.602  -4.878  0.00  0.00     0.053 A 
ATOM      2  C   LIG d   1       3.242   0.293  -5.726  0.00  0.00     0.198 A 
ATOM      3  O   LIG d   1       2.564   1.195  -5.265  0.00  0.00    -0.286 OA
ATOM      4  C   LIG d   1       3.360   0.098  -7.182  0.00  0.00     0.046 A 
ATOM      5  C   LIG d   1       2.699   0.939  -8.078  0.00  0.00    -0.049 A 
ATOM      6  C   LIG d   1       2.830   0.729  -9.433  0.00  0.00    -0.061 A 
ATOM      7  C   LIG d   1       3.614  -0.312  -9.908  0.00  0.00    -0.060 A 
ATOM      8  C   LIG d   1       4.273  -1.151  -9.036  0.00  0.00    -0.037 A 
ATOM      9  C   LIG d   1       4.155  -0.956  -7.663  0.00  0.00     0.052 A 
ATOM     10  N   LIG d   1       4.808  -1.786  -6.775  0.00  0.00    -0.356 N 
ATOM     11  C   LIG d   1       4.711  -1.613  -5.434  0.00  0.00    -0.023 A 
ATOM     12  O   LIG d   1       5.378  -2.454  -4.615  0.00  0.00    -0.861 OA
ATOM     13  H   LIG d   1       2.088   1.750  -7.710  0.00  0.00     0.062 H 
ATOM     14  H   LIG d   1       2.320   1.379 -10.128  0.00  0.00     0.062 H 
ATOM     15  H   LIG d   1       3.709  -0.467 -10.972  0.00  0.00     0.062 H 
ATOM     16  H   LIG d   1       4.880  -1.958  -9.417  0.00  0.00     0.064 H 
ENDROOT
BRANCH   1  17
ATOM     17  C   LIG d   1       3.861  -0.452  -3.410  0.00  0.00     0.049 C 
ATOM     18  C   LIG d   1       2.783  -0.889  -2.752  0.00  0.00    -0.075 C 
ATOM     19  H   LIG d   1       2.758  -0.853  -1.674  0.00  0.00     0.055 H 
ATOM     20  H   LIG d   1       1.936  -1.275  -3.301  0.00  0.00     0.055 H 
BRANCH  17  21
ATOM     21  N   LIG d   1       4.909   0.147  -2.710  0.00  0.00    -0.263 N 
ATOM     22  H   LIG d   1       5.151  -0.177  -1.828  0.00  0.00     0.170 HD
BRANCH  21  23
ATOM     23  N   LIG d   1       5.612   1.216  -3.281  0.00  0.00    -0.221 N 
ATOM     24  C   LIG d   1       6.881   1.041  -3.700  0.00  0.00     0.313 C 
ATOM     25  O   LIG d   1       7.491   1.969  -4.195  0.00  0.00    -0.252 OA
ATOM     26  N   LIG d   1       7.473  -0.163  -3.570  0.00  0.00    -0.312 N 
ATOM     27  H   LIG d   1       6.986  -0.903  -3.176  0.00  0.00     0.146 HD
ATOM     28  H   LIG d   1       8.386  -0.289  -3.872  0.00  0.00     0.146 HD
ATOM     29  H   LIG d   1       5.185   2.082  -3.374  0.00  0.00     0.174 HD
ENDBRANCH  21  23
ENDBRANCH  17  21
ENDBRANCH   1  17
BRANCH  10  30
ATOM     30  C   LIG d   1       5.632  -2.880  -7.294  0.00  0.00     0.011 C 
ATOM     31  H   LIG d   1       6.667  -2.736  -6.983  0.00  0.00     0.045 H 
ATOM     32  H   LIG d   1       5.264  -3.829  -6.904  0.00  0.00     0.045 H 
ATOM     33  H   LIG d   1       5.578  -2.890  -8.383  0.00  0.00     0.045 H 
ENDBRANCH  10  30
TORSDOF 4
ENDMDL
MODEL 6
REMARK VINA RESULT:      -6.0      2.219      2.735
REMARK  4 active torsions:
REMARK  status: ('A' for Active; 'I' for Inactive)
REMARK    1  A    between atoms: C_2  and  C_3 
REMARK    2  A    between atoms: C_2  and  N_16 
REMARK    3  A    between atoms: N_12  and  C_15 
REMARK    4  A    between atoms: N_16  and  N_17 
REMARK       I    between atoms: N_17  and  C_18 
REMARK       I    between atoms: C_18  and  N_20 
ROOT
ATOM      1  C   LIG d   1       3.590  -0.478  -6.794  0.00  0.00     0.053 A 
ATOM      2  C   LIG d   1       3.277   0.297  -5.649  0.00  0.00     0.198 A 
ATOM      3  O   LIG d   1       2.678   1.354  -5.749  0.00  0.00    -0.286 OA
ATOM      4  C   LIG d   1       3.698  -0.215  -4.332  0.00  0.00     0.046 A 
ATOM      5  C   LIG d   1       3.425   0.492  -3.161  0.00  0.00    -0.049 A 
ATOM      6  C   LIG d   1       3.832  -0.015  -1.948  0.00  0.00    -0.061 A 
ATOM      7  C   LIG d   1       4.512  -1.223  -1.886  0.00  0.00    -0.060 A 
ATOM      8  C   LIG d   1       4.789  -1.934  -3.034  0.00  0.00    -0.037 A 
ATOM      9  C   LIG d   1       4.386  -1.440  -4.270  0.00  0.00     0.052 A 
ATOM     10  N   LIG d   1       4.654  -2.137  -5.430  0.00  0.00    -0.356 N 
ATOM     11  C   LIG d   1       4.267  -1.678  -6.645  0.00  0.00    -0.023 A 
ATOM     12  O   LIG d   1       4.553  -2.409  -7.743  0.00  0.00    -0.861 OA
ATOM     13  H   LIG d   1       2.896   1.433  -3.208  0.00  0.00     0.062 H 
ATOM     14  H   LIG d   1       3.622   0.531  -1.040  0.00  0.00     0.062 H 
ATOM     15  H   LIG d   1       4.827  -1.610  -0.929  0.00  0.00     0.062 H 
ATOM     16  H   LIG d   1       5.319  -2.872  -2.973  0.00  0.00     0.064 H 
ENDROOT
BRANCH   1  17
ATOM     17  C   LIG d   1       3.191  -0.011  -8.138  0.00  0.00     0.049 C 
ATOM     18  C   LIG d   1       3.895   0.946  -8.750  0.00  0.00    -0.075 C 
ATOM     19  H   LIG d   1       3.652   1.229  -9.763  0.00  0.00     0.055 H 
ATOM     20  H   LIG d   1       4.704   1.437  -8.230  0.00  0.00     0.055 H 
BRANCH  17  21
ATOM     21  N   LIG d   1       2.078  -0.568  -8.768  0.00  0.00    -0.263 N 
ATOM     22  H   LIG d   1       1.215  -0.129  -8.705  0.00  0.00     0.170 HD
BRANCH  21  23
ATOM     23  N   LIG d   1       2.206  -1.761  -9.492  0.00  0.00    -0.221 N 
ATOM     24  C   LIG d   1       1.487  -1.949 -10.616  0.00  0.00     0.313 C 
ATOM     25  O   LIG d   1       1.598  -2.984 -11.243  0.00  0.00    -0.252 OA
ATOM     26  N   LIG d   1       0.643  -0.989 -11.043  0.00  0.00    -0.312 N 
ATOM     27  H   LIG d   1       0.555  -0.162 -10.543  0.00  0.00     0.146 HD
ATOM     28  H   LIG d   1       0.126  -1.123 -11.852  0.00  0.00     0.146 HD
ATOM     29  H   LIG d   1       2.814  -2.452  -9.183  0.00  0.00     0.174 HD
ENDBRANCH  21  23
ENDBRANCH  17  21
ENDBRANCH   1  17
BRANCH  10  30
ATOM     30  C   LIG d   1       5.372  -3.412  -5.345  0.00  0.00     0.011 C 
ATOM     31  H   LIG d   1       4.936  -4.023  -4.555  0.00  0.00     0.045 H 
ATOM     32  H   LIG d   1       5.293  -3.937  -6.296  0.00  0.00     0.045 H 
ATOM     33  H   LIG d   1       6.422  -3.222  -5.121  0.00  0.00     0.045 H 
ENDBRANCH  10  30
TORSDOF 4
ENDMDL
MODEL 7
REMARK VINA RESULT:      -5.8      3.397      4.479
REMARK  4 active torsions:
REMARK  status: ('A' for Active; 'I' for Inactive)
REMARK    1  A    between atoms: C_2  and  C_3 
REMARK    2  A    between atoms: C_2  and  N_16 
REMARK    3  A    between atoms: N_12  and  C_15 
REMARK    4  A    between atoms: N_16  and  N_17 
REMARK       I    between atoms: N_17  and  C_18 
REMARK       I    between atoms: C_18  and  N_20 
ROOT
ATOM      1  C   LIG d   1       6.618  -2.513  -4.490  0.00  0.00     0.053 A 
ATOM      2  C   LIG d   1       5.289  -2.467  -3.999  0.00  0.00     0.198 A 
ATOM      3  O   LIG d   1       4.564  -3.446  -4.051  0.00  0.00    -0.286 OA
ATOM      4  C   LIG d   1       4.810  -1.198  -3.422  0.00  0.00     0.046 A 
ATOM      5  C   LIG d   1       3.514  -1.077  -2.920  0.00  0.00    -0.049 A 
ATOM      6  C   LIG d   1       3.098   0.123  -2.388  0.00  0.00    -0.061 A 
ATOM      7  C   LIG d   1       3.961   1.209  -2.351  0.00  0.00    -0.060 A 
ATOM      8  C   LIG d   1       5.244   1.106  -2.844  0.00  0.00    -0.037 A 
ATOM      9  C   LIG d   1       5.684  -0.098  -3.385  0.00  0.00     0.052 A 
ATOM     10  N   LIG d   1       6.966  -0.221  -3.882  0.00  0.00    -0.356 N 
ATOM     11  C   LIG d   1       7.418  -1.384  -4.410  0.00  0.00    -0.023 A 
ATOM     12  O   LIG d   1       8.683  -1.444  -4.875  0.00  0.00    -0.861 OA
ATOM     13  H   LIG d   1       2.841  -1.921  -2.947  0.00  0.00     0.062 H 
ATOM     14  H   LIG d   1       2.096   0.219  -1.998  0.00  0.00     0.062 H 
ATOM     15  H   LIG d   1       3.624   2.146  -1.933  0.00  0.00     0.062 H 
ATOM     16  H   LIG d   1       5.906   1.958  -2.811  0.00  0.00     0.064 H 
ENDROOT
BRANCH   1  17
ATOM     17  C   LIG d   1       7.150  -3.761  -5.077  0.00  0.00     0.049 C 
ATOM     18  C   LIG d   1       6.768  -4.140  -6.300  0.00  0.00    -0.075 C 
ATOM     19  H   LIG d   1       7.217  -5.007  -6.761  0.00  0.00     0.055 H 
ATOM     20  H   LIG d   1       6.008  -3.581  -6.825  0.00  0.00     0.055 H 
BRANCH  17  21
ATOM     21  N   LIG d   1       8.050  -4.544  -4.354  0.00  0.00    -0.263 N 
ATOM     22  H   LIG d   1       7.737  -5.075  -3.604  0.00  0.00     0.170 HD
BRANCH  21  23
ATOM     23  N   LIG d   1       9.404  -4.567  -4.711  0.00  0.00    -0.221 N 
ATOM     24  C   LIG d   1      10.332  -4.072  -3.868  0.00  0.00     0.313 C 
ATOM     25  O   LIG d   1      11.507  -4.091  -4.179  0.00  0.00    -0.252 OA
ATOM     26  N   LIG d   1       9.956  -3.555  -2.682  0.00  0.00    -0.312 N 
ATOM     27  H   LIG d   1       9.019  -3.541  -2.434  0.00  0.00     0.146 HD
ATOM     28  H   LIG d   1      10.624  -3.199  -2.074  0.00  0.00     0.146 HD
ATOM     29  H   LIG d   1       9.674  -4.939  -5.566  0.00  0.00     0.174 HD
ENDBRANCH  21  23
ENDBRANCH  17  21
ENDBRANCH   1  17
BRANCH  10  30
ATOM     30  C   LIG d   1       7.863   0.937  -3.835  0.00  0.00     0.011 C 
ATOM     31  H   LIG d   1       7.336   1.820  -4.197  0.00  0.00     0.045 H 
ATOM     32  H   LIG d   1       8.187   1.103  -2.809  0.00  0.00     0.045 H 
ATOM     33  H   LIG d   1       8.732   0.749  -4.466  0.00  0.00     0.045 H 
ENDBRANCH  10  30
TORSDOF 4
ENDMDL
MODEL 8
REMARK VINA RESULT:      -5.7      2.519      5.069
REMARK  4 active torsions:
REMARK  status: ('A' for Active; 'I' for Inactive)
REMARK    1  A    between atoms: C_2  and  C_3 
REMARK    2  A    between atoms: C_2  and  N_16 
REMARK    3  A    between atoms: N_12  and  C_15 
REMARK    4  A    between atoms: N_16  and  N_17 
REMARK       I    between atoms: N_17  and  C_18 
REMARK       I    between atoms: C_18  and  N_20 
ROOT
ATOM      1  C   LIG d   1       5.010  -1.293  -4.081  0.00  0.00     0.053 A 
ATOM      2  C   LIG d   1       5.196  -2.686  -4.266  0.00  0.00     0.198 A 
ATOM      3  O   LIG d   1       4.293  -3.476  -4.048  0.00  0.00    -0.286 OA
ATOM      4  C   LIG d   1       6.515  -3.150  -4.733  0.00  0.00     0.046 A 
ATOM      5  C   LIG d   1       6.772  -4.506  -4.937  0.00  0.00    -0.049 A 
ATOM      6  C   LIG d   1       8.015  -4.906  -5.373  0.00  0.00    -0.061 A 
ATOM      7  C   LIG d   1       9.010  -3.968  -5.608  0.00  0.00    -0.060 A 
ATOM      8  C   LIG d   1       8.772  -2.625  -5.410  0.00  0.00    -0.037 A 
ATOM      9  C   LIG d   1       7.523  -2.200  -4.971  0.00  0.00     0.052 A 
ATOM     10  N   LIG d   1       7.265  -0.859  -4.768  0.00  0.00    -0.356 N 
ATOM     11  C   LIG d   1       6.054  -0.421  -4.344  0.00  0.00    -0.023 A 
ATOM     12  O   LIG d   1       5.862   0.903  -4.169  0.00  0.00    -0.861 OA
ATOM     13  H   LIG d   1       5.999  -5.238  -4.755  0.00  0.00     0.062 H 
ATOM     14  H   LIG d   1       8.216  -5.955  -5.533  0.00  0.00     0.062 H 
ATOM     15  H   LIG d   1       9.982  -4.293  -5.949  0.00  0.00     0.062 H 
ATOM     16  H   LIG d   1       9.554  -1.905  -5.595  0.00  0.00     0.064 H 
ENDROOT
BRANCH   1  17
ATOM     17  C   LIG d   1       3.706  -0.773  -3.616  0.00  0.00     0.049 C 
ATOM     18  C   LIG d   1       3.491  -0.578  -2.312  0.00  0.00    -0.075 C 
ATOM     19  H   LIG d   1       2.571  -0.123  -1.979  0.00  0.00     0.055 H 
ATOM     20  H   LIG d   1       4.238  -0.878  -1.591  0.00  0.00     0.055 H 
BRANCH  17  21
ATOM     21  N   LIG d   1       2.700  -0.488  -4.539  0.00  0.00    -0.263 N 
ATOM     22  H   LIG d   1       1.911  -1.051  -4.585  0.00  0.00     0.170 HD
BRANCH  21  23
ATOM     23  N   LIG d   1       2.828   0.611  -5.398  0.00  0.00    -0.221 N 
ATOM     24  C   LIG d   1       3.059   0.418  -6.712  0.00  0.00     0.313 C 
ATOM     25  O   LIG d   1       3.170   1.373  -7.456  0.00  0.00    -0.252 OA
ATOM     26  N   LIG d   1       3.168  -0.834  -7.198  0.00  0.00    -0.312 N 
ATOM     27  H   LIG d   1       3.078  -1.595  -6.604  0.00  0.00     0.146 HD
ATOM     28  H   LIG d   1       3.333  -0.974  -8.144  0.00  0.00     0.146 HD
ATOM     29  H   LIG d   1       2.749   1.513  -5.046  0.00  0.00     0.174 HD
ENDBRANCH  21  23
ENDBRANCH  17  21
ENDBRANCH   1  17
BRANCH  10  30
ATOM     30  C   LIG d   1       8.328   0.117  -5.021  0.00  0.00     0.011 C 
ATOM     31  H   LIG d   1       9.277  -0.277  -4.658  0.00  0.00     0.045 H 
ATOM     32  H   LIG d   1       8.399   0.307  -6.091  0.00  0.00     0.045 H 
ATOM     33  H   LIG d   1       8.098   1.047  -4.500  0.00  0.00     0.045 H 
ENDBRANCH  10  30
TORSDOF 4
ENDMDL
MODEL 9
REMARK VINA RESULT:      -5.6     10.807     12.900
REMARK  4 active torsions:
REMARK  status: ('A' for Active; 'I' for Inactive)
REMARK    1  A    between atoms: C_2  and  C_3 
REMARK    2  A    between atoms: C_2  and  N_16 
REMARK    3  A    between atoms: N_12  and  C_15 
REMARK    4  A    between atoms: N_16  and  N_17 
REMARK       I    between atoms: N_17  and  C_18 
REMARK       I    between atoms: C_18  and  N_20 
ROOT
ATOM      1  C   LIG d   1      10.316   8.485  -3.430  0.00  0.00     0.053 A 
ATOM      2  C   LIG d   1      10.684   9.037  -2.177  0.00  0.00     0.198 A 
ATOM      3  O   LIG d   1      10.876  10.234  -2.049  0.00  0.00    -0.286 OA
ATOM      4  C   LIG d   1      10.826   8.119  -1.033  0.00  0.00     0.046 A 
ATOM      5  C   LIG d   1      11.185   8.590   0.230  0.00  0.00    -0.049 A 
ATOM      6  C   LIG d   1      11.310   7.705   1.278  0.00  0.00    -0.061 A 
ATOM      7  C   LIG d   1      11.080   6.350   1.081  0.00  0.00    -0.060 A 
ATOM      8  C   LIG d   1      10.725   5.870  -0.160  0.00  0.00    -0.037 A 
ATOM      9  C   LIG d   1      10.593   6.747  -1.232  0.00  0.00     0.052 A 
ATOM     10  N   LIG d   1      10.238   6.284  -2.483  0.00  0.00    -0.356 N 
ATOM     11  C   LIG d   1      10.099   7.120  -3.540  0.00  0.00    -0.023 A 
ATOM     12  O   LIG d   1       9.744   6.609  -4.737  0.00  0.00    -0.861 OA
ATOM     13  H   LIG d   1      11.365   9.644   0.385  0.00  0.00     0.062 H 
ATOM     14  H   LIG d   1      11.587   8.067   2.256  0.00  0.00     0.062 H 
ATOM     15  H   LIG d   1      11.182   5.666   1.910  0.00  0.00     0.062 H 
ATOM     16  H   LIG d   1      10.550   4.814  -0.301  0.00  0.00     0.064 H 
ENDROOT
BRANCH   1  17
ATOM     17  C   LIG d   1      10.159   9.361  -4.610  0.00  0.00     0.049 C 
ATOM     18  C   LIG d   1      11.107   9.391  -5.551  0.00  0.00    -0.075 C 
ATOM     19  H   LIG d   1      10.956   9.968  -6.451  0.00  0.00     0.055 H 
ATOM     20  H   LIG d   1      12.026   8.842  -5.409  0.00  0.00     0.055 H 
BRANCH  17  21
ATOM     21  N   LIG d   1       9.021  10.156  -4.742  0.00  0.00    -0.263 N 
ATOM     22  H   LIG d   1       8.175   9.754  -4.997  0.00  0.00     0.170 HD
BRANCH  21  23
ATOM     23  N   LIG d   1       9.097  11.534  -4.505  0.00  0.00    -0.221 N 
ATOM     24  C   LIG d   1       8.496  12.068  -3.423  0.00  0.00     0.313 C 
ATOM     25  O   LIG d   1       8.563  13.264  -3.218  0.00  0.00    -0.252 OA
ATOM     26  N   LIG d   1       7.820  11.274  -2.569  0.00  0.00    -0.312 N 
ATOM     27  H   LIG d   1       7.768  10.319  -2.733  0.00  0.00     0.146 HD
ATOM     28  H   LIG d   1       7.388  11.657  -1.790  0.00  0.00     0.146 HD
ATOM     29  H   LIG d   1       9.584  12.106  -5.120  0.00  0.00     0.174 HD
ENDBRANCH  21  23
ENDBRANCH  17  21
ENDBRANCH   1  17
BRANCH  10  30
ATOM     30  C   LIG d   1       9.999   4.851  -2.671  0.00  0.00     0.011 C 
ATOM     31  H   LIG d   1      10.568   4.288  -1.931  0.00  0.00     0.045 H 
ATOM     32  H   LIG d   1       8.937   4.641  -2.550  0.00  0.00     0.045 H 
ATOM     33  H   LIG d   1      10.317   4.559  -3.673  0.00  0.00     0.045 H 
ENDBRANCH  10  30
TORSDOF 4
ENDMDL
