MODEL 1
REMARK VINA RESULT:      -6.4      0.000      0.000
REMARK  12 active torsions:
REMARK  status: ('A' for Active; 'I' for Inactive)
REMARK    1  A    between atoms: C_1  and  C_2 
REMARK    2  A    between atoms: C_2  and  C_3 
REMARK    3  A    between atoms: C_2  and  C_4 
REMARK    4  A    between atoms: C_4  and  C_5 
REMARK    5  A    between atoms: C_5  and  C_7 
REMARK    6  A    between atoms: C_5  and  N_10 
REMARK       I    between atoms: C_7  and  N_9 
REMARK       I    between atoms: N_10  and  C_11 
REMARK    7  A    between atoms: C_11  and  C_13 
REMARK    8  A    between atoms: C_16  and  N_28 
REMARK       I    between atoms: N_19  and  C_20 
REMARK    9  A    between atoms: C_20  and  C_22 
REMARK   10  A    between atoms: N_26  and  C_27 
REMARK       I    between atoms: N_28  and  C_29 
REMARK   11  A    between atoms: C_29  and  C_31 
REMARK   12  A    between atoms: N_35  and  C_36 
ROOT
ATOM      1  C   LIG d   1       7.790  -0.096  -4.491  0.00  0.00     0.104 C 
ATOM      2  H   LIG d   1       8.447  -0.877  -4.109  0.00  0.00     0.060 H 
ATOM      3  C   LIG d   1       7.850   1.154  -3.577  0.00  0.00    -0.006 C 
ATOM      4  C   LIG d   1       9.135   1.855  -4.093  0.00  0.00     0.041 C 
ATOM      5  H   LIG d   1      10.023   1.419  -3.635  0.00  0.00     0.051 H 
ATOM      6  C   LIG d   1       9.103   1.564  -5.608  0.00  0.00     0.034 C 
ATOM      7  N   LIG d   1       8.260   0.376  -5.806  0.00  0.00    -0.283 N 
ATOM      8  C   LIG d   1       7.965  -0.189  -6.994  0.00  0.00     0.264 C 
ATOM      9  O   LIG d   1       7.199  -1.133  -7.045  0.00  0.00    -0.268 OA
ATOM     10  H   LIG d   1       6.974   1.787  -3.722  0.00  0.00     0.031 H 
ATOM     11  H   LIG d   1       7.954   0.868  -2.531  0.00  0.00     0.031 H 
ATOM     12  H   LIG d   1       8.678   2.414  -6.141  0.00  0.00     0.048 H 
ATOM     13  H   LIG d   1      10.113   1.365  -5.969  0.00  0.00     0.048 H 
ENDROOT
BRANCH   1  14
ATOM     14  C   LIG d   1       6.375  -0.604  -4.591  0.00  0.00     0.234 C 
ATOM     15  N   LIG d   1       5.374   0.245  -4.897  0.00  0.00    -0.302 N 
ATOM     16  H   LIG d   1       5.564   1.184  -5.052  0.00  0.00     0.149 HD
ATOM     17  O   LIG d   1       6.136  -1.777  -4.397  0.00  0.00    -0.274 OA
BRANCH  15  18
ATOM     18  C   LIG d   1       3.998  -0.249  -4.994  0.00  0.00     0.099 C 
ATOM     19  H   LIG d   1       3.955  -1.277  -4.633  0.00  0.00     0.059 H 
BRANCH  18  20
ATOM     20  C   LIG d   1       3.080   0.629  -4.140  0.00  0.00    -0.024 C 
ATOM     21  H   LIG d   1       2.071   0.610  -4.555  0.00  0.00     0.029 H 
ATOM     22  H   LIG d   1       3.454   1.653  -4.141  0.00  0.00     0.029 H 
BRANCH  20  23
ATOM     23  C   LIG d   1       3.051   0.097  -2.707  0.00  0.00    -0.045 C 
ATOM     24  H   LIG d   1       2.092   0.341  -2.248  0.00  0.00     0.030 H 
BRANCH  23  25
ATOM     25  C   LIG d   1       3.237  -1.422  -2.723  0.00  0.00    -0.063 C 
ATOM     26  H   LIG d   1       2.620  -1.855  -3.511  0.00  0.00     0.023 H 
ATOM     27  H   LIG d   1       4.284  -1.658  -2.909  0.00  0.00     0.023 H 
ATOM     28  H   LIG d   1       2.937  -1.835  -1.759  0.00  0.00     0.023 H 
ENDBRANCH  23  25
BRANCH  23  29
ATOM     29  C   LIG d   1       4.181   0.741  -1.900  0.00  0.00    -0.063 C 
ATOM     30  H   LIG d   1       4.581   0.014  -1.193  0.00  0.00     0.023 H 
ATOM     31  H   LIG d   1       4.971   1.064  -2.576  0.00  0.00     0.023 H 
ATOM     32  H   LIG d   1       3.793   1.601  -1.356  0.00  0.00     0.023 H 
ENDBRANCH  23  29
ENDBRANCH  20  23
ENDBRANCH  18  20
BRANCH  18  33
ATOM     33  C   LIG d   1       3.547  -0.200  -6.430  0.00  0.00     0.231 C 
ATOM     34  O   LIG d   1       3.173   0.848  -6.913  0.00  0.00    -0.274 OA
ATOM     35  N   LIG d   1       3.560  -1.321  -7.179  0.00  0.00    -0.328 N 
ATOM     36  H   LIG d   1       3.859  -2.159  -6.792  0.00  0.00     0.145 HD
ATOM     37  H   LIG d   1       3.270  -1.290  -8.105  0.00  0.00     0.145 HD
ENDBRANCH  18  33
ENDBRANCH  15  18
ENDBRANCH   1  14
BRANCH   8  38
ATOM     38  C   LIG d   1       8.568   0.334  -8.224  0.00  0.00     0.104 A 
ATOM     39  N   LIG d   1       8.032   1.298  -9.047  0.00  0.00    -0.346 N 
ATOM     40  C   LIG d   1       8.885   1.512 -10.078  0.00  0.00     0.005 A 
ATOM     41  C   LIG d   1       9.956   0.695  -9.937  0.00  0.00    -0.043 A 
ATOM     42  H   LIG d   1       8.734   2.215 -10.884  0.00  0.00     0.081 H 
ATOM     43  C   LIG d   1       9.772  -0.056  -8.772  0.00  0.00    -0.032 A 
ATOM     44  H   LIG d   1      10.803   0.635 -10.606  0.00  0.00     0.063 H 
ATOM     45  H   LIG d   1      10.447  -0.800  -8.375  0.00  0.00     0.064 H 
BRANCH  39  46
ATOM     46  C   LIG d   1       6.753   1.983  -8.841  0.00  0.00     0.012 C 
ATOM     47  H   LIG d   1       5.935   1.315  -9.114  0.00  0.00     0.046 H 
ATOM     48  H   LIG d   1       6.657   2.265  -7.794  0.00  0.00     0.046 H 
ATOM     49  H   LIG d   1       6.715   2.877  -9.464  0.00  0.00     0.046 H 
ENDBRANCH  39  46
ENDBRANCH   8  38
BRANCH   4  50
ATOM     50  N   LIG d   1       9.076   3.297  -3.838  0.00  0.00    -0.306 N 
ATOM     51  C   LIG d   1      10.024   3.886  -3.082  0.00  0.00     0.261 C 
ATOM     52  O   LIG d   1      10.876   3.209  -2.539  0.00  0.00    -0.269 OA
ATOM     53  H   LIG d   1       8.356   3.827  -4.212  0.00  0.00     0.149 HD
BRANCH  51  54
ATOM     54  C   LIG d   1      10.027   5.343  -2.915  0.00  0.00     0.104 A 
ATOM     55  N   LIG d   1      10.303   6.273  -3.892  0.00  0.00    -0.346 N 
ATOM     56  C   LIG d   1      10.204   7.512  -3.351  0.00  0.00     0.005 A 
ATOM     57  C   LIG d   1       9.870   7.394  -2.043  0.00  0.00    -0.043 A 
ATOM     58  H   LIG d   1      10.367   8.441  -3.876  0.00  0.00     0.081 H 
ATOM     59  C   LIG d   1       9.748   6.031  -1.754  0.00  0.00    -0.032 A 
ATOM     60  H   LIG d   1       9.720   8.208  -1.351  0.00  0.00     0.063 H 
ATOM     61  H   LIG d   1       9.486   5.600  -0.799  0.00  0.00     0.064 H 
BRANCH  55  62
ATOM     62  C   LIG d   1      10.647   5.974  -5.284  0.00  0.00     0.012 C 
ATOM     63  H   LIG d   1      11.630   6.385  -5.513  0.00  0.00     0.046 H 
ATOM     64  H   LIG d   1      10.662   4.894  -5.431  0.00  0.00     0.046 H 
ATOM     65  H   LIG d   1       9.904   6.420  -5.945  0.00  0.00     0.046 H 
ENDBRANCH  55  62
ENDBRANCH  51  54
ENDBRANCH   4  50
TORSDOF 12
ENDMDL
MODEL 2
REMARK VINA RESULT:      -6.4      5.626      9.769
REMARK  12 active torsions:
REMARK  status: ('A' for Active; 'I' for Inactive)
REMARK    1  A    between atoms: C_1  and  C_2 
REMARK    2  A    between atoms: C_2  and  C_3 
REMARK    3  A    between atoms: C_2  and  C_4 
REMARK    4  A    between atoms: C_4  and  C_5 
REMARK    5  A    between atoms: C_5  and  C_7 
REMARK    6  A    between atoms: C_5  and  N_10 
REMARK       I    between atoms: C_7  and  N_9 
REMARK       I    between atoms: N_10  and  C_11 
REMARK    7  A    between atoms: C_11  and  C_13 
REMARK    8  A    between atoms: C_16  and  N_28 
REMARK       I    between atoms: N_19  and  C_20 
REMARK    9  A    between atoms: C_20  and  C_22 
REMARK   10  A    between atoms: N_26  and  C_27 
REMARK       I    between atoms: N_28  and  C_29 
REMARK   11  A    between atoms: C_29  and  C_31 
REMARK   12  A    between atoms: N_35  and  C_36 
ROOT
ATOM      1  C   LIG d   1       5.401  -3.954  -5.803  0.00  0.00     0.104 C 
ATOM      2  H   LIG d   1       5.494  -3.618  -6.835  0.00  0.00     0.060 H 
ATOM      3  C   LIG d   1       4.728  -5.349  -5.749  0.00  0.00    -0.006 C 
ATOM      4  C   LIG d   1       5.930  -6.286  -6.042  0.00  0.00     0.041 C 
ATOM      5  H   LIG d   1       6.108  -6.362  -7.115  0.00  0.00     0.051 H 
ATOM      6  C   LIG d   1       7.104  -5.570  -5.342  0.00  0.00     0.034 C 
ATOM      7  N   LIG d   1       6.732  -4.155  -5.203  0.00  0.00    -0.283 N 
ATOM      8  C   LIG d   1       7.485  -3.198  -4.625  0.00  0.00     0.264 C 
ATOM      9  O   LIG d   1       7.046  -2.069  -4.503  0.00  0.00    -0.268 OA
ATOM     10  H   LIG d   1       4.312  -5.544  -4.760  0.00  0.00     0.031 H 
ATOM     11  H   LIG d   1       3.962  -5.444  -6.518  0.00  0.00     0.031 H 
ATOM     12  H   LIG d   1       7.273  -6.008  -4.359  0.00  0.00     0.048 H 
ATOM     13  H   LIG d   1       8.007  -5.659  -5.949  0.00  0.00     0.048 H 
ENDROOT
BRANCH   1  14
ATOM     14  C   LIG d   1       4.608  -2.958  -4.997  0.00  0.00     0.234 C 
ATOM     15  N   LIG d   1       4.399  -1.716  -5.478  0.00  0.00    -0.302 N 
ATOM     16  H   LIG d   1       4.760  -1.464  -6.343  0.00  0.00     0.149 HD
ATOM     17  O   LIG d   1       4.157  -3.272  -3.917  0.00  0.00    -0.274 OA
BRANCH  15  18
ATOM     18  C   LIG d   1       3.628  -0.747  -4.695  0.00  0.00     0.099 C 
ATOM     19  H   LIG d   1       2.890  -1.275  -4.090  0.00  0.00     0.059 H 
BRANCH  18  20
ATOM     20  C   LIG d   1       4.572   0.035  -3.780  0.00  0.00    -0.024 C 
ATOM     21  H   LIG d   1       4.639   1.068  -4.125  0.00  0.00     0.029 H 
ATOM     22  H   LIG d   1       5.562  -0.421  -3.805  0.00  0.00     0.029 H 
BRANCH  20  23
ATOM     23  C   LIG d   1       4.034   0.010  -2.349  0.00  0.00    -0.045 C 
ATOM     24  H   LIG d   1       2.943  -0.004  -2.371  0.00  0.00     0.030 H 
BRANCH  23  25
ATOM     25  C   LIG d   1       4.546  -1.242  -1.633  0.00  0.00    -0.063 C 
ATOM     26  H   LIG d   1       4.294  -2.124  -2.220  0.00  0.00     0.023 H 
ATOM     27  H   LIG d   1       5.627  -1.177  -1.517  0.00  0.00     0.023 H 
ATOM     28  H   LIG d   1       4.078  -1.314  -0.650  0.00  0.00     0.023 H 
ENDBRANCH  23  25
BRANCH  23  29
ATOM     29  C   LIG d   1       4.512   1.257  -1.601  0.00  0.00    -0.063 C 
ATOM     30  H   LIG d   1       3.779   2.055  -1.722  0.00  0.00     0.023 H 
ATOM     31  H   LIG d   1       4.626   1.025  -0.543  0.00  0.00     0.023 H 
ATOM     32  H   LIG d   1       5.470   1.579  -2.009  0.00  0.00     0.023 H 
ENDBRANCH  23  29
ENDBRANCH  20  23
ENDBRANCH  18  20
BRANCH  18  33
ATOM     33  C   LIG d   1       2.926   0.207  -5.627  0.00  0.00     0.231 C 
ATOM     34  O   LIG d   1       2.646   1.325  -5.251  0.00  0.00    -0.274 OA
ATOM     35  N   LIG d   1       2.612  -0.183  -6.878  0.00  0.00    -0.328 N 
ATOM     36  H   LIG d   1       2.836  -1.078  -7.179  0.00  0.00     0.145 HD
ATOM     37  H   LIG d   1       2.161   0.432  -7.479  0.00  0.00     0.145 HD
ENDBRANCH  18  33
ENDBRANCH  15  18
ENDBRANCH   1  14
BRANCH   8  38
ATOM     38  C   LIG d   1       8.832  -3.517  -4.140  0.00  0.00     0.104 A 
ATOM     39  N   LIG d   1       9.999  -3.428  -4.862  0.00  0.00    -0.346 N 
ATOM     40  C   LIG d   1      11.031  -3.806  -4.069  0.00  0.00     0.005 A 
ATOM     41  C   LIG d   1      10.545  -4.145  -2.851  0.00  0.00    -0.043 A 
ATOM     42  H   LIG d   1      12.070  -3.837  -4.361  0.00  0.00     0.081 H 
ATOM     43  C   LIG d   1       9.158  -3.969  -2.879  0.00  0.00    -0.032 A 
ATOM     44  H   LIG d   1      11.126  -4.489  -2.008  0.00  0.00     0.063 H 
ATOM     45  H   LIG d   1       8.472  -4.151  -2.064  0.00  0.00     0.064 H 
BRANCH  39  46
ATOM     46  C   LIG d   1      10.110  -2.994  -6.258  0.00  0.00     0.012 C 
ATOM     47  H   LIG d   1       9.113  -2.820  -6.664  0.00  0.00     0.046 H 
ATOM     48  H   LIG d   1      10.689  -2.072  -6.307  0.00  0.00     0.046 H 
ATOM     49  H   LIG d   1      10.610  -3.768  -6.840  0.00  0.00     0.046 H 
ENDBRANCH  39  46
ENDBRANCH   8  38
BRANCH   4  50
ATOM     50  N   LIG d   1       5.707  -7.612  -5.460  0.00  0.00    -0.306 N 
ATOM     51  C   LIG d   1       4.862  -8.476  -6.058  0.00  0.00     0.261 C 
ATOM     52  O   LIG d   1       4.219  -8.125  -7.029  0.00  0.00    -0.269 OA
ATOM     53  H   LIG d   1       6.165  -7.868  -4.645  0.00  0.00     0.149 HD
BRANCH  51  54
ATOM     54  C   LIG d   1       4.720  -9.840  -5.538  0.00  0.00     0.104 A 
ATOM     55  N   LIG d   1       5.122 -10.997  -6.169  0.00  0.00    -0.346 N 
ATOM     56  C   LIG d   1       4.820 -12.051  -5.371  0.00  0.00     0.005 A 
ATOM     57  C   LIG d   1       4.231 -11.592  -4.241  0.00  0.00    -0.043 A 
ATOM     58  H   LIG d   1       5.015 -13.088  -5.601  0.00  0.00     0.081 H 
ATOM     59  C   LIG d   1       4.166 -10.197  -4.328  0.00  0.00    -0.032 A 
ATOM     60  H   LIG d   1       3.879 -12.195  -3.418  0.00  0.00     0.063 H 
ATOM     61  H   LIG d   1       3.757  -9.528  -3.587  0.00  0.00     0.064 H 
BRANCH  55  62
ATOM     62  C   LIG d   1       5.767 -11.075  -7.480  0.00  0.00     0.012 C 
ATOM     63  H   LIG d   1       6.640 -11.726  -7.418  0.00  0.00     0.046 H 
ATOM     64  H   LIG d   1       5.064 -11.479  -8.209  0.00  0.00     0.046 H 
ATOM     65  H   LIG d   1       6.080 -10.078  -7.792  0.00  0.00     0.046 H 
ENDBRANCH  55  62
ENDBRANCH  51  54
ENDBRANCH   4  50
TORSDOF 12
ENDMDL
MODEL 3
REMARK VINA RESULT:      -6.3      2.950      8.453
REMARK  12 active torsions:
REMARK  status: ('A' for Active; 'I' for Inactive)
REMARK    1  A    between atoms: C_1  and  C_2 
REMARK    2  A    between atoms: C_2  and  C_3 
REMARK    3  A    between atoms: C_2  and  C_4 
REMARK    4  A    between atoms: C_4  and  C_5 
REMARK    5  A    between atoms: C_5  and  C_7 
REMARK    6  A    between atoms: C_5  and  N_10 
REMARK       I    between atoms: C_7  and  N_9 
REMARK       I    between atoms: N_10  and  C_11 
REMARK    7  A    between atoms: C_11  and  C_13 
REMARK    8  A    between atoms: C_16  and  N_28 
REMARK       I    between atoms: N_19  and  C_20 
REMARK    9  A    between atoms: C_20  and  C_22 
REMARK   10  A    between atoms: N_26  and  C_27 
REMARK       I    between atoms: N_28  and  C_29 
REMARK   11  A    between atoms: C_29  and  C_31 
REMARK   12  A    between atoms: N_35  and  C_36 
ROOT
ATOM      1  C   LIG d   1      10.426   3.792  -5.735  0.00  0.00     0.104 C 
ATOM      2  H   LIG d   1      11.311   3.156  -5.706  0.00  0.00     0.060 H 
ATOM      3  C   LIG d   1       9.148   2.929  -5.882  0.00  0.00    -0.006 C 
ATOM      4  C   LIG d   1       8.898   2.490  -4.414  0.00  0.00     0.041 C 
ATOM      5  H   LIG d   1       9.510   1.625  -4.160  0.00  0.00     0.051 H 
ATOM      6  C   LIG d   1       9.339   3.728  -3.605  0.00  0.00     0.034 C 
ATOM      7  N   LIG d   1      10.258   4.500  -4.453  0.00  0.00    -0.283 N 
ATOM      8  C   LIG d   1      10.849   5.663  -4.116  0.00  0.00     0.264 C 
ATOM      9  O   LIG d   1      11.540   6.252  -4.926  0.00  0.00    -0.268 OA
ATOM     10  H   LIG d   1       8.316   3.523  -6.259  0.00  0.00     0.031 H 
ATOM     11  H   LIG d   1       9.330   2.065  -6.521  0.00  0.00     0.031 H 
ATOM     12  H   LIG d   1       8.470   4.334  -3.350  0.00  0.00     0.048 H 
ATOM     13  H   LIG d   1       9.852   3.412  -2.695  0.00  0.00     0.048 H 
ENDROOT
BRANCH   1  14
ATOM     14  C   LIG d   1      10.526   4.777  -6.870  0.00  0.00     0.234 C 
ATOM     15  N   LIG d   1       9.532   5.663  -7.083  0.00  0.00    -0.302 N 
ATOM     16  H   LIG d   1       8.752   5.665  -6.506  0.00  0.00     0.149 HD
ATOM     17  O   LIG d   1      11.500   4.775  -7.592  0.00  0.00    -0.274 OA
BRANCH  15  18
ATOM     18  C   LIG d   1       9.629   6.621  -8.187  0.00  0.00     0.099 C 
ATOM     19  H   LIG d   1      10.671   6.719  -8.493  0.00  0.00     0.059 H 
BRANCH  18  20
ATOM     20  C   LIG d   1       8.796   6.121  -9.370  0.00  0.00    -0.024 C 
ATOM     21  H   LIG d   1       8.074   6.888  -9.654  0.00  0.00     0.029 H 
ATOM     22  H   LIG d   1       8.267   5.212  -9.083  0.00  0.00     0.029 H 
BRANCH  20  23
ATOM     23  C   LIG d   1       9.717   5.825 -10.555  0.00  0.00    -0.045 C 
ATOM     24  H   LIG d   1      10.680   6.311 -10.396  0.00  0.00     0.030 H 
BRANCH  23  25
ATOM     25  C   LIG d   1       9.921   4.314 -10.676  0.00  0.00    -0.063 C 
ATOM     26  H   LIG d   1      10.986   4.086 -10.619  0.00  0.00     0.023 H 
ATOM     27  H   LIG d   1       9.396   3.810  -9.866  0.00  0.00     0.023 H 
ATOM     28  H   LIG d   1       9.528   3.970 -11.634  0.00  0.00     0.023 H 
ENDBRANCH  23  25
BRANCH  23  29
ATOM     29  C   LIG d   1       9.082   6.360 -11.841  0.00  0.00    -0.063 C 
ATOM     30  H   LIG d   1       8.940   7.437 -11.754  0.00  0.00     0.023 H 
ATOM     31  H   LIG d   1       9.737   6.147 -12.685  0.00  0.00     0.023 H 
ATOM     32  H   LIG d   1       8.118   5.877 -11.997  0.00  0.00     0.023 H 
ENDBRANCH  23  29
ENDBRANCH  20  23
ENDBRANCH  18  20
BRANCH  18  33
ATOM     33  C   LIG d   1       9.108   7.961  -7.736  0.00  0.00     0.231 C 
ATOM     34  O   LIG d   1       9.173   8.274  -6.566  0.00  0.00    -0.274 OA
ATOM     35  N   LIG d   1       8.572   8.812  -8.634  0.00  0.00    -0.328 N 
ATOM     36  H   LIG d   1       8.521   8.561  -9.570  0.00  0.00     0.145 HD
ATOM     37  H   LIG d   1       8.237   9.675  -8.343  0.00  0.00     0.145 HD
ENDBRANCH  18  33
ENDBRANCH  15  18
ENDBRANCH   1  14
BRANCH   8  38
ATOM     38  C   LIG d   1      10.659   6.220  -2.772  0.00  0.00     0.104 A 
ATOM     39  N   LIG d   1      11.475   6.014  -1.683  0.00  0.00    -0.346 N 
ATOM     40  C   LIG d   1      10.969   6.696  -0.627  0.00  0.00     0.005 A 
ATOM     41  C   LIG d   1       9.837   7.328  -1.016  0.00  0.00    -0.043 A 
ATOM     42  H   LIG d   1      11.396   6.726   0.365  0.00  0.00     0.081 H 
ATOM     43  C   LIG d   1       9.626   7.038  -2.367  0.00  0.00    -0.032 A 
ATOM     44  H   LIG d   1       9.208   7.948  -0.393  0.00  0.00     0.063 H 
ATOM     45  H   LIG d   1       8.808   7.391  -2.980  0.00  0.00     0.064 H 
BRANCH  39  46
ATOM     46  C   LIG d   1      12.692   5.197  -1.669  0.00  0.00     0.012 C 
ATOM     47  H   LIG d   1      12.420   4.142  -1.650  0.00  0.00     0.046 H 
ATOM     48  H   LIG d   1      13.279   5.405  -2.563  0.00  0.00     0.046 H 
ATOM     49  H   LIG d   1      13.280   5.438  -0.784  0.00  0.00     0.046 H 
ENDBRANCH  39  46
ENDBRANCH   8  38
BRANCH   4  50
ATOM     50  N   LIG d   1       7.478   2.203  -4.194  0.00  0.00    -0.306 N 
ATOM     51  C   LIG d   1       7.096   0.978  -3.780  0.00  0.00     0.261 C 
ATOM     52  O   LIG d   1       7.918   0.088  -3.673  0.00  0.00    -0.269 OA
ATOM     53  H   LIG d   1       6.813   2.892  -4.347  0.00  0.00     0.149 HD
BRANCH  51  54
ATOM     54  C   LIG d   1       5.689   0.721  -3.456  0.00  0.00     0.104 A 
ATOM     55  N   LIG d   1       4.787   0.033  -4.238  0.00  0.00    -0.346 N 
ATOM     56  C   LIG d   1       3.591   0.007  -3.598  0.00  0.00     0.005 A 
ATOM     57  C   LIG d   1       3.710   0.666  -2.420  0.00  0.00    -0.043 A 
ATOM     58  H   LIG d   1       2.692  -0.462  -3.967  0.00  0.00     0.081 H 
ATOM     59  C   LIG d   1       5.030   1.118  -2.313  0.00  0.00    -0.032 A 
ATOM     60  H   LIG d   1       2.926   0.812  -1.693  0.00  0.00     0.063 H 
ATOM     61  H   LIG d   1       5.451   1.675  -1.490  0.00  0.00     0.064 H 
BRANCH  55  62
ATOM     62  C   LIG d   1       5.071  -0.570  -5.541  0.00  0.00     0.012 C 
ATOM     63  H   LIG d   1       5.591   0.153  -6.171  0.00  0.00     0.046 H 
ATOM     64  H   LIG d   1       5.700  -1.451  -5.406  0.00  0.00     0.046 H 
ATOM     65  H   LIG d   1       4.136  -0.861  -6.019  0.00  0.00     0.046 H 
ENDBRANCH  55  62
ENDBRANCH  51  54
ENDBRANCH   4  50
TORSDOF 12
ENDMDL
MODEL 4
REMARK VINA RESULT:      -6.1      1.477      1.780
REMARK  12 active torsions:
REMARK  status: ('A' for Active; 'I' for Inactive)
REMARK    1  A    between atoms: C_1  and  C_2 
REMARK    2  A    between atoms: C_2  and  C_3 
REMARK    3  A    between atoms: C_2  and  C_4 
REMARK    4  A    between atoms: C_4  and  C_5 
REMARK    5  A    between atoms: C_5  and  C_7 
REMARK    6  A    between atoms: C_5  and  N_10 
REMARK       I    between atoms: C_7  and  N_9 
REMARK       I    between atoms: N_10  and  C_11 
REMARK    7  A    between atoms: C_11  and  C_13 
REMARK    8  A    between atoms: C_16  and  N_28 
REMARK       I    between atoms: N_19  and  C_20 
REMARK    9  A    between atoms: C_20  and  C_22 
REMARK   10  A    between atoms: N_26  and  C_27 
REMARK       I    between atoms: N_28  and  C_29 
REMARK   11  A    between atoms: C_29  and  C_31 
REMARK   12  A    between atoms: N_35  and  C_36 
ROOT
ATOM      1  C   LIG d   1       8.215   0.532  -4.604  0.00  0.00     0.104 C 
ATOM      2  H   LIG d   1       9.017  -0.003  -4.095  0.00  0.00     0.060 H 
ATOM      3  C   LIG d   1       8.170   2.008  -4.136  0.00  0.00    -0.006 C 
ATOM      4  C   LIG d   1       9.279   2.647  -5.014  0.00  0.00     0.041 C 
ATOM      5  H   LIG d   1      10.262   2.488  -4.572  0.00  0.00     0.051 H 
ATOM      6  C   LIG d   1       9.148   1.880  -6.347  0.00  0.00     0.034 C 
ATOM      7  N   LIG d   1       8.481   0.604  -6.052  0.00  0.00    -0.283 N 
ATOM      8  C   LIG d   1       8.165  -0.345  -6.957  0.00  0.00     0.264 C 
ATOM      9  O   LIG d   1       7.550  -1.335  -6.609  0.00  0.00    -0.268 OA
ATOM     10  H   LIG d   1       7.199   2.456  -4.346  0.00  0.00     0.031 H 
ATOM     11  H   LIG d   1       8.416   2.090  -3.077  0.00  0.00     0.031 H 
ATOM     12  H   LIG d   1       8.550   2.458  -7.051  0.00  0.00     0.048 H 
ATOM     13  H   LIG d   1      10.138   1.693  -6.765  0.00  0.00     0.048 H 
ENDROOT
BRANCH   1  14
ATOM     14  C   LIG d   1       6.891  -0.140  -4.347  0.00  0.00     0.234 C 
ATOM     15  N   LIG d   1       5.769   0.343  -4.916  0.00  0.00    -0.302 N 
ATOM     16  H   LIG d   1       5.813   1.123  -5.491  0.00  0.00     0.149 HD
ATOM     17  O   LIG d   1       6.835  -1.114  -3.628  0.00  0.00    -0.274 OA
BRANCH  15  18
ATOM     18  C   LIG d   1       4.481  -0.310  -4.665  0.00  0.00     0.099 C 
ATOM     19  H   LIG d   1       4.642  -1.217  -4.081  0.00  0.00     0.059 H 
BRANCH  18  20
ATOM     20  C   LIG d   1       3.570   0.643  -3.887  0.00  0.00    -0.024 C 
ATOM     21  H   LIG d   1       2.575   0.638  -4.334  0.00  0.00     0.029 H 
ATOM     22  H   LIG d   1       3.981   1.651  -3.927  0.00  0.00     0.029 H 
BRANCH  20  23
ATOM     23  C   LIG d   1       3.477   0.185  -2.431  0.00  0.00    -0.045 C 
ATOM     24  H   LIG d   1       2.494   0.438  -2.033  0.00  0.00     0.030 H 
BRANCH  23  25
ATOM     25  C   LIG d   1       3.683  -1.329  -2.357  0.00  0.00    -0.063 C 
ATOM     26  H   LIG d   1       3.490  -1.673  -1.341  0.00  0.00     0.023 H 
ATOM     27  H   LIG d   1       2.999  -1.822  -3.046  0.00  0.00     0.023 H 
ATOM     28  H   LIG d   1       4.711  -1.569  -2.632  0.00  0.00     0.023 H 
ENDBRANCH  23  25
BRANCH  23  29
ATOM     29  C   LIG d   1       4.557   0.888  -1.605  0.00  0.00    -0.063 C 
ATOM     30  H   LIG d   1       5.539   0.532  -1.915  0.00  0.00     0.023 H 
ATOM     31  H   LIG d   1       4.494   1.964  -1.765  0.00  0.00     0.023 H 
ATOM     32  H   LIG d   1       4.407   0.668  -0.549  0.00  0.00     0.023 H 
ENDBRANCH  23  29
ENDBRANCH  20  23
ENDBRANCH  18  20
BRANCH  18  33
ATOM     33  C   LIG d   1       3.834  -0.664  -5.979  0.00  0.00     0.231 C 
ATOM     34  O   LIG d   1       2.949   0.034  -6.426  0.00  0.00    -0.274 OA
ATOM     35  N   LIG d   1       4.239  -1.756  -6.657  0.00  0.00    -0.328 N 
ATOM     36  H   LIG d   1       4.947  -2.315  -6.298  0.00  0.00     0.145 HD
ATOM     37  H   LIG d   1       3.823  -1.984  -7.503  0.00  0.00     0.145 HD
ENDBRANCH  18  33
ENDBRANCH  15  18
ENDBRANCH   1  14
BRANCH   8  38
ATOM     38  C   LIG d   1       8.562  -0.182  -8.359  0.00  0.00     0.104 A 
ATOM     39  N   LIG d   1       7.856   0.488  -9.332  0.00  0.00    -0.346 N 
ATOM     40  C   LIG d   1       8.548   0.419 -10.495  0.00  0.00     0.005 A 
ATOM     41  C   LIG d   1       9.683  -0.291 -10.288  0.00  0.00    -0.043 A 
ATOM     42  H   LIG d   1       8.243   0.855 -11.435  0.00  0.00     0.081 H 
ATOM     43  C   LIG d   1       9.707  -0.678  -8.945  0.00  0.00    -0.032 A 
ATOM     44  H   LIG d   1      10.436  -0.517 -11.029  0.00  0.00     0.063 H 
ATOM     45  H   LIG d   1      10.480  -1.256  -8.457  0.00  0.00     0.064 H 
BRANCH  39  46
ATOM     46  C   LIG d   1       6.570   1.165  -9.142  0.00  0.00     0.012 C 
ATOM     47  H   LIG d   1       6.093   0.791  -8.236  0.00  0.00     0.046 H 
ATOM     48  H   LIG d   1       6.735   2.238  -9.051  0.00  0.00     0.046 H 
ATOM     49  H   LIG d   1       5.927   0.968 -10.000  0.00  0.00     0.046 H 
ENDBRANCH  39  46
ENDBRANCH   8  38
BRANCH   4  50
ATOM     50  N   LIG d   1       9.026   4.077  -5.209  0.00  0.00    -0.306 N 
ATOM     51  C   LIG d   1      10.048   4.910  -5.489  0.00  0.00     0.261 C 
ATOM     52  O   LIG d   1      11.190   4.492  -5.493  0.00  0.00    -0.269 OA
ATOM     53  H   LIG d   1       8.123   4.425  -5.135  0.00  0.00     0.149 HD
BRANCH  51  54
ATOM     54  C   LIG d   1       9.782   6.320  -5.790  0.00  0.00     0.104 A 
ATOM     55  N   LIG d   1       9.653   6.874  -7.044  0.00  0.00    -0.346 N 
ATOM     56  C   LIG d   1       9.412   8.202  -6.909  0.00  0.00     0.005 A 
ATOM     57  C   LIG d   1       9.385   8.510  -5.589  0.00  0.00    -0.043 A 
ATOM     58  H   LIG d   1       9.267   8.899  -7.719  0.00  0.00     0.081 H 
ATOM     59  C   LIG d   1       9.610   7.332  -4.869  0.00  0.00    -0.032 A 
ATOM     60  H   LIG d   1       9.213   9.489  -5.170  0.00  0.00     0.063 H 
ATOM     61  H   LIG d   1       9.645   7.235  -3.795  0.00  0.00     0.064 H 
BRANCH  55  62
ATOM     62  C   LIG d   1       9.759   6.151  -8.312  0.00  0.00     0.012 C 
ATOM     63  H   LIG d   1      10.619   5.482  -8.280  0.00  0.00     0.046 H 
ATOM     64  H   LIG d   1       8.852   5.567  -8.476  0.00  0.00     0.046 H 
ATOM     65  H   LIG d   1       9.884   6.863  -9.128  0.00  0.00     0.046 H 
ENDBRANCH  55  62
ENDBRANCH  51  54
ENDBRANCH   4  50
TORSDOF 12
ENDMDL
MODEL 5
REMARK VINA RESULT:      -5.9      4.558      7.737
REMARK  12 active torsions:
REMARK  status: ('A' for Active; 'I' for Inactive)
REMARK    1  A    between atoms: C_1  and  C_2 
REMARK    2  A    between atoms: C_2  and  C_3 
REMARK    3  A    between atoms: C_2  and  C_4 
REMARK    4  A    between atoms: C_4  and  C_5 
REMARK    5  A    between atoms: C_5  and  C_7 
REMARK    6  A    between atoms: C_5  and  N_10 
REMARK       I    between atoms: C_7  and  N_9 
REMARK       I    between atoms: N_10  and  C_11 
REMARK    7  A    between atoms: C_11  and  C_13 
REMARK    8  A    between atoms: C_16  and  N_28 
REMARK       I    between atoms: N_19  and  C_20 
REMARK    9  A    between atoms: C_20  and  C_22 
REMARK   10  A    between atoms: N_26  and  C_27 
REMARK       I    between atoms: N_28  and  C_29 
REMARK   11  A    between atoms: C_29  and  C_31 
REMARK   12  A    between atoms: N_35  and  C_36 
ROOT
ATOM      1  C   LIG d   1       6.187  -1.797  -6.799  0.00  0.00     0.104 C 
ATOM      2  H   LIG d   1       6.773  -1.059  -7.347  0.00  0.00     0.060 H 
ATOM      3  C   LIG d   1       7.002  -3.101  -6.613  0.00  0.00    -0.006 C 
ATOM      4  C   LIG d   1       7.879  -2.747  -5.381  0.00  0.00     0.041 C 
ATOM      5  H   LIG d   1       8.761  -2.184  -5.685  0.00  0.00     0.051 H 
ATOM      6  C   LIG d   1       6.937  -1.871  -4.529  0.00  0.00     0.034 C 
ATOM      7  N   LIG d   1       5.913  -1.324  -5.430  0.00  0.00    -0.283 N 
ATOM      8  C   LIG d   1       4.893  -0.523  -5.066  0.00  0.00     0.264 C 
ATOM      9  O   LIG d   1       4.062  -0.184  -5.888  0.00  0.00    -0.268 OA
ATOM     10  H   LIG d   1       6.347  -3.945  -6.397  0.00  0.00     0.031 H 
ATOM     11  H   LIG d   1       7.621  -3.304  -7.487  0.00  0.00     0.031 H 
ATOM     12  H   LIG d   1       6.466  -2.477  -3.755  0.00  0.00     0.048 H 
ATOM     13  H   LIG d   1       7.502  -1.057  -4.071  0.00  0.00     0.048 H 
ENDROOT
BRANCH   1  14
ATOM     14  C   LIG d   1       4.897  -2.084  -7.523  0.00  0.00     0.234 C 
ATOM     15  N   LIG d   1       4.452  -1.233  -8.470  0.00  0.00    -0.302 N 
ATOM     16  H   LIG d   1       4.962  -0.436  -8.684  0.00  0.00     0.149 HD
ATOM     17  O   LIG d   1       4.260  -3.079  -7.256  0.00  0.00    -0.274 OA
BRANCH  15  18
ATOM     18  C   LIG d   1       3.198  -1.512  -9.174  0.00  0.00     0.099 C 
ATOM     19  H   LIG d   1       2.564  -2.143  -8.550  0.00  0.00     0.059 H 
BRANCH  18  20
ATOM     20  C   LIG d   1       2.475  -0.195  -9.468  0.00  0.00    -0.024 C 
ATOM     21  H   LIG d   1       1.644  -0.075  -8.772  0.00  0.00     0.029 H 
ATOM     22  H   LIG d   1       2.096  -0.210 -10.489  0.00  0.00     0.029 H 
BRANCH  20  23
ATOM     23  C   LIG d   1       3.451   0.971  -9.301  0.00  0.00    -0.045 C 
ATOM     24  H   LIG d   1       4.352   0.621  -8.796  0.00  0.00     0.030 H 
BRANCH  23  25
ATOM     25  C   LIG d   1       3.822   1.527 -10.678  0.00  0.00    -0.063 C 
ATOM     26  H   LIG d   1       4.552   2.327 -10.561  0.00  0.00     0.023 H 
ATOM     27  H   LIG d   1       4.247   0.731 -11.288  0.00  0.00     0.023 H 
ATOM     28  H   LIG d   1       2.927   1.919 -11.163  0.00  0.00     0.023 H 
ENDBRANCH  23  25
BRANCH  23  29
ATOM     29  C   LIG d   1       2.793   2.072  -8.466  0.00  0.00    -0.063 C 
ATOM     30  H   LIG d   1       3.011   1.905  -7.411  0.00  0.00     0.023 H 
ATOM     31  H   LIG d   1       3.186   3.041  -8.769  0.00  0.00     0.023 H 
ATOM     32  H   LIG d   1       1.715   2.050  -8.622  0.00  0.00     0.023 H 
ENDBRANCH  23  29
ENDBRANCH  20  23
ENDBRANCH  18  20
BRANCH  18  33
ATOM     33  C   LIG d   1       3.496  -2.222 -10.469  0.00  0.00     0.231 C 
ATOM     34  O   LIG d   1       2.693  -3.006 -10.929  0.00  0.00    -0.274 OA
ATOM     35  N   LIG d   1       4.654  -1.984 -11.116  0.00  0.00    -0.328 N 
ATOM     36  H   LIG d   1       5.296  -1.357 -10.747  0.00  0.00     0.145 HD
ATOM     37  H   LIG d   1       4.846  -2.441 -11.951  0.00  0.00     0.145 HD
ENDBRANCH  18  33
ENDBRANCH  15  18
ENDBRANCH   1  14
BRANCH   8  38
ATOM     38  C   LIG d   1       4.783  -0.060  -3.679  0.00  0.00     0.104 A 
ATOM     39  N   LIG d   1       4.287  -0.781  -2.617  0.00  0.00    -0.346 N 
ATOM     40  C   LIG d   1       4.353  -0.013  -1.502  0.00  0.00     0.005 A 
ATOM     41  C   LIG d   1       4.875   1.192  -1.831  0.00  0.00    -0.043 A 
ATOM     42  H   LIG d   1       4.037  -0.312  -0.513  0.00  0.00     0.081 H 
ATOM     43  C   LIG d   1       5.152   1.180  -3.201  0.00  0.00    -0.032 A 
ATOM     44  H   LIG d   1       5.047   2.017  -1.155  0.00  0.00     0.063 H 
ATOM     45  H   LIG d   1       5.576   1.990  -3.778  0.00  0.00     0.064 H 
BRANCH  39  46
ATOM     46  C   LIG d   1       3.775  -2.153  -2.680  0.00  0.00     0.012 C 
ATOM     47  H   LIG d   1       4.374  -2.732  -3.383  0.00  0.00     0.046 H 
ATOM     48  H   LIG d   1       3.834  -2.608  -1.692  0.00  0.00     0.046 H 
ATOM     49  H   LIG d   1       2.737  -2.138  -3.011  0.00  0.00     0.046 H 
ENDBRANCH  39  46
ENDBRANCH   8  38
BRANCH   4  50
ATOM     50  N   LIG d   1       8.264  -3.960  -4.654  0.00  0.00    -0.306 N 
ATOM     51  C   LIG d   1       9.470  -4.032  -4.058  0.00  0.00     0.261 C 
ATOM     52  O   LIG d   1      10.273  -3.128  -4.196  0.00  0.00    -0.269 OA
ATOM     53  H   LIG d   1       7.652  -4.711  -4.603  0.00  0.00     0.149 HD
BRANCH  51  54
ATOM     54  C   LIG d   1       9.814  -5.200  -3.240  0.00  0.00     0.104 A 
ATOM     55  N   LIG d   1      10.300  -6.402  -3.703  0.00  0.00    -0.346 N 
ATOM     56  C   LIG d   1      10.495  -7.228  -2.645  0.00  0.00     0.005 A 
ATOM     57  C   LIG d   1      10.141  -6.576  -1.511  0.00  0.00    -0.043 A 
ATOM     58  H   LIG d   1      10.869  -8.239  -2.698  0.00  0.00     0.081 H 
ATOM     59  C   LIG d   1       9.716  -5.293  -1.869  0.00  0.00    -0.032 A 
ATOM     60  H   LIG d   1      10.186  -6.976  -0.509  0.00  0.00     0.063 H 
ATOM     61  H   LIG d   1       9.372  -4.521  -1.196  0.00  0.00     0.064 H 
BRANCH  55  62
ATOM     62  C   LIG d   1      10.564  -6.735  -5.105  0.00  0.00     0.012 C 
ATOM     63  H   LIG d   1      10.411  -7.803  -5.261  0.00  0.00     0.046 H 
ATOM     64  H   LIG d   1       9.885  -6.173  -5.747  0.00  0.00     0.046 H 
ATOM     65  H   LIG d   1      11.594  -6.476  -5.352  0.00  0.00     0.046 H 
ENDBRANCH  55  62
ENDBRANCH  51  54
ENDBRANCH   4  50
TORSDOF 12
ENDMDL
MODEL 6
REMARK VINA RESULT:      -5.8      5.553      9.492
REMARK  12 active torsions:
REMARK  status: ('A' for Active; 'I' for Inactive)
REMARK    1  A    between atoms: C_1  and  C_2 
REMARK    2  A    between atoms: C_2  and  C_3 
REMARK    3  A    between atoms: C_2  and  C_4 
REMARK    4  A    between atoms: C_4  and  C_5 
REMARK    5  A    between atoms: C_5  and  C_7 
REMARK    6  A    between atoms: C_5  and  N_10 
REMARK       I    between atoms: C_7  and  N_9 
REMARK       I    between atoms: N_10  and  C_11 
REMARK    7  A    between atoms: C_11  and  C_13 
REMARK    8  A    between atoms: C_16  and  N_28 
REMARK       I    between atoms: N_19  and  C_20 
REMARK    9  A    between atoms: C_20  and  C_22 
REMARK   10  A    between atoms: N_26  and  C_27 
REMARK       I    between atoms: N_28  and  C_29 
REMARK   11  A    between atoms: C_29  and  C_31 
REMARK   12  A    between atoms: N_35  and  C_36 
ROOT
ATOM      1  C   LIG d   1       5.133  -3.895  -6.676  0.00  0.00     0.104 C 
ATOM      2  H   LIG d   1       4.673  -3.853  -7.664  0.00  0.00     0.060 H 
ATOM      3  C   LIG d   1       4.506  -5.038  -5.838  0.00  0.00    -0.006 C 
ATOM      4  C   LIG d   1       5.290  -6.272  -6.358  0.00  0.00     0.041 C 
ATOM      5  H   LIG d   1       4.853  -6.647  -7.283  0.00  0.00     0.051 H 
ATOM      6  C   LIG d   1       6.701  -5.701  -6.612  0.00  0.00     0.034 C 
ATOM      7  N   LIG d   1       6.560  -4.248  -6.786  0.00  0.00    -0.283 N 
ATOM      8  C   LIG d   1       7.568  -3.382  -7.009  0.00  0.00     0.264 C 
ATOM      9  O   LIG d   1       7.342  -2.188  -7.069  0.00  0.00    -0.268 OA
ATOM     10  H   LIG d   1       4.680  -4.883  -4.774  0.00  0.00     0.031 H 
ATOM     11  H   LIG d   1       3.440  -5.137  -6.048  0.00  0.00     0.031 H 
ATOM     12  H   LIG d   1       7.347  -5.912  -5.760  0.00  0.00     0.048 H 
ATOM     13  H   LIG d   1       7.122  -6.143  -7.516  0.00  0.00     0.048 H 
ENDROOT
BRANCH   1  14
ATOM     14  C   LIG d   1       4.972  -2.576  -5.967  0.00  0.00     0.234 C 
ATOM     15  N   LIG d   1       5.496  -2.404  -4.737  0.00  0.00    -0.302 N 
ATOM     16  H   LIG d   1       5.975  -3.130  -4.308  0.00  0.00     0.149 HD
ATOM     17  O   LIG d   1       4.372  -1.669  -6.501  0.00  0.00    -0.274 OA
BRANCH  15  18
ATOM     18  C   LIG d   1       5.339  -1.121  -4.046  0.00  0.00     0.099 C 
ATOM     19  H   LIG d   1       4.477  -0.592  -4.454  0.00  0.00     0.059 H 
BRANCH  18  20
ATOM     20  C   LIG d   1       5.123  -1.370  -2.552  0.00  0.00    -0.024 C 
ATOM     21  H   LIG d   1       6.031  -1.110  -2.006  0.00  0.00     0.029 H 
ATOM     22  H   LIG d   1       4.890  -2.422  -2.389  0.00  0.00     0.029 H 
BRANCH  20  23
ATOM     23  C   LIG d   1       3.963  -0.507  -2.052  0.00  0.00    -0.045 C 
ATOM     24  H   LIG d   1       3.510  -0.977  -1.179  0.00  0.00     0.030 H 
BRANCH  23  25
ATOM     25  C   LIG d   1       4.487   0.879  -1.671  0.00  0.00    -0.063 C 
ATOM     26  H   LIG d   1       4.491   0.980  -0.586  0.00  0.00     0.023 H 
ATOM     27  H   LIG d   1       5.500   1.002  -2.053  0.00  0.00     0.023 H 
ATOM     28  H   LIG d   1       3.840   1.643  -2.104  0.00  0.00     0.023 H 
ENDBRANCH  23  25
BRANCH  23  29
ATOM     29  C   LIG d   1       2.915  -0.370  -3.159  0.00  0.00    -0.063 C 
ATOM     30  H   LIG d   1       2.514   0.643  -3.155  0.00  0.00     0.023 H 
ATOM     31  H   LIG d   1       3.377  -0.575  -4.124  0.00  0.00     0.023 H 
ATOM     32  H   LIG d   1       2.108  -1.081  -2.983  0.00  0.00     0.023 H 
ENDBRANCH  23  29
ENDBRANCH  20  23
ENDBRANCH  18  20
BRANCH  18  33
ATOM     33  C   LIG d   1       6.580  -0.290  -4.243  0.00  0.00     0.231 C 
ATOM     34  O   LIG d   1       6.517   0.758  -4.849  0.00  0.00    -0.274 OA
ATOM     35  N   LIG d   1       7.759  -0.712  -3.744  0.00  0.00    -0.328 N 
ATOM     36  H   LIG d   1       7.808  -1.551  -3.259  0.00  0.00     0.145 HD
ATOM     37  H   LIG d   1       8.558  -0.176  -3.870  0.00  0.00     0.145 HD
ENDBRANCH  18  33
ENDBRANCH  15  18
ENDBRANCH   1  14
BRANCH   8  38
ATOM     38  C   LIG d   1       8.938  -3.878  -7.179  0.00  0.00     0.104 A 
ATOM     39  N   LIG d   1       9.500  -4.330  -8.351  0.00  0.00    -0.346 N 
ATOM     40  C   LIG d   1      10.780  -4.700  -8.103  0.00  0.00     0.005 A 
ATOM     41  C   LIG d   1      11.047  -4.503  -6.790  0.00  0.00    -0.043 A 
ATOM     42  H   LIG d   1      11.473  -5.094  -8.832  0.00  0.00     0.081 H 
ATOM     43  C   LIG d   1       9.894  -3.985  -6.192  0.00  0.00    -0.032 A 
ATOM     44  H   LIG d   1      11.984  -4.709  -6.293  0.00  0.00     0.063 H 
ATOM     45  H   LIG d   1       9.776  -3.716  -5.151  0.00  0.00     0.064 H 
BRANCH  39  46
ATOM     46  C   LIG d   1       8.828  -4.396  -9.651  0.00  0.00     0.012 C 
ATOM     47  H   LIG d   1       9.545  -4.177 -10.442  0.00  0.00     0.046 H 
ATOM     48  H   LIG d   1       8.420  -5.395  -9.798  0.00  0.00     0.046 H 
ATOM     49  H   LIG d   1       8.020  -3.666  -9.680  0.00  0.00     0.046 H 
ENDBRANCH  39  46
ENDBRANCH   8  38
BRANCH   4  50
ATOM     50  N   LIG d   1       5.330  -7.326  -5.341  0.00  0.00    -0.306 N 
ATOM     51  C   LIG d   1       4.823  -8.544  -5.614  0.00  0.00     0.261 C 
ATOM     52  O   LIG d   1       4.254  -8.744  -6.670  0.00  0.00    -0.269 OA
ATOM     53  H   LIG d   1       5.720  -7.147  -4.471  0.00  0.00     0.149 HD
BRANCH  51  54
ATOM     54  C   LIG d   1       4.958  -9.630  -4.637  0.00  0.00     0.104 A 
ATOM     55  N   LIG d   1       6.011 -10.513  -4.543  0.00  0.00    -0.346 N 
ATOM     56  C   LIG d   1       5.771 -11.366  -3.517  0.00  0.00     0.005 A 
ATOM     57  C   LIG d   1       4.581 -11.047  -2.952  0.00  0.00    -0.043 A 
ATOM     58  H   LIG d   1       6.420 -12.169  -3.203  0.00  0.00     0.081 H 
ATOM     59  C   LIG d   1       4.059  -9.949  -3.643  0.00  0.00    -0.032 A 
ATOM     60  H   LIG d   1       4.122 -11.549  -2.113  0.00  0.00     0.063 H 
ATOM     61  H   LIG d   1       3.125  -9.448  -3.438  0.00  0.00     0.064 H 
BRANCH  55  62
ATOM     62  C   LIG d   1       7.194 -10.527  -5.406  0.00  0.00     0.012 C 
ATOM     63  H   LIG d   1       8.015 -11.027  -4.891  0.00  0.00     0.046 H 
ATOM     64  H   LIG d   1       6.966 -11.062  -6.328  0.00  0.00     0.046 H 
ATOM     65  H   LIG d   1       7.484  -9.503  -5.642  0.00  0.00     0.046 H 
ENDBRANCH  55  62
ENDBRANCH  51  54
ENDBRANCH   4  50
TORSDOF 12
ENDMDL
MODEL 7
REMARK VINA RESULT:      -5.8      4.635      9.133
REMARK  12 active torsions:
REMARK  status: ('A' for Active; 'I' for Inactive)
REMARK    1  A    between atoms: C_1  and  C_2 
REMARK    2  A    between atoms: C_2  and  C_3 
REMARK    3  A    between atoms: C_2  and  C_4 
REMARK    4  A    between atoms: C_4  and  C_5 
REMARK    5  A    between atoms: C_5  and  C_7 
REMARK    6  A    between atoms: C_5  and  N_10 
REMARK       I    between atoms: C_7  and  N_9 
REMARK       I    between atoms: N_10  and  C_11 
REMARK    7  A    between atoms: C_11  and  C_13 
REMARK    8  A    between atoms: C_16  and  N_28 
REMARK       I    between atoms: N_19  and  C_20 
REMARK    9  A    between atoms: C_20  and  C_22 
REMARK   10  A    between atoms: N_26  and  C_27 
REMARK       I    between atoms: N_28  and  C_29 
REMARK   11  A    between atoms: C_29  and  C_31 
REMARK   12  A    between atoms: N_35  and  C_36 
ROOT
ATOM      1  C   LIG d   1       5.538  -2.287  -7.576  0.00  0.00     0.104 C 
ATOM      2  H   LIG d   1       6.516  -1.939  -7.910  0.00  0.00     0.060 H 
ATOM      3  C   LIG d   1       5.505  -3.835  -7.528  0.00  0.00    -0.006 C 
ATOM      4  C   LIG d   1       6.175  -4.119  -6.157  0.00  0.00     0.041 C 
ATOM      5  H   LIG d   1       7.261  -4.098  -6.247  0.00  0.00     0.051 H 
ATOM      6  C   LIG d   1       5.676  -2.950  -5.282  0.00  0.00     0.034 C 
ATOM      7  N   LIG d   1       5.284  -1.861  -6.188  0.00  0.00    -0.283 N 
ATOM      8  C   LIG d   1       4.777  -0.670  -5.812  0.00  0.00     0.264 C 
ATOM      9  O   LIG d   1       4.422   0.133  -6.655  0.00  0.00    -0.268 OA
ATOM     10  H   LIG d   1       4.480  -4.206  -7.546  0.00  0.00     0.031 H 
ATOM     11  H   LIG d   1       6.088  -4.264  -8.343  0.00  0.00     0.031 H 
ATOM     12  H   LIG d   1       4.818  -3.269  -4.691  0.00  0.00     0.048 H 
ATOM     13  H   LIG d   1       6.477  -2.613  -4.622  0.00  0.00     0.048 H 
ENDROOT
BRANCH   1  14
ATOM     14  C   LIG d   1       4.458  -1.768  -8.490  0.00  0.00     0.234 C 
ATOM     15  N   LIG d   1       4.758  -0.861  -9.441  0.00  0.00    -0.302 N 
ATOM     16  H   LIG d   1       5.669  -0.542  -9.536  0.00  0.00     0.149 HD
ATOM     17  O   LIG d   1       3.319  -2.166  -8.371  0.00  0.00    -0.274 OA
BRANCH  15  18
ATOM     18  C   LIG d   1       3.708  -0.356 -10.329  0.00  0.00     0.099 C 
ATOM     19  H   LIG d   1       2.788  -0.218  -9.761  0.00  0.00     0.059 H 
BRANCH  18  20
ATOM     20  C   LIG d   1       4.146   0.984 -10.924  0.00  0.00    -0.024 C 
ATOM     21  H   LIG d   1       3.725   1.091 -11.925  0.00  0.00     0.029 H 
ATOM     22  H   LIG d   1       5.233   1.018 -10.981  0.00  0.00     0.029 H 
BRANCH  20  23
ATOM     23  C   LIG d   1       3.644   2.125 -10.037  0.00  0.00    -0.045 C 
ATOM     24  H   LIG d   1       3.264   2.933 -10.664  0.00  0.00     0.030 H 
BRANCH  23  25
ATOM     25  C   LIG d   1       2.523   1.612  -9.132  0.00  0.00    -0.063 C 
ATOM     26  H   LIG d   1       2.900   1.501  -8.115  0.00  0.00     0.023 H 
ATOM     27  H   LIG d   1       1.697   2.322  -9.139  0.00  0.00     0.023 H 
ATOM     28  H   LIG d   1       2.175   0.645  -9.497  0.00  0.00     0.023 H 
ENDBRANCH  23  25
BRANCH  23  29
ATOM     29  C   LIG d   1       4.797   2.647  -9.177  0.00  0.00    -0.063 C 
ATOM     30  H   LIG d   1       4.521   3.609  -8.747  0.00  0.00     0.023 H 
ATOM     31  H   LIG d   1       5.004   1.938  -8.377  0.00  0.00     0.023 H 
ATOM     32  H   LIG d   1       5.686   2.767  -9.796  0.00  0.00     0.023 H 
ENDBRANCH  23  29
ENDBRANCH  20  23
ENDBRANCH  18  20
BRANCH  18  33
ATOM     33  C   LIG d   1       3.472  -1.346 -11.440  0.00  0.00     0.231 C 
ATOM     34  O   LIG d   1       4.246  -1.408 -12.371  0.00  0.00    -0.274 OA
ATOM     35  N   LIG d   1       2.400  -2.163 -11.398  0.00  0.00    -0.328 N 
ATOM     36  H   LIG d   1       1.781  -2.113 -10.652  0.00  0.00     0.145 HD
ATOM     37  H   LIG d   1       2.248  -2.801 -12.113  0.00  0.00     0.145 HD
ENDBRANCH  18  33
ENDBRANCH  15  18
ENDBRANCH   1  14
BRANCH   8  38
ATOM     38  C   LIG d   1       4.652  -0.343  -4.388  0.00  0.00     0.104 A 
ATOM     39  N   LIG d   1       5.636   0.187  -3.586  0.00  0.00    -0.346 N 
ATOM     40  C   LIG d   1       5.137   0.349  -2.336  0.00  0.00     0.005 A 
ATOM     41  C   LIG d   1       3.851  -0.076  -2.320  0.00  0.00    -0.043 A 
ATOM     42  H   LIG d   1       5.677   0.747  -1.490  0.00  0.00     0.081 H 
ATOM     43  C   LIG d   1       3.529  -0.516  -3.608  0.00  0.00    -0.032 A 
ATOM     44  H   LIG d   1       3.191  -0.075  -1.465  0.00  0.00     0.063 H 
ATOM     45  H   LIG d   1       2.578  -0.916  -3.930  0.00  0.00     0.064 H 
BRANCH  39  46
ATOM     46  C   LIG d   1       6.998   0.524  -4.012  0.00  0.00     0.012 C 
ATOM     47  H   LIG d   1       6.967   1.387  -4.676  0.00  0.00     0.046 H 
ATOM     48  H   LIG d   1       7.604   0.759  -3.138  0.00  0.00     0.046 H 
ATOM     49  H   LIG d   1       7.433  -0.325  -4.538  0.00  0.00     0.046 H 
ENDBRANCH  39  46
ENDBRANCH   8  38
BRANCH   4  50
ATOM     50  N   LIG d   1       5.726  -5.404  -5.617  0.00  0.00    -0.306 N 
ATOM     51  C   LIG d   1       6.455  -6.517  -5.832  0.00  0.00     0.261 C 
ATOM     52  O   LIG d   1       7.437  -6.472  -6.548  0.00  0.00    -0.269 OA
ATOM     53  H   LIG d   1       4.904  -5.455  -5.105  0.00  0.00     0.149 HD
BRANCH  51  54
ATOM     54  C   LIG d   1       6.064  -7.782  -5.202  0.00  0.00     0.104 A 
ATOM     55  N   LIG d   1       6.835  -8.538  -4.348  0.00  0.00    -0.346 N 
ATOM     56  C   LIG d   1       6.126  -9.634  -3.979  0.00  0.00     0.005 A 
ATOM     57  C   LIG d   1       4.914  -9.594  -4.582  0.00  0.00    -0.043 A 
ATOM     58  H   LIG d   1       6.472 -10.411  -3.314  0.00  0.00     0.081 H 
ATOM     59  C   LIG d   1       4.856  -8.428  -5.353  0.00  0.00    -0.032 A 
ATOM     60  H   LIG d   1       4.130 -10.330  -4.480  0.00  0.00     0.063 H 
ATOM     61  H   LIG d   1       4.022  -8.099  -5.954  0.00  0.00     0.064 H 
BRANCH  55  62
ATOM     62  C   LIG d   1       8.194  -8.214  -3.911  0.00  0.00     0.012 C 
ATOM     63  H   LIG d   1       8.773  -9.132  -3.808  0.00  0.00     0.046 H 
ATOM     64  H   LIG d   1       8.670  -7.567  -4.649  0.00  0.00     0.046 H 
ATOM     65  H   LIG d   1       8.154  -7.700  -2.950  0.00  0.00     0.046 H 
ENDBRANCH  55  62
ENDBRANCH  51  54
ENDBRANCH   4  50
TORSDOF 12
ENDMDL
MODEL 8
REMARK VINA RESULT:      -5.7      5.490     10.618
REMARK  12 active torsions:
REMARK  status: ('A' for Active; 'I' for Inactive)
REMARK    1  A    between atoms: C_1  and  C_2 
REMARK    2  A    between atoms: C_2  and  C_3 
REMARK    3  A    between atoms: C_2  and  C_4 
REMARK    4  A    between atoms: C_4  and  C_5 
REMARK    5  A    between atoms: C_5  and  C_7 
REMARK    6  A    between atoms: C_5  and  N_10 
REMARK       I    between atoms: C_7  and  N_9 
REMARK       I    between atoms: N_10  and  C_11 
REMARK    7  A    between atoms: C_11  and  C_13 
REMARK    8  A    between atoms: C_16  and  N_28 
REMARK       I    between atoms: N_19  and  C_20 
REMARK    9  A    between atoms: C_20  and  C_22 
REMARK   10  A    between atoms: N_26  and  C_27 
REMARK       I    between atoms: N_28  and  C_29 
REMARK   11  A    between atoms: C_29  and  C_31 
REMARK   12  A    between atoms: N_35  and  C_36 
ROOT
ATOM      1  C   LIG d   1       3.264  -1.574  -9.759  0.00  0.00     0.104 C 
ATOM      2  H   LIG d   1       3.662  -1.237 -10.716  0.00  0.00     0.060 H 
ATOM      3  C   LIG d   1       1.716  -1.622  -9.806  0.00  0.00    -0.006 C 
ATOM      4  C   LIG d   1       1.468  -2.991 -10.495  0.00  0.00     0.041 C 
ATOM      5  H   LIG d   1       1.545  -2.897 -11.578  0.00  0.00     0.051 H 
ATOM      6  C   LIG d   1       2.609  -3.868  -9.939  0.00  0.00     0.034 C 
ATOM      7  N   LIG d   1       3.676  -2.963  -9.488  0.00  0.00    -0.283 N 
ATOM      8  C   LIG d   1       4.840  -3.341  -8.922  0.00  0.00     0.264 C 
ATOM      9  O   LIG d   1       5.623  -2.500  -8.523  0.00  0.00    -0.268 OA
ATOM     10  H   LIG d   1       1.294  -1.608  -8.801  0.00  0.00     0.031 H 
ATOM     11  H   LIG d   1       1.318  -0.805 -10.407  0.00  0.00     0.031 H 
ATOM     12  H   LIG d   1       2.247  -4.462  -9.100  0.00  0.00     0.048 H 
ATOM     13  H   LIG d   1       2.987  -4.525 -10.724  0.00  0.00     0.048 H 
ENDROOT
BRANCH   1  14
ATOM     14  C   LIG d   1       3.727  -0.664  -8.650  0.00  0.00     0.234 C 
ATOM     15  N   LIG d   1       3.372  -0.921  -7.376  0.00  0.00    -0.302 N 
ATOM     16  H   LIG d   1       2.818  -1.692  -7.172  0.00  0.00     0.149 HD
ATOM     17  O   LIG d   1       4.418   0.298  -8.904  0.00  0.00    -0.274 OA
BRANCH  15  18
ATOM     18  C   LIG d   1       3.821  -0.037  -6.297  0.00  0.00     0.099 C 
ATOM     19  H   LIG d   1       3.958   0.972  -6.689  0.00  0.00     0.059 H 
BRANCH  18  20
ATOM     20  C   LIG d   1       2.769  -0.014  -5.186  0.00  0.00    -0.024 C 
ATOM     21  H   LIG d   1       2.149  -0.908  -5.255  0.00  0.00     0.029 H 
ATOM     22  H   LIG d   1       2.143   0.872  -5.297  0.00  0.00     0.029 H 
BRANCH  20  23
ATOM     23  C   LIG d   1       3.465   0.019  -3.824  0.00  0.00    -0.045 C 
ATOM     24  H   LIG d   1       4.518  -0.238  -3.948  0.00  0.00     0.030 H 
BRANCH  23  25
ATOM     25  C   LIG d   1       3.351   1.423  -3.227  0.00  0.00    -0.063 C 
ATOM     26  H   LIG d   1       4.348   1.814  -3.026  0.00  0.00     0.023 H 
ATOM     27  H   LIG d   1       2.838   2.077  -3.931  0.00  0.00     0.023 H 
ATOM     28  H   LIG d   1       2.785   1.376  -2.296  0.00  0.00     0.023 H 
ENDBRANCH  23  25
BRANCH  23  29
ATOM     29  C   LIG d   1       2.801  -0.991  -2.887  0.00  0.00    -0.063 C 
ATOM     30  H   LIG d   1       2.449  -0.477  -1.992  0.00  0.00     0.023 H 
ATOM     31  H   LIG d   1       1.957  -1.457  -3.393  0.00  0.00     0.023 H 
ATOM     32  H   LIG d   1       3.524  -1.756  -2.606  0.00  0.00     0.023 H 
ENDBRANCH  23  29
ENDBRANCH  20  23
ENDBRANCH  18  20
BRANCH  18  33
ATOM     33  C   LIG d   1       5.127  -0.544  -5.743  0.00  0.00     0.231 C 
ATOM     34  O   LIG d   1       6.019   0.236  -5.483  0.00  0.00    -0.274 OA
ATOM     35  N   LIG d   1       5.303  -1.864  -5.535  0.00  0.00    -0.328 N 
ATOM     36  H   LIG d   1       4.589  -2.487  -5.743  0.00  0.00     0.145 HD
ATOM     37  H   LIG d   1       6.144  -2.191  -5.177  0.00  0.00     0.145 HD
ENDBRANCH  18  33
ENDBRANCH  15  18
ENDBRANCH   1  14
BRANCH   8  38
ATOM     38  C   LIG d   1       5.161  -4.765  -8.785  0.00  0.00     0.104 A 
ATOM     39  N   LIG d   1       4.767  -5.593  -7.759  0.00  0.00    -0.346 N 
ATOM     40  C   LIG d   1       5.258  -6.835  -7.990  0.00  0.00     0.005 A 
ATOM     41  C   LIG d   1       5.969  -6.817  -9.143  0.00  0.00    -0.043 A 
ATOM     42  H   LIG d   1       5.113  -7.697  -7.357  0.00  0.00     0.081 H 
ATOM     43  C   LIG d   1       5.917  -5.518  -9.658  0.00  0.00    -0.032 A 
ATOM     44  H   LIG d   1       6.483  -7.657  -9.587  0.00  0.00     0.063 H 
ATOM     45  H   LIG d   1       6.382  -5.170 -10.570  0.00  0.00     0.064 H 
BRANCH  39  46
ATOM     46  C   LIG d   1       3.950  -5.199  -6.608  0.00  0.00     0.012 C 
ATOM     47  H   LIG d   1       4.328  -4.263  -6.198  0.00  0.00     0.046 H 
ATOM     48  H   LIG d   1       2.916  -5.066  -6.925  0.00  0.00     0.046 H 
ATOM     49  H   LIG d   1       3.998  -5.976  -5.846  0.00  0.00     0.046 H 
ENDBRANCH  39  46
ENDBRANCH   8  38
BRANCH   4  50
ATOM     50  N   LIG d   1       0.161  -3.533 -10.114  0.00  0.00    -0.306 N 
ATOM     51  C   LIG d   1      -0.391  -4.528 -10.835  0.00  0.00     0.261 C 
ATOM     52  O   LIG d   1       0.152  -4.916 -11.852  0.00  0.00    -0.269 OA
ATOM     53  H   LIG d   1      -0.307  -3.175  -9.343  0.00  0.00     0.149 HD
BRANCH  51  54
ATOM     54  C   LIG d   1      -1.647  -5.144 -10.393  0.00  0.00     0.104 A 
ATOM     55  N   LIG d   1      -2.895  -4.923 -10.931  0.00  0.00    -0.346 N 
ATOM     56  C   LIG d   1      -3.798  -5.673 -10.253  0.00  0.00     0.005 A 
ATOM     57  C   LIG d   1      -3.151  -6.372  -9.289  0.00  0.00    -0.043 A 
ATOM     58  H   LIG d   1      -4.859  -5.708 -10.449  0.00  0.00     0.081 H 
ATOM     59  C   LIG d   1      -1.791  -6.054  -9.368  0.00  0.00    -0.032 A 
ATOM     60  H   LIG d   1      -3.605  -7.056  -8.588  0.00  0.00     0.063 H 
ATOM     61  H   LIG d   1      -1.004  -6.446  -8.742  0.00  0.00     0.064 H 
BRANCH  55  62
ATOM     62  C   LIG d   1      -3.197  -4.027 -12.049  0.00  0.00     0.012 C 
ATOM     63  H   LIG d   1      -3.810  -3.197 -11.696  0.00  0.00     0.046 H 
ATOM     64  H   LIG d   1      -2.268  -3.639 -12.467  0.00  0.00     0.046 H 
ATOM     65  H   LIG d   1      -3.739  -4.576 -12.819  0.00  0.00     0.046 H 
ENDBRANCH  55  62
ENDBRANCH  51  54
ENDBRANCH   4  50
TORSDOF 12
ENDMDL
MODEL 9
REMARK VINA RESULT:      -5.2      4.774      9.420
REMARK  12 active torsions:
REMARK  status: ('A' for Active; 'I' for Inactive)
REMARK    1  A    between atoms: C_1  and  C_2 
REMARK    2  A    between atoms: C_2  and  C_3 
REMARK    3  A    between atoms: C_2  and  C_4 
REMARK    4  A    between atoms: C_4  and  C_5 
REMARK    5  A    between atoms: C_5  and  C_7 
REMARK    6  A    between atoms: C_5  and  N_10 
REMARK       I    between atoms: C_7  and  N_9 
REMARK       I    between atoms: N_10  and  C_11 
REMARK    7  A    between atoms: C_11  and  C_13 
REMARK    8  A    between atoms: C_16  and  N_28 
REMARK       I    between atoms: N_19  and  C_20 
REMARK    9  A    between atoms: C_20  and  C_22 
REMARK   10  A    between atoms: N_26  and  C_27 
REMARK       I    between atoms: N_28  and  C_29 
REMARK   11  A    between atoms: C_29  and  C_31 
REMARK   12  A    between atoms: N_35  and  C_36 
ROOT
ATOM      1  C   LIG d   1       6.073  -2.175  -7.351  0.00  0.00     0.104 C 
ATOM      2  H   LIG d   1       7.102  -1.818  -7.320  0.00  0.00     0.060 H 
ATOM      3  C   LIG d   1       6.041  -3.719  -7.482  0.00  0.00    -0.006 C 
ATOM      4  C   LIG d   1       6.248  -4.161  -6.008  0.00  0.00     0.041 C 
ATOM      5  H   LIG d   1       7.306  -4.157  -5.749  0.00  0.00     0.051 H 
ATOM      6  C   LIG d   1       5.487  -3.078  -5.214  0.00  0.00     0.034 C 
ATOM      7  N   LIG d   1       5.390  -1.891  -6.076  0.00  0.00    -0.283 N 
ATOM      8  C   LIG d   1       4.779  -0.734  -5.753  0.00  0.00     0.264 C 
ATOM      9  O   LIG d   1       4.700   0.161  -6.573  0.00  0.00    -0.268 OA
ATOM     10  H   LIG d   1       5.078  -4.060  -7.861  0.00  0.00     0.031 H 
ATOM     11  H   LIG d   1       6.856  -4.074  -8.113  0.00  0.00     0.031 H 
ATOM     12  H   LIG d   1       4.489  -3.436  -4.962  0.00  0.00     0.048 H 
ATOM     13  H   LIG d   1       6.035  -2.832  -4.304  0.00  0.00     0.048 H 
ENDROOT
BRANCH   1  14
ATOM     14  C   LIG d   1       5.331  -1.537  -8.497  0.00  0.00     0.234 C 
ATOM     15  N   LIG d   1       4.083  -1.944  -8.801  0.00  0.00    -0.302 N 
ATOM     16  H   LIG d   1       3.662  -2.648  -8.283  0.00  0.00     0.149 HD
ATOM     17  O   LIG d   1       5.857  -0.658  -9.145  0.00  0.00    -0.274 OA
BRANCH  15  18
ATOM     18  C   LIG d   1       3.361  -1.323  -9.915  0.00  0.00     0.099 C 
ATOM     19  H   LIG d   1       3.977  -0.537 -10.353  0.00  0.00     0.059 H 
BRANCH  18  20
ATOM     20  C   LIG d   1       3.057  -2.383 -10.977  0.00  0.00    -0.024 C 
ATOM     21  H   LIG d   1       3.792  -2.314 -11.780  0.00  0.00     0.029 H 
ATOM     22  H   LIG d   1       2.060  -2.214 -11.383  0.00  0.00     0.029 H 
BRANCH  20  23
ATOM     23  C   LIG d   1       3.122  -3.774 -10.344  0.00  0.00    -0.045 C 
ATOM     24  H   LIG d   1       3.471  -3.688  -9.315  0.00  0.00     0.030 H 
BRANCH  23  25
ATOM     25  C   LIG d   1       1.729  -4.407 -10.359  0.00  0.00    -0.063 C 
ATOM     26  H   LIG d   1       1.048  -3.772 -10.925  0.00  0.00     0.023 H 
ATOM     27  H   LIG d   1       1.782  -5.390 -10.825  0.00  0.00     0.023 H 
ATOM     28  H   LIG d   1       1.366  -4.508  -9.336  0.00  0.00     0.023 H 
ENDBRANCH  23  25
BRANCH  23  29
ATOM     29  C   LIG d   1       4.090  -4.652 -11.140  0.00  0.00    -0.063 C 
ATOM     30  H   LIG d   1       4.901  -4.980 -10.489  0.00  0.00     0.023 H 
ATOM     31  H   LIG d   1       3.560  -5.521 -11.525  0.00  0.00     0.023 H 
ATOM     32  H   LIG d   1       4.501  -4.078 -11.970  0.00  0.00     0.023 H 
ENDBRANCH  23  29
ENDBRANCH  20  23
ENDBRANCH  18  20
BRANCH  18  33
ATOM     33  C   LIG d   1       2.071  -0.732  -9.411  0.00  0.00     0.231 C 
ATOM     34  O   LIG d   1       2.043  -0.161  -8.341  0.00  0.00    -0.274 OA
ATOM     35  N   LIG d   1       0.948  -0.835 -10.150  0.00  0.00    -0.328 N 
ATOM     36  H   LIG d   1       0.971  -1.292 -11.006  0.00  0.00     0.145 HD
ATOM     37  H   LIG d   1       0.117  -0.454  -9.825  0.00  0.00     0.145 HD
ENDBRANCH  18  33
ENDBRANCH  15  18
ENDBRANCH   1  14
BRANCH   8  38
ATOM     38  C   LIG d   1       4.208  -0.555  -4.414  0.00  0.00     0.104 A 
ATOM     39  N   LIG d   1       4.882  -0.133  -3.291  0.00  0.00    -0.346 N 
ATOM     40  C   LIG d   1       4.013  -0.092  -2.253  0.00  0.00     0.005 A 
ATOM     41  C   LIG d   1       2.793  -0.488  -2.687  0.00  0.00    -0.043 A 
ATOM     42  H   LIG d   1       4.254   0.204  -1.243  0.00  0.00     0.081 H 
ATOM     43  C   LIG d   1       2.898  -0.784  -4.049  0.00  0.00    -0.032 A 
ATOM     44  H   LIG d   1       1.897  -0.562  -2.087  0.00  0.00     0.063 H 
ATOM     45  H   LIG d   1       2.102  -1.127  -4.695  0.00  0.00     0.064 H 
BRANCH  39  46
ATOM     46  C   LIG d   1       6.304   0.216  -3.229  0.00  0.00     0.012 C 
ATOM     47  H   LIG d   1       6.595   0.720  -4.151  0.00  0.00     0.046 H 
ATOM     48  H   LIG d   1       6.479   0.878  -2.382  0.00  0.00     0.046 H 
ATOM     49  H   LIG d   1       6.896  -0.692  -3.109  0.00  0.00     0.046 H 
ENDBRANCH  39  46
ENDBRANCH   8  38
BRANCH   4  50
ATOM     50  N   LIG d   1       5.663  -5.484  -5.778  0.00  0.00    -0.306 N 
ATOM     51  C   LIG d   1       6.404  -6.592  -5.981  0.00  0.00     0.261 C 
ATOM     52  O   LIG d   1       7.526  -6.497  -6.439  0.00  0.00    -0.269 OA
ATOM     53  H   LIG d   1       4.743  -5.564  -5.480  0.00  0.00     0.149 HD
BRANCH  51  54
ATOM     54  C   LIG d   1       5.855  -7.911  -5.648  0.00  0.00     0.104 A 
ATOM     55  N   LIG d   1       4.917  -8.609  -6.375  0.00  0.00    -0.346 N 
ATOM     56  C   LIG d   1       4.668  -9.784  -5.746  0.00  0.00     0.005 A 
ATOM     57  C   LIG d   1       5.429  -9.852  -4.627  0.00  0.00    -0.043 A 
ATOM     58  H   LIG d   1       3.975 -10.541  -6.081  0.00  0.00     0.081 H 
ATOM     59  C   LIG d   1       6.189  -8.680  -4.554  0.00  0.00    -0.032 A 
ATOM     60  H   LIG d   1       5.449 -10.668  -3.921  0.00  0.00     0.063 H 
ATOM     61  H   LIG d   1       6.902  -8.425  -3.784  0.00  0.00     0.064 H 
BRANCH  55  62
ATOM     62  C   LIG d   1       4.293  -8.158  -7.620  0.00  0.00     0.012 C 
ATOM     63  H   LIG d   1       4.515  -7.102  -7.778  0.00  0.00     0.046 H 
ATOM     64  H   LIG d   1       4.684  -8.740  -8.456  0.00  0.00     0.046 H 
ATOM     65  H   LIG d   1       3.213  -8.296  -7.557  0.00  0.00     0.046 H 
ENDBRANCH  55  62
ENDBRANCH  51  54
ENDBRANCH   4  50
TORSDOF 12
ENDMDL
