MODEL 1
REMARK VINA RESULT:      -5.8      0.000      0.000
REMARK  6 active torsions:
REMARK  status: ('A' for Active; 'I' for Inactive)
REMARK    1  A    between atoms: C_1  and  C_2 
REMARK    2  A    between atoms: C_6  and  O_8 
REMARK    3  A    between atoms: C_12  and  O_22 
REMARK    4  A    between atoms: C_14  and  O_20 
REMARK    5  A    between atoms: C_15  and  O_19 
REMARK    6  A    between atoms: O_20  and  C_21 
ROOT
ATOM      1  C   LIG d   1       2.532  -1.293 -10.476  0.00  0.00    -0.046 A 
ATOM      2  C   LIG d   1       2.538  -0.464  -9.364  0.00  0.00    -0.047 A 
ATOM      3  C   LIG d   1       3.199  -0.861  -8.208  0.00  0.00     0.037 A 
ATOM      4  C   LIG d   1       3.855  -2.107  -8.169  0.00  0.00     0.075 A 
ATOM      5  C   LIG d   1       3.836  -2.933  -9.294  0.00  0.00     0.129 A 
ATOM      6  C   LIG d   1       3.168  -2.517 -10.443  0.00  0.00    -0.017 A 
ATOM      7  C   LIG d   1       4.555  -2.527  -6.939  0.00  0.00     0.202 C 
ATOM      8  O   LIG d   1       5.327  -3.467  -6.962  0.00  0.00    -0.286 OA
ATOM      9  C   LIG d   1       4.308  -1.796  -5.685  0.00  0.00     0.078 A 
ATOM     10  C   LIG d   1       4.719  -2.329  -4.460  0.00  0.00     0.132 A 
ATOM     11  C   LIG d   1       4.478  -1.627  -3.283  0.00  0.00     0.026 A 
ATOM     12  C   LIG d   1       3.835  -0.404  -3.315  0.00  0.00     0.166 A 
ATOM     13  C   LIG d   1       3.416   0.145  -4.535  0.00  0.00     0.170 A 
ATOM     14  C   LIG d   1       3.651  -0.547  -5.721  0.00  0.00     0.082 A 
ATOM     15  C   LIG d   1       3.217   0.013  -7.015  0.00  0.00     0.198 C 
ATOM     16  O   LIG d   1       2.882   1.179  -7.100  0.00  0.00    -0.286 OA
ATOM     17  H   LIG d   1       2.035   0.490  -9.399  0.00  0.00     0.063 H 
ATOM     18  H   LIG d   1       3.151  -3.154 -11.315  0.00  0.00     0.066 H 
ATOM     19  H   LIG d   1       4.797  -2.040  -2.338  0.00  0.00     0.069 H 
ENDROOT
BRANCH  12  20
ATOM     20  O   LIG d   1       3.606   0.269  -2.159  0.00  0.00    -0.491 OA
BRANCH  20  21
ATOM     21  C   LIG d   1       4.718   0.951  -1.575  0.00  0.00     0.079 C 
ATOM     22  H   LIG d   1       5.624   0.363  -1.724  0.00  0.00     0.066 H 
ATOM     23  H   LIG d   1       4.836   1.925  -2.050  0.00  0.00     0.066 H 
ATOM     24  H   LIG d   1       4.543   1.085  -0.508  0.00  0.00     0.066 H 
ENDBRANCH  20  21
ENDBRANCH  12  20
BRANCH  13  25
ATOM     25  O   LIG d   1       2.785   1.345  -4.560  0.00  0.00    -0.503 OA
ATOM     26  H   LIG d   1       2.434   1.587  -5.429  0.00  0.00     0.292 HD
ENDBRANCH  13  25
BRANCH  10  27
ATOM     27  O   LIG d   1       5.351  -3.528  -4.419  0.00  0.00    -0.506 OA
ATOM     28  H   LIG d   1       4.844  -4.225  -3.979  0.00  0.00     0.292 HD
ENDBRANCH  10  27
BRANCH   5  29
ATOM     29  O   LIG d   1       4.463  -4.135  -9.269  0.00  0.00    -0.506 OA
ATOM     30  H   LIG d   1       4.179  -4.712  -8.546  0.00  0.00     0.292 HD
ENDBRANCH   5  29
BRANCH   1  31
ATOM     31  C   LIG d   1       1.819  -0.855 -11.729  0.00  0.00    -0.040 C 
ATOM     32  H   LIG d   1       2.422  -0.110 -12.249  0.00  0.00     0.028 H 
ATOM     33  H   LIG d   1       1.667  -1.716 -12.380  0.00  0.00     0.028 H 
ATOM     34  H   LIG d   1       0.854  -0.424 -11.466  0.00  0.00     0.028 H 
ENDBRANCH   1  31
TORSDOF 6
ENDMDL
MODEL 2
REMARK VINA RESULT:      -5.8     10.460     13.437
REMARK  6 active torsions:
REMARK  status: ('A' for Active; 'I' for Inactive)
REMARK    1  A    between atoms: C_1  and  C_2 
REMARK    2  A    between atoms: C_6  and  O_8 
REMARK    3  A    between atoms: C_12  and  O_22 
REMARK    4  A    between atoms: C_14  and  O_20 
REMARK    5  A    between atoms: C_15  and  O_19 
REMARK    6  A    between atoms: O_20  and  C_21 
ROOT
ATOM      1  C   LIG d   1       9.769   5.400  -3.483  0.00  0.00    -0.046 A 
ATOM      2  C   LIG d   1       9.699   6.779  -3.357  0.00  0.00    -0.047 A 
ATOM      3  C   LIG d   1      10.265   7.403  -2.251  0.00  0.00     0.037 A 
ATOM      4  C   LIG d   1      10.903   6.630  -1.262  0.00  0.00     0.075 A 
ATOM      5  C   LIG d   1      10.961   5.242  -1.400  0.00  0.00     0.129 A 
ATOM      6  C   LIG d   1      10.387   4.637  -2.515  0.00  0.00    -0.017 A 
ATOM      7  C   LIG d   1      11.503   7.295  -0.088  0.00  0.00     0.202 C 
ATOM      8  O   LIG d   1      12.264   6.687   0.640  0.00  0.00    -0.286 OA
ATOM      9  C   LIG d   1      11.168   8.702   0.192  0.00  0.00     0.078 A 
ATOM     10  C   LIG d   1      11.478   9.273   1.428  0.00  0.00     0.132 A 
ATOM     11  C   LIG d   1      11.155  10.604   1.678  0.00  0.00     0.026 A 
ATOM     12  C   LIG d   1      10.530  11.367   0.710  0.00  0.00     0.166 A 
ATOM     13  C   LIG d   1      10.211  10.809  -0.536  0.00  0.00     0.170 A 
ATOM     14  C   LIG d   1      10.529   9.479  -0.799  0.00  0.00     0.082 A 
ATOM     15  C   LIG d   1      10.202   8.874  -2.104  0.00  0.00     0.198 C 
ATOM     16  O   LIG d   1       9.886   9.574  -3.046  0.00  0.00    -0.286 OA
ATOM     17  H   LIG d   1       9.210   7.367  -4.118  0.00  0.00     0.063 H 
ATOM     18  H   LIG d   1      10.431   3.563  -2.624  0.00  0.00     0.066 H 
ATOM     19  H   LIG d   1      11.397  11.043   2.634  0.00  0.00     0.069 H 
ENDROOT
BRANCH  12  20
ATOM     20  O   LIG d   1      10.220  12.663   0.969  0.00  0.00    -0.491 OA
BRANCH  20  21
ATOM     21  C   LIG d   1      11.286  13.612   0.889  0.00  0.00     0.079 C 
ATOM     22  H   LIG d   1      11.369  14.144   1.837  0.00  0.00     0.066 H 
ATOM     23  H   LIG d   1      12.221  13.092   0.682  0.00  0.00     0.066 H 
ATOM     24  H   LIG d   1      11.080  14.323   0.090  0.00  0.00     0.066 H 
ENDBRANCH  20  21
ENDBRANCH  12  20
BRANCH  13  25
ATOM     25  O   LIG d   1       9.597  11.563  -1.481  0.00  0.00    -0.503 OA
ATOM     26  H   LIG d   1       8.736  11.911  -1.208  0.00  0.00     0.292 HD
ENDBRANCH  13  25
BRANCH  10  27
ATOM     27  O   LIG d   1      12.093   8.532   2.383  0.00  0.00    -0.506 OA
ATOM     28  H   LIG d   1      12.556   7.755   2.041  0.00  0.00     0.292 HD
ENDBRANCH  10  27
BRANCH   5  29
ATOM     29  O   LIG d   1      11.572   4.487  -0.453  0.00  0.00    -0.506 OA
ATOM     30  H   LIG d   1      11.051   3.727  -0.160  0.00  0.00     0.292 HD
ENDBRANCH   5  29
BRANCH   1  31
ATOM     31  C   LIG d   1       9.159   4.729  -4.686  0.00  0.00    -0.040 C 
ATOM     32  H   LIG d   1       9.813   4.862  -5.548  0.00  0.00     0.028 H 
ATOM     33  H   LIG d   1       9.036   3.664  -4.485  0.00  0.00     0.028 H 
ATOM     34  H   LIG d   1       8.186   5.173  -4.895  0.00  0.00     0.028 H 
ENDBRANCH   1  31
TORSDOF 6
ENDMDL
MODEL 3
REMARK VINA RESULT:      -5.7      8.984     13.006
REMARK  6 active torsions:
REMARK  status: ('A' for Active; 'I' for Inactive)
REMARK    1  A    between atoms: C_1  and  C_2 
REMARK    2  A    between atoms: C_6  and  O_8 
REMARK    3  A    between atoms: C_12  and  O_22 
REMARK    4  A    between atoms: C_14  and  O_20 
REMARK    5  A    between atoms: C_15  and  O_19 
REMARK    6  A    between atoms: O_20  and  C_21 
ROOT
ATOM      1  C   LIG d   1      11.465   8.923   1.407  0.00  0.00    -0.046 A 
ATOM      2  C   LIG d   1      11.580   7.633   0.912  0.00  0.00    -0.047 A 
ATOM      3  C   LIG d   1      11.164   7.348  -0.383  0.00  0.00     0.037 A 
ATOM      4  C   LIG d   1      10.623   8.371  -1.185  0.00  0.00     0.075 A 
ATOM      5  C   LIG d   1      10.510   9.665  -0.672  0.00  0.00     0.129 A 
ATOM      6  C   LIG d   1      10.932   9.929   0.628  0.00  0.00    -0.017 A 
ATOM      7  C   LIG d   1      10.182   8.066  -2.561  0.00  0.00     0.202 C 
ATOM      8  O   LIG d   1       9.949   8.966  -3.345  0.00  0.00    -0.286 OA
ATOM      9  C   LIG d   1      10.024   6.660  -2.971  0.00  0.00     0.078 A 
ATOM     10  C   LIG d   1       9.345   6.336  -4.147  0.00  0.00     0.132 A 
ATOM     11  C   LIG d   1       9.204   5.003  -4.522  0.00  0.00     0.026 A 
ATOM     12  C   LIG d   1       9.733   3.995  -3.738  0.00  0.00     0.166 A 
ATOM     13  C   LIG d   1      10.418   4.303  -2.555  0.00  0.00     0.170 A 
ATOM     14  C   LIG d   1      10.566   5.633  -2.168  0.00  0.00     0.082 A 
ATOM     15  C   LIG d   1      11.283   5.977  -0.926  0.00  0.00     0.198 C 
ATOM     16  O   LIG d   1      11.965   5.146  -0.357  0.00  0.00    -0.286 OA
ATOM     17  H   LIG d   1      11.996   6.852   1.531  0.00  0.00     0.063 H 
ATOM     18  H   LIG d   1      10.844  10.928   1.028  0.00  0.00     0.066 H 
ATOM     19  H   LIG d   1       8.679   4.755  -5.432  0.00  0.00     0.069 H 
ENDROOT
BRANCH  12  20
ATOM     20  O   LIG d   1       9.586   2.700  -4.116  0.00  0.00    -0.491 OA
BRANCH  20  21
ATOM     21  C   LIG d   1       8.329   2.081  -3.837  0.00  0.00     0.079 C 
ATOM     22  H   LIG d   1       8.362   1.620  -2.849  0.00  0.00     0.066 H 
ATOM     23  H   LIG d   1       7.541   2.833  -3.859  0.00  0.00     0.066 H 
ATOM     24  H   LIG d   1       8.125   1.317  -4.587  0.00  0.00     0.066 H 
ENDBRANCH  20  21
ENDBRANCH  12  20
BRANCH  13  25
ATOM     25  O   LIG d   1      10.934   3.309  -1.790  0.00  0.00    -0.503 OA
ATOM     26  H   LIG d   1      11.303   3.612  -0.948  0.00  0.00     0.292 HD
ENDBRANCH  13  25
BRANCH  10  27
ATOM     27  O   LIG d   1       8.823   7.319  -4.923  0.00  0.00    -0.506 OA
ATOM     28  H   LIG d   1       8.183   7.883  -4.466  0.00  0.00     0.292 HD
ENDBRANCH  10  27
BRANCH   5  29
ATOM     29  O   LIG d   1       9.990  10.658  -1.435  0.00  0.00    -0.506 OA
ATOM     30  H   LIG d   1       9.641  11.403  -0.926  0.00  0.00     0.292 HD
ENDBRANCH   5  29
BRANCH   1  31
ATOM     31  C   LIG d   1      11.923   9.228   2.810  0.00  0.00    -0.040 C 
ATOM     32  H   LIG d   1      11.109   9.034   3.508  0.00  0.00     0.028 H 
ATOM     33  H   LIG d   1      12.774   8.595   3.060  0.00  0.00     0.028 H 
ATOM     34  H   LIG d   1      12.217  10.275   2.876  0.00  0.00     0.028 H 
ENDBRANCH   1  31
TORSDOF 6
ENDMDL
MODEL 4
REMARK VINA RESULT:      -5.7     10.141     14.093
REMARK  6 active torsions:
REMARK  status: ('A' for Active; 'I' for Inactive)
REMARK    1  A    between atoms: C_1  and  C_2 
REMARK    2  A    between atoms: C_6  and  O_8 
REMARK    3  A    between atoms: C_12  and  O_22 
REMARK    4  A    between atoms: C_14  and  O_20 
REMARK    5  A    between atoms: C_15  and  O_19 
REMARK    6  A    between atoms: O_20  and  C_21 
ROOT
ATOM      1  C   LIG d   1      11.405  11.683   0.872  0.00  0.00    -0.046 A 
ATOM      2  C   LIG d   1      10.804  11.112  -0.240  0.00  0.00    -0.047 A 
ATOM      3  C   LIG d   1      10.680   9.731  -0.328  0.00  0.00     0.037 A 
ATOM      4  C   LIG d   1      11.171   8.916   0.711  0.00  0.00     0.075 A 
ATOM      5  C   LIG d   1      11.779   9.505   1.822  0.00  0.00     0.129 A 
ATOM      6  C   LIG d   1      11.893  10.891   1.890  0.00  0.00    -0.017 A 
ATOM      7  C   LIG d   1      11.039   7.449   0.615  0.00  0.00     0.202 C 
ATOM      8  O   LIG d   1      11.225   6.750   1.594  0.00  0.00    -0.286 OA
ATOM      9  C   LIG d   1      10.683   6.841  -0.678  0.00  0.00     0.078 A 
ATOM     10  C   LIG d   1      10.827   5.467  -0.880  0.00  0.00     0.132 A 
ATOM     11  C   LIG d   1      10.486   4.907  -2.108  0.00  0.00     0.026 A 
ATOM     12  C   LIG d   1      10.004   5.701  -3.131  0.00  0.00     0.166 A 
ATOM     13  C   LIG d   1       9.852   7.082  -2.945  0.00  0.00     0.170 A 
ATOM     14  C   LIG d   1      10.189   7.655  -1.721  0.00  0.00     0.082 A 
ATOM     15  C   LIG d   1      10.037   9.107  -1.505  0.00  0.00     0.198 C 
ATOM     16  O   LIG d   1       9.391   9.781  -2.284  0.00  0.00    -0.286 OA
ATOM     17  H   LIG d   1      10.428  11.740  -1.033  0.00  0.00     0.063 H 
ATOM     18  H   LIG d   1      12.363  11.348   2.748  0.00  0.00     0.066 H 
ATOM     19  H   LIG d   1      10.599   3.844  -2.262  0.00  0.00     0.069 H 
ENDROOT
BRANCH  12  20
ATOM     20  O   LIG d   1       9.676   5.141  -4.323  0.00  0.00    -0.491 OA
BRANCH  20  21
ATOM     21  C   LIG d   1       9.603   3.714  -4.371  0.00  0.00     0.079 C 
ATOM     22  H   LIG d   1      10.462   3.290  -3.851  0.00  0.00     0.066 H 
ATOM     23  H   LIG d   1       8.685   3.381  -3.888  0.00  0.00     0.066 H 
ATOM     24  H   LIG d   1       9.609   3.385  -5.410  0.00  0.00     0.066 H 
ENDBRANCH  20  21
ENDBRANCH  12  20
BRANCH  13  25
ATOM     25  O   LIG d   1       9.378   7.856  -3.953  0.00  0.00    -0.503 OA
ATOM     26  H   LIG d   1       9.885   8.667  -4.097  0.00  0.00     0.292 HD
ENDBRANCH  13  25
BRANCH  10  27
ATOM     27  O   LIG d   1      11.300   4.679   0.117  0.00  0.00    -0.506 OA
ATOM     28  H   LIG d   1      12.215   4.868   0.368  0.00  0.00     0.292 HD
ENDBRANCH  10  27
BRANCH   5  29
ATOM     29  O   LIG d   1      12.256   8.731   2.828  0.00  0.00    -0.506 OA
ATOM     30  H   LIG d   1      11.575   8.414   3.437  0.00  0.00     0.292 HD
ENDBRANCH   5  29
BRANCH   1  31
ATOM     31  C   LIG d   1      11.532  13.181   0.965  0.00  0.00    -0.040 C 
ATOM     32  H   LIG d   1      11.167  13.517   1.936  0.00  0.00     0.028 H 
ATOM     33  H   LIG d   1      12.578  13.465   0.852  0.00  0.00     0.028 H 
ATOM     34  H   LIG d   1      10.942  13.645   0.174  0.00  0.00     0.028 H 
ENDBRANCH   1  31
TORSDOF 6
ENDMDL
MODEL 5
REMARK VINA RESULT:      -5.6      4.282      6.602
REMARK  6 active torsions:
REMARK  status: ('A' for Active; 'I' for Inactive)
REMARK    1  A    between atoms: C_1  and  C_2 
REMARK    2  A    between atoms: C_6  and  O_8 
REMARK    3  A    between atoms: C_12  and  O_22 
REMARK    4  A    between atoms: C_14  and  O_20 
REMARK    5  A    between atoms: C_15  and  O_19 
REMARK    6  A    between atoms: O_20  and  C_21 
ROOT
ATOM      1  C   LIG d   1       4.969   0.494  -2.747  0.00  0.00    -0.046 A 
ATOM      2  C   LIG d   1       4.572  -0.796  -3.063  0.00  0.00    -0.047 A 
ATOM      3  C   LIG d   1       5.456  -1.655  -3.705  0.00  0.00     0.037 A 
ATOM      4  C   LIG d   1       6.749  -1.208  -4.037  0.00  0.00     0.075 A 
ATOM      5  C   LIG d   1       7.133   0.096  -3.718  0.00  0.00     0.129 A 
ATOM      6  C   LIG d   1       6.232   0.940  -3.075  0.00  0.00    -0.017 A 
ATOM      7  C   LIG d   1       7.687  -2.122  -4.720  0.00  0.00     0.202 C 
ATOM      8  O   LIG d   1       8.870  -1.848  -4.791  0.00  0.00    -0.286 OA
ATOM      9  C   LIG d   1       7.173  -3.367  -5.316  0.00  0.00     0.078 A 
ATOM     10  C   LIG d   1       7.958  -4.105  -6.205  0.00  0.00     0.132 A 
ATOM     11  C   LIG d   1       7.458  -5.280  -6.760  0.00  0.00     0.026 A 
ATOM     12  C   LIG d   1       6.190  -5.723  -6.437  0.00  0.00     0.166 A 
ATOM     13  C   LIG d   1       5.388  -4.995  -5.547  0.00  0.00     0.170 A 
ATOM     14  C   LIG d   1       5.876  -3.818  -4.984  0.00  0.00     0.082 A 
ATOM     15  C   LIG d   1       5.049  -3.036  -4.045  0.00  0.00     0.198 C 
ATOM     16  O   LIG d   1       4.047  -3.522  -3.556  0.00  0.00    -0.286 OA
ATOM     17  H   LIG d   1       3.580  -1.134  -2.806  0.00  0.00     0.063 H 
ATOM     18  H   LIG d   1       6.526   1.950  -2.827  0.00  0.00     0.066 H 
ATOM     19  H   LIG d   1       8.067  -5.849  -7.446  0.00  0.00     0.069 H 
ENDROOT
BRANCH  12  20
ATOM     20  O   LIG d   1       5.716  -6.870  -6.987  0.00  0.00    -0.491 OA
BRANCH  20  21
ATOM     21  C   LIG d   1       6.155  -8.099  -6.403  0.00  0.00     0.079 C 
ATOM     22  H   LIG d   1       7.025  -7.911  -5.774  0.00  0.00     0.066 H 
ATOM     23  H   LIG d   1       5.353  -8.520  -5.797  0.00  0.00     0.066 H 
ATOM     24  H   LIG d   1       6.422  -8.801  -7.193  0.00  0.00     0.066 H 
ENDBRANCH  20  21
ENDBRANCH  12  20
BRANCH  13  25
ATOM     25  O   LIG d   1       4.145  -5.435  -5.235  0.00  0.00    -0.503 OA
ATOM     26  H   LIG d   1       3.470  -5.203  -5.889  0.00  0.00     0.292 HD
ENDBRANCH  13  25
BRANCH  10  27
ATOM     27  O   LIG d   1       9.204  -3.678  -6.526  0.00  0.00    -0.506 OA
ATOM     28  H   LIG d   1       9.835  -3.718  -5.794  0.00  0.00     0.292 HD
ENDBRANCH  10  27
BRANCH   5  29
ATOM     29  O   LIG d   1       8.376   0.538  -4.033  0.00  0.00    -0.506 OA
ATOM     30  H   LIG d   1       8.769   0.093  -4.796  0.00  0.00     0.292 HD
ENDBRANCH   5  29
BRANCH   1  31
ATOM     31  C   LIG d   1       4.008   1.420  -2.046  0.00  0.00    -0.040 C 
ATOM     32  H   LIG d   1       3.506   0.881  -1.242  0.00  0.00     0.028 H 
ATOM     33  H   LIG d   1       4.557   2.264  -1.629  0.00  0.00     0.028 H 
ATOM     34  H   LIG d   1       3.268   1.783  -2.759  0.00  0.00     0.028 H 
ENDBRANCH   1  31
TORSDOF 6
ENDMDL
MODEL 6
REMARK VINA RESULT:      -5.6     10.062     13.091
REMARK  6 active torsions:
REMARK  status: ('A' for Active; 'I' for Inactive)
REMARK    1  A    between atoms: C_1  and  C_2 
REMARK    2  A    between atoms: C_6  and  O_8 
REMARK    3  A    between atoms: C_12  and  O_22 
REMARK    4  A    between atoms: C_14  and  O_20 
REMARK    5  A    between atoms: C_15  and  O_19 
REMARK    6  A    between atoms: O_20  and  C_21 
ROOT
ATOM      1  C   LIG d   1       9.729   5.560  -4.373  0.00  0.00    -0.046 A 
ATOM      2  C   LIG d   1      10.003   5.489  -3.016  0.00  0.00    -0.047 A 
ATOM      3  C   LIG d   1      10.079   6.654  -2.262  0.00  0.00     0.037 A 
ATOM      4  C   LIG d   1       9.881   7.903  -2.883  0.00  0.00     0.075 A 
ATOM      5  C   LIG d   1       9.611   7.959  -4.252  0.00  0.00     0.129 A 
ATOM      6  C   LIG d   1       9.541   6.779  -4.988  0.00  0.00    -0.017 A 
ATOM      7  C   LIG d   1       9.962   9.140  -2.081  0.00  0.00     0.202 C 
ATOM      8  O   LIG d   1       9.555  10.193  -2.533  0.00  0.00    -0.286 OA
ATOM      9  C   LIG d   1      10.543   9.084  -0.729  0.00  0.00     0.078 A 
ATOM     10  C   LIG d   1      10.898  10.257  -0.060  0.00  0.00     0.132 A 
ATOM     11  C   LIG d   1      11.446  10.189   1.218  0.00  0.00     0.026 A 
ATOM     12  C   LIG d   1      11.641   8.966   1.832  0.00  0.00     0.166 A 
ATOM     13  C   LIG d   1      11.291   7.778   1.175  0.00  0.00     0.170 A 
ATOM     14  C   LIG d   1      10.741   7.833  -0.104  0.00  0.00     0.082 A 
ATOM     15  C   LIG d   1      10.366   6.595  -0.812  0.00  0.00     0.198 C 
ATOM     16  O   LIG d   1      10.293   5.540  -0.212  0.00  0.00    -0.286 OA
ATOM     17  H   LIG d   1      10.153   4.529  -2.545  0.00  0.00     0.063 H 
ATOM     18  H   LIG d   1       9.332   6.820  -6.047  0.00  0.00     0.066 H 
ATOM     19  H   LIG d   1      11.719  11.097   1.733  0.00  0.00     0.069 H 
ENDROOT
BRANCH  12  20
ATOM     20  O   LIG d   1      12.177   8.915   3.078  0.00  0.00    -0.491 OA
BRANCH  20  21
ATOM     21  C   LIG d   1      12.543  10.160   3.678  0.00  0.00     0.079 C 
ATOM     22  H   LIG d   1      12.248  10.157   4.728  0.00  0.00     0.066 H 
ATOM     23  H   LIG d   1      13.622  10.295   3.606  0.00  0.00     0.066 H 
ATOM     24  H   LIG d   1      12.038  10.975   3.161  0.00  0.00     0.066 H 
ENDBRANCH  20  21
ENDBRANCH  12  20
BRANCH  13  25
ATOM     25  O   LIG d   1      11.486   6.582   1.782  0.00  0.00    -0.503 OA
ATOM     26  H   LIG d   1      12.381   6.458   2.129  0.00  0.00     0.292 HD
ENDBRANCH  13  25
BRANCH  10  27
ATOM     27  O   LIG d   1      10.709  11.462  -0.654  0.00  0.00    -0.506 OA
ATOM     28  H   LIG d   1      11.191  12.188  -0.234  0.00  0.00     0.292 HD
ENDBRANCH  10  27
BRANCH   5  29
ATOM     29  O   LIG d   1       9.420   9.155  -4.861  0.00  0.00    -0.506 OA
ATOM     30  H   LIG d   1      10.224   9.687  -4.943  0.00  0.00     0.292 HD
ENDBRANCH   5  29
BRANCH   1  31
ATOM     31  C   LIG d   1       9.643   4.293  -5.184  0.00  0.00    -0.040 C 
ATOM     32  H   LIG d   1      10.043   4.472  -6.182  0.00  0.00     0.028 H 
ATOM     33  H   LIG d   1      10.223   3.509  -4.696  0.00  0.00     0.028 H 
ATOM     34  H   LIG d   1       8.602   3.981  -5.260  0.00  0.00     0.028 H 
ENDBRANCH   1  31
TORSDOF 6
ENDMDL
MODEL 7
REMARK VINA RESULT:      -5.6      8.988     11.470
REMARK  6 active torsions:
REMARK  status: ('A' for Active; 'I' for Inactive)
REMARK    1  A    between atoms: C_1  and  C_2 
REMARK    2  A    between atoms: C_6  and  O_8 
REMARK    3  A    between atoms: C_12  and  O_22 
REMARK    4  A    between atoms: C_14  and  O_20 
REMARK    5  A    between atoms: C_15  and  O_19 
REMARK    6  A    between atoms: O_20  and  C_21 
ROOT
ATOM      1  C   LIG d   1       9.531   3.817  -5.009  0.00  0.00    -0.046 A 
ATOM      2  C   LIG d   1       9.515   5.197  -4.872  0.00  0.00    -0.047 A 
ATOM      3  C   LIG d   1       9.983   5.783  -3.702  0.00  0.00     0.037 A 
ATOM      4  C   LIG d   1      10.468   4.971  -2.658  0.00  0.00     0.075 A 
ATOM      5  C   LIG d   1      10.473   3.583  -2.808  0.00  0.00     0.129 A 
ATOM      6  C   LIG d   1       9.998   3.016  -3.988  0.00  0.00    -0.017 A 
ATOM      7  C   LIG d   1      10.965   5.596  -1.416  0.00  0.00     0.202 C 
ATOM      8  O   LIG d   1      11.609   4.944  -0.616  0.00  0.00    -0.286 OA
ATOM      9  C   LIG d   1      10.670   7.015  -1.156  0.00  0.00     0.078 A 
ATOM     10  C   LIG d   1      10.868   7.560   0.115  0.00  0.00     0.132 A 
ATOM     11  C   LIG d   1      10.584   8.903   0.345  0.00  0.00     0.026 A 
ATOM     12  C   LIG d   1      10.109   9.704  -0.675  0.00  0.00     0.166 A 
ATOM     13  C   LIG d   1       9.905   9.174  -1.957  0.00  0.00     0.170 A 
ATOM     14  C   LIG d   1      10.185   7.831  -2.201  0.00  0.00     0.082 A 
ATOM     15  C   LIG d   1       9.976   7.254  -3.542  0.00  0.00     0.198 C 
ATOM     16  O   LIG d   1       9.803   7.977  -4.504  0.00  0.00    -0.286 OA
ATOM     17  H   LIG d   1       9.143   5.815  -5.675  0.00  0.00     0.063 H 
ATOM     18  H   LIG d   1      10.002   1.943  -4.106  0.00  0.00     0.066 H 
ATOM     19  H   LIG d   1      10.739   9.322   1.328  0.00  0.00     0.069 H 
ENDROOT
BRANCH  12  20
ATOM     20  O   LIG d   1       9.837  11.012  -0.435  0.00  0.00    -0.491 OA
BRANCH  20  21
ATOM     21  C   LIG d   1      10.472  11.609   0.697  0.00  0.00     0.079 C 
ATOM     22  H   LIG d   1      11.324  12.202   0.365  0.00  0.00     0.066 H 
ATOM     23  H   LIG d   1       9.761  12.255   1.214  0.00  0.00     0.066 H 
ATOM     24  H   LIG d   1      10.815  10.828   1.376  0.00  0.00     0.066 H 
ENDBRANCH  20  21
ENDBRANCH  12  20
BRANCH  13  25
ATOM     25  O   LIG d   1       9.438   9.965  -2.954  0.00  0.00    -0.503 OA
ATOM     26  H   LIG d   1       9.711   9.686  -3.839  0.00  0.00     0.292 HD
ENDBRANCH  13  25
BRANCH  10  27
ATOM     27  O   LIG d   1      11.335   6.781   1.122  0.00  0.00    -0.506 OA
ATOM     28  H   LIG d   1      11.212   7.162   2.003  0.00  0.00     0.292 HD
ENDBRANCH  10  27
BRANCH   5  29
ATOM     29  O   LIG d   1      10.937   2.791  -1.810  0.00  0.00    -0.506 OA
ATOM     30  H   LIG d   1      10.257   2.238  -1.399  0.00  0.00     0.292 HD
ENDBRANCH   5  29
BRANCH   1  31
ATOM     31  C   LIG d   1       9.027   3.188  -6.281  0.00  0.00    -0.040 C 
ATOM     32  H   LIG d   1       9.283   2.128  -6.289  0.00  0.00     0.028 H 
ATOM     33  H   LIG d   1       7.944   3.300  -6.338  0.00  0.00     0.028 H 
ATOM     34  H   LIG d   1       9.488   3.680  -7.137  0.00  0.00     0.028 H 
ENDBRANCH   1  31
TORSDOF 6
ENDMDL
MODEL 8
REMARK VINA RESULT:      -5.5      1.132      6.596
REMARK  6 active torsions:
REMARK  status: ('A' for Active; 'I' for Inactive)
REMARK    1  A    between atoms: C_1  and  C_2 
REMARK    2  A    between atoms: C_6  and  O_8 
REMARK    3  A    between atoms: C_12  and  O_22 
REMARK    4  A    between atoms: C_14  and  O_20 
REMARK    5  A    between atoms: C_15  and  O_19 
REMARK    6  A    between atoms: O_20  and  C_21 
ROOT
ATOM      1  C   LIG d   1       4.011  -1.075  -3.062  0.00  0.00    -0.046 A 
ATOM      2  C   LIG d   1       4.412  -1.874  -4.122  0.00  0.00    -0.047 A 
ATOM      3  C   LIG d   1       4.182  -1.458  -5.428  0.00  0.00     0.037 A 
ATOM      4  C   LIG d   1       3.537  -0.229  -5.668  0.00  0.00     0.075 A 
ATOM      5  C   LIG d   1       3.135   0.562  -4.591  0.00  0.00     0.129 A 
ATOM      6  C   LIG d   1       3.374   0.127  -3.290  0.00  0.00    -0.017 A 
ATOM      7  C   LIG d   1       3.293   0.210  -7.056  0.00  0.00     0.202 C 
ATOM      8  O   LIG d   1       2.972   1.360  -7.289  0.00  0.00    -0.286 OA
ATOM      9  C   LIG d   1       3.441  -0.759  -8.155  0.00  0.00     0.078 A 
ATOM     10  C   LIG d   1       2.950  -0.469  -9.430  0.00  0.00     0.132 A 
ATOM     11  C   LIG d   1       3.097  -1.395 -10.458  0.00  0.00     0.026 A 
ATOM     12  C   LIG d   1       3.729  -2.603 -10.228  0.00  0.00     0.166 A 
ATOM     13  C   LIG d   1       4.229  -2.911  -8.955  0.00  0.00     0.170 A 
ATOM     14  C   LIG d   1       4.088  -1.992  -7.917  0.00  0.00     0.082 A 
ATOM     15  C   LIG d   1       4.606  -2.297  -6.570  0.00  0.00     0.198 C 
ATOM     16  O   LIG d   1       5.374  -3.225  -6.401  0.00  0.00    -0.286 OA
ATOM     17  H   LIG d   1       4.905  -2.815  -3.933  0.00  0.00     0.063 H 
ATOM     18  H   LIG d   1       3.064   0.737  -2.454  0.00  0.00     0.066 H 
ATOM     19  H   LIG d   1       2.716  -1.168 -11.442  0.00  0.00     0.069 H 
ENDROOT
BRANCH  12  20
ATOM     20  O   LIG d   1       3.864  -3.497 -11.240  0.00  0.00    -0.491 OA
BRANCH  20  21
ATOM     21  C   LIG d   1       2.681  -4.173 -11.671  0.00  0.00     0.079 C 
ATOM     22  H   LIG d   1       1.844  -3.474 -11.675  0.00  0.00     0.066 H 
ATOM     23  H   LIG d   1       2.832  -4.564 -12.677  0.00  0.00     0.066 H 
ATOM     24  H   LIG d   1       2.464  -4.995 -10.989  0.00  0.00     0.066 H 
ENDBRANCH  20  21
ENDBRANCH  12  20
BRANCH  13  25
ATOM     25  O   LIG d   1       4.846  -4.097  -8.735  0.00  0.00    -0.503 OA
ATOM     26  H   LIG d   1       4.464  -4.612  -8.011  0.00  0.00     0.292 HD
ENDBRANCH  13  25
BRANCH  10  27
ATOM     27  O   LIG d   1       2.329   0.714  -9.665  0.00  0.00    -0.506 OA
ATOM     28  H   LIG d   1       1.364   0.670  -9.607  0.00  0.00     0.292 HD
ENDBRANCH  10  27
BRANCH   5  29
ATOM     29  O   LIG d   1       2.513   1.747  -4.809  0.00  0.00    -0.506 OA
ATOM     30  H   LIG d   1       1.797   1.702  -5.457  0.00  0.00     0.292 HD
ENDBRANCH   5  29
BRANCH   1  31
ATOM     31  C   LIG d   1       4.268  -1.528  -1.648  0.00  0.00    -0.040 C 
ATOM     32  H   LIG d   1       4.030  -0.718  -0.958  0.00  0.00     0.028 H 
ATOM     33  H   LIG d   1       3.642  -2.392  -1.423  0.00  0.00     0.028 H 
ATOM     34  H   LIG d   1       5.317  -1.802  -1.539  0.00  0.00     0.028 H 
ENDBRANCH   1  31
TORSDOF 6
ENDMDL
MODEL 9
REMARK VINA RESULT:      -5.4      1.394      5.775
REMARK  6 active torsions:
REMARK  status: ('A' for Active; 'I' for Inactive)
REMARK    1  A    between atoms: C_1  and  C_2 
REMARK    2  A    between atoms: C_6  and  O_8 
REMARK    3  A    between atoms: C_12  and  O_22 
REMARK    4  A    between atoms: C_14  and  O_20 
REMARK    5  A    between atoms: C_15  and  O_19 
REMARK    6  A    between atoms: O_20  and  C_21 
ROOT
ATOM      1  C   LIG d   1       4.670   0.116  -2.799  0.00  0.00    -0.046 A 
ATOM      2  C   LIG d   1       4.002   0.546  -3.936  0.00  0.00    -0.047 A 
ATOM      3  C   LIG d   1       3.997  -0.247  -5.077  0.00  0.00     0.037 A 
ATOM      4  C   LIG d   1       4.675  -1.481  -5.075  0.00  0.00     0.075 A 
ATOM      5  C   LIG d   1       5.347  -1.899  -3.924  0.00  0.00     0.129 A 
ATOM      6  C   LIG d   1       5.341  -1.089  -2.792  0.00  0.00    -0.017 A 
ATOM      7  C   LIG d   1       4.668  -2.322  -6.289  0.00  0.00     0.202 C 
ATOM      8  O   LIG d   1       5.026  -3.483  -6.234  0.00  0.00    -0.286 OA
ATOM      9  C   LIG d   1       4.226  -1.738  -7.566  0.00  0.00     0.078 A 
ATOM     10  C   LIG d   1       4.472  -2.398  -8.772  0.00  0.00     0.132 A 
ATOM     11  C   LIG d   1       4.048  -1.834  -9.971  0.00  0.00     0.026 A 
ATOM     12  C   LIG d   1       3.382  -0.623  -9.979  0.00  0.00     0.166 A 
ATOM     13  C   LIG d   1       3.126   0.054  -8.778  0.00  0.00     0.170 A 
ATOM     14  C   LIG d   1       3.545  -0.500  -7.571  0.00  0.00     0.082 A 
ATOM     15  C   LIG d   1       3.286   0.196  -6.297  0.00  0.00     0.198 C 
ATOM     16  O   LIG d   1       2.497   1.120  -6.249  0.00  0.00    -0.286 OA
ATOM     17  H   LIG d   1       3.484   1.492  -3.932  0.00  0.00     0.063 H 
ATOM     18  H   LIG d   1       5.860  -1.409  -1.901  0.00  0.00     0.066 H 
ATOM     19  H   LIG d   1       4.240  -2.347 -10.902  0.00  0.00     0.069 H 
ENDROOT
BRANCH  12  20
ATOM     20  O   LIG d   1       2.976  -0.084 -11.157  0.00  0.00    -0.491 OA
BRANCH  20  21
ATOM     21  C   LIG d   1       3.918  -0.088 -12.231  0.00  0.00     0.079 C 
ATOM     22  H   LIG d   1       4.506   0.830 -12.201  0.00  0.00     0.066 H 
ATOM     23  H   LIG d   1       4.581  -0.947 -12.130  0.00  0.00     0.066 H 
ATOM     24  H   LIG d   1       3.387  -0.147 -13.181  0.00  0.00     0.066 H 
ENDBRANCH  20  21
ENDBRANCH  12  20
BRANCH  13  25
ATOM     25  O   LIG d   1       2.473   1.242  -8.793  0.00  0.00    -0.503 OA
ATOM     26  H   LIG d   1       2.226   1.565  -7.916  0.00  0.00     0.292 HD
ENDBRANCH  13  25
BRANCH  10  27
ATOM     27  O   LIG d   1       5.124  -3.587  -8.774  0.00  0.00    -0.506 OA
ATOM     28  H   LIG d   1       5.840  -3.645  -8.126  0.00  0.00     0.292 HD
ENDBRANCH  10  27
BRANCH   5  29
ATOM     29  O   LIG d   1       6.004  -3.085  -3.910  0.00  0.00    -0.506 OA
ATOM     30  H   LIG d   1       5.422  -3.856  -3.850  0.00  0.00     0.292 HD
ENDBRANCH   5  29
BRANCH   1  31
ATOM     31  C   LIG d   1       4.668   0.977  -1.562  0.00  0.00    -0.040 C 
ATOM     32  H   LIG d   1       5.545   0.747  -0.957  0.00  0.00     0.028 H 
ATOM     33  H   LIG d   1       4.692   2.028  -1.851  0.00  0.00     0.028 H 
ATOM     34  H   LIG d   1       3.765   0.780  -0.984  0.00  0.00     0.028 H 
ENDBRANCH   1  31
TORSDOF 6
ENDMDL
MODEL 10
REMARK VINA RESULT:      -5.3      9.508     11.442
REMARK  6 active torsions:
REMARK  status: ('A' for Active; 'I' for Inactive)
REMARK    1  A    between atoms: C_1  and  C_2 
REMARK    2  A    between atoms: C_6  and  O_8 
REMARK    3  A    between atoms: C_12  and  O_22 
REMARK    4  A    between atoms: C_14  and  O_20 
REMARK    5  A    between atoms: C_15  and  O_19 
REMARK    6  A    between atoms: O_20  and  C_21 
ROOT
ATOM      1  C   LIG d   1       9.614   6.966  -8.633  0.00  0.00    -0.046 A 
ATOM      2  C   LIG d   1       9.562   6.286  -7.425  0.00  0.00    -0.047 A 
ATOM      3  C   LIG d   1       9.518   6.996  -6.231  0.00  0.00     0.037 A 
ATOM      4  C   LIG d   1       9.531   8.404  -6.254  0.00  0.00     0.075 A 
ATOM      5  C   LIG d   1       9.588   9.075  -7.477  0.00  0.00     0.129 A 
ATOM      6  C   LIG d   1       9.633   8.344  -8.662  0.00  0.00    -0.017 A 
ATOM      7  C   LIG d   1       9.485   9.157  -4.985  0.00  0.00     0.202 C 
ATOM      8  O   LIG d   1       9.245  10.350  -4.986  0.00  0.00    -0.286 OA
ATOM      9  C   LIG d   1       9.733   8.448  -3.718  0.00  0.00     0.078 A 
ATOM     10  C   LIG d   1       9.980   9.161  -2.542  0.00  0.00     0.132 A 
ATOM     11  C   LIG d   1      10.214   8.477  -1.353  0.00  0.00     0.026 A 
ATOM     12  C   LIG d   1      10.202   7.095  -1.325  0.00  0.00     0.166 A 
ATOM     13  C   LIG d   1       9.956   6.364  -2.495  0.00  0.00     0.170 A 
ATOM     14  C   LIG d   1       9.720   7.036  -3.693  0.00  0.00     0.082 A 
ATOM     15  C   LIG d   1       9.459   6.285  -4.935  0.00  0.00     0.198 C 
ATOM     16  O   LIG d   1       9.198   5.099  -4.895  0.00  0.00    -0.286 OA
ATOM     17  H   LIG d   1       9.552   5.207  -7.413  0.00  0.00     0.063 H 
ATOM     18  H   LIG d   1       9.677   8.861  -9.609  0.00  0.00     0.066 H 
ATOM     19  H   LIG d   1      10.404   9.030  -0.445  0.00  0.00     0.069 H 
ENDROOT
BRANCH  12  20
ATOM     20  O   LIG d   1      10.432   6.442  -0.158  0.00  0.00    -0.491 OA
BRANCH  20  21
ATOM     21  C   LIG d   1      11.118   7.166   0.866  0.00  0.00     0.079 C 
ATOM     22  H   LIG d   1      11.659   6.468   1.505  0.00  0.00     0.066 H 
ATOM     23  H   LIG d   1      11.822   7.861   0.410  0.00  0.00     0.066 H 
ATOM     24  H   LIG d   1      10.396   7.720   1.466  0.00  0.00     0.066 H 
ENDBRANCH  20  21
ENDBRANCH  12  20
BRANCH  13  25
ATOM     25  O   LIG d   1       9.946   5.009  -2.461  0.00  0.00    -0.503 OA
ATOM     26  H   LIG d   1      10.712   4.621  -2.015  0.00  0.00     0.292 HD
ENDBRANCH  13  25
BRANCH  10  27
ATOM     27  O   LIG d   1       9.993  10.517  -2.560  0.00  0.00    -0.506 OA
ATOM     28  H   LIG d   1       9.465  10.906  -3.271  0.00  0.00     0.292 HD
ENDBRANCH  10  27
BRANCH   5  29
ATOM     29  O   LIG d   1       9.602  10.431  -7.512  0.00  0.00    -0.506 OA
ATOM     30  H   LIG d   1      10.102  10.837  -6.791  0.00  0.00     0.292 HD
ENDBRANCH   5  29
BRANCH   1  31
ATOM     31  C   LIG d   1       9.656   6.191  -9.924  0.00  0.00    -0.040 C 
ATOM     32  H   LIG d   1      10.540   6.479 -10.492  0.00  0.00     0.028 H 
ATOM     33  H   LIG d   1       9.697   5.123  -9.706  0.00  0.00     0.028 H 
ATOM     34  H   LIG d   1       8.762   6.408 -10.507  0.00  0.00     0.028 H 
ENDBRANCH   1  31
TORSDOF 6
ENDMDL
