MODEL 1
REMARK VINA RESULT:      -5.4      0.000      0.000
REMARK  14 active torsions:
REMARK  status: ('A' for Active; 'I' for Inactive)
REMARK    1  A    between atoms: C_1  and  C_2 
REMARK    2  A    between atoms: C_2  and  C_3 
REMARK    3  A    between atoms: C_2  and  C_4 
REMARK    4  A    between atoms: C_4  and  C_5 
REMARK    5  A    between atoms: C_5  and  C_6 
REMARK    6  A    between atoms: C_6  and  C_8 
REMARK    7  A    between atoms: C_6  and  C_20 
REMARK    8  A    between atoms: C_8  and  C_9 
REMARK    9  A    between atoms: C_9  and  N_55 
REMARK   10  A    between atoms: C_10  and  C_11 
REMARK   11  A    between atoms: C_10  and  N_55 
REMARK   12  A    between atoms: C_14  and  N_17 
REMARK   13  A    between atoms: N_17  and  C_18 
REMARK   14  A    between atoms: N_17  and  C_19 
ROOT
ATOM      1  C   LIG d   1       6.735  -1.459  -3.243  0.00  0.00    -0.003 C 
ATOM      2  H   LIG d   1       7.431  -2.253  -3.516  0.00  0.00     0.032 H 
ATOM      3  H   LIG d   1       6.730  -1.337  -2.160  0.00  0.00     0.032 H 
ENDROOT
BRANCH   1   4
ATOM      4  C   LIG d   1       5.330  -1.825  -3.723  0.00  0.00     0.022 C 
ATOM      5  H   LIG d   1       4.956  -1.043  -4.384  0.00  0.00     0.038 H 
BRANCH   4   6
ATOM      6  C   LIG d   1       4.398  -1.959  -2.516  0.00  0.00    -0.043 C 
ATOM      7  H   LIG d   1       4.179  -3.012  -2.342  0.00  0.00     0.027 H 
ATOM      8  H   LIG d   1       4.882  -1.538  -1.634  0.00  0.00     0.027 H 
BRANCH   6   9
ATOM      9  C   LIG d   1       3.096  -1.205  -2.792  0.00  0.00    -0.050 C 
ATOM     10  H   LIG d   1       2.443  -1.822  -3.410  0.00  0.00     0.027 H 
ATOM     11  H   LIG d   1       2.598  -0.981  -1.849  0.00  0.00     0.027 H 
BRANCH   9  12
ATOM     12  C   LIG d   1       3.408   0.101  -3.525  0.00  0.00    -0.047 C 
ATOM     13  H   LIG d   1       4.357   0.005  -4.052  0.00  0.00     0.029 H 
BRANCH  12  14
ATOM     14  C   LIG d   1       2.295   0.399  -4.532  0.00  0.00    -0.063 C 
ATOM     15  H   LIG d   1       2.022   1.453  -4.471  0.00  0.00     0.023 H 
ATOM     16  H   LIG d   1       2.646   0.173  -5.539  0.00  0.00     0.023 H 
ATOM     17  H   LIG d   1       1.424  -0.216  -4.305  0.00  0.00     0.023 H 
ENDBRANCH  12  14
BRANCH  12  18
ATOM     18  C   LIG d   1       3.499   1.245  -2.514  0.00  0.00    -0.063 C 
ATOM     19  H   LIG d   1       2.803   2.036  -2.796  0.00  0.00     0.023 H 
ATOM     20  H   LIG d   1       3.245   0.874  -1.522  0.00  0.00     0.023 H 
ATOM     21  H   LIG d   1       4.515   1.642  -2.505  0.00  0.00     0.023 H 
ENDBRANCH  12  18
ENDBRANCH   9  12
ENDBRANCH   6   9
ENDBRANCH   4   6
BRANCH   4  22
ATOM     22  C   LIG d   1       5.378  -3.134  -4.467  0.00  0.00     0.108 A 
ATOM     23  O   LIG d   1       4.343  -3.967  -4.658  0.00  0.00    -0.468 OA
ATOM     24  C   LIG d   1       4.751  -5.035  -5.363  0.00  0.00     0.092 A 
ATOM     25  C   LIG d   1       6.061  -4.892  -5.632  0.00  0.00    -0.024 A 
ATOM     26  H   LIG d   1       4.133  -5.868  -5.664  0.00  0.00     0.103 H 
ATOM     27  C   LIG d   1       6.464  -3.663  -5.059  0.00  0.00    -0.020 A 
ATOM     28  H   LIG d   1       6.686  -5.580  -6.182  0.00  0.00     0.065 H 
ATOM     29  H   LIG d   1       7.455  -3.234  -5.087  0.00  0.00     0.065 H 
ENDBRANCH   4  22
ENDBRANCH   1   4
BRANCH   1  30
ATOM     30  C   LIG d   1       7.173  -0.148  -3.902  0.00  0.00    -0.033 C 
ATOM     31  H   LIG d   1       8.172  -0.269  -4.321  0.00  0.00     0.081 H 
ATOM     32  H   LIG d   1       7.186   0.647  -3.156  0.00  0.00     0.081 H 
BRANCH  30  33
ATOM     33  N   LIG d   1       6.221   0.194  -4.975  0.00  0.00     0.230 N 
ATOM     34  H   LIG d   1       5.894   1.159  -4.844  0.00  0.00     0.202 HD
ATOM     35  H   LIG d   1       5.420  -0.447  -4.933  0.00  0.00     0.202 HD
BRANCH  33  36
ATOM     36  C   LIG d   1       6.872   0.075  -6.293  0.00  0.00    -0.008 C 
ATOM     37  H   LIG d   1       7.529  -0.794  -6.300  0.00  0.00     0.087 H 
ATOM     38  H   LIG d   1       7.454   0.974  -6.497  0.00  0.00     0.087 H 
BRANCH  36  39
ATOM     39  C   LIG d   1       5.813  -0.088  -7.353  0.00  0.00    -0.003 A 
ATOM     40  C   LIG d   1       4.634  -0.745  -7.056  0.00  0.00    -0.052 A 
ATOM     41  C   LIG d   1       3.662  -0.897  -8.025  0.00  0.00    -0.040 A 
ATOM     42  H   LIG d   1       4.473  -1.141  -6.064  0.00  0.00     0.062 H 
ATOM     43  C   LIG d   1       3.870  -0.387  -9.300  0.00  0.00     0.029 A 
ATOM     44  H   LIG d   1       2.741  -1.411  -7.792  0.00  0.00     0.064 H 
ATOM     45  C   LIG d   1       5.056   0.273  -9.597  0.00  0.00    -0.040 A 
ATOM     46  C   LIG d   1       6.023   0.421  -8.622  0.00  0.00    -0.052 A 
ATOM     47  H   LIG d   1       5.219   0.674 -10.586  0.00  0.00     0.064 H 
ATOM     48  H   LIG d   1       6.946   0.933  -8.852  0.00  0.00     0.062 H 
BRANCH  43  49
ATOM     49  N   LIG d   1       2.889  -0.539 -10.284  0.00  0.00    -0.336 N 
BRANCH  49  50
ATOM     50  C   LIG d   1       3.247  -0.428 -11.699  0.00  0.00     0.000 C 
ATOM     51  H   LIG d   1       2.344  -0.288 -12.292  0.00  0.00     0.043 H 
ATOM     52  H   LIG d   1       3.910   0.425 -11.841  0.00  0.00     0.043 H 
ATOM     53  H   LIG d   1       3.755  -1.339 -12.018  0.00  0.00     0.043 H 
ENDBRANCH  49  50
BRANCH  49  54
ATOM     54  C   LIG d   1       1.501  -0.807  -9.898  0.00  0.00     0.000 C 
ATOM     55  H   LIG d   1       1.240  -0.197  -9.033  0.00  0.00     0.043 H 
ATOM     56  H   LIG d   1       0.839  -0.561 -10.728  0.00  0.00     0.043 H 
ATOM     57  H   LIG d   1       1.392  -1.861  -9.645  0.00  0.00     0.043 H 
ENDBRANCH  49  54
ENDBRANCH  43  49
ENDBRANCH  36  39
ENDBRANCH  33  36
ENDBRANCH  30  33
ENDBRANCH   1  30
TORSDOF 14
ENDMDL
MODEL 2
REMARK VINA RESULT:      -5.4      1.850      3.070
REMARK  14 active torsions:
REMARK  status: ('A' for Active; 'I' for Inactive)
REMARK    1  A    between atoms: C_1  and  C_2 
REMARK    2  A    between atoms: C_2  and  C_3 
REMARK    3  A    between atoms: C_2  and  C_4 
REMARK    4  A    between atoms: C_4  and  C_5 
REMARK    5  A    between atoms: C_5  and  C_6 
REMARK    6  A    between atoms: C_6  and  C_8 
REMARK    7  A    between atoms: C_6  and  C_20 
REMARK    8  A    between atoms: C_8  and  C_9 
REMARK    9  A    between atoms: C_9  and  N_55 
REMARK   10  A    between atoms: C_10  and  C_11 
REMARK   11  A    between atoms: C_10  and  N_55 
REMARK   12  A    between atoms: C_14  and  N_17 
REMARK   13  A    between atoms: N_17  and  C_18 
REMARK   14  A    between atoms: N_17  and  C_19 
ROOT
ATOM      1  C   LIG d   1       4.576  -0.764  -5.409  0.00  0.00    -0.003 C 
ATOM      2  H   LIG d   1       5.606  -0.406  -5.410  0.00  0.00     0.032 H 
ATOM      3  H   LIG d   1       3.934  -0.020  -4.940  0.00  0.00     0.032 H 
ENDROOT
BRANCH   1   4
ATOM      4  C   LIG d   1       4.494  -2.076  -4.626  0.00  0.00     0.022 C 
ATOM      5  H   LIG d   1       3.868  -2.785  -5.168  0.00  0.00     0.038 H 
BRANCH   4   6
ATOM      6  C   LIG d   1       3.885  -1.810  -3.247  0.00  0.00    -0.043 C 
ATOM      7  H   LIG d   1       3.355  -2.699  -2.907  0.00  0.00     0.027 H 
ATOM      8  H   LIG d   1       4.678  -1.566  -2.540  0.00  0.00     0.027 H 
BRANCH   6   9
ATOM      9  C   LIG d   1       2.907  -0.637  -3.340  0.00  0.00    -0.050 C 
ATOM     10  H   LIG d   1       2.926  -0.227  -4.350  0.00  0.00     0.027 H 
ATOM     11  H   LIG d   1       1.900  -0.983  -3.108  0.00  0.00     0.027 H 
BRANCH   9  12
ATOM     12  C   LIG d   1       3.315   0.449  -2.342  0.00  0.00    -0.047 C 
ATOM     13  H   LIG d   1       2.540   0.555  -1.583  0.00  0.00     0.029 H 
BRANCH  12  14
ATOM     14  C   LIG d   1       4.633   0.055  -1.672  0.00  0.00    -0.063 C 
ATOM     15  H   LIG d   1       5.205  -0.586  -2.343  0.00  0.00     0.023 H 
ATOM     16  H   LIG d   1       5.210   0.953  -1.449  0.00  0.00     0.023 H 
ATOM     17  H   LIG d   1       4.425  -0.482  -0.746  0.00  0.00     0.023 H 
ENDBRANCH  12  14
BRANCH  12  18
ATOM     18  C   LIG d   1       3.494   1.778  -3.077  0.00  0.00    -0.063 C 
ATOM     19  H   LIG d   1       2.945   2.560  -2.553  0.00  0.00     0.023 H 
ATOM     20  H   LIG d   1       4.552   2.036  -3.109  0.00  0.00     0.023 H 
ATOM     21  H   LIG d   1       3.112   1.685  -4.094  0.00  0.00     0.023 H 
ENDBRANCH  12  18
ENDBRANCH   9  12
ENDBRANCH   6   9
ENDBRANCH   4   6
BRANCH   4  22
ATOM     22  C   LIG d   1       5.877  -2.651  -4.460  0.00  0.00     0.108 A 
ATOM     23  O   LIG d   1       6.332  -3.779  -5.029  0.00  0.00    -0.468 OA
ATOM     24  C   LIG d   1       7.608  -3.983  -4.660  0.00  0.00     0.092 A 
ATOM     25  C   LIG d   1       7.981  -2.979  -3.847  0.00  0.00    -0.024 A 
ATOM     26  H   LIG d   1       8.228  -4.813  -4.964  0.00  0.00     0.103 H 
ATOM     27  C   LIG d   1       6.868  -2.117  -3.723  0.00  0.00    -0.020 A 
ATOM     28  H   LIG d   1       8.948  -2.853  -3.381  0.00  0.00     0.065 H 
ATOM     29  H   LIG d   1       6.820  -1.207  -3.143  0.00  0.00     0.065 H 
ENDBRANCH   4  22
ENDBRANCH   1   4
BRANCH   1  30
ATOM     30  C   LIG d   1       4.116  -1.001  -6.849  0.00  0.00    -0.033 C 
ATOM     31  H   LIG d   1       4.032  -2.072  -7.032  0.00  0.00     0.081 H 
ATOM     32  H   LIG d   1       4.843  -0.571  -7.538  0.00  0.00     0.081 H 
BRANCH  30  33
ATOM     33  N   LIG d   1       2.804  -0.358  -7.048  0.00  0.00     0.230 N 
ATOM     34  H   LIG d   1       2.493   0.060  -6.164  0.00  0.00     0.202 HD
ATOM     35  H   LIG d   1       2.123  -1.066  -7.350  0.00  0.00     0.202 HD
BRANCH  33  36
ATOM     36  C   LIG d   1       2.901   0.694  -8.078  0.00  0.00    -0.008 C 
ATOM     37  H   LIG d   1       3.879   1.171  -8.022  0.00  0.00     0.087 H 
ATOM     38  H   LIG d   1       2.122   1.439  -7.914  0.00  0.00     0.087 H 
BRANCH  36  39
ATOM     39  C   LIG d   1       2.723   0.072  -9.439  0.00  0.00    -0.003 A 
ATOM     40  C   LIG d   1       1.590  -0.669  -9.716  0.00  0.00    -0.052 A 
ATOM     41  C   LIG d   1       1.424  -1.242 -10.962  0.00  0.00    -0.040 A 
ATOM     42  H   LIG d   1       0.833  -0.802  -8.957  0.00  0.00     0.062 H 
ATOM     43  C   LIG d   1       2.397  -1.070 -11.938  0.00  0.00     0.029 A 
ATOM     44  H   LIG d   1       0.539  -1.822 -11.178  0.00  0.00     0.064 H 
ATOM     45  C   LIG d   1       3.535  -0.325 -11.657  0.00  0.00    -0.040 A 
ATOM     46  C   LIG d   1       3.694   0.245 -10.408  0.00  0.00    -0.052 A 
ATOM     47  H   LIG d   1       4.292  -0.186 -12.415  0.00  0.00     0.064 H 
ATOM     48  H   LIG d   1       4.579   0.824 -10.189  0.00  0.00     0.062 H 
BRANCH  43  49
ATOM     49  N   LIG d   1       2.233  -1.647 -13.200  0.00  0.00    -0.336 N 
BRANCH  49  50
ATOM     50  C   LIG d   1       1.006  -2.379 -13.518  0.00  0.00     0.000 C 
ATOM     51  H   LIG d   1       0.536  -2.719 -12.595  0.00  0.00     0.043 H 
ATOM     52  H   LIG d   1       0.320  -1.724 -14.055  0.00  0.00     0.043 H 
ATOM     53  H   LIG d   1       1.247  -3.241 -14.141  0.00  0.00     0.043 H 
ENDBRANCH  49  50
BRANCH  49  54
ATOM     54  C   LIG d   1       3.292  -1.521 -14.205  0.00  0.00     0.000 C 
ATOM     55  H   LIG d   1       2.889  -1.043 -15.099  0.00  0.00     0.043 H 
ATOM     56  H   LIG d   1       4.104  -0.915 -13.804  0.00  0.00     0.043 H 
ATOM     57  H   LIG d   1       3.668  -2.511 -14.461  0.00  0.00     0.043 H 
ENDBRANCH  49  54
ENDBRANCH  43  49
ENDBRANCH  36  39
ENDBRANCH  33  36
ENDBRANCH  30  33
ENDBRANCH   1  30
TORSDOF 14
ENDMDL
MODEL 3
REMARK VINA RESULT:      -5.3      2.773      6.132
REMARK  14 active torsions:
REMARK  status: ('A' for Active; 'I' for Inactive)
REMARK    1  A    between atoms: C_1  and  C_2 
REMARK    2  A    between atoms: C_2  and  C_3 
REMARK    3  A    between atoms: C_2  and  C_4 
REMARK    4  A    between atoms: C_4  and  C_5 
REMARK    5  A    between atoms: C_5  and  C_6 
REMARK    6  A    between atoms: C_6  and  C_8 
REMARK    7  A    between atoms: C_6  and  C_20 
REMARK    8  A    between atoms: C_8  and  C_9 
REMARK    9  A    between atoms: C_9  and  N_55 
REMARK   10  A    between atoms: C_10  and  C_11 
REMARK   11  A    between atoms: C_10  and  N_55 
REMARK   12  A    between atoms: C_14  and  N_17 
REMARK   13  A    between atoms: N_17  and  C_18 
REMARK   14  A    between atoms: N_17  and  C_19 
ROOT
ATOM      1  C   LIG d   1       2.602   0.501  -4.963  0.00  0.00    -0.003 C 
ATOM      2  H   LIG d   1       1.572   0.818  -5.127  0.00  0.00     0.032 H 
ATOM      3  H   LIG d   1       3.241   1.379  -4.871  0.00  0.00     0.032 H 
ENDROOT
BRANCH   1   4
ATOM      4  C   LIG d   1       3.067  -0.348  -6.147  0.00  0.00     0.022 C 
ATOM      5  H   LIG d   1       2.484  -1.269  -6.186  0.00  0.00     0.038 H 
BRANCH   4   6
ATOM      6  C   LIG d   1       4.549  -0.692  -5.977  0.00  0.00    -0.043 C 
ATOM      7  H   LIG d   1       5.154   0.032  -6.520  0.00  0.00     0.027 H 
ATOM      8  H   LIG d   1       4.810  -0.662  -4.919  0.00  0.00     0.027 H 
BRANCH   6   9
ATOM      9  C   LIG d   1       4.814  -2.094  -6.528  0.00  0.00    -0.050 C 
ATOM     10  H   LIG d   1       5.120  -2.753  -5.714  0.00  0.00     0.027 H 
ATOM     11  H   LIG d   1       3.905  -2.483  -6.987  0.00  0.00     0.027 H 
BRANCH   9  12
ATOM     12  C   LIG d   1       5.927  -2.028  -7.576  0.00  0.00    -0.047 C 
ATOM     13  H   LIG d   1       6.727  -2.714  -7.300  0.00  0.00     0.029 H 
BRANCH  12  14
ATOM     14  C   LIG d   1       5.365  -2.425  -8.942  0.00  0.00    -0.063 C 
ATOM     15  H   LIG d   1       4.327  -2.100  -9.017  0.00  0.00     0.023 H 
ATOM     16  H   LIG d   1       5.951  -1.950  -9.729  0.00  0.00     0.023 H 
ATOM     17  H   LIG d   1       5.415  -3.508  -9.056  0.00  0.00     0.023 H 
ENDBRANCH  12  14
BRANCH  12  18
ATOM     18  C   LIG d   1       6.478  -0.603  -7.646  0.00  0.00    -0.063 C 
ATOM     19  H   LIG d   1       7.381  -0.592  -8.257  0.00  0.00     0.023 H 
ATOM     20  H   LIG d   1       5.731   0.054  -8.091  0.00  0.00     0.023 H 
ATOM     21  H   LIG d   1       6.716  -0.256  -6.641  0.00  0.00     0.023 H 
ENDBRANCH  12  18
ENDBRANCH   9  12
ENDBRANCH   6   9
ENDBRANCH   4   6
BRANCH   4  22
ATOM     22  C   LIG d   1       2.875   0.424  -7.427  0.00  0.00     0.108 A 
ATOM     23  O   LIG d   1       3.103   1.736  -7.594  0.00  0.00    -0.468 OA
ATOM     24  C   LIG d   1       2.825   2.080  -8.862  0.00  0.00     0.092 A 
ATOM     25  C   LIG d   1       2.415   0.982  -9.522  0.00  0.00    -0.024 A 
ATOM     26  H   LIG d   1       2.915   3.071  -9.282  0.00  0.00     0.103 H 
ATOM     27  C   LIG d   1       2.452  -0.087  -8.597  0.00  0.00    -0.020 A 
ATOM     28  H   LIG d   1       2.117   0.927 -10.558  0.00  0.00     0.065 H 
ATOM     29  H   LIG d   1       2.189  -1.116  -8.793  0.00  0.00     0.065 H 
ENDBRANCH   4  22
ENDBRANCH   1   4
BRANCH   1  30
ATOM     30  C   LIG d   1       2.683  -0.327  -3.679  0.00  0.00    -0.033 C 
ATOM     31  H   LIG d   1       3.326  -1.191  -3.844  0.00  0.00     0.081 H 
ATOM     32  H   LIG d   1       1.685  -0.666  -3.401  0.00  0.00     0.081 H 
BRANCH  30  33
ATOM     33  N   LIG d   1       3.241   0.509  -2.600  0.00  0.00     0.230 N 
ATOM     34  H   LIG d   1       2.493   0.758  -1.942  0.00  0.00     0.202 HD
ATOM     35  H   LIG d   1       3.639   1.364  -3.005  0.00  0.00     0.202 HD
BRANCH  33  36
ATOM     36  C   LIG d   1       4.298  -0.225  -1.879  0.00  0.00    -0.008 C 
ATOM     37  H   LIG d   1       3.977  -1.252  -1.703  0.00  0.00     0.087 H 
ATOM     38  H   LIG d   1       4.498   0.263  -0.925  0.00  0.00     0.087 H 
BRANCH  36  39
ATOM     39  C   LIG d   1       5.553  -0.229  -2.713  0.00  0.00    -0.003 A 
ATOM     40  C   LIG d   1       6.090   0.964  -3.159  0.00  0.00    -0.052 A 
ATOM     41  C   LIG d   1       7.239   0.965  -3.924  0.00  0.00    -0.040 A 
ATOM     42  H   LIG d   1       5.609   1.898  -2.909  0.00  0.00     0.062 H 
ATOM     43  C   LIG d   1       7.858  -0.237  -4.245  0.00  0.00     0.029 A 
ATOM     44  H   LIG d   1       7.658   1.897  -4.273  0.00  0.00     0.064 H 
ATOM     45  C   LIG d   1       7.317  -1.435  -3.796  0.00  0.00    -0.040 A 
ATOM     46  C   LIG d   1       6.167  -1.428  -3.031  0.00  0.00    -0.052 A 
ATOM     47  H   LIG d   1       7.798  -2.371  -4.040  0.00  0.00     0.064 H 
ATOM     48  H   LIG d   1       5.746  -2.358  -2.682  0.00  0.00     0.062 H 
BRANCH  43  49
ATOM     49  N   LIG d   1       9.021  -0.241  -5.019  0.00  0.00    -0.336 N 
BRANCH  49  50
ATOM     50  C   LIG d   1       9.548  -1.503  -5.543  0.00  0.00     0.000 C 
ATOM     51  H   LIG d   1       9.672  -2.213  -4.726  0.00  0.00     0.043 H 
ATOM     52  H   LIG d   1       8.852  -1.912  -6.276  0.00  0.00     0.043 H 
ATOM     53  H   LIG d   1      10.512  -1.325  -6.019  0.00  0.00     0.043 H 
ENDBRANCH  49  50
BRANCH  49  54
ATOM     54  C   LIG d   1       9.715   1.017  -5.305  0.00  0.00     0.000 C 
ATOM     55  H   LIG d   1       9.443   1.363  -6.303  0.00  0.00     0.043 H 
ATOM     56  H   LIG d   1       9.427   1.767  -4.569  0.00  0.00     0.043 H 
ATOM     57  H   LIG d   1      10.792   0.856  -5.259  0.00  0.00     0.043 H 
ENDBRANCH  49  54
ENDBRANCH  43  49
ENDBRANCH  36  39
ENDBRANCH  33  36
ENDBRANCH  30  33
ENDBRANCH   1  30
TORSDOF 14
ENDMDL
MODEL 4
REMARK VINA RESULT:      -5.3      2.342      3.869
REMARK  14 active torsions:
REMARK  status: ('A' for Active; 'I' for Inactive)
REMARK    1  A    between atoms: C_1  and  C_2 
REMARK    2  A    between atoms: C_2  and  C_3 
REMARK    3  A    between atoms: C_2  and  C_4 
REMARK    4  A    between atoms: C_4  and  C_5 
REMARK    5  A    between atoms: C_5  and  C_6 
REMARK    6  A    between atoms: C_6  and  C_8 
REMARK    7  A    between atoms: C_6  and  C_20 
REMARK    8  A    between atoms: C_8  and  C_9 
REMARK    9  A    between atoms: C_9  and  N_55 
REMARK   10  A    between atoms: C_10  and  C_11 
REMARK   11  A    between atoms: C_10  and  N_55 
REMARK   12  A    between atoms: C_14  and  N_17 
REMARK   13  A    between atoms: N_17  and  C_18 
REMARK   14  A    between atoms: N_17  and  C_19 
ROOT
ATOM      1  C   LIG d   1       4.364  -1.290  -6.014  0.00  0.00    -0.003 C 
ATOM      2  H   LIG d   1       4.013  -2.173  -5.481  0.00  0.00     0.032 H 
ATOM      3  H   LIG d   1       4.371  -1.491  -7.085  0.00  0.00     0.032 H 
ENDROOT
BRANCH   1   4
ATOM      4  C   LIG d   1       5.780  -0.944  -5.550  0.00  0.00     0.022 C 
ATOM      5  H   LIG d   1       6.352  -1.861  -5.412  0.00  0.00     0.038 H 
BRANCH   4   6
ATOM      6  C   LIG d   1       5.709  -0.185  -4.222  0.00  0.00    -0.043 C 
ATOM      7  H   LIG d   1       6.469   0.595  -4.209  0.00  0.00     0.027 H 
ATOM      8  H   LIG d   1       4.723   0.267  -4.114  0.00  0.00     0.027 H 
BRANCH   6   9
ATOM      9  C   LIG d   1       5.955  -1.156  -3.066  0.00  0.00    -0.050 C 
ATOM     10  H   LIG d   1       6.006  -2.174  -3.452  0.00  0.00     0.027 H 
ATOM     11  H   LIG d   1       6.894  -0.906  -2.574  0.00  0.00     0.027 H 
BRANCH   9  12
ATOM     12  C   LIG d   1       4.807  -1.051  -2.059  0.00  0.00    -0.047 C 
ATOM     13  H   LIG d   1       5.172  -1.307  -1.064  0.00  0.00     0.029 H 
BRANCH  12  14
ATOM     14  C   LIG d   1       4.266   0.380  -2.050  0.00  0.00    -0.063 C 
ATOM     15  H   LIG d   1       4.631   0.912  -2.929  0.00  0.00     0.023 H 
ATOM     16  H   LIG d   1       3.177   0.357  -2.065  0.00  0.00     0.023 H 
ATOM     17  H   LIG d   1       4.606   0.892  -1.149  0.00  0.00     0.023 H 
ENDBRANCH  12  14
BRANCH  12  18
ATOM     18  C   LIG d   1       3.689  -2.016  -2.456  0.00  0.00    -0.063 C 
ATOM     19  H   LIG d   1       4.090  -3.028  -2.526  0.00  0.00     0.023 H 
ATOM     20  H   LIG d   1       2.901  -1.988  -1.704  0.00  0.00     0.023 H 
ATOM     21  H   LIG d   1       3.280  -1.721  -3.422  0.00  0.00     0.023 H 
ENDBRANCH  12  18
ENDBRANCH   9  12
ENDBRANCH   6   9
ENDBRANCH   4   6
BRANCH   4  22
ATOM     22  C   LIG d   1       6.453  -0.081  -6.585  0.00  0.00     0.108 A 
ATOM     23  O   LIG d   1       7.125   1.056  -6.344  0.00  0.00    -0.468 OA
ATOM     24  C   LIG d   1       7.589   1.555  -7.501  0.00  0.00     0.092 A 
ATOM     25  C   LIG d   1       7.215   0.736  -8.500  0.00  0.00    -0.024 A 
ATOM     26  H   LIG d   1       8.165   2.462  -7.612  0.00  0.00     0.103 H 
ATOM     27  C   LIG d   1       6.486  -0.322  -7.908  0.00  0.00    -0.020 A 
ATOM     28  H   LIG d   1       7.431   0.859  -9.551  0.00  0.00     0.065 H 
ATOM     29  H   LIG d   1       6.040  -1.162  -8.421  0.00  0.00     0.065 H 
ENDBRANCH   4  22
ENDBRANCH   1   4
BRANCH   1  30
ATOM     30  C   LIG d   1       3.430  -0.113  -5.722  0.00  0.00    -0.033 C 
ATOM     31  H   LIG d   1       4.017   0.798  -5.610  0.00  0.00     0.081 H 
ATOM     32  H   LIG d   1       2.880  -0.306  -4.801  0.00  0.00     0.081 H 
BRANCH  30  33
ATOM     33  N   LIG d   1       2.483   0.041  -6.842  0.00  0.00     0.230 N 
ATOM     34  H   LIG d   1       1.558   0.291  -6.472  0.00  0.00     0.202 HD
ATOM     35  H   LIG d   1       2.417  -0.846  -7.354  0.00  0.00     0.202 HD
BRANCH  33  36
ATOM     36  C   LIG d   1       2.943   1.100  -7.760  0.00  0.00    -0.008 C 
ATOM     37  H   LIG d   1       3.921   1.461  -7.441  0.00  0.00     0.087 H 
ATOM     38  H   LIG d   1       2.231   1.925  -7.755  0.00  0.00     0.087 H 
BRANCH  36  39
ATOM     39  C   LIG d   1       3.048   0.535  -9.153  0.00  0.00    -0.003 A 
ATOM     40  C   LIG d   1       2.351  -0.611  -9.487  0.00  0.00    -0.052 A 
ATOM     41  C   LIG d   1       2.445  -1.132 -10.762  0.00  0.00    -0.040 A 
ATOM     42  H   LIG d   1       1.734  -1.101  -8.749  0.00  0.00     0.062 H 
ATOM     43  C   LIG d   1       3.239  -0.501 -11.712  0.00  0.00     0.029 A 
ATOM     44  H   LIG d   1       1.901  -2.028 -11.023  0.00  0.00     0.064 H 
ATOM     45  C   LIG d   1       3.938   0.651 -11.374  0.00  0.00    -0.040 A 
ATOM     46  C   LIG d   1       3.839   1.166 -10.096  0.00  0.00    -0.052 A 
ATOM     47  H   LIG d   1       4.553   1.146 -12.110  0.00  0.00     0.064 H 
ATOM     48  H   LIG d   1       4.382   2.062  -9.832  0.00  0.00     0.062 H 
BRANCH  43  49
ATOM     49  N   LIG d   1       3.337  -1.024 -13.003  0.00  0.00    -0.336 N 
BRANCH  49  50
ATOM     50  C   LIG d   1       4.419  -0.592 -13.889  0.00  0.00     0.000 C 
ATOM     51  H   LIG d   1       5.358  -0.581 -13.337  0.00  0.00     0.043 H 
ATOM     52  H   LIG d   1       4.500  -1.282 -14.729  0.00  0.00     0.043 H 
ATOM     53  H   LIG d   1       4.205   0.410 -14.263  0.00  0.00     0.043 H 
ENDBRANCH  49  50
BRANCH  49  54
ATOM     54  C   LIG d   1       2.354  -2.005 -13.472  0.00  0.00     0.000 C 
ATOM     55  H   LIG d   1       2.709  -3.011 -13.246  0.00  0.00     0.043 H 
ATOM     56  H   LIG d   1       1.402  -1.835 -12.970  0.00  0.00     0.043 H 
ATOM     57  H   LIG d   1       2.222  -1.901 -14.548  0.00  0.00     0.043 H 
ENDBRANCH  49  54
ENDBRANCH  43  49
ENDBRANCH  36  39
ENDBRANCH  33  36
ENDBRANCH  30  33
ENDBRANCH   1  30
TORSDOF 14
ENDMDL
MODEL 5
REMARK VINA RESULT:      -5.3      2.476      6.355
REMARK  14 active torsions:
REMARK  status: ('A' for Active; 'I' for Inactive)
REMARK    1  A    between atoms: C_1  and  C_2 
REMARK    2  A    between atoms: C_2  and  C_3 
REMARK    3  A    between atoms: C_2  and  C_4 
REMARK    4  A    between atoms: C_4  and  C_5 
REMARK    5  A    between atoms: C_5  and  C_6 
REMARK    6  A    between atoms: C_6  and  C_8 
REMARK    7  A    between atoms: C_6  and  C_20 
REMARK    8  A    between atoms: C_8  and  C_9 
REMARK    9  A    between atoms: C_9  and  N_55 
REMARK   10  A    between atoms: C_10  and  C_11 
REMARK   11  A    between atoms: C_10  and  N_55 
REMARK   12  A    between atoms: C_14  and  N_17 
REMARK   13  A    between atoms: N_17  and  C_18 
REMARK   14  A    between atoms: N_17  and  C_19 
ROOT
ATOM      1  C   LIG d   1       2.839   0.792  -5.998  0.00  0.00    -0.003 C 
ATOM      2  H   LIG d   1       2.229   1.661  -6.247  0.00  0.00     0.032 H 
ATOM      3  H   LIG d   1       3.823   1.123  -5.667  0.00  0.00     0.032 H 
ENDROOT
BRANCH   1   4
ATOM      4  C   LIG d   1       2.987  -0.096  -7.235  0.00  0.00     0.022 C 
ATOM      5  H   LIG d   1       2.068  -0.662  -7.389  0.00  0.00     0.038 H 
BRANCH   4   6
ATOM      6  C   LIG d   1       4.152  -1.067  -7.028  0.00  0.00    -0.043 C 
ATOM      7  H   LIG d   1       3.908  -1.761  -6.225  0.00  0.00     0.027 H 
ATOM      8  H   LIG d   1       4.330  -1.624  -7.948  0.00  0.00     0.027 H 
BRANCH   6   9
ATOM      9  C   LIG d   1       5.411  -0.281  -6.657  0.00  0.00    -0.050 C 
ATOM     10  H   LIG d   1       5.276   0.768  -6.922  0.00  0.00     0.027 H 
ATOM     11  H   LIG d   1       5.591  -0.364  -5.586  0.00  0.00     0.027 H 
BRANCH   9  12
ATOM     12  C   LIG d   1       6.611  -0.848  -7.420  0.00  0.00    -0.047 C 
ATOM     13  H   LIG d   1       7.460  -0.942  -6.744  0.00  0.00     0.029 H 
BRANCH  12  14
ATOM     14  C   LIG d   1       6.252  -2.225  -7.983  0.00  0.00    -0.063 C 
ATOM     15  H   LIG d   1       5.395  -2.132  -8.651  0.00  0.00     0.023 H 
ATOM     16  H   LIG d   1       7.102  -2.624  -8.535  0.00  0.00     0.023 H 
ATOM     17  H   LIG d   1       6.002  -2.899  -7.163  0.00  0.00     0.023 H 
ENDBRANCH  12  14
BRANCH  12  18
ATOM     18  C   LIG d   1       6.976   0.093  -8.570  0.00  0.00    -0.063 C 
ATOM     19  H   LIG d   1       7.838   0.697  -8.285  0.00  0.00     0.023 H 
ATOM     20  H   LIG d   1       7.219  -0.493  -9.456  0.00  0.00     0.023 H 
ATOM     21  H   LIG d   1       6.131   0.746  -8.787  0.00  0.00     0.023 H 
ENDBRANCH  12  18
ENDBRANCH   9  12
ENDBRANCH   6   9
ENDBRANCH   4   6
BRANCH   4  22
ATOM     22  C   LIG d   1       3.258   0.763  -8.443  0.00  0.00     0.108 A 
ATOM     23  O   LIG d   1       3.642   0.320  -9.651  0.00  0.00    -0.468 OA
ATOM     24  C   LIG d   1       3.790   1.364 -10.483  0.00  0.00     0.092 A 
ATOM     25  C   LIG d   1       3.500   2.491  -9.809  0.00  0.00    -0.024 A 
ATOM     26  H   LIG d   1       4.091   1.308 -11.519  0.00  0.00     0.103 H 
ATOM     27  C   LIG d   1       3.152   2.103  -8.495  0.00  0.00    -0.020 A 
ATOM     28  H   LIG d   1       3.525   3.499 -10.197  0.00  0.00     0.065 H 
ATOM     29  H   LIG d   1       2.860   2.757  -7.686  0.00  0.00     0.065 H 
ENDBRANCH   4  22
ENDBRANCH   1   4
BRANCH   1  30
ATOM     30  C   LIG d   1       2.164  -0.002  -4.878  0.00  0.00    -0.033 C 
ATOM     31  H   LIG d   1       2.152  -1.060  -5.140  0.00  0.00     0.081 H 
ATOM     32  H   LIG d   1       1.141   0.351  -4.748  0.00  0.00     0.081 H 
BRANCH  30  33
ATOM     33  N   LIG d   1       2.919   0.192  -3.626  0.00  0.00     0.230 N 
ATOM     34  H   LIG d   1       2.389   0.813  -3.003  0.00  0.00     0.202 HD
ATOM     35  H   LIG d   1       3.828   0.617  -3.842  0.00  0.00     0.202 HD
BRANCH  33  36
ATOM     36  C   LIG d   1       3.135  -1.103  -2.953  0.00  0.00    -0.008 C 
ATOM     37  H   LIG d   1       2.348  -1.801  -3.240  0.00  0.00     0.087 H 
ATOM     38  H   LIG d   1       3.120  -0.962  -1.873  0.00  0.00     0.087 H 
BRANCH  36  39
ATOM     39  C   LIG d   1       4.473  -1.659  -3.369  0.00  0.00    -0.003 A 
ATOM     40  C   LIG d   1       4.538  -2.841  -4.083  0.00  0.00    -0.052 A 
ATOM     41  C   LIG d   1       5.762  -3.353  -4.465  0.00  0.00    -0.040 A 
ATOM     42  H   LIG d   1       3.630  -3.366  -4.341  0.00  0.00     0.062 H 
ATOM     43  C   LIG d   1       6.929  -2.677  -4.133  0.00  0.00     0.029 A 
ATOM     44  H   LIG d   1       5.813  -4.277  -5.021  0.00  0.00     0.064 H 
ATOM     45  C   LIG d   1       6.861  -1.489  -3.416  0.00  0.00    -0.040 A 
ATOM     46  C   LIG d   1       5.633  -0.983  -3.037  0.00  0.00    -0.052 A 
ATOM     47  H   LIG d   1       7.767  -0.959  -3.159  0.00  0.00     0.064 H 
ATOM     48  H   LIG d   1       5.579  -0.060  -2.479  0.00  0.00     0.062 H 
BRANCH  43  49
ATOM     49  N   LIG d   1       8.170  -3.191  -4.518  0.00  0.00    -0.336 N 
BRANCH  49  50
ATOM     50  C   LIG d   1       9.229  -2.288  -4.974  0.00  0.00     0.000 C 
ATOM     51  H   LIG d   1       9.876  -2.812  -5.675  0.00  0.00     0.043 H 
ATOM     52  H   LIG d   1       8.783  -1.425  -5.467  0.00  0.00     0.043 H 
ATOM     53  H   LIG d   1       9.815  -1.953  -4.118  0.00  0.00     0.043 H 
ENDBRANCH  49  50
BRANCH  49  54
ATOM     54  C   LIG d   1       8.412  -4.636  -4.466  0.00  0.00     0.000 C 
ATOM     55  H   LIG d   1       8.547  -5.018  -5.478  0.00  0.00     0.043 H 
ATOM     56  H   LIG d   1       9.310  -4.833  -3.881  0.00  0.00     0.043 H 
ATOM     57  H   LIG d   1       7.559  -5.130  -4.002  0.00  0.00     0.043 H 
ENDBRANCH  49  54
ENDBRANCH  43  49
ENDBRANCH  36  39
ENDBRANCH  33  36
ENDBRANCH  30  33
ENDBRANCH   1  30
TORSDOF 14
ENDMDL
MODEL 6
REMARK VINA RESULT:      -5.3      4.895      8.042
REMARK  14 active torsions:
REMARK  status: ('A' for Active; 'I' for Inactive)
REMARK    1  A    between atoms: C_1  and  C_2 
REMARK    2  A    between atoms: C_2  and  C_3 
REMARK    3  A    between atoms: C_2  and  C_4 
REMARK    4  A    between atoms: C_4  and  C_5 
REMARK    5  A    between atoms: C_5  and  C_6 
REMARK    6  A    between atoms: C_6  and  C_8 
REMARK    7  A    between atoms: C_6  and  C_20 
REMARK    8  A    between atoms: C_8  and  C_9 
REMARK    9  A    between atoms: C_9  and  N_55 
REMARK   10  A    between atoms: C_10  and  C_11 
REMARK   11  A    between atoms: C_10  and  N_55 
REMARK   12  A    between atoms: C_14  and  N_17 
REMARK   13  A    between atoms: N_17  and  C_18 
REMARK   14  A    between atoms: N_17  and  C_19 
ROOT
ATOM      1  C   LIG d   1       7.610   1.785  -3.862  0.00  0.00    -0.003 C 
ATOM      2  H   LIG d   1       8.159   2.273  -3.056  0.00  0.00     0.032 H 
ATOM      3  H   LIG d   1       6.819   2.445  -4.214  0.00  0.00     0.032 H 
ENDROOT
BRANCH   1   4
ATOM      4  C   LIG d   1       6.997   0.483  -3.344  0.00  0.00     0.022 C 
ATOM      5  H   LIG d   1       7.448   0.224  -2.385  0.00  0.00     0.038 H 
BRANCH   4   6
ATOM      6  C   LIG d   1       7.263  -0.641  -4.349  0.00  0.00    -0.043 C 
ATOM      7  H   LIG d   1       6.657  -0.481  -5.240  0.00  0.00     0.027 H 
ATOM      8  H   LIG d   1       8.318  -0.642  -4.622  0.00  0.00     0.027 H 
BRANCH   6   9
ATOM      9  C   LIG d   1       6.898  -1.986  -3.719  0.00  0.00    -0.050 C 
ATOM     10  H   LIG d   1       7.787  -2.615  -3.664  0.00  0.00     0.027 H 
ATOM     11  H   LIG d   1       6.505  -1.824  -2.716  0.00  0.00     0.027 H 
BRANCH   9  12
ATOM     12  C   LIG d   1       5.836  -2.679  -4.575  0.00  0.00    -0.047 C 
ATOM     13  H   LIG d   1       5.604  -2.057  -5.440  0.00  0.00     0.029 H 
BRANCH  12  14
ATOM     14  C   LIG d   1       6.366  -4.033  -5.049  0.00  0.00    -0.063 C 
ATOM     15  H   LIG d   1       6.953  -3.896  -5.958  0.00  0.00     0.023 H 
ATOM     16  H   LIG d   1       6.996  -4.468  -4.274  0.00  0.00     0.023 H 
ATOM     17  H   LIG d   1       5.529  -4.701  -5.254  0.00  0.00     0.023 H 
ENDBRANCH  12  14
BRANCH  12  18
ATOM     18  C   LIG d   1       4.568  -2.890  -3.745  0.00  0.00    -0.063 C 
ATOM     19  H   LIG d   1       4.520  -3.928  -3.413  0.00  0.00     0.023 H 
ATOM     20  H   LIG d   1       4.589  -2.232  -2.877  0.00  0.00     0.023 H 
ATOM     21  H   LIG d   1       3.693  -2.664  -4.354  0.00  0.00     0.023 H 
ENDBRANCH  12  18
ENDBRANCH   9  12
ENDBRANCH   6   9
ENDBRANCH   4   6
BRANCH   4  22
ATOM     22  C   LIG d   1       5.511   0.659  -3.171  0.00  0.00     0.108 A 
ATOM     23  O   LIG d   1       4.599   0.647  -4.155  0.00  0.00    -0.468 OA
ATOM     24  C   LIG d   1       3.375   0.835  -3.634  0.00  0.00     0.092 A 
ATOM     25  C   LIG d   1       3.496   0.969  -2.301  0.00  0.00    -0.024 A 
ATOM     26  H   LIG d   1       2.450   0.872  -4.190  0.00  0.00     0.103 H 
ATOM     27  C   LIG d   1       4.873   0.851  -2.002  0.00  0.00    -0.020 A 
ATOM     28  H   LIG d   1       2.696   1.133  -1.594  0.00  0.00     0.065 H 
ATOM     29  H   LIG d   1       5.326   0.907  -1.023  0.00  0.00     0.065 H 
ENDBRANCH   4  22
ENDBRANCH   1   4
BRANCH   1  30
ATOM     30  C   LIG d   1       8.567   1.474  -5.016  0.00  0.00    -0.033 C 
ATOM     31  H   LIG d   1       8.101   1.756  -5.960  0.00  0.00     0.081 H 
ATOM     32  H   LIG d   1       8.790   0.407  -5.025  0.00  0.00     0.081 H 
BRANCH  30  33
ATOM     33  N   LIG d   1       9.813   2.239  -4.829  0.00  0.00     0.230 N 
ATOM     34  H   LIG d   1      10.572   1.786  -5.352  0.00  0.00     0.202 HD
ATOM     35  H   LIG d   1      10.052   2.259  -3.830  0.00  0.00     0.202 HD
BRANCH  33  36
ATOM     36  C   LIG d   1       9.643   3.621  -5.317  0.00  0.00    -0.008 C 
ATOM     37  H   LIG d   1       8.661   3.730  -5.775  0.00  0.00     0.087 H 
ATOM     38  H   LIG d   1      10.416   3.848  -6.051  0.00  0.00     0.087 H 
BRANCH  36  39
ATOM     39  C   LIG d   1       9.761   4.573  -4.154  0.00  0.00    -0.003 A 
ATOM     40  C   LIG d   1       9.348   5.885  -4.291  0.00  0.00    -0.052 A 
ATOM     41  C   LIG d   1       9.455   6.760  -3.228  0.00  0.00    -0.040 A 
ATOM     42  H   LIG d   1       8.942   6.227  -5.232  0.00  0.00     0.062 H 
ATOM     43  C   LIG d   1       9.977   6.320  -2.019  0.00  0.00     0.029 A 
ATOM     44  H   LIG d   1       9.133   7.786  -3.336  0.00  0.00     0.064 H 
ATOM     45  C   LIG d   1      10.391   5.001  -1.883  0.00  0.00    -0.040 A 
ATOM     46  C   LIG d   1      10.281   4.131  -2.951  0.00  0.00    -0.052 A 
ATOM     47  H   LIG d   1      10.794   4.654  -0.943  0.00  0.00     0.064 H 
ATOM     48  H   LIG d   1      10.603   3.106  -2.847  0.00  0.00     0.062 H 
BRANCH  43  49
ATOM     49  N   LIG d   1      10.087   7.202  -0.940  0.00  0.00    -0.336 N 
BRANCH  49  50
ATOM     50  C   LIG d   1       9.397   8.493  -0.976  0.00  0.00     0.000 C 
ATOM     51  H   LIG d   1       8.488   8.436  -0.378  0.00  0.00     0.043 H 
ATOM     52  H   LIG d   1      10.050   9.265  -0.571  0.00  0.00     0.043 H 
ATOM     53  H   LIG d   1       9.140   8.740  -2.007  0.00  0.00     0.043 H 
ENDBRANCH  49  50
BRANCH  49  54
ATOM     54  C   LIG d   1      10.894   6.834   0.226  0.00  0.00     0.000 C 
ATOM     55  H   LIG d   1      10.405   7.191   1.133  0.00  0.00     0.043 H 
ATOM     56  H   LIG d   1      10.995   5.750   0.271  0.00  0.00     0.043 H 
ATOM     57  H   LIG d   1      11.880   7.289   0.143  0.00  0.00     0.043 H 
ENDBRANCH  49  54
ENDBRANCH  43  49
ENDBRANCH  36  39
ENDBRANCH  33  36
ENDBRANCH  30  33
ENDBRANCH   1  30
TORSDOF 14
ENDMDL
MODEL 7
REMARK VINA RESULT:      -5.3      2.294      5.720
REMARK  14 active torsions:
REMARK  status: ('A' for Active; 'I' for Inactive)
REMARK    1  A    between atoms: C_1  and  C_2 
REMARK    2  A    between atoms: C_2  and  C_3 
REMARK    3  A    between atoms: C_2  and  C_4 
REMARK    4  A    between atoms: C_4  and  C_5 
REMARK    5  A    between atoms: C_5  and  C_6 
REMARK    6  A    between atoms: C_6  and  C_8 
REMARK    7  A    between atoms: C_6  and  C_20 
REMARK    8  A    between atoms: C_8  and  C_9 
REMARK    9  A    between atoms: C_9  and  N_55 
REMARK   10  A    between atoms: C_10  and  C_11 
REMARK   11  A    between atoms: C_10  and  N_55 
REMARK   12  A    between atoms: C_14  and  N_17 
REMARK   13  A    between atoms: N_17  and  C_18 
REMARK   14  A    between atoms: N_17  and  C_19 
ROOT
ATOM      1  C   LIG d   1       2.586  -0.091  -5.553  0.00  0.00    -0.003 C 
ATOM      2  H   LIG d   1       2.790  -1.115  -5.240  0.00  0.00     0.032 H 
ATOM      3  H   LIG d   1       1.563  -0.020  -5.919  0.00  0.00     0.032 H 
ENDROOT
BRANCH   1   4
ATOM      4  C   LIG d   1       3.556   0.303  -6.668  0.00  0.00     0.022 C 
ATOM      5  H   LIG d   1       4.092   1.209  -6.382  0.00  0.00     0.038 H 
BRANCH   4   6
ATOM      6  C   LIG d   1       2.773   0.562  -7.957  0.00  0.00    -0.043 C 
ATOM      7  H   LIG d   1       3.198  -0.031  -8.766  0.00  0.00     0.027 H 
ATOM      8  H   LIG d   1       1.729   0.283  -7.811  0.00  0.00     0.027 H 
BRANCH   6   9
ATOM      9  C   LIG d   1       2.857   2.047  -8.315  0.00  0.00    -0.050 C 
ATOM     10  H   LIG d   1       1.853   2.438  -8.482  0.00  0.00     0.027 H 
ATOM     11  H   LIG d   1       3.328   2.593  -7.499  0.00  0.00     0.027 H 
BRANCH   9  12
ATOM     12  C   LIG d   1       3.688   2.219  -9.589  0.00  0.00    -0.047 C 
ATOM     13  H   LIG d   1       3.318   3.076 -10.152  0.00  0.00     0.029 H 
BRANCH  12  14
ATOM     14  C   LIG d   1       5.153   2.449  -9.215  0.00  0.00    -0.063 C 
ATOM     15  H   LIG d   1       5.793   1.854  -9.868  0.00  0.00     0.023 H 
ATOM     16  H   LIG d   1       5.397   3.504  -9.333  0.00  0.00     0.023 H 
ATOM     17  H   LIG d   1       5.315   2.152  -8.179  0.00  0.00     0.023 H 
ENDBRANCH  12  14
BRANCH  12  18
ATOM     18  C   LIG d   1       3.573   0.957 -10.447  0.00  0.00    -0.063 C 
ATOM     19  H   LIG d   1       2.544   0.596 -10.426  0.00  0.00     0.023 H 
ATOM     20  H   LIG d   1       3.855   1.189 -11.473  0.00  0.00     0.023 H 
ATOM     21  H   LIG d   1       4.236   0.187 -10.052  0.00  0.00     0.023 H 
ENDBRANCH  12  18
ENDBRANCH   9  12
ENDBRANCH   6   9
ENDBRANCH   4   6
BRANCH   4  22
ATOM     22  C   LIG d   1       4.542  -0.813  -6.896  0.00  0.00     0.108 A 
ATOM     23  O   LIG d   1       4.334  -2.111  -6.627  0.00  0.00    -0.468 OA
ATOM     24  C   LIG d   1       5.428  -2.818  -6.956  0.00  0.00     0.092 A 
ATOM     25  C   LIG d   1       6.351  -1.970  -7.444  0.00  0.00    -0.024 A 
ATOM     26  H   LIG d   1       5.547  -3.886  -6.848  0.00  0.00     0.103 H 
ATOM     27  C   LIG d   1       5.778  -0.678  -7.410  0.00  0.00    -0.020 A 
ATOM     28  H   LIG d   1       7.340  -2.227  -7.796  0.00  0.00     0.065 H 
ATOM     29  H   LIG d   1       6.245   0.242  -7.732  0.00  0.00     0.065 H 
ENDBRANCH   4  22
ENDBRANCH   1   4
BRANCH   1  30
ATOM     30  C   LIG d   1       2.770   0.852  -4.362  0.00  0.00    -0.033 C 
ATOM     31  H   LIG d   1       1.927   1.541  -4.311  0.00  0.00     0.081 H 
ATOM     32  H   LIG d   1       3.693   1.418  -4.485  0.00  0.00     0.081 H 
BRANCH  30  33
ATOM     33  N   LIG d   1       2.837   0.057  -3.122  0.00  0.00     0.230 N 
ATOM     34  H   LIG d   1       2.903  -0.940  -3.361  0.00  0.00     0.202 HD
ATOM     35  H   LIG d   1       1.988   0.220  -2.568  0.00  0.00     0.202 HD
BRANCH  33  36
ATOM     36  C   LIG d   1       4.018   0.446  -2.328  0.00  0.00    -0.008 C 
ATOM     37  H   LIG d   1       3.915   0.070  -1.311  0.00  0.00     0.087 H 
ATOM     38  H   LIG d   1       4.105   1.533  -2.308  0.00  0.00     0.087 H 
BRANCH  36  39
ATOM     39  C   LIG d   1       5.253  -0.145  -2.958  0.00  0.00    -0.003 A 
ATOM     40  C   LIG d   1       5.394  -1.517  -3.048  0.00  0.00    -0.052 A 
ATOM     41  C   LIG d   1       6.524  -2.061  -3.624  0.00  0.00    -0.040 A 
ATOM     42  H   LIG d   1       4.619  -2.164  -2.665  0.00  0.00     0.062 H 
ATOM     43  C   LIG d   1       7.520  -1.228  -4.117  0.00  0.00     0.029 A 
ATOM     44  H   LIG d   1       6.634  -3.134  -3.693  0.00  0.00     0.064 H 
ATOM     45  C   LIG d   1       7.377   0.151  -4.026  0.00  0.00    -0.040 A 
ATOM     46  C   LIG d   1       6.243   0.688  -3.448  0.00  0.00    -0.052 A 
ATOM     47  H   LIG d   1       8.148   0.802  -4.411  0.00  0.00     0.064 H 
ATOM     48  H   LIG d   1       6.131   1.760  -3.377  0.00  0.00     0.062 H 
BRANCH  43  49
ATOM     49  N   LIG d   1       8.666  -1.775  -4.701  0.00  0.00    -0.336 N 
BRANCH  49  50
ATOM     50  C   LIG d   1       8.986  -3.190  -4.503  0.00  0.00     0.000 C 
ATOM     51  H   LIG d   1       8.303  -3.618  -3.770  0.00  0.00     0.043 H 
ATOM     52  H   LIG d   1       8.883  -3.722  -5.449  0.00  0.00     0.043 H 
ATOM     53  H   LIG d   1      10.011  -3.284  -4.144  0.00  0.00     0.043 H 
ENDBRANCH  49  50
BRANCH  49  54
ATOM     54  C   LIG d   1       9.548  -0.931  -5.511  0.00  0.00     0.000 C 
ATOM     55  H   LIG d   1       9.648   0.048  -5.040  0.00  0.00     0.043 H 
ATOM     56  H   LIG d   1      10.530  -1.398  -5.586  0.00  0.00     0.043 H 
ATOM     57  H   LIG d   1       9.123  -0.813  -6.507  0.00  0.00     0.043 H 
ENDBRANCH  49  54
ENDBRANCH  43  49
ENDBRANCH  36  39
ENDBRANCH  33  36
ENDBRANCH  30  33
ENDBRANCH   1  30
TORSDOF 14
ENDMDL
MODEL 8
REMARK VINA RESULT:      -5.2      1.690      2.731
REMARK  14 active torsions:
REMARK  status: ('A' for Active; 'I' for Inactive)
REMARK    1  A    between atoms: C_1  and  C_2 
REMARK    2  A    between atoms: C_2  and  C_3 
REMARK    3  A    between atoms: C_2  and  C_4 
REMARK    4  A    between atoms: C_4  and  C_5 
REMARK    5  A    between atoms: C_5  and  C_6 
REMARK    6  A    between atoms: C_6  and  C_8 
REMARK    7  A    between atoms: C_6  and  C_20 
REMARK    8  A    between atoms: C_8  and  C_9 
REMARK    9  A    between atoms: C_9  and  N_55 
REMARK   10  A    between atoms: C_10  and  C_11 
REMARK   11  A    between atoms: C_10  and  N_55 
REMARK   12  A    between atoms: C_14  and  N_17 
REMARK   13  A    between atoms: N_17  and  C_18 
REMARK   14  A    between atoms: N_17  and  C_19 
ROOT
ATOM      1  C   LIG d   1       4.818  -2.062  -6.342  0.00  0.00    -0.003 C 
ATOM      2  H   LIG d   1       4.315  -2.454  -7.226  0.00  0.00     0.032 H 
ATOM      3  H   LIG d   1       5.897  -2.105  -6.488  0.00  0.00     0.032 H 
ENDROOT
BRANCH   1   4
ATOM      4  C   LIG d   1       4.434  -2.901  -5.122  0.00  0.00     0.022 C 
ATOM      5  H   LIG d   1       3.353  -2.864  -4.981  0.00  0.00     0.038 H 
BRANCH   4   6
ATOM      6  C   LIG d   1       5.128  -2.341  -3.878  0.00  0.00    -0.043 C 
ATOM      7  H   LIG d   1       5.949  -2.998  -3.594  0.00  0.00     0.027 H 
ATOM      8  H   LIG d   1       5.518  -1.346  -4.096  0.00  0.00     0.027 H 
BRANCH   6   9
ATOM      9  C   LIG d   1       4.123  -2.254  -2.728  0.00  0.00    -0.050 C 
ATOM     10  H   LIG d   1       3.130  -2.517  -3.094  0.00  0.00     0.027 H 
ATOM     11  H   LIG d   1       4.414  -2.943  -1.937  0.00  0.00     0.027 H 
BRANCH   9  12
ATOM     12  C   LIG d   1       4.101  -0.826  -2.177  0.00  0.00    -0.047 C 
ATOM     13  H   LIG d   1       3.996  -0.857  -1.093  0.00  0.00     0.029 H 
BRANCH  12  14
ATOM     14  C   LIG d   1       5.406  -0.118  -2.543  0.00  0.00    -0.063 C 
ATOM     15  H   LIG d   1       6.096  -0.167  -1.699  0.00  0.00     0.023 H 
ATOM     16  H   LIG d   1       5.855  -0.607  -3.407  0.00  0.00     0.023 H 
ATOM     17  H   LIG d   1       5.200   0.925  -2.783  0.00  0.00     0.023 H 
ENDBRANCH  12  14
BRANCH  12  18
ATOM     18  C   LIG d   1       2.921  -0.064  -2.782  0.00  0.00    -0.063 C 
ATOM     19  H   LIG d   1       3.277   0.869  -3.220  0.00  0.00     0.023 H 
ATOM     20  H   LIG d   1       2.452  -0.673  -3.555  0.00  0.00     0.023 H 
ATOM     21  H   LIG d   1       2.192   0.157  -2.002  0.00  0.00     0.023 H 
ENDBRANCH  12  18
ENDBRANCH   9  12
ENDBRANCH   6   9
ENDBRANCH   4   6
BRANCH   4  22
ATOM     22  C   LIG d   1       4.865  -4.329  -5.337  0.00  0.00     0.108 A 
ATOM     23  O   LIG d   1       4.059  -5.402  -5.329  0.00  0.00    -0.468 OA
ATOM     24  C   LIG d   1       4.786  -6.509  -5.554  0.00  0.00     0.092 A 
ATOM     25  C   LIG d   1       6.072  -6.149  -5.710  0.00  0.00    -0.024 A 
ATOM     26  H   LIG d   1       4.403  -7.518  -5.602  0.00  0.00     0.103 H 
ATOM     27  C   LIG d   1       6.123  -4.743  -5.576  0.00  0.00    -0.020 A 
ATOM     28  H   LIG d   1       6.907  -6.807  -5.904  0.00  0.00     0.065 H 
ATOM     29  H   LIG d   1       7.003  -4.120  -5.647  0.00  0.00     0.065 H 
ENDBRANCH   4  22
ENDBRANCH   1   4
BRANCH   1  30
ATOM     30  C   LIG d   1       4.392  -0.609  -6.115  0.00  0.00    -0.033 C 
ATOM     31  H   LIG d   1       5.039   0.053  -6.689  0.00  0.00     0.081 H 
ATOM     32  H   LIG d   1       4.474  -0.367  -5.055  0.00  0.00     0.081 H 
BRANCH  30  33
ATOM     33  N   LIG d   1       2.994  -0.442  -6.554  0.00  0.00     0.230 N 
ATOM     34  H   LIG d   1       2.397  -0.283  -5.734  0.00  0.00     0.202 HD
ATOM     35  H   LIG d   1       2.688  -1.294  -7.039  0.00  0.00     0.202 HD
BRANCH  33  36
ATOM     36  C   LIG d   1       2.880   0.708  -7.472  0.00  0.00    -0.008 C 
ATOM     37  H   LIG d   1       3.720   1.384  -7.317  0.00  0.00     0.087 H 
ATOM     38  H   LIG d   1       1.946   1.237  -7.281  0.00  0.00     0.087 H 
BRANCH  36  39
ATOM     39  C   LIG d   1       2.893   0.209  -8.893  0.00  0.00    -0.003 A 
ATOM     40  C   LIG d   1       2.074  -0.841  -9.264  0.00  0.00    -0.052 A 
ATOM     41  C   LIG d   1       2.084  -1.302 -10.566  0.00  0.00    -0.040 A 
ATOM     42  H   LIG d   1       1.425  -1.303  -8.534  0.00  0.00     0.062 H 
ATOM     43  C   LIG d   1       2.917  -0.707 -11.505  0.00  0.00     0.029 A 
ATOM     44  H   LIG d   1       1.444  -2.123 -10.855  0.00  0.00     0.064 H 
ATOM     45  C   LIG d   1       3.740   0.348 -11.130  0.00  0.00    -0.040 A 
ATOM     46  C   LIG d   1       3.724   0.803  -9.826  0.00  0.00    -0.052 A 
ATOM     47  H   LIG d   1       4.386   0.815 -11.858  0.00  0.00     0.064 H 
ATOM     48  H   LIG d   1       4.363   1.623  -9.533  0.00  0.00     0.062 H 
BRANCH  43  49
ATOM     49  N   LIG d   1       2.930  -1.170 -12.823  0.00  0.00    -0.336 N 
BRANCH  49  50
ATOM     50  C   LIG d   1       1.862  -2.050 -13.302  0.00  0.00     0.000 C 
ATOM     51  H   LIG d   1       2.294  -2.855 -13.896  0.00  0.00     0.043 H 
ATOM     52  H   LIG d   1       1.329  -2.472 -12.451  0.00  0.00     0.043 H 
ATOM     53  H   LIG d   1       1.167  -1.476 -13.917  0.00  0.00     0.043 H 
ENDBRANCH  49  50
BRANCH  49  54
ATOM     54  C   LIG d   1       4.015  -0.775 -13.726  0.00  0.00     0.000 C 
ATOM     55  H   LIG d   1       4.117  -1.518 -14.518  0.00  0.00     0.043 H 
ATOM     56  H   LIG d   1       3.786   0.195 -14.167  0.00  0.00     0.043 H 
ATOM     57  H   LIG d   1       4.947  -0.710 -13.167  0.00  0.00     0.043 H 
ENDBRANCH  49  54
ENDBRANCH  43  49
ENDBRANCH  36  39
ENDBRANCH  33  36
ENDBRANCH  30  33
ENDBRANCH   1  30
TORSDOF 14
ENDMDL
MODEL 9
REMARK VINA RESULT:      -5.2      2.436      3.842
REMARK  14 active torsions:
REMARK  status: ('A' for Active; 'I' for Inactive)
REMARK    1  A    between atoms: C_1  and  C_2 
REMARK    2  A    between atoms: C_2  and  C_3 
REMARK    3  A    between atoms: C_2  and  C_4 
REMARK    4  A    between atoms: C_4  and  C_5 
REMARK    5  A    between atoms: C_5  and  C_6 
REMARK    6  A    between atoms: C_6  and  C_8 
REMARK    7  A    between atoms: C_6  and  C_20 
REMARK    8  A    between atoms: C_8  and  C_9 
REMARK    9  A    between atoms: C_9  and  N_55 
REMARK   10  A    between atoms: C_10  and  C_11 
REMARK   11  A    between atoms: C_10  and  N_55 
REMARK   12  A    between atoms: C_14  and  N_17 
REMARK   13  A    between atoms: N_17  and  C_18 
REMARK   14  A    between atoms: N_17  and  C_19 
ROOT
ATOM      1  C   LIG d   1       4.561  -2.651  -4.610  0.00  0.00    -0.003 C 
ATOM      2  H   LIG d   1       4.605  -1.998  -5.481  0.00  0.00     0.032 H 
ATOM      3  H   LIG d   1       3.550  -2.645  -4.202  0.00  0.00     0.032 H 
ENDROOT
BRANCH   1   4
ATOM      4  C   LIG d   1       5.543  -2.153  -3.549  0.00  0.00     0.022 C 
ATOM      5  H   LIG d   1       6.203  -2.969  -3.252  0.00  0.00     0.038 H 
BRANCH   4   6
ATOM      6  C   LIG d   1       4.766  -1.657  -2.327  0.00  0.00    -0.043 C 
ATOM      7  H   LIG d   1       4.762  -2.431  -1.561  0.00  0.00     0.027 H 
ATOM      8  H   LIG d   1       5.241  -0.758  -1.934  0.00  0.00     0.027 H 
BRANCH   6   9
ATOM      9  C   LIG d   1       3.326  -1.336  -2.735  0.00  0.00    -0.050 C 
ATOM     10  H   LIG d   1       3.154  -1.675  -3.756  0.00  0.00     0.027 H 
ATOM     11  H   LIG d   1       2.636  -1.844  -2.062  0.00  0.00     0.027 H 
BRANCH   9  12
ATOM     12  C   LIG d   1       3.098   0.175  -2.654  0.00  0.00    -0.047 C 
ATOM     13  H   LIG d   1       2.152   0.374  -2.150  0.00  0.00     0.029 H 
BRANCH  12  14
ATOM     14  C   LIG d   1       4.240   0.822  -1.868  0.00  0.00    -0.063 C 
ATOM     15  H   LIG d   1       5.112   0.929  -2.514  0.00  0.00     0.023 H 
ATOM     16  H   LIG d   1       3.927   1.804  -1.515  0.00  0.00     0.023 H 
ATOM     17  H   LIG d   1       4.496   0.194  -1.014  0.00  0.00     0.023 H 
ENDBRANCH  12  14
BRANCH  12  18
ATOM     18  C   LIG d   1       3.056   0.761  -4.067  0.00  0.00    -0.063 C 
ATOM     19  H   LIG d   1       2.878   1.835  -4.009  0.00  0.00     0.023 H 
ATOM     20  H   LIG d   1       4.008   0.576  -4.565  0.00  0.00     0.023 H 
ATOM     21  H   LIG d   1       2.252   0.289  -4.632  0.00  0.00     0.023 H 
ENDBRANCH  12  18
ENDBRANCH   9  12
ENDBRANCH   6   9
ENDBRANCH   4   6
BRANCH   4  22
ATOM     22  C   LIG d   1       6.364  -1.022  -4.114  0.00  0.00     0.108 A 
ATOM     23  O   LIG d   1       7.219  -0.252  -3.424  0.00  0.00    -0.468 OA
ATOM     24  C   LIG d   1       7.773   0.653  -4.249  0.00  0.00     0.092 A 
ATOM     25  C   LIG d   1       7.271   0.466  -5.483  0.00  0.00    -0.024 A 
ATOM     26  H   LIG d   1       8.497   1.403  -3.969  0.00  0.00     0.103 H 
ATOM     27  C   LIG d   1       6.366  -0.617  -5.397  0.00  0.00    -0.020 A 
ATOM     28  H   LIG d   1       7.514   1.033  -6.370  0.00  0.00     0.065 H 
ATOM     29  H   LIG d   1       5.786  -1.037  -6.206  0.00  0.00     0.065 H 
ENDBRANCH   4  22
ENDBRANCH   1   4
BRANCH   1  30
ATOM     30  C   LIG d   1       4.936  -4.077  -5.022  0.00  0.00    -0.033 C 
ATOM     31  H   LIG d   1       5.041  -4.696  -4.132  0.00  0.00     0.081 H 
ATOM     32  H   LIG d   1       5.880  -4.061  -5.567  0.00  0.00     0.081 H 
BRANCH  30  33
ATOM     33  N   LIG d   1       3.874  -4.625  -5.886  0.00  0.00     0.230 N 
ATOM     34  H   LIG d   1       3.146  -3.913  -6.023  0.00  0.00     0.202 HD
ATOM     35  H   LIG d   1       3.464  -5.451  -5.436  0.00  0.00     0.202 HD
BRANCH  33  36
ATOM     36  C   LIG d   1       4.430  -5.011  -7.197  0.00  0.00    -0.008 C 
ATOM     37  H   LIG d   1       4.348  -6.089  -7.327  0.00  0.00     0.087 H 
ATOM     38  H   LIG d   1       5.478  -4.716  -7.252  0.00  0.00     0.087 H 
BRANCH  36  39
ATOM     39  C   LIG d   1       3.655  -4.314  -8.286  0.00  0.00    -0.003 A 
ATOM     40  C   LIG d   1       3.662  -2.934  -8.364  0.00  0.00    -0.052 A 
ATOM     41  C   LIG d   1       2.952  -2.293  -9.360  0.00  0.00    -0.040 A 
ATOM     42  H   LIG d   1       4.222  -2.356  -7.644  0.00  0.00     0.062 H 
ATOM     43  C   LIG d   1       2.232  -3.037 -10.286  0.00  0.00     0.029 A 
ATOM     44  H   LIG d   1       2.957  -1.215  -9.420  0.00  0.00     0.064 H 
ATOM     45  C   LIG d   1       2.227  -4.424 -10.206  0.00  0.00    -0.040 A 
ATOM     46  C   LIG d   1       2.939  -5.058  -9.207  0.00  0.00    -0.052 A 
ATOM     47  H   LIG d   1       1.671  -5.005 -10.927  0.00  0.00     0.064 H 
ATOM     48  H   LIG d   1       2.935  -6.136  -9.144  0.00  0.00     0.062 H 
BRANCH  43  49
ATOM     49  N   LIG d   1       1.513  -2.392 -11.296  0.00  0.00    -0.336 N 
BRANCH  49  50
ATOM     50  C   LIG d   1       1.831  -1.008 -11.653  0.00  0.00     0.000 C 
ATOM     51  H   LIG d   1       1.124  -0.655 -12.403  0.00  0.00     0.043 H 
ATOM     52  H   LIG d   1       1.764  -0.379 -10.766  0.00  0.00     0.043 H 
ATOM     53  H   LIG d   1       2.843  -0.960 -12.056  0.00  0.00     0.043 H 
ENDBRANCH  49  50
BRANCH  49  54
ATOM     54  C   LIG d   1       0.439  -3.101 -11.997  0.00  0.00     0.000 C 
ATOM     55  H   LIG d   1      -0.506  -2.582 -11.834  0.00  0.00     0.043 H 
ATOM     56  H   LIG d   1       0.658  -3.130 -13.064  0.00  0.00     0.043 H 
ATOM     57  H   LIG d   1       0.366  -4.118 -11.613  0.00  0.00     0.043 H 
ENDBRANCH  49  54
ENDBRANCH  43  49
ENDBRANCH  36  39
ENDBRANCH  33  36
ENDBRANCH  30  33
ENDBRANCH   1  30
TORSDOF 14
ENDMDL
MODEL 10
REMARK VINA RESULT:      -5.1      4.651      7.500
REMARK  14 active torsions:
REMARK  status: ('A' for Active; 'I' for Inactive)
REMARK    1  A    between atoms: C_1  and  C_2 
REMARK    2  A    between atoms: C_2  and  C_3 
REMARK    3  A    between atoms: C_2  and  C_4 
REMARK    4  A    between atoms: C_4  and  C_5 
REMARK    5  A    between atoms: C_5  and  C_6 
REMARK    6  A    between atoms: C_6  and  C_8 
REMARK    7  A    between atoms: C_6  and  C_20 
REMARK    8  A    between atoms: C_8  and  C_9 
REMARK    9  A    between atoms: C_9  and  N_55 
REMARK   10  A    between atoms: C_10  and  C_11 
REMARK   11  A    between atoms: C_10  and  N_55 
REMARK   12  A    between atoms: C_14  and  N_17 
REMARK   13  A    between atoms: N_17  and  C_18 
REMARK   14  A    between atoms: N_17  and  C_19 
ROOT
ATOM      1  C   LIG d   1       7.838  -0.217  -4.685  0.00  0.00    -0.003 C 
ATOM      2  H   LIG d   1       8.544  -1.007  -4.942  0.00  0.00     0.032 H 
ATOM      3  H   LIG d   1       8.078   0.177  -3.698  0.00  0.00     0.032 H 
ENDROOT
BRANCH   1   4
ATOM      4  C   LIG d   1       6.418  -0.785  -4.678  0.00  0.00     0.022 C 
ATOM      5  H   LIG d   1       6.457  -1.862  -4.514  0.00  0.00     0.038 H 
BRANCH   4   6
ATOM      6  C   LIG d   1       5.749  -0.500  -6.025  0.00  0.00    -0.043 C 
ATOM      7  H   LIG d   1       5.765   0.572  -6.219  0.00  0.00     0.027 H 
ATOM      8  H   LIG d   1       6.288  -1.020  -6.817  0.00  0.00     0.027 H 
BRANCH   6   9
ATOM      9  C   LIG d   1       4.300  -0.990  -5.988  0.00  0.00    -0.050 C 
ATOM     10  H   LIG d   1       4.169  -1.792  -6.715  0.00  0.00     0.027 H 
ATOM     11  H   LIG d   1       4.066  -1.361  -4.991  0.00  0.00     0.027 H 
BRANCH   9  12
ATOM     12  C   LIG d   1       3.361   0.169  -6.334  0.00  0.00    -0.047 C 
ATOM     13  H   LIG d   1       3.942   1.083  -6.457  0.00  0.00     0.029 H 
BRANCH  12  14
ATOM     14  C   LIG d   1       2.622  -0.145  -7.636  0.00  0.00    -0.063 C 
ATOM     15  H   LIG d   1       1.914  -0.957  -7.465  0.00  0.00     0.023 H 
ATOM     16  H   LIG d   1       2.084   0.741  -7.971  0.00  0.00     0.023 H 
ATOM     17  H   LIG d   1       3.340  -0.444  -8.399  0.00  0.00     0.023 H 
ENDBRANCH  12  14
BRANCH  12  18
ATOM     18  C   LIG d   1       2.347   0.358  -5.204  0.00  0.00    -0.063 C 
ATOM     19  H   LIG d   1       1.682  -0.506  -5.164  0.00  0.00     0.023 H 
ATOM     20  H   LIG d   1       2.874   0.455  -4.256  0.00  0.00     0.023 H 
ATOM     21  H   LIG d   1       1.761   1.258  -5.389  0.00  0.00     0.023 H 
ENDBRANCH  12  18
ENDBRANCH   9  12
ENDBRANCH   6   9
ENDBRANCH   4   6
BRANCH   4  22
ATOM     22  C   LIG d   1       5.622  -0.136  -3.576  0.00  0.00     0.108 A 
ATOM     23  O   LIG d   1       5.370   1.177  -3.456  0.00  0.00    -0.468 OA
ATOM     24  C   LIG d   1       4.632   1.393  -2.355  0.00  0.00     0.092 A 
ATOM     25  C   LIG d   1       4.404   0.210  -1.757  0.00  0.00    -0.024 A 
ATOM     26  H   LIG d   1       4.282   2.353  -2.008  0.00  0.00     0.103 H 
ATOM     27  C   LIG d   1       5.038  -0.777  -2.547  0.00  0.00    -0.020 A 
ATOM     28  H   LIG d   1       3.843   0.045  -0.849  0.00  0.00     0.065 H 
ATOM     29  H   LIG d   1       5.053  -1.840  -2.358  0.00  0.00     0.065 H 
ENDBRANCH   4  22
ENDBRANCH   1   4
BRANCH   1  30
ATOM     30  C   LIG d   1       7.933   0.907  -5.720  0.00  0.00    -0.033 C 
ATOM     31  H   LIG d   1       7.059   0.875  -6.371  0.00  0.00     0.081 H 
ATOM     32  H   LIG d   1       8.835   0.776  -6.317  0.00  0.00     0.081 H 
BRANCH  30  33
ATOM     33  N   LIG d   1       7.985   2.204  -5.021  0.00  0.00     0.230 N 
ATOM     34  H   LIG d   1       8.052   2.042  -4.009  0.00  0.00     0.202 HD
ATOM     35  H   LIG d   1       7.130   2.734  -5.225  0.00  0.00     0.202 HD
BRANCH  33  36
ATOM     36  C   LIG d   1       9.157   2.980  -5.469  0.00  0.00    -0.008 C 
ATOM     37  H   LIG d   1       8.955   3.417  -6.446  0.00  0.00     0.087 H 
ATOM     38  H   LIG d   1      10.027   2.326  -5.534  0.00  0.00     0.087 H 
BRANCH  36  39
ATOM     39  C   LIG d   1       9.430   4.080  -4.475  0.00  0.00    -0.003 A 
ATOM     40  C   LIG d   1       9.908   3.769  -3.216  0.00  0.00    -0.052 A 
ATOM     41  C   LIG d   1      10.159   4.775  -2.303  0.00  0.00    -0.040 A 
ATOM     42  H   LIG d   1      10.085   2.739  -2.944  0.00  0.00     0.062 H 
ATOM     43  C   LIG d   1       9.932   6.100  -2.652  0.00  0.00     0.029 A 
ATOM     44  H   LIG d   1      10.531   4.532  -1.318  0.00  0.00     0.064 H 
ATOM     45  C   LIG d   1       9.452   6.409  -3.918  0.00  0.00    -0.040 A 
ATOM     46  C   LIG d   1       9.203   5.399  -4.826  0.00  0.00    -0.052 A 
ATOM     47  H   LIG d   1       9.278   7.439  -4.194  0.00  0.00     0.064 H 
ATOM     48  H   LIG d   1       8.830   5.638  -5.811  0.00  0.00     0.062 H 
BRANCH  43  49
ATOM     49  N   LIG d   1      10.184   7.120  -1.731  0.00  0.00    -0.336 N 
BRANCH  49  50
ATOM     50  C   LIG d   1      10.511   6.791  -0.342  0.00  0.00     0.000 C 
ATOM     51  H   LIG d   1      11.590   6.691  -0.237  0.00  0.00     0.043 H 
ATOM     52  H   LIG d   1      10.153   7.584   0.314  0.00  0.00     0.043 H 
ATOM     53  H   LIG d   1      10.030   5.851  -0.069  0.00  0.00     0.043 H 
ENDBRANCH  49  50
BRANCH  49  54
ATOM     54  C   LIG d   1      10.121   8.521  -2.156  0.00  0.00     0.000 C 
ATOM     55  H   LIG d   1      10.706   9.136  -1.470  0.00  0.00     0.043 H 
ATOM     56  H   LIG d   1      10.527   8.615  -3.163  0.00  0.00     0.043 H 
ATOM     57  H   LIG d   1       9.084   8.856  -2.148  0.00  0.00     0.043 H 
ENDBRANCH  49  54
ENDBRANCH  43  49
ENDBRANCH  36  39
ENDBRANCH  33  36
ENDBRANCH  30  33
ENDBRANCH   1  30
TORSDOF 14
ENDMDL
