MODEL 1
REMARK VINA RESULT:      -4.4      0.000      0.000
REMARK  7 active torsions:
REMARK  status: ('A' for Active; 'I' for Inactive)
REMARK    1  A    between atoms: C_1  and  N_2 
REMARK    2  A    between atoms: N_2  and  C_3 
REMARK    3  A    between atoms: C_3  and  N_5 
REMARK    4  A    between atoms: N_5  and  C_6 
REMARK    5  A    between atoms: C_6  and  C_7 
REMARK    6  A    between atoms: C_7  and  C_8 
REMARK    7  A    between atoms: C_8  and  C_9 
ROOT
ATOM      1  C   LIG d   1       2.902  -0.176  -3.314  0.00  0.00    -0.030 C 
ATOM      2  H   LIG d   1       1.952  -0.353  -2.808  0.00  0.00     0.029 H 
ATOM      3  H   LIG d   1       3.339  -1.129  -3.610  0.00  0.00     0.029 H 
ENDROOT
BRANCH   1   4
ATOM      4  C   LIG d   1       2.666   0.686  -4.555  0.00  0.00     0.011 C 
ATOM      5  H   LIG d   1       3.533   1.326  -4.724  0.00  0.00     0.046 H 
ATOM      6  H   LIG d   1       1.782   1.305  -4.405  0.00  0.00     0.046 H 
BRANCH   4   7
ATOM      7  N   LIG d   1       2.465  -0.180  -5.720  0.00  0.00    -0.327 N 
ATOM      8  H   LIG d   1       1.739  -0.824  -5.726  0.00  0.00     0.148 HD
BRANCH   7   9
ATOM      9  C   LIG d   1       3.286  -0.080  -6.783  0.00  0.00     0.130 C 
ATOM     10  S   LIG d   1       4.940  -0.497  -6.631  0.00  0.00    -0.019 SA
BRANCH   9  11
ATOM     11  N   LIG d   1       2.806   0.348  -7.968  0.00  0.00    -0.330 N 
ATOM     12  H   LIG d   1       2.388  -0.281  -8.578  0.00  0.00     0.147 HD
BRANCH  11  13
ATOM     13  C   LIG d   1       2.913   1.762  -8.335  0.00  0.00    -0.001 C 
ATOM     14  H   LIG d   1       3.393   1.849  -9.310  0.00  0.00     0.043 H 
ATOM     15  H   LIG d   1       1.918   2.203  -8.379  0.00  0.00     0.043 H 
ATOM     16  H   LIG d   1       3.510   2.286  -7.588  0.00  0.00     0.043 H 
ENDBRANCH  11  13
ENDBRANCH   9  11
ENDBRANCH   7   9
ENDBRANCH   4   7
ENDBRANCH   1   4
BRANCH   1  17
ATOM     17  C   LIG d   1       3.857   0.549  -2.363  0.00  0.00     0.014 C 
ATOM     18  H   LIG d   1       3.587   1.603  -2.312  0.00  0.00     0.035 H 
ATOM     19  H   LIG d   1       3.788   0.106  -1.370  0.00  0.00     0.035 H 
BRANCH  17  20
ATOM     20  C   LIG d   1       5.269   0.418  -2.875  0.00  0.00     0.141 A 
ATOM     21  N   LIG d   1       6.021   1.408  -3.378  0.00  0.00    -0.247 N 
ATOM     22  C   LIG d   1       7.188   0.932  -3.717  0.00  0.00     0.242 A 
ATOM     23  H   LIG d   1       5.742   2.332  -3.472  0.00  0.00     0.310 HD
ATOM     24  N   LIG d   1       7.213  -0.390  -3.446  0.00  0.00    -0.250 N 
ATOM     25  H   LIG d   1       7.999   1.502  -4.148  0.00  0.00     0.158 H 
ATOM     26  C   LIG d   1       5.995  -0.716  -2.911  0.00  0.00     0.131 A 
ATOM     27  H   LIG d   1       7.953  -0.996  -3.601  0.00  0.00     0.310 HD
ATOM     28  H   LIG d   1       5.677  -1.695  -2.583  0.00  0.00     0.112 H 
ENDBRANCH  17  20
ENDBRANCH   1  17
TORSDOF 7
ENDMDL
MODEL 2
REMARK VINA RESULT:      -4.3      1.800      4.084
REMARK  7 active torsions:
REMARK  status: ('A' for Active; 'I' for Inactive)
REMARK    1  A    between atoms: C_1  and  N_2 
REMARK    2  A    between atoms: N_2  and  C_3 
REMARK    3  A    between atoms: C_3  and  N_5 
REMARK    4  A    between atoms: N_5  and  C_6 
REMARK    5  A    between atoms: C_6  and  C_7 
REMARK    6  A    between atoms: C_7  and  C_8 
REMARK    7  A    between atoms: C_8  and  C_9 
ROOT
ATOM      1  C   LIG d   1       4.811  -1.616  -2.224  0.00  0.00    -0.030 C 
ATOM      2  H   LIG d   1       4.970  -2.337  -1.423  0.00  0.00     0.029 H 
ATOM      3  H   LIG d   1       5.107  -0.623  -1.885  0.00  0.00     0.029 H 
ENDROOT
BRANCH   1   4
ATOM      4  C   LIG d   1       5.650  -2.011  -3.441  0.00  0.00     0.011 C 
ATOM      5  H   LIG d   1       4.995  -2.169  -4.299  0.00  0.00     0.046 H 
ATOM      6  H   LIG d   1       6.192  -2.932  -3.224  0.00  0.00     0.046 H 
BRANCH   4   7
ATOM      7  N   LIG d   1       6.604  -0.941  -3.744  0.00  0.00    -0.327 N 
ATOM      8  H   LIG d   1       7.308  -0.726  -3.112  0.00  0.00     0.148 HD
BRANCH   7   9
ATOM      9  C   LIG d   1       6.504  -0.259  -4.902  0.00  0.00     0.130 C 
ATOM     10  S   LIG d   1       5.742  -0.976  -6.257  0.00  0.00    -0.019 SA
BRANCH   9  11
ATOM     11  N   LIG d   1       7.004   0.990  -4.992  0.00  0.00    -0.330 N 
ATOM     12  H   LIG d   1       6.962   1.469  -5.835  0.00  0.00     0.147 HD
BRANCH  11  13
ATOM     13  C   LIG d   1       7.608   1.625  -3.818  0.00  0.00    -0.001 C 
ATOM     14  H   LIG d   1       6.910   2.348  -3.397  0.00  0.00     0.043 H 
ATOM     15  H   LIG d   1       7.837   0.864  -3.072  0.00  0.00     0.043 H 
ATOM     16  H   LIG d   1       8.526   2.133  -4.112  0.00  0.00     0.043 H 
ENDBRANCH  11  13
ENDBRANCH   9  11
ENDBRANCH   7   9
ENDBRANCH   4   7
ENDBRANCH   1   4
BRANCH   1  17
ATOM     17  C   LIG d   1       3.330  -1.602  -2.610  0.00  0.00     0.014 C 
ATOM     18  H   LIG d   1       3.084  -2.521  -3.142  0.00  0.00     0.035 H 
ATOM     19  H   LIG d   1       2.721  -1.529  -1.709  0.00  0.00     0.035 H 
BRANCH  17  20
ATOM     20  C   LIG d   1       3.054  -0.418  -3.501  0.00  0.00     0.141 A 
ATOM     21  N   LIG d   1       2.402  -0.448  -4.672  0.00  0.00    -0.247 N 
ATOM     22  C   LIG d   1       2.347   0.759  -5.165  0.00  0.00     0.242 A 
ATOM     23  H   LIG d   1       2.028  -1.241  -5.087  0.00  0.00     0.310 HD
ATOM     24  N   LIG d   1       2.975   1.602  -4.318  0.00  0.00    -0.250 N 
ATOM     25  H   LIG d   1       1.879   1.038  -6.098  0.00  0.00     0.158 H 
ATOM     26  C   LIG d   1       3.424   0.854  -3.261  0.00  0.00     0.131 A 
ATOM     27  H   LIG d   1       3.088   2.558  -4.435  0.00  0.00     0.310 HD
ATOM     28  H   LIG d   1       3.969   1.216  -2.403  0.00  0.00     0.112 H 
ENDBRANCH  17  20
ENDBRANCH   1  17
TORSDOF 7
ENDMDL
MODEL 3
REMARK VINA RESULT:      -4.2      1.768      3.428
REMARK  7 active torsions:
REMARK  status: ('A' for Active; 'I' for Inactive)
REMARK    1  A    between atoms: C_1  and  N_2 
REMARK    2  A    between atoms: N_2  and  C_3 
REMARK    3  A    between atoms: C_3  and  N_5 
REMARK    4  A    between atoms: N_5  and  C_6 
REMARK    5  A    between atoms: C_6  and  C_7 
REMARK    6  A    between atoms: C_7  and  C_8 
REMARK    7  A    between atoms: C_8  and  C_9 
ROOT
ATOM      1  C   LIG d   1       5.915   1.100  -2.880  0.00  0.00    -0.030 C 
ATOM      2  H   LIG d   1       6.634   1.506  -2.168  0.00  0.00     0.029 H 
ATOM      3  H   LIG d   1       5.746   1.821  -3.679  0.00  0.00     0.029 H 
ENDROOT
BRANCH   1   4
ATOM      4  C   LIG d   1       6.464  -0.200  -3.473  0.00  0.00     0.011 C 
ATOM      5  H   LIG d   1       5.739  -1.001  -3.326  0.00  0.00     0.046 H 
ATOM      6  H   LIG d   1       7.398  -0.460  -2.975  0.00  0.00     0.046 H 
BRANCH   4   7
ATOM      7  N   LIG d   1       6.708  -0.018  -4.906  0.00  0.00    -0.327 N 
ATOM      8  H   LIG d   1       7.470   0.502  -5.206  0.00  0.00     0.148 HD
BRANCH   7   9
ATOM      9  C   LIG d   1       5.874  -0.574  -5.806  0.00  0.00     0.130 C 
ATOM     10  S   LIG d   1       5.327  -2.182  -5.590  0.00  0.00    -0.019 SA
BRANCH   9  11
ATOM     11  N   LIG d   1       5.468   0.137  -6.878  0.00  0.00    -0.330 N 
ATOM     12  H   LIG d   1       5.578   1.102  -6.889  0.00  0.00     0.147 HD
BRANCH  11  13
ATOM     13  C   LIG d   1       4.864  -0.546  -8.024  0.00  0.00    -0.001 C 
ATOM     14  H   LIG d   1       3.981   0.005  -8.350  0.00  0.00     0.043 H 
ATOM     15  H   LIG d   1       5.585  -0.592  -8.840  0.00  0.00     0.043 H 
ATOM     16  H   LIG d   1       4.576  -1.556  -7.734  0.00  0.00     0.043 H 
ENDBRANCH  11  13
ENDBRANCH   9  11
ENDBRANCH   7   9
ENDBRANCH   4   7
ENDBRANCH   1   4
BRANCH   1  17
ATOM     17  C   LIG d   1       4.593   0.815  -2.163  0.00  0.00     0.014 C 
ATOM     18  H   LIG d   1       4.728  -0.014  -1.469  0.00  0.00     0.035 H 
ATOM     19  H   LIG d   1       4.279   1.702  -1.614  0.00  0.00     0.035 H 
BRANCH  17  20
ATOM     20  C   LIG d   1       3.540   0.452  -3.178  0.00  0.00     0.141 A 
ATOM     21  N   LIG d   1       3.240   1.146  -4.286  0.00  0.00    -0.247 N 
ATOM     22  C   LIG d   1       2.281   0.537  -4.929  0.00  0.00     0.242 A 
ATOM     23  H   LIG d   1       3.669   1.969  -4.566  0.00  0.00     0.310 HD
ATOM     24  N   LIG d   1       1.933  -0.571  -4.240  0.00  0.00    -0.250 N 
ATOM     25  H   LIG d   1       1.838   0.867  -5.857  0.00  0.00     0.158 H 
ATOM     26  C   LIG d   1       2.732  -0.624  -3.129  0.00  0.00     0.131 A 
ATOM     27  H   LIG d   1       1.245  -1.208  -4.485  0.00  0.00     0.310 HD
ATOM     28  H   LIG d   1       2.716  -1.383  -2.361  0.00  0.00     0.112 H 
ENDBRANCH  17  20
ENDBRANCH   1  17
TORSDOF 7
ENDMDL
MODEL 4
REMARK VINA RESULT:      -4.2      2.529      4.248
REMARK  7 active torsions:
REMARK  status: ('A' for Active; 'I' for Inactive)
REMARK    1  A    between atoms: C_1  and  N_2 
REMARK    2  A    between atoms: N_2  and  C_3 
REMARK    3  A    between atoms: C_3  and  N_5 
REMARK    4  A    between atoms: N_5  and  C_6 
REMARK    5  A    between atoms: C_6  and  C_7 
REMARK    6  A    between atoms: C_7  and  C_8 
REMARK    7  A    between atoms: C_8  and  C_9 
ROOT
ATOM      1  C   LIG d   1       3.585   1.127  -2.364  0.00  0.00    -0.030 C 
ATOM      2  H   LIG d   1       3.052   0.630  -1.553  0.00  0.00     0.029 H 
ATOM      3  H   LIG d   1       3.347   2.190  -2.358  0.00  0.00     0.029 H 
ENDROOT
BRANCH   1   4
ATOM      4  C   LIG d   1       5.092   0.940  -2.173  0.00  0.00     0.011 C 
ATOM      5  H   LIG d   1       5.320  -0.124  -2.100  0.00  0.00     0.046 H 
ATOM      6  H   LIG d   1       5.407   1.442  -1.258  0.00  0.00     0.046 H 
BRANCH   4   7
ATOM      7  N   LIG d   1       5.804   1.516  -3.316  0.00  0.00    -0.327 N 
ATOM      8  H   LIG d   1       5.408   2.247  -3.815  0.00  0.00     0.148 HD
BRANCH   7   9
ATOM      9  C   LIG d   1       7.009   1.030  -3.673  0.00  0.00     0.130 C 
ATOM     10  S   LIG d   1       8.193   2.074  -4.335  0.00  0.00    -0.019 SA
BRANCH   9  11
ATOM     11  N   LIG d   1       7.283  -0.280  -3.508  0.00  0.00    -0.330 N 
ATOM     12  H   LIG d   1       7.100  -0.710  -2.657  0.00  0.00     0.147 HD
BRANCH  11  13
ATOM     13  C   LIG d   1       7.855  -1.054  -4.612  0.00  0.00    -0.001 C 
ATOM     14  H   LIG d   1       7.401  -0.735  -5.551  0.00  0.00     0.043 H 
ATOM     15  H   LIG d   1       8.931  -0.887  -4.654  0.00  0.00     0.043 H 
ATOM     16  H   LIG d   1       7.656  -2.114  -4.454  0.00  0.00     0.043 H 
ENDBRANCH  11  13
ENDBRANCH   9  11
ENDBRANCH   7   9
ENDBRANCH   4   7
ENDBRANCH   1   4
BRANCH   1  17
ATOM     17  C   LIG d   1       3.161   0.517  -3.702  0.00  0.00     0.014 C 
ATOM     18  H   LIG d   1       2.075   0.540  -3.783  0.00  0.00     0.035 H 
ATOM     19  H   LIG d   1       3.601   1.090  -4.518  0.00  0.00     0.035 H 
BRANCH  17  20
ATOM     20  C   LIG d   1       3.639  -0.911  -3.776  0.00  0.00     0.141 A 
ATOM     21  N   LIG d   1       4.194  -1.503  -4.844  0.00  0.00    -0.247 N 
ATOM     22  C   LIG d   1       4.487  -2.740  -4.547  0.00  0.00     0.242 A 
ATOM     23  H   LIG d   1       4.354  -1.078  -5.700  0.00  0.00     0.310 HD
ATOM     24  N   LIG d   1       4.116  -2.978  -3.270  0.00  0.00    -0.250 N 
ATOM     25  H   LIG d   1       4.946  -3.455  -5.213  0.00  0.00     0.158 H 
ATOM     26  C   LIG d   1       3.579  -1.817  -2.781  0.00  0.00     0.131 A 
ATOM     27  H   LIG d   1       4.212  -3.815  -2.790  0.00  0.00     0.310 HD
ATOM     28  H   LIG d   1       3.182  -1.660  -1.790  0.00  0.00     0.112 H 
ENDBRANCH  17  20
ENDBRANCH   1  17
TORSDOF 7
ENDMDL
MODEL 5
REMARK VINA RESULT:      -4.2      2.776      5.417
REMARK  7 active torsions:
REMARK  status: ('A' for Active; 'I' for Inactive)
REMARK    1  A    between atoms: C_1  and  N_2 
REMARK    2  A    between atoms: N_2  and  C_3 
REMARK    3  A    between atoms: C_3  and  N_5 
REMARK    4  A    between atoms: N_5  and  C_6 
REMARK    5  A    between atoms: C_6  and  C_7 
REMARK    6  A    between atoms: C_7  and  C_8 
REMARK    7  A    between atoms: C_8  and  C_9 
ROOT
ATOM      1  C   LIG d   1       3.383  -0.093  -6.339  0.00  0.00    -0.030 C 
ATOM      2  H   LIG d   1       4.254   0.543  -6.497  0.00  0.00     0.029 H 
ATOM      3  H   LIG d   1       3.709  -1.106  -6.105  0.00  0.00     0.029 H 
ENDROOT
BRANCH   1   4
ATOM      4  C   LIG d   1       2.554   0.458  -5.177  0.00  0.00     0.011 C 
ATOM      5  H   LIG d   1       1.610   0.850  -5.557  0.00  0.00     0.046 H 
ATOM      6  H   LIG d   1       3.107   1.258  -4.683  0.00  0.00     0.046 H 
BRANCH   4   7
ATOM      7  N   LIG d   1       2.286  -0.616  -4.216  0.00  0.00    -0.327 N 
ATOM      8  H   LIG d   1       1.389  -0.974  -4.128  0.00  0.00     0.148 HD
BRANCH   7   9
ATOM      9  C   LIG d   1       3.285  -1.105  -3.457  0.00  0.00     0.130 C 
ATOM     10  S   LIG d   1       4.085  -0.089  -2.335  0.00  0.00    -0.019 SA
BRANCH   9  11
ATOM     11  N   LIG d   1       3.655  -2.396  -3.580  0.00  0.00    -0.330 N 
ATOM     12  H   LIG d   1       3.073  -3.100  -3.252  0.00  0.00     0.147 HD
BRANCH  11  13
ATOM     13  C   LIG d   1       4.934  -2.734  -4.210  0.00  0.00    -0.001 C 
ATOM     14  H   LIG d   1       5.230  -1.931  -4.885  0.00  0.00     0.043 H 
ATOM     15  H   LIG d   1       5.695  -2.862  -3.440  0.00  0.00     0.043 H 
ATOM     16  H   LIG d   1       4.827  -3.661  -4.773  0.00  0.00     0.043 H 
ENDBRANCH  11  13
ENDBRANCH   9  11
ENDBRANCH   7   9
ENDBRANCH   4   7
ENDBRANCH   1   4
BRANCH   1  17
ATOM     17  C   LIG d   1       2.529  -0.112  -7.609  0.00  0.00     0.014 C 
ATOM     18  H   LIG d   1       2.520  -1.120  -8.025  0.00  0.00     0.035 H 
ATOM     19  H   LIG d   1       1.511   0.191  -7.368  0.00  0.00     0.035 H 
BRANCH  17  20
ATOM     20  C   LIG d   1       3.113   0.841  -8.620  0.00  0.00     0.141 A 
ATOM     21  N   LIG d   1       3.462   2.116  -8.392  0.00  0.00    -0.247 N 
ATOM     22  C   LIG d   1       3.933   2.637  -9.492  0.00  0.00     0.242 A 
ATOM     23  H   LIG d   1       3.379   2.577  -7.543  0.00  0.00     0.310 HD
ATOM     24  N   LIG d   1       3.890   1.703 -10.466  0.00  0.00    -0.250 N 
ATOM     25  H   LIG d   1       4.293   3.648  -9.606  0.00  0.00     0.158 H 
ATOM     26  C   LIG d   1       3.370   0.563  -9.912  0.00  0.00     0.131 A 
ATOM     27  H   LIG d   1       4.174   1.817 -11.386  0.00  0.00     0.310 HD
ATOM     28  H   LIG d   1       3.198  -0.377 -10.415  0.00  0.00     0.112 H 
ENDBRANCH  17  20
ENDBRANCH   1  17
TORSDOF 7
ENDMDL
MODEL 6
REMARK VINA RESULT:      -4.2      2.475      3.528
REMARK  7 active torsions:
REMARK  status: ('A' for Active; 'I' for Inactive)
REMARK    1  A    between atoms: C_1  and  N_2 
REMARK    2  A    between atoms: N_2  and  C_3 
REMARK    3  A    between atoms: C_3  and  N_5 
REMARK    4  A    between atoms: N_5  and  C_6 
REMARK    5  A    between atoms: C_6  and  C_7 
REMARK    6  A    between atoms: C_7  and  C_8 
REMARK    7  A    between atoms: C_8  and  C_9 
ROOT
ATOM      1  C   LIG d   1       3.491  -0.102  -6.457  0.00  0.00    -0.030 C 
ATOM      2  H   LIG d   1       3.581  -1.187  -6.492  0.00  0.00     0.029 H 
ATOM      3  H   LIG d   1       4.481   0.342  -6.348  0.00  0.00     0.029 H 
ENDROOT
BRANCH   1   4
ATOM      4  C   LIG d   1       2.847   0.399  -7.751  0.00  0.00     0.011 C 
ATOM      5  H   LIG d   1       1.772   0.504  -7.605  0.00  0.00     0.046 H 
ATOM      6  H   LIG d   1       3.035  -0.317  -8.551  0.00  0.00     0.046 H 
BRANCH   4   7
ATOM      7  N   LIG d   1       3.421   1.698  -8.112  0.00  0.00    -0.327 N 
ATOM      8  H   LIG d   1       3.181   2.490  -7.607  0.00  0.00     0.148 HD
BRANCH   7   9
ATOM      9  C   LIG d   1       4.282   1.790  -9.144  0.00  0.00     0.130 C 
ATOM     10  S   LIG d   1       3.853   1.159 -10.677  0.00  0.00    -0.019 SA
BRANCH   9  11
ATOM     11  N   LIG d   1       5.482   2.379  -8.970  0.00  0.00    -0.330 N 
ATOM     12  H   LIG d   1       5.573   3.338  -9.089  0.00  0.00     0.147 HD
BRANCH  11  13
ATOM     13  C   LIG d   1       6.648   1.572  -8.600  0.00  0.00    -0.001 C 
ATOM     14  H   LIG d   1       6.812   0.804  -9.356  0.00  0.00     0.043 H 
ATOM     15  H   LIG d   1       7.527   2.213  -8.536  0.00  0.00     0.043 H 
ATOM     16  H   LIG d   1       6.470   1.100  -7.634  0.00  0.00     0.043 H 
ENDBRANCH  11  13
ENDBRANCH   9  11
ENDBRANCH   7   9
ENDBRANCH   4   7
ENDBRANCH   1   4
BRANCH   1  17
ATOM     17  C   LIG d   1       2.620   0.300  -5.265  0.00  0.00     0.014 C 
ATOM     18  H   LIG d   1       2.649   1.382  -5.142  0.00  0.00     0.035 H 
ATOM     19  H   LIG d   1       1.593  -0.019  -5.442  0.00  0.00     0.035 H 
BRANCH  17  20
ATOM     20  C   LIG d   1       3.143  -0.362  -4.015  0.00  0.00     0.141 A 
ATOM     21  N   LIG d   1       3.237  -1.682  -3.803  0.00  0.00    -0.247 N 
ATOM     22  C   LIG d   1       3.736  -1.892  -2.615  0.00  0.00     0.242 A 
ATOM     23  H   LIG d   1       2.978  -2.372  -4.433  0.00  0.00     0.310 HD
ATOM     24  N   LIG d   1       3.969  -0.700  -2.026  0.00  0.00    -0.250 N 
ATOM     25  H   LIG d   1       3.927  -2.860  -2.175  0.00  0.00     0.158 H 
ATOM     26  C   LIG d   1       3.593   0.272  -2.915  0.00  0.00     0.131 A 
ATOM     27  H   LIG d   1       4.334  -0.557  -1.139  0.00  0.00     0.310 HD
ATOM     28  H   LIG d   1       3.646   1.339  -2.763  0.00  0.00     0.112 H 
ENDBRANCH  17  20
ENDBRANCH   1  17
TORSDOF 7
ENDMDL
MODEL 7
REMARK VINA RESULT:      -4.0      9.580     10.991
REMARK  7 active torsions:
REMARK  status: ('A' for Active; 'I' for Inactive)
REMARK    1  A    between atoms: C_1  and  N_2 
REMARK    2  A    between atoms: N_2  and  C_3 
REMARK    3  A    between atoms: C_3  and  N_5 
REMARK    4  A    between atoms: N_5  and  C_6 
REMARK    5  A    between atoms: C_6  and  C_7 
REMARK    6  A    between atoms: C_7  and  C_8 
REMARK    7  A    between atoms: C_8  and  C_9 
ROOT
ATOM      1  C   LIG d   1       9.229   8.707  -0.916  0.00  0.00    -0.030 C 
ATOM      2  H   LIG d   1       9.869   8.674  -0.035  0.00  0.00     0.029 H 
ATOM      3  H   LIG d   1       8.193   8.845  -0.608  0.00  0.00     0.029 H 
ENDROOT
BRANCH   1   4
ATOM      4  C   LIG d   1       9.654   9.872  -1.812  0.00  0.00     0.011 C 
ATOM      5  H   LIG d   1      10.046   9.483  -2.752  0.00  0.00     0.046 H 
ATOM      6  H   LIG d   1      10.427  10.453  -1.309  0.00  0.00     0.046 H 
BRANCH   4   7
ATOM      7  N   LIG d   1       8.496  10.729  -2.082  0.00  0.00    -0.327 N 
ATOM      8  H   LIG d   1       7.712  10.676  -1.514  0.00  0.00     0.148 HD
BRANCH   7   9
ATOM      9  C   LIG d   1       8.523  11.589  -3.118  0.00  0.00     0.130 C 
ATOM     10  S   LIG d   1       9.333  11.163  -4.565  0.00  0.00    -0.019 SA
BRANCH   9  11
ATOM     11  N   LIG d   1       7.910  12.786  -3.016  0.00  0.00    -0.330 N 
ATOM     12  H   LIG d   1       6.942  12.840  -3.058  0.00  0.00     0.147 HD
BRANCH  11  13
ATOM     13  C   LIG d   1       8.706  14.003  -2.842  0.00  0.00    -0.001 C 
ATOM     14  H   LIG d   1       8.151  14.715  -2.229  0.00  0.00     0.043 H 
ATOM     15  H   LIG d   1       9.646  13.756  -2.349  0.00  0.00     0.043 H 
ATOM     16  H   LIG d   1       8.912  14.445  -3.816  0.00  0.00     0.043 H 
ENDBRANCH  11  13
ENDBRANCH   9  11
ENDBRANCH   7   9
ENDBRANCH   4   7
ENDBRANCH   1   4
BRANCH   1  17
ATOM     17  C   LIG d   1       9.359   7.394  -1.691  0.00  0.00     0.014 C 
ATOM     18  H   LIG d   1       8.376   6.936  -1.798  0.00  0.00     0.035 H 
ATOM     19  H   LIG d   1       9.777   7.594  -2.677  0.00  0.00     0.035 H 
BRANCH  17  20
ATOM     20  C   LIG d   1      10.270   6.456  -0.940  0.00  0.00     0.141 A 
ATOM     21  N   LIG d   1      10.789   6.669   0.278  0.00  0.00    -0.247 N 
ATOM     22  C   LIG d   1      11.527   5.646   0.616  0.00  0.00     0.242 A 
ATOM     23  H   LIG d   1      10.639   7.457   0.823  0.00  0.00     0.310 HD
ATOM     24  N   LIG d   1      11.505   4.746  -0.390  0.00  0.00    -0.250 N 
ATOM     25  H   LIG d   1      12.068   5.540   1.545  0.00  0.00     0.158 H 
ATOM     26  C   LIG d   1      10.707   5.260  -1.377  0.00  0.00     0.131 A 
ATOM     27  H   LIG d   1      11.969   3.894  -0.410  0.00  0.00     0.310 HD
ATOM     28  H   LIG d   1      10.475   4.796  -2.323  0.00  0.00     0.112 H 
ENDBRANCH  17  20
ENDBRANCH   1  17
TORSDOF 7
ENDMDL
MODEL 8
REMARK VINA RESULT:      -3.9      9.162     10.538
REMARK  7 active torsions:
REMARK  status: ('A' for Active; 'I' for Inactive)
REMARK    1  A    between atoms: C_1  and  N_2 
REMARK    2  A    between atoms: N_2  and  C_3 
REMARK    3  A    between atoms: C_3  and  N_5 
REMARK    4  A    between atoms: N_5  and  C_6 
REMARK    5  A    between atoms: C_6  and  C_7 
REMARK    6  A    between atoms: C_7  and  C_8 
REMARK    7  A    between atoms: C_8  and  C_9 
ROOT
ATOM      1  C   LIG d   1      10.058   8.721  -1.240  0.00  0.00    -0.030 C 
ATOM      2  H   LIG d   1      10.506   9.077  -2.168  0.00  0.00     0.029 H 
ATOM      3  H   LIG d   1      10.845   8.458  -0.534  0.00  0.00     0.029 H 
ENDROOT
BRANCH   1   4
ATOM      4  C   LIG d   1       9.182   9.823  -0.641  0.00  0.00     0.011 C 
ATOM      5  H   LIG d   1       9.816  10.586  -0.188  0.00  0.00     0.046 H 
ATOM      6  H   LIG d   1       8.530   9.395   0.120  0.00  0.00     0.046 H 
BRANCH   4   7
ATOM      7  N   LIG d   1       8.369  10.430  -1.698  0.00  0.00    -0.327 N 
ATOM      8  H   LIG d   1       7.410  10.282  -1.716  0.00  0.00     0.148 HD
BRANCH   7   9
ATOM      9  C   LIG d   1       8.952  11.192  -2.643  0.00  0.00     0.130 C 
ATOM     10  S   LIG d   1      10.035  12.439  -2.191  0.00  0.00    -0.019 SA
BRANCH   9  11
ATOM     11  N   LIG d   1       8.685  10.972  -3.946  0.00  0.00    -0.330 N 
ATOM     12  H   LIG d   1       7.901  11.373  -4.355  0.00  0.00     0.147 HD
BRANCH  11  13
ATOM     13  C   LIG d   1       9.577  10.129  -4.745  0.00  0.00    -0.001 C 
ATOM     14  H   LIG d   1      10.419   9.807  -4.131  0.00  0.00     0.043 H 
ATOM     15  H   LIG d   1       9.031   9.255  -5.099  0.00  0.00     0.043 H 
ATOM     16  H   LIG d   1       9.946  10.698  -5.599  0.00  0.00     0.043 H 
ENDBRANCH  11  13
ENDBRANCH   9  11
ENDBRANCH   7   9
ENDBRANCH   4   7
ENDBRANCH   1   4
BRANCH   1  17
ATOM     17  C   LIG d   1       9.199   7.488  -1.529  0.00  0.00     0.014 C 
ATOM     18  H   LIG d   1       8.394   7.427  -0.797  0.00  0.00     0.035 H 
ATOM     19  H   LIG d   1       8.777   7.566  -2.530  0.00  0.00     0.035 H 
BRANCH  17  20
ATOM     20  C   LIG d   1      10.053   6.249  -1.438  0.00  0.00     0.141 A 
ATOM     21  N   LIG d   1      10.186   5.312  -2.388  0.00  0.00    -0.247 N 
ATOM     22  C   LIG d   1      11.006   4.387  -1.968  0.00  0.00     0.242 A 
ATOM     23  H   LIG d   1       9.744   5.321  -3.251  0.00  0.00     0.310 HD
ATOM     24  N   LIG d   1      11.419   4.707  -0.723  0.00  0.00    -0.250 N 
ATOM     25  H   LIG d   1      11.302   3.509  -2.523  0.00  0.00     0.158 H 
ATOM     26  C   LIG d   1      10.814   5.889  -0.387  0.00  0.00     0.131 A 
ATOM     27  H   LIG d   1      12.028   4.195  -0.169  0.00  0.00     0.310 HD
ATOM     28  H   LIG d   1      10.926   6.427   0.542  0.00  0.00     0.112 H 
ENDBRANCH  17  20
ENDBRANCH   1  17
TORSDOF 7
ENDMDL
MODEL 9
REMARK VINA RESULT:      -3.8      2.017      5.286
REMARK  7 active torsions:
REMARK  status: ('A' for Active; 'I' for Inactive)
REMARK    1  A    between atoms: C_1  and  N_2 
REMARK    2  A    between atoms: N_2  and  C_3 
REMARK    3  A    between atoms: C_3  and  N_5 
REMARK    4  A    between atoms: N_5  and  C_6 
REMARK    5  A    between atoms: C_6  and  C_7 
REMARK    6  A    between atoms: C_7  and  C_8 
REMARK    7  A    between atoms: C_8  and  C_9 
ROOT
ATOM      1  C   LIG d   1       4.114  -0.841  -6.623  0.00  0.00    -0.030 C 
ATOM      2  H   LIG d   1       5.069  -0.437  -6.959  0.00  0.00     0.029 H 
ATOM      3  H   LIG d   1       3.947  -1.813  -7.086  0.00  0.00     0.029 H 
ENDROOT
BRANCH   1   4
ATOM      4  C   LIG d   1       4.134  -0.996  -5.101  0.00  0.00     0.011 C 
ATOM      5  H   LIG d   1       5.026  -1.548  -4.803  0.00  0.00     0.046 H 
ATOM      6  H   LIG d   1       3.246  -1.541  -4.780  0.00  0.00     0.046 H 
BRANCH   4   7
ATOM      7  N   LIG d   1       4.147   0.329  -4.474  0.00  0.00    -0.327 N 
ATOM      8  H   LIG d   1       3.661   1.062  -4.882  0.00  0.00     0.148 HD
BRANCH   7   9
ATOM      9  C   LIG d   1       4.834   0.526  -3.333  0.00  0.00     0.130 C 
ATOM     10  S   LIG d   1       4.432  -0.362  -1.925  0.00  0.00    -0.019 SA
BRANCH   9  11
ATOM     11  N   LIG d   1       5.840   1.423  -3.298  0.00  0.00    -0.330 N 
ATOM     12  H   LIG d   1       5.682   2.316  -2.950  0.00  0.00     0.147 HD
BRANCH  11  13
ATOM     13  C   LIG d   1       7.170   1.052  -3.786  0.00  0.00    -0.001 C 
ATOM     14  H   LIG d   1       7.377   1.581  -4.717  0.00  0.00     0.043 H 
ATOM     15  H   LIG d   1       7.919   1.321  -3.041  0.00  0.00     0.043 H 
ATOM     16  H   LIG d   1       7.205  -0.023  -3.964  0.00  0.00     0.043 H 
ENDBRANCH  11  13
ENDBRANCH   9  11
ENDBRANCH   7   9
ENDBRANCH   4   7
ENDBRANCH   1   4
BRANCH   1  17
ATOM     17  C   LIG d   1       2.988   0.115  -7.023  0.00  0.00     0.014 C 
ATOM     18  H   LIG d   1       2.149  -0.457  -7.418  0.00  0.00     0.035 H 
ATOM     19  H   LIG d   1       2.664   0.681  -6.150  0.00  0.00     0.035 H 
BRANCH  17  20
ATOM     20  C   LIG d   1       3.489   1.066  -8.080  0.00  0.00     0.141 A 
ATOM     21  N   LIG d   1       4.770   1.393  -8.304  0.00  0.00    -0.247 N 
ATOM     22  C   LIG d   1       4.831   2.237  -9.298  0.00  0.00     0.242 A 
ATOM     23  H   LIG d   1       5.530   1.054  -7.808  0.00  0.00     0.310 HD
ATOM     24  N   LIG d   1       3.578   2.482  -9.736  0.00  0.00    -0.250 N 
ATOM     25  H   LIG d   1       5.735   2.671  -9.700  0.00  0.00     0.158 H 
ATOM     26  C   LIG d   1       2.726   1.738  -8.964  0.00  0.00     0.131 A 
ATOM     27  H   LIG d   1       3.327   3.074 -10.462  0.00  0.00     0.310 HD
ATOM     28  H   LIG d   1       1.650   1.699  -9.046  0.00  0.00     0.112 H 
ENDBRANCH  17  20
ENDBRANCH   1  17
TORSDOF 7
ENDMDL
MODEL 10
REMARK VINA RESULT:      -3.8      8.172     10.028
REMARK  7 active torsions:
REMARK  status: ('A' for Active; 'I' for Inactive)
REMARK    1  A    between atoms: C_1  and  N_2 
REMARK    2  A    between atoms: N_2  and  C_3 
REMARK    3  A    between atoms: C_3  and  N_5 
REMARK    4  A    between atoms: N_5  and  C_6 
REMARK    5  A    between atoms: C_6  and  C_7 
REMARK    6  A    between atoms: C_7  and  C_8 
REMARK    7  A    between atoms: C_8  and  C_9 
ROOT
ATOM      1  C   LIG d   1       9.525   7.013  -1.618  0.00  0.00    -0.030 C 
ATOM      2  H   LIG d   1       8.511   6.626  -1.512  0.00  0.00     0.029 H 
ATOM      3  H   LIG d   1       9.712   7.264  -2.661  0.00  0.00     0.029 H 
ENDROOT
BRANCH   1   4
ATOM      4  C   LIG d   1       9.686   8.265  -0.754  0.00  0.00     0.011 C 
ATOM      5  H   LIG d   1      10.673   8.696  -0.919  0.00  0.00     0.046 H 
ATOM      6  H   LIG d   1       9.578   7.997   0.298  0.00  0.00     0.046 H 
BRANCH   4   7
ATOM      7  N   LIG d   1       8.658   9.244  -1.117  0.00  0.00    -0.327 N 
ATOM      8  H   LIG d   1       7.722   9.047  -0.955  0.00  0.00     0.148 HD
BRANCH   7   9
ATOM      9  C   LIG d   1       9.014  10.418  -1.674  0.00  0.00     0.130 C 
ATOM     10  S   LIG d   1      10.571  11.068  -1.383  0.00  0.00    -0.019 SA
BRANCH   9  11
ATOM     11  N   LIG d   1       8.144  11.081  -2.462  0.00  0.00    -0.330 N 
ATOM     12  H   LIG d   1       7.210  10.815  -2.485  0.00  0.00     0.147 HD
BRANCH  11  13
ATOM     13  C   LIG d   1       8.606  12.202  -3.283  0.00  0.00    -0.001 C 
ATOM     14  H   LIG d   1       9.621  12.472  -2.990  0.00  0.00     0.043 H 
ATOM     15  H   LIG d   1       8.597  11.912  -4.334  0.00  0.00     0.043 H 
ATOM     16  H   LIG d   1       7.946  13.057  -3.136  0.00  0.00     0.043 H 
ENDBRANCH  11  13
ENDBRANCH   9  11
ENDBRANCH   7   9
ENDBRANCH   4   7
ENDBRANCH   1   4
BRANCH   1  17
ATOM     17  C   LIG d   1      10.526   5.948  -1.163  0.00  0.00     0.014 C 
ATOM     18  H   LIG d   1      11.533   6.361  -1.191  0.00  0.00     0.035 H 
ATOM     19  H   LIG d   1      10.288   5.636  -0.146  0.00  0.00     0.035 H 
BRANCH  17  20
ATOM     20  C   LIG d   1      10.446   4.758  -2.085  0.00  0.00     0.141 A 
ATOM     21  N   LIG d   1      11.012   3.560  -1.878  0.00  0.00    -0.247 N 
ATOM     22  C   LIG d   1      10.732   2.773  -2.881  0.00  0.00     0.242 A 
ATOM     23  H   LIG d   1      11.543   3.317  -1.105  0.00  0.00     0.310 HD
ATOM     24  N   LIG d   1       9.978   3.454  -3.770  0.00  0.00    -0.250 N 
ATOM     25  H   LIG d   1      11.054   1.747  -2.984  0.00  0.00     0.158 H 
ATOM     26  C   LIG d   1       9.796   4.714  -3.264  0.00  0.00     0.131 A 
ATOM     27  H   LIG d   1       9.631   3.115  -4.609  0.00  0.00     0.310 HD
ATOM     28  H   LIG d   1       9.240   5.518  -3.723  0.00  0.00     0.112 H 
ENDBRANCH  17  20
ENDBRANCH   1  17
TORSDOF 7
ENDMDL
