MODEL 1
REMARK VINA RESULT:      -6.4      0.000      0.000
REMARK  11 active torsions:
REMARK  status: ('A' for Active; 'I' for Inactive)
REMARK    1  A    between atoms: C_1  and  C_2 
REMARK    2  A    between atoms: C_4  and  N_33 
REMARK    3  A    between atoms: C_8  and  C_32 
REMARK    4  A    between atoms: C_11  and  O_31 
REMARK    5  A    between atoms: C_13  and  C_17 
REMARK    6  A    between atoms: C_17  and  C_19 
REMARK    7  A    between atoms: C_17  and  C_20 
REMARK       I    between atoms: C_20  and  N_22 
REMARK    8  A    between atoms: N_22  and  C_23 
REMARK    9  A    between atoms: N_22  and  C_24 
REMARK   10  A    between atoms: C_24  and  C_25 
REMARK       I    between atoms: N_33  and  C_34 
REMARK   11  A    between atoms: C_34  and  C_36 
ROOT
ATOM      1  C   LIG d   1       3.837  -1.559 -11.094  0.00  0.00    -0.020 C 
ATOM      2  H   LIG d   1       2.738  -1.509 -11.126  0.00  0.00     0.032 H 
ATOM      3  C   LIG d   1       4.423  -0.402 -11.904  0.00  0.00     0.026 C 
ATOM      4  H   LIG d   1       5.521  -0.455 -11.916  0.00  0.00     0.050 H 
ATOM      5  C   LIG d   1       3.954   0.927 -11.307  0.00  0.00    -0.034 C 
ATOM      6  C   LIG d   1       4.427   1.030  -9.856  0.00  0.00    -0.046 C 
ATOM      7  C   LIG d   1       3.840  -0.128  -9.046  0.00  0.00    -0.026 C 
ATOM      8  C   LIG d   1       4.309  -1.458  -9.642  0.00  0.00    -0.005 C 
ATOM      9  H   LIG d   1       5.408  -1.506  -9.610  0.00  0.00     0.033 H 
ATOM     10  C   LIG d   1       3.723  -2.615  -8.833  0.00  0.00     0.062 C 
ATOM     11  H   LIG d   1       2.625  -2.629  -8.894  0.00  0.00     0.060 H 
ATOM     12  C   LIG d   1       4.196  -2.514  -7.381  0.00  0.00    -0.004 C 
ATOM     13  H   LIG d   1       3.774  -3.347  -6.799  0.00  0.00     0.033 H 
ATOM     14  C   LIG d   1       3.727  -1.185  -6.784  0.00  0.00    -0.047 C 
ATOM     15  C   LIG d   1       4.314  -0.027  -7.594  0.00  0.00    -0.047 C 
ATOM     16  H   LIG d   1       4.376   1.760 -11.889  0.00  0.00     0.028 H 
ATOM     17  H   LIG d   1       2.856   0.977 -11.339  0.00  0.00     0.028 H 
ATOM     18  H   LIG d   1       5.525   0.980  -9.823  0.00  0.00     0.027 H 
ATOM     19  H   LIG d   1       4.090   1.984  -9.426  0.00  0.00     0.027 H 
ATOM     20  H   LIG d   1       2.629  -1.136  -6.816  0.00  0.00     0.027 H 
ATOM     21  H   LIG d   1       4.067  -1.112  -5.741  0.00  0.00     0.027 H 
ATOM     22  H   LIG d   1       5.412  -0.076  -7.563  0.00  0.00     0.027 H 
ATOM     23  H   LIG d   1       3.976   0.928  -7.165  0.00  0.00     0.027 H 
ENDROOT
BRANCH  12  24
ATOM     24  C   LIG d   1       5.724  -2.582  -7.336  0.00  0.00     0.038 C 
ATOM     25  H   LIG d   1       6.152  -1.719  -7.866  0.00  0.00     0.040 H 
BRANCH  24  26
ATOM     26  C   LIG d   1       6.195  -3.881  -7.992  0.00  0.00    -0.054 C 
ATOM     27  H   LIG d   1       7.077  -4.264  -7.457  0.00  0.00     0.024 H 
ATOM     28  H   LIG d   1       6.459  -3.687  -9.042  0.00  0.00     0.024 H 
ATOM     29  H   LIG d   1       5.388  -4.628  -7.950  0.00  0.00     0.024 H 
ENDBRANCH  24  26
BRANCH  24  30
ATOM     30  C   LIG d   1       6.186  -2.547  -5.903  0.00  0.00     0.219 C 
ATOM     31  O   LIG d   1       5.853  -3.426  -5.136  0.00  0.00    -0.275 OA
ATOM     32  N   LIG d   1       6.969  -1.538  -5.472  0.00  0.00    -0.300 N 
BRANCH  32  33
ATOM     33  C   LIG d   1       7.434  -0.518  -6.415  0.00  0.00     0.004 C 
ATOM     34  H   LIG d   1       7.465   0.460  -5.912  0.00  0.00     0.043 H 
ATOM     35  H   LIG d   1       6.745  -0.468  -7.271  0.00  0.00     0.043 H 
ATOM     36  H   LIG d   1       8.441  -0.779  -6.770  0.00  0.00     0.043 H 
ENDBRANCH  32  33
BRANCH  32  37
ATOM     37  C   LIG d   1       7.355  -1.461  -4.061  0.00  0.00     0.039 C 
ATOM     38  H   LIG d   1       7.471  -2.477  -3.656  0.00  0.00     0.051 H 
ATOM     39  H   LIG d   1       8.309  -0.920  -3.972  0.00  0.00     0.051 H 
BRANCH  37  40
ATOM     40  C   LIG d   1       6.289  -0.731  -3.288  0.00  0.00    -0.030 A 
ATOM     41  C   LIG d   1       6.232   0.650  -3.324  0.00  0.00    -0.057 A 
ATOM     42  C   LIG d   1       5.253   1.321  -2.615  0.00  0.00    -0.061 A 
ATOM     43  H   LIG d   1       6.952   1.205  -3.906  0.00  0.00     0.062 H 
ATOM     44  C   LIG d   1       4.331   0.610  -1.869  0.00  0.00    -0.062 A 
ATOM     45  H   LIG d   1       5.210   2.400  -2.642  0.00  0.00     0.062 H 
ATOM     46  C   LIG d   1       4.387  -0.771  -1.834  0.00  0.00    -0.061 A 
ATOM     47  H   LIG d   1       3.566   1.134  -1.314  0.00  0.00     0.062 H 
ATOM     48  C   LIG d   1       5.363  -1.441  -2.547  0.00  0.00    -0.057 A 
ATOM     49  H   LIG d   1       3.666  -1.325  -1.251  0.00  0.00     0.062 H 
ATOM     50  H   LIG d   1       5.405  -2.520  -2.521  0.00  0.00     0.062 H 
ENDBRANCH  37  40
ENDBRANCH  32  37
ENDBRANCH  24  30
ENDBRANCH  12  24
BRANCH  10  51
ATOM     51  O   LIG d   1       4.160  -3.857  -9.390  0.00  0.00    -0.391 OA
ATOM     52  H   LIG d   1       3.446  -4.504  -9.921  0.00  0.00     0.210 HD
ENDBRANCH  10  51
BRANCH   1  53
ATOM     53  C   LIG d   1       4.304  -2.888 -11.691  0.00  0.00    -0.060 C 
ATOM     54  H   LIG d   1       3.464  -3.596 -11.714  0.00  0.00     0.023 H 
ATOM     55  H   LIG d   1       5.117  -3.301 -11.076  0.00  0.00     0.023 H 
ATOM     56  H   LIG d   1       4.670  -2.721 -12.716  0.00  0.00     0.023 H 
ENDBRANCH   1  53
BRANCH   7  57
ATOM     57  C   LIG d   1       2.312  -0.061  -9.090  0.00  0.00    -0.059 C 
ATOM     58  H   LIG d   1       1.895  -0.642  -8.255  0.00  0.00     0.024 H 
ATOM     59  H   LIG d   1       1.955  -0.478 -10.043  0.00  0.00     0.024 H 
ATOM     60  H   LIG d   1       1.990   0.988  -9.006  0.00  0.00     0.024 H 
ENDBRANCH   7  57
BRANCH   3  61
ATOM     61  N   LIG d   1       3.970  -0.499 -13.294  0.00  0.00    -0.312 N 
ATOM     62  C   LIG d   1       4.869  -0.641 -14.287  0.00  0.00     0.216 C 
ATOM     63  O   LIG d   1       6.053  -0.689 -14.031  0.00  0.00    -0.276 OA
ATOM     64  H   LIG d   1       2.896  -0.455 -13.527  0.00  0.00     0.149 HD
BRANCH  62  65
ATOM     65  C   LIG d   1       4.403  -0.741 -15.717  0.00  0.00     0.036 C 
ATOM     66  C   LIG d   1       3.061  -1.474 -15.767  0.00  0.00    -0.042 C 
ATOM     67  C   LIG d   1       2.590  -1.576 -17.219  0.00  0.00    -0.052 C 
ATOM     68  H   LIG d   1       3.179  -2.484 -15.348  0.00  0.00     0.027 H 
ATOM     69  H   LIG d   1       2.318  -0.917 -15.178  0.00  0.00     0.027 H 
ATOM     70  C   LIG d   1       2.426  -0.170 -17.802  0.00  0.00    -0.053 C 
ATOM     71  H   LIG d   1       1.624  -2.102 -17.255  0.00  0.00     0.026 H 
ATOM     72  H   LIG d   1       3.333  -2.132 -17.808  0.00  0.00     0.026 H 
ATOM     73  C   LIG d   1       3.767   0.562 -17.751  0.00  0.00    -0.052 C 
ATOM     74  H   LIG d   1       1.682   0.386 -17.212  0.00  0.00     0.026 H 
ATOM     75  H   LIG d   1       2.086  -0.243 -18.846  0.00  0.00     0.026 H 
ATOM     76  C   LIG d   1       4.240   0.664 -16.299  0.00  0.00    -0.042 C 
ATOM     77  H   LIG d   1       3.650   1.573 -18.171  0.00  0.00     0.026 H 
ATOM     78  H   LIG d   1       4.511   0.006 -18.341  0.00  0.00     0.026 H 
ATOM     79  H   LIG d   1       3.496   1.221 -15.711  0.00  0.00     0.027 H 
ATOM     80  H   LIG d   1       5.205   1.191 -16.264  0.00  0.00     0.027 H 
ATOM     81  H   LIG d   1       5.156  -1.299 -16.294  0.00  0.00     0.039 H 
ENDBRANCH  62  65
ENDBRANCH   3  61
TORSDOF 11
ENDMDL
MODEL 2
REMARK VINA RESULT:      -6.4      7.268     11.279
REMARK  11 active torsions:
REMARK  status: ('A' for Active; 'I' for Inactive)
REMARK    1  A    between atoms: C_1  and  C_2 
REMARK    2  A    between atoms: C_4  and  N_33 
REMARK    3  A    between atoms: C_8  and  C_32 
REMARK    4  A    between atoms: C_11  and  O_31 
REMARK    5  A    between atoms: C_13  and  C_17 
REMARK    6  A    between atoms: C_17  and  C_19 
REMARK    7  A    between atoms: C_17  and  C_20 
REMARK       I    between atoms: C_20  and  N_22 
REMARK    8  A    between atoms: N_22  and  C_23 
REMARK    9  A    between atoms: N_22  and  C_24 
REMARK   10  A    between atoms: C_24  and  C_25 
REMARK       I    between atoms: N_33  and  C_34 
REMARK   11  A    between atoms: C_34  and  C_36 
ROOT
ATOM      1  C   LIG d   1       9.119   2.270  -5.841  0.00  0.00    -0.020 C 
ATOM      2  H   LIG d   1       9.950   1.554  -5.754  0.00  0.00     0.032 H 
ATOM      3  C   LIG d   1       8.410   2.394  -4.491  0.00  0.00     0.026 C 
ATOM      4  H   LIG d   1       7.552   3.077  -4.565  0.00  0.00     0.050 H 
ATOM      5  C   LIG d   1       9.403   2.889  -3.438  0.00  0.00    -0.034 C 
ATOM      6  C   LIG d   1       9.950   4.257  -3.854  0.00  0.00    -0.046 C 
ATOM      7  C   LIG d   1      10.659   4.132  -5.204  0.00  0.00    -0.026 C 
ATOM      8  C   LIG d   1       9.665   3.637  -6.259  0.00  0.00    -0.005 C 
ATOM      9  H   LIG d   1       8.835   4.353  -6.344  0.00  0.00     0.033 H 
ATOM     10  C   LIG d   1      10.374   3.512  -7.608  0.00  0.00     0.062 C 
ATOM     11  H   LIG d   1      11.173   2.758  -7.571  0.00  0.00     0.060 H 
ATOM     12  C   LIG d   1      10.920   4.879  -8.026  0.00  0.00    -0.004 C 
ATOM     13  H   LIG d   1      11.429   4.789  -8.997  0.00  0.00     0.033 H 
ATOM     14  C   LIG d   1      11.913   5.374  -6.973  0.00  0.00    -0.047 C 
ATOM     15  C   LIG d   1      11.205   5.499  -5.622  0.00  0.00    -0.047 C 
ATOM     16  H   LIG d   1       8.894   2.979  -2.467  0.00  0.00     0.028 H 
ATOM     17  H   LIG d   1      10.234   2.174  -3.351  0.00  0.00     0.028 H 
ATOM     18  H   LIG d   1       9.120   4.973  -3.941  0.00  0.00     0.027 H 
ATOM     19  H   LIG d   1      10.664   4.612  -3.097  0.00  0.00     0.027 H 
ATOM     20  H   LIG d   1      12.744   4.659  -6.886  0.00  0.00     0.027 H 
ATOM     21  H   LIG d   1      12.306   6.357  -7.272  0.00  0.00     0.027 H 
ATOM     22  H   LIG d   1      10.374   6.215  -5.708  0.00  0.00     0.027 H 
ATOM     23  H   LIG d   1      11.919   5.855  -4.865  0.00  0.00     0.027 H 
ENDROOT
BRANCH  12  24
ATOM     24  C   LIG d   1       9.765   5.875  -8.146  0.00  0.00     0.038 C 
ATOM     25  H   LIG d   1       9.222   5.935  -7.191  0.00  0.00     0.040 H 
BRANCH  24  26
ATOM     26  C   LIG d   1       8.816   5.423  -9.257  0.00  0.00    -0.054 C 
ATOM     27  H   LIG d   1       9.357   5.402 -10.215  0.00  0.00     0.024 H 
ATOM     28  H   LIG d   1       7.972   6.126  -9.328  0.00  0.00     0.024 H 
ATOM     29  H   LIG d   1       8.436   4.417  -9.029  0.00  0.00     0.024 H 
ENDBRANCH  24  26
BRANCH  24  30
ATOM     30  C   LIG d   1      10.311   7.240  -8.475  0.00  0.00     0.219 C 
ATOM     31  O   LIG d   1      11.004   7.395  -9.460  0.00  0.00    -0.275 OA
ATOM     32  N   LIG d   1      10.030   8.289  -7.678  0.00  0.00    -0.300 N 
BRANCH  32  33
ATOM     33  C   LIG d   1       9.132   8.119  -6.533  0.00  0.00     0.004 C 
ATOM     34  H   LIG d   1       9.363   8.875  -5.769  0.00  0.00     0.043 H 
ATOM     35  H   LIG d   1       9.267   7.114  -6.107  0.00  0.00     0.043 H 
ATOM     36  H   LIG d   1       8.090   8.239  -6.864  0.00  0.00     0.043 H 
ENDBRANCH  32  33
BRANCH  32  37
ATOM     37  C   LIG d   1      10.623   9.600  -7.954  0.00  0.00     0.039 C 
ATOM     38  H   LIG d   1      11.188   9.556  -8.896  0.00  0.00     0.051 H 
ATOM     39  H   LIG d   1       9.825  10.352  -8.039  0.00  0.00     0.051 H 
BRANCH  37  40
ATOM     40  C   LIG d   1      11.552   9.978  -6.829  0.00  0.00    -0.030 A 
ATOM     41  C   LIG d   1      12.663   9.201  -6.559  0.00  0.00    -0.057 A 
ATOM     42  C   LIG d   1      13.515   9.548  -5.528  0.00  0.00    -0.061 A 
ATOM     43  H   LIG d   1      12.865   8.323  -7.154  0.00  0.00     0.062 H 
ATOM     44  C   LIG d   1      13.256  10.672  -4.766  0.00  0.00    -0.062 A 
ATOM     45  H   LIG d   1      14.382   8.940  -5.316  0.00  0.00     0.062 H 
ATOM     46  C   LIG d   1      12.146  11.451  -5.037  0.00  0.00    -0.061 A 
ATOM     47  H   LIG d   1      13.922  10.944  -3.960  0.00  0.00     0.062 H 
ATOM     48  C   LIG d   1      11.296  11.105  -6.072  0.00  0.00    -0.057 A 
ATOM     49  H   LIG d   1      11.944  12.329  -4.442  0.00  0.00     0.062 H 
ATOM     50  H   LIG d   1      10.431  11.715  -6.285  0.00  0.00     0.062 H 
ENDBRANCH  37  40
ENDBRANCH  32  37
ENDBRANCH  24  30
ENDBRANCH  12  24
BRANCH  10  51
ATOM     51  O   LIG d   1       9.446   3.049  -8.593  0.00  0.00    -0.391 OA
ATOM     52  H   LIG d   1       8.997   3.759  -9.303  0.00  0.00     0.210 HD
ENDBRANCH  10  51
BRANCH   1  53
ATOM     53  C   LIG d   1       8.126   1.774  -6.894  0.00  0.00    -0.060 C 
ATOM     54  H   LIG d   1       8.552   1.919  -7.897  0.00  0.00     0.023 H 
ATOM     55  H   LIG d   1       7.187   2.340  -6.809  0.00  0.00     0.023 H 
ATOM     56  H   LIG d   1       7.925   0.704  -6.733  0.00  0.00     0.023 H 
ENDBRANCH   1  53
BRANCH   7  57
ATOM     57  C   LIG d   1      11.814   3.136  -5.085  0.00  0.00    -0.059 C 
ATOM     58  H   LIG d   1      11.951   2.857  -4.030  0.00  0.00     0.024 H 
ATOM     59  H   LIG d   1      12.737   3.599  -5.466  0.00  0.00     0.024 H 
ATOM     60  H   LIG d   1      11.585   2.236  -5.676  0.00  0.00     0.024 H 
ENDBRANCH   7  57
BRANCH   3  61
ATOM     61  N   LIG d   1       7.887   1.086  -4.091  0.00  0.00    -0.312 N 
ATOM     62  C   LIG d   1       6.692   0.997  -3.475  0.00  0.00     0.216 C 
ATOM     63  O   LIG d   1       6.050   2.001  -3.251  0.00  0.00    -0.276 OA
ATOM     64  H   LIG d   1       8.470   0.175  -4.294  0.00  0.00     0.149 HD
BRANCH  62  65
ATOM     65  C   LIG d   1       6.154  -0.349  -3.064  0.00  0.00     0.036 C 
ATOM     66  C   LIG d   1       4.879  -0.159  -2.239  0.00  0.00    -0.042 C 
ATOM     67  C   LIG d   1       4.333  -1.527  -1.822  0.00  0.00    -0.052 C 
ATOM     68  H   LIG d   1       5.108   0.433  -1.341  0.00  0.00     0.027 H 
ATOM     69  H   LIG d   1       4.127   0.367  -2.844  0.00  0.00     0.027 H 
ATOM     70  C   LIG d   1       4.014  -2.351  -3.071  0.00  0.00    -0.053 C 
ATOM     71  H   LIG d   1       3.416  -1.389  -1.229  0.00  0.00     0.026 H 
ATOM     72  H   LIG d   1       5.086  -2.053  -1.218  0.00  0.00     0.026 H 
ATOM     73  C   LIG d   1       5.288  -2.540  -3.896  0.00  0.00    -0.052 C 
ATOM     74  H   LIG d   1       3.261  -1.824  -3.676  0.00  0.00     0.026 H 
ATOM     75  H   LIG d   1       3.621  -3.334  -2.772  0.00  0.00     0.026 H 
ATOM     76  C   LIG d   1       5.835  -1.173  -4.313  0.00  0.00    -0.042 C 
ATOM     77  H   LIG d   1       5.060  -3.134  -4.794  0.00  0.00     0.026 H 
ATOM     78  H   LIG d   1       6.041  -3.068  -3.291  0.00  0.00     0.026 H 
ATOM     79  H   LIG d   1       5.082  -0.647  -4.917  0.00  0.00     0.027 H 
ATOM     80  H   LIG d   1       6.751  -1.311  -4.906  0.00  0.00     0.027 H 
ATOM     81  H   LIG d   1       6.916  -0.864  -2.461  0.00  0.00     0.039 H 
ENDBRANCH  62  65
ENDBRANCH   3  61
TORSDOF 11
ENDMDL
MODEL 3
REMARK VINA RESULT:      -6.1      6.499     11.482
REMARK  11 active torsions:
REMARK  status: ('A' for Active; 'I' for Inactive)
REMARK    1  A    between atoms: C_1  and  C_2 
REMARK    2  A    between atoms: C_4  and  N_33 
REMARK    3  A    between atoms: C_8  and  C_32 
REMARK    4  A    between atoms: C_11  and  O_31 
REMARK    5  A    between atoms: C_13  and  C_17 
REMARK    6  A    between atoms: C_17  and  C_19 
REMARK    7  A    between atoms: C_17  and  C_20 
REMARK       I    between atoms: C_20  and  N_22 
REMARK    8  A    between atoms: N_22  and  C_23 
REMARK    9  A    between atoms: N_22  and  C_24 
REMARK   10  A    between atoms: C_24  and  C_25 
REMARK       I    between atoms: N_33  and  C_34 
REMARK   11  A    between atoms: C_34  and  C_36 
ROOT
ATOM      1  C   LIG d   1       9.024  -7.760  -3.719  0.00  0.00    -0.020 C 
ATOM      2  H   LIG d   1      10.003  -8.062  -4.120  0.00  0.00     0.032 H 
ATOM      3  C   LIG d   1       9.004  -7.976  -2.205  0.00  0.00     0.026 C 
ATOM      4  H   LIG d   1       8.020  -7.716  -1.789  0.00  0.00     0.050 H 
ATOM      5  C   LIG d   1      10.103  -7.134  -1.556  0.00  0.00    -0.034 C 
ATOM      6  C   LIG d   1       9.861  -5.654  -1.862  0.00  0.00    -0.046 C 
ATOM      7  C   LIG d   1       9.881  -5.438  -3.377  0.00  0.00    -0.026 C 
ATOM      8  C   LIG d   1       8.780  -6.281  -4.027  0.00  0.00    -0.005 C 
ATOM      9  H   LIG d   1       7.802  -5.979  -3.625  0.00  0.00     0.033 H 
ATOM     10  C   LIG d   1       8.800  -6.065  -5.540  0.00  0.00     0.062 C 
ATOM     11  H   LIG d   1       9.745  -6.413  -5.982  0.00  0.00     0.060 H 
ATOM     12  C   LIG d   1       8.557  -4.586  -5.848  0.00  0.00    -0.004 C 
ATOM     13  H   LIG d   1       8.571  -4.432  -6.937  0.00  0.00     0.033 H 
ATOM     14  C   LIG d   1       9.656  -3.743  -5.199  0.00  0.00    -0.047 C 
ATOM     15  C   LIG d   1       9.637  -3.959  -3.684  0.00  0.00    -0.047 C 
ATOM     16  H   LIG d   1      10.090  -7.288  -0.467  0.00  0.00     0.028 H 
ATOM     17  H   LIG d   1      11.082  -7.435  -1.956  0.00  0.00     0.028 H 
ATOM     18  H   LIG d   1       8.883  -5.352  -1.462  0.00  0.00     0.027 H 
ATOM     19  H   LIG d   1      10.652  -5.048  -1.396  0.00  0.00     0.027 H 
ATOM     20  H   LIG d   1      10.635  -4.044  -5.600  0.00  0.00     0.027 H 
ATOM     21  H   LIG d   1       9.482  -2.680  -5.420  0.00  0.00     0.027 H 
ATOM     22  H   LIG d   1       8.658  -3.658  -3.283  0.00  0.00     0.027 H 
ATOM     23  H   LIG d   1      10.428  -3.353  -3.218  0.00  0.00     0.027 H 
ENDROOT
BRANCH  12  24
ATOM     24  C   LIG d   1       7.196  -4.166  -5.290  0.00  0.00     0.038 C 
ATOM     25  H   LIG d   1       7.167  -4.338  -4.205  0.00  0.00     0.040 H 
BRANCH  24  26
ATOM     26  C   LIG d   1       6.093  -4.976  -5.974  0.00  0.00    -0.054 C 
ATOM     27  H   LIG d   1       6.219  -6.043  -5.735  0.00  0.00     0.024 H 
ATOM     28  H   LIG d   1       6.155  -4.835  -7.063  0.00  0.00     0.024 H 
ATOM     29  H   LIG d   1       5.110  -4.634  -5.616  0.00  0.00     0.024 H 
ENDBRANCH  24  26
BRANCH  24  30
ATOM     30  C   LIG d   1       6.977  -2.699  -5.552  0.00  0.00     0.219 C 
ATOM     31  O   LIG d   1       6.992  -2.276  -6.690  0.00  0.00    -0.275 OA
ATOM     32  N   LIG d   1       6.765  -1.855  -4.523  0.00  0.00    -0.300 N 
BRANCH  32  33
ATOM     33  C   LIG d   1       6.670  -2.375  -3.157  0.00  0.00     0.004 C 
ATOM     34  H   LIG d   1       5.618  -2.370  -2.835  0.00  0.00     0.043 H 
ATOM     35  H   LIG d   1       7.263  -1.741  -2.481  0.00  0.00     0.043 H 
ATOM     36  H   LIG d   1       7.057  -3.404  -3.129  0.00  0.00     0.043 H 
ENDBRANCH  32  33
BRANCH  32  37
ATOM     37  C   LIG d   1       6.629  -0.417  -4.770  0.00  0.00     0.039 C 
ATOM     38  H   LIG d   1       7.553   0.096  -4.468  0.00  0.00     0.051 H 
ATOM     39  H   LIG d   1       6.447  -0.245  -5.841  0.00  0.00     0.051 H 
BRANCH  37  40
ATOM     40  C   LIG d   1       5.470   0.122  -3.972  0.00  0.00    -0.030 A 
ATOM     41  C   LIG d   1       4.173  -0.137  -4.374  0.00  0.00    -0.057 A 
ATOM     42  C   LIG d   1       3.110   0.357  -3.641  0.00  0.00    -0.061 A 
ATOM     43  H   LIG d   1       3.991  -0.725  -5.261  0.00  0.00     0.062 H 
ATOM     44  C   LIG d   1       3.344   1.110  -2.506  0.00  0.00    -0.062 A 
ATOM     45  H   LIG d   1       2.097   0.156  -3.957  0.00  0.00     0.062 H 
ATOM     46  C   LIG d   1       4.641   1.367  -2.102  0.00  0.00    -0.061 A 
ATOM     47  H   LIG d   1       2.514   1.496  -1.933  0.00  0.00     0.062 H 
ATOM     48  C   LIG d   1       5.704   0.870  -2.833  0.00  0.00    -0.057 A 
ATOM     49  H   LIG d   1       4.824   1.955  -1.215  0.00  0.00     0.062 H 
ATOM     50  H   LIG d   1       6.717   1.069  -2.516  0.00  0.00     0.062 H 
ENDBRANCH  37  40
ENDBRANCH  32  37
ENDBRANCH  24  30
ENDBRANCH  12  24
BRANCH  10  51
ATOM     51  O   LIG d   1       7.773  -6.853  -6.148  0.00  0.00    -0.391 OA
ATOM     52  H   LIG d   1       7.118  -6.408  -6.911  0.00  0.00     0.210 HD
ENDBRANCH  10  51
BRANCH   1  53
ATOM     53  C   LIG d   1       7.925  -8.603  -4.369  0.00  0.00    -0.060 C 
ATOM     54  H   LIG d   1       6.994  -8.502  -3.792  0.00  0.00     0.023 H 
ATOM     55  H   LIG d   1       8.234  -9.659  -4.385  0.00  0.00     0.023 H 
ATOM     56  H   LIG d   1       7.757  -8.256  -5.399  0.00  0.00     0.023 H 
ENDBRANCH   1  53
BRANCH   7  57
ATOM     57  C   LIG d   1      11.242  -5.858  -3.936  0.00  0.00    -0.059 C 
ATOM     58  H   LIG d   1      11.272  -6.952  -4.044  0.00  0.00     0.024 H 
ATOM     59  H   LIG d   1      12.036  -5.534  -3.246  0.00  0.00     0.024 H 
ATOM     60  H   LIG d   1      11.395  -5.387  -4.918  0.00  0.00     0.024 H 
ENDBRANCH   7  57
BRANCH   3  61
ATOM     61  N   LIG d   1       9.237  -9.392  -1.910  0.00  0.00    -0.312 N 
ATOM     62  C   LIG d   1       8.307 -10.104  -1.245  0.00  0.00     0.216 C 
ATOM     63  O   LIG d   1       7.276  -9.573  -0.890  0.00  0.00    -0.276 OA
ATOM     64  H   LIG d   1      10.172  -9.875  -2.232  0.00  0.00     0.149 HD
BRANCH  62  65
ATOM     65  C   LIG d   1       8.546 -11.561  -0.942  0.00  0.00     0.036 C 
ATOM     66  C   LIG d   1       7.241 -12.340  -1.120  0.00  0.00    -0.042 C 
ATOM     67  C   LIG d   1       7.485 -13.819  -0.812  0.00  0.00    -0.052 C 
ATOM     68  H   LIG d   1       6.480 -11.943  -0.433  0.00  0.00     0.027 H 
ATOM     69  H   LIG d   1       6.890 -12.234  -2.158  0.00  0.00     0.027 H 
ATOM     70  C   LIG d   1       8.544 -14.372  -1.769  0.00  0.00    -0.053 C 
ATOM     71  H   LIG d   1       6.547 -14.380  -0.941  0.00  0.00     0.026 H 
ATOM     72  H   LIG d   1       7.836 -13.925   0.224  0.00  0.00     0.026 H 
ATOM     73  C   LIG d   1       9.848 -13.592  -1.591  0.00  0.00    -0.052 C 
ATOM     74  H   LIG d   1       8.192 -14.266  -2.806  0.00  0.00     0.026 H 
ATOM     75  H   LIG d   1       8.719 -15.435  -1.548  0.00  0.00     0.026 H 
ATOM     76  C   LIG d   1       9.605 -12.113  -1.898  0.00  0.00    -0.042 C 
ATOM     77  H   LIG d   1      10.610 -13.989  -2.278  0.00  0.00     0.026 H 
ATOM     78  H   LIG d   1      10.199 -13.698  -0.553  0.00  0.00     0.026 H 
ATOM     79  H   LIG d   1       9.254 -12.008  -2.935  0.00  0.00     0.027 H 
ATOM     80  H   LIG d   1      10.543 -11.553  -1.770  0.00  0.00     0.027 H 
ATOM     81  H   LIG d   1       8.896 -11.651   0.097  0.00  0.00     0.039 H 
ENDBRANCH  62  65
ENDBRANCH   3  61
TORSDOF 11
ENDMDL
MODEL 4
REMARK VINA RESULT:      -6.1      3.724      9.701
REMARK  11 active torsions:
REMARK  status: ('A' for Active; 'I' for Inactive)
REMARK    1  A    between atoms: C_1  and  C_2 
REMARK    2  A    between atoms: C_4  and  N_33 
REMARK    3  A    between atoms: C_8  and  C_32 
REMARK    4  A    between atoms: C_11  and  O_31 
REMARK    5  A    between atoms: C_13  and  C_17 
REMARK    6  A    between atoms: C_17  and  C_19 
REMARK    7  A    between atoms: C_17  and  C_20 
REMARK       I    between atoms: C_20  and  N_22 
REMARK    8  A    between atoms: N_22  and  C_23 
REMARK    9  A    between atoms: N_22  and  C_24 
REMARK   10  A    between atoms: C_24  and  C_25 
REMARK       I    between atoms: N_33  and  C_34 
REMARK   11  A    between atoms: C_34  and  C_36 
ROOT
ATOM      1  C   LIG d   1       4.021  -1.683  -8.979  0.00  0.00    -0.020 C 
ATOM      2  H   LIG d   1       4.838  -1.020  -9.302  0.00  0.00     0.032 H 
ATOM      3  C   LIG d   1       3.124  -0.941  -7.986  0.00  0.00     0.026 C 
ATOM      4  H   LIG d   1       2.323  -1.599  -7.622  0.00  0.00     0.050 H 
ATOM      5  C   LIG d   1       2.537   0.301  -8.660  0.00  0.00    -0.034 C 
ATOM      6  C   LIG d   1       1.711  -0.120  -9.876  0.00  0.00    -0.046 C 
ATOM      7  C   LIG d   1       2.608  -0.862 -10.870  0.00  0.00    -0.026 C 
ATOM      8  C   LIG d   1       3.195  -2.105 -10.196  0.00  0.00    -0.005 C 
ATOM      9  H   LIG d   1       2.378  -2.768  -9.874  0.00  0.00     0.033 H 
ATOM     10  C   LIG d   1       4.092  -2.847 -11.189  0.00  0.00     0.062 C 
ATOM     11  H   LIG d   1       4.953  -2.231 -11.486  0.00  0.00     0.060 H 
ATOM     12  C   LIG d   1       3.266  -3.269 -12.406  0.00  0.00    -0.004 C 
ATOM     13  H   LIG d   1       3.912  -3.803 -13.119  0.00  0.00     0.033 H 
ATOM     14  C   LIG d   1       2.679  -2.027 -13.079  0.00  0.00    -0.047 C 
ATOM     15  C   LIG d   1       1.782  -1.285 -12.086  0.00  0.00    -0.047 C 
ATOM     16  H   LIG d   1       1.892   0.834  -7.946  0.00  0.00     0.028 H 
ATOM     17  H   LIG d   1       3.353   0.964  -8.982  0.00  0.00     0.028 H 
ATOM     18  H   LIG d   1       0.895  -0.783  -9.554  0.00  0.00     0.027 H 
ATOM     19  H   LIG d   1       1.289   0.773 -10.361  0.00  0.00     0.027 H 
ATOM     20  H   LIG d   1       3.495  -1.365 -13.402  0.00  0.00     0.027 H 
ATOM     21  H   LIG d   1       2.085  -2.330 -13.954  0.00  0.00     0.027 H 
ATOM     22  H   LIG d   1       0.966  -1.947 -11.763  0.00  0.00     0.027 H 
ATOM     23  H   LIG d   1       1.360  -0.392 -12.571  0.00  0.00     0.027 H 
ENDROOT
BRANCH  12  24
ATOM     24  C   LIG d   1       2.130  -4.191 -11.957  0.00  0.00     0.038 C 
ATOM     25  H   LIG d   1       1.701  -3.823 -11.014  0.00  0.00     0.040 H 
BRANCH  24  26
ATOM     26  C   LIG d   1       2.671  -5.609 -11.764  0.00  0.00    -0.054 C 
ATOM     27  H   LIG d   1       2.472  -6.204 -12.668  0.00  0.00     0.024 H 
ATOM     28  H   LIG d   1       2.175  -6.077 -10.901  0.00  0.00     0.024 H 
ATOM     29  H   LIG d   1       3.755  -5.567 -11.585  0.00  0.00     0.024 H 
ENDBRANCH  24  26
BRANCH  24  30
ATOM     30  C   LIG d   1       1.050  -4.204 -13.006  0.00  0.00     0.219 C 
ATOM     31  O   LIG d   1       1.346  -4.224 -14.183  0.00  0.00    -0.275 OA
ATOM     32  N   LIG d   1      -0.247  -4.192 -12.639  0.00  0.00    -0.300 N 
BRANCH  32  33
ATOM     33  C   LIG d   1      -0.606  -4.245 -11.220  0.00  0.00     0.004 C 
ATOM     34  H   LIG d   1       0.302  -4.153 -10.607  0.00  0.00     0.043 H 
ATOM     35  H   LIG d   1      -1.099  -5.205 -11.002  0.00  0.00     0.043 H 
ATOM     36  H   LIG d   1      -1.292  -3.419 -10.984  0.00  0.00     0.043 H 
ENDBRANCH  32  33
BRANCH  32  37
ATOM     37  C   LIG d   1      -1.297  -4.127 -13.658  0.00  0.00     0.039 C 
ATOM     38  H   LIG d   1      -0.839  -4.115 -14.657  0.00  0.00     0.051 H 
ATOM     39  H   LIG d   1      -1.952  -5.006 -13.565  0.00  0.00     0.051 H 
BRANCH  37  40
ATOM     40  C   LIG d   1      -2.109  -2.873 -13.462  0.00  0.00    -0.030 A 
ATOM     41  C   LIG d   1      -1.520  -1.634 -13.634  0.00  0.00    -0.057 A 
ATOM     42  C   LIG d   1      -2.265  -0.483 -13.455  0.00  0.00    -0.061 A 
ATOM     43  H   LIG d   1      -0.477  -1.565 -13.908  0.00  0.00     0.062 H 
ATOM     44  C   LIG d   1      -3.599  -0.572 -13.105  0.00  0.00    -0.062 A 
ATOM     45  H   LIG d   1      -1.804   0.484 -13.588  0.00  0.00     0.062 H 
ATOM     46  C   LIG d   1      -4.189  -1.810 -12.934  0.00  0.00    -0.061 A 
ATOM     47  H   LIG d   1      -4.181   0.327 -12.964  0.00  0.00     0.062 H 
ATOM     48  C   LIG d   1      -3.444  -2.961 -13.118  0.00  0.00    -0.057 A 
ATOM     49  H   LIG d   1      -5.231  -1.879 -12.661  0.00  0.00     0.062 H 
ATOM     50  H   LIG d   1      -3.906  -3.929 -12.987  0.00  0.00     0.062 H 
ENDBRANCH  37  40
ENDBRANCH  32  37
ENDBRANCH  24  30
ENDBRANCH  12  24
BRANCH  10  51
ATOM     51  O   LIG d   1       4.641  -4.008 -10.560  0.00  0.00    -0.391 OA
ATOM     52  H   LIG d   1       5.222  -3.908  -9.632  0.00  0.00     0.210 HD
ENDBRANCH  10  51
BRANCH   1  53
ATOM     53  C   LIG d   1       4.609  -2.925  -8.306  0.00  0.00    -0.060 C 
ATOM     54  H   LIG d   1       5.503  -3.253  -8.856  0.00  0.00     0.023 H 
ATOM     55  H   LIG d   1       3.861  -3.731  -8.306  0.00  0.00     0.023 H 
ATOM     56  H   LIG d   1       4.886  -2.683  -7.269  0.00  0.00     0.023 H 
ENDBRANCH   1  53
BRANCH   7  57
ATOM     57  C   LIG d   1       3.744   0.059 -11.319  0.00  0.00    -0.059 C 
ATOM     58  H   LIG d   1       4.655  -0.178 -10.750  0.00  0.00     0.024 H 
ATOM     59  H   LIG d   1       3.459   1.106 -11.138  0.00  0.00     0.024 H 
ATOM     60  H   LIG d   1       3.933  -0.089 -12.393  0.00  0.00     0.024 H 
ENDBRANCH   7  57
BRANCH   3  61
ATOM     61  N   LIG d   1       3.915  -0.537  -6.821  0.00  0.00    -0.312 N 
ATOM     62  C   LIG d   1       3.297  -0.140  -5.692  0.00  0.00     0.216 C 
ATOM     63  O   LIG d   1       2.085  -0.117  -5.640  0.00  0.00    -0.276 OA
ATOM     64  H   LIG d   1       5.014  -0.558  -6.868  0.00  0.00     0.149 HD
BRANCH  62  65
ATOM     65  C   LIG d   1       4.109   0.276  -4.493  0.00  0.00     0.036 C 
ATOM     66  C   LIG d   1       3.203   0.978  -3.480  0.00  0.00    -0.042 C 
ATOM     67  C   LIG d   1       4.030   1.400  -2.264  0.00  0.00    -0.052 C 
ATOM     68  H   LIG d   1       2.755   1.869  -3.945  0.00  0.00     0.027 H 
ATOM     69  H   LIG d   1       2.406   0.290  -3.162  0.00  0.00     0.027 H 
ATOM     70  C   LIG d   1       4.653   0.161  -1.617  0.00  0.00    -0.053 C 
ATOM     71  H   LIG d   1       3.377   1.905  -1.535  0.00  0.00     0.026 H 
ATOM     72  H   LIG d   1       4.826   2.088  -2.581  0.00  0.00     0.026 H 
ATOM     73  C   LIG d   1       5.559  -0.541  -2.629  0.00  0.00    -0.052 C 
ATOM     74  H   LIG d   1       3.856  -0.526  -1.298  0.00  0.00     0.026 H 
ATOM     75  H   LIG d   1       5.247   0.464  -0.741  0.00  0.00     0.026 H 
ATOM     76  C   LIG d   1       4.733  -0.963  -3.847  0.00  0.00    -0.042 C 
ATOM     77  H   LIG d   1       6.008  -1.432  -2.164  0.00  0.00     0.026 H 
ATOM     78  H   LIG d   1       6.356   0.147  -2.947  0.00  0.00     0.026 H 
ATOM     79  H   LIG d   1       3.937  -1.651  -3.528  0.00  0.00     0.027 H 
ATOM     80  H   LIG d   1       5.385  -1.468  -4.574  0.00  0.00     0.027 H 
ATOM     81  H   LIG d   1       4.902   0.963  -4.826  0.00  0.00     0.039 H 
ENDBRANCH  62  65
ENDBRANCH   3  61
TORSDOF 11
ENDMDL
MODEL 5
REMARK VINA RESULT:      -6.0      6.112     10.481
REMARK  11 active torsions:
REMARK  status: ('A' for Active; 'I' for Inactive)
REMARK    1  A    between atoms: C_1  and  C_2 
REMARK    2  A    between atoms: C_4  and  N_33 
REMARK    3  A    between atoms: C_8  and  C_32 
REMARK    4  A    between atoms: C_11  and  O_31 
REMARK    5  A    between atoms: C_13  and  C_17 
REMARK    6  A    between atoms: C_17  and  C_19 
REMARK    7  A    between atoms: C_17  and  C_20 
REMARK       I    between atoms: C_20  and  N_22 
REMARK    8  A    between atoms: N_22  and  C_23 
REMARK    9  A    between atoms: N_22  and  C_24 
REMARK   10  A    between atoms: C_24  and  C_25 
REMARK       I    between atoms: N_33  and  C_34 
REMARK   11  A    between atoms: C_34  and  C_36 
ROOT
ATOM      1  C   LIG d   1       6.676  -4.719  -5.673  0.00  0.00    -0.020 C 
ATOM      2  H   LIG d   1       6.948  -4.169  -6.586  0.00  0.00     0.032 H 
ATOM      3  C   LIG d   1       5.273  -4.301  -5.226  0.00  0.00     0.026 C 
ATOM      4  H   LIG d   1       4.996  -4.811  -4.293  0.00  0.00     0.050 H 
ATOM      5  C   LIG d   1       4.269  -4.624  -6.335  0.00  0.00    -0.034 C 
ATOM      6  C   LIG d   1       4.288  -6.128  -6.619  0.00  0.00    -0.046 C 
ATOM      7  C   LIG d   1       5.691  -6.544  -7.065  0.00  0.00    -0.026 C 
ATOM      8  C   LIG d   1       6.696  -6.222  -5.956  0.00  0.00    -0.005 C 
ATOM      9  H   LIG d   1       6.422  -6.771  -5.043  0.00  0.00     0.033 H 
ATOM     10  C   LIG d   1       8.098  -6.638  -6.402  0.00  0.00     0.062 C 
ATOM     11  H   LIG d   1       8.425  -6.063  -7.281  0.00  0.00     0.060 H 
ATOM     12  C   LIG d   1       8.118  -8.142  -6.686  0.00  0.00    -0.004 C 
ATOM     13  H   LIG d   1       9.127  -8.441  -7.007  0.00  0.00     0.033 H 
ATOM     14  C   LIG d   1       7.114  -8.464  -7.794  0.00  0.00    -0.047 C 
ATOM     15  C   LIG d   1       5.710  -8.048  -7.349  0.00  0.00    -0.047 C 
ATOM     16  H   LIG d   1       3.260  -4.325  -6.014  0.00  0.00     0.028 H 
ATOM     17  H   LIG d   1       4.541  -4.075  -7.248  0.00  0.00     0.028 H 
ATOM     18  H   LIG d   1       4.015  -6.677  -5.706  0.00  0.00     0.027 H 
ATOM     19  H   LIG d   1       3.566  -6.359  -7.416  0.00  0.00     0.027 H 
ATOM     20  H   LIG d   1       7.386  -7.916  -8.708  0.00  0.00     0.027 H 
ATOM     21  H   LIG d   1       7.127  -9.545  -7.999  0.00  0.00     0.027 H 
ATOM     22  H   LIG d   1       5.438  -8.596  -6.435  0.00  0.00     0.027 H 
ATOM     23  H   LIG d   1       4.989  -8.280  -8.146  0.00  0.00     0.027 H 
ENDROOT
BRANCH  12  24
ATOM     24  C   LIG d   1       7.738  -8.906  -5.416  0.00  0.00     0.038 C 
ATOM     25  H   LIG d   1       6.802  -8.503  -5.004  0.00  0.00     0.040 H 
BRANCH  24  26
ATOM     26  C   LIG d   1       8.861  -8.771  -4.386  0.00  0.00    -0.054 C 
ATOM     27  H   LIG d   1       9.835  -8.827  -4.895  0.00  0.00     0.024 H 
ATOM     28  H   LIG d   1       8.784  -9.585  -3.650  0.00  0.00     0.024 H 
ATOM     29  H   LIG d   1       8.773  -7.803  -3.871  0.00  0.00     0.024 H 
ENDBRANCH  24  26
BRANCH  24  30
ATOM     30  C   LIG d   1       7.533 -10.361  -5.747  0.00  0.00     0.219 C 
ATOM     31  O   LIG d   1       8.382 -10.968  -6.366  0.00  0.00    -0.275 OA
ATOM     32  N   LIG d   1       6.407 -10.989  -5.358  0.00  0.00    -0.300 N 
BRANCH  32  33
ATOM     33  C   LIG d   1       5.416 -10.278  -4.545  0.00  0.00     0.004 C 
ATOM     34  H   LIG d   1       5.503  -9.197  -4.722  0.00  0.00     0.043 H 
ATOM     35  H   LIG d   1       5.595 -10.490  -3.480  0.00  0.00     0.043 H 
ATOM     36  H   LIG d   1       4.406 -10.615  -4.820  0.00  0.00     0.043 H 
ENDBRANCH  32  33
BRANCH  32  37
ATOM     37  C   LIG d   1       6.171 -12.381  -5.746  0.00  0.00     0.039 C 
ATOM     38  H   LIG d   1       7.078 -12.790  -6.214  0.00  0.00     0.051 H 
ATOM     39  H   LIG d   1       5.922 -12.973  -4.852  0.00  0.00     0.051 H 
BRANCH  37  40
ATOM     40  C   LIG d   1       5.028 -12.443  -6.725  0.00  0.00    -0.030 A 
ATOM     41  C   LIG d   1       3.870 -13.122  -6.393  0.00  0.00    -0.057 A 
ATOM     42  C   LIG d   1       2.820 -13.179  -7.291  0.00  0.00    -0.061 A 
ATOM     43  H   LIG d   1       3.786 -13.609  -5.433  0.00  0.00     0.062 H 
ATOM     44  C   LIG d   1       2.929 -12.556  -8.521  0.00  0.00    -0.062 A 
ATOM     45  H   LIG d   1       1.917 -13.711  -7.033  0.00  0.00     0.062 H 
ATOM     46  C   LIG d   1       4.086 -11.876  -8.852  0.00  0.00    -0.061 A 
ATOM     47  H   LIG d   1       2.109 -12.600  -9.223  0.00  0.00     0.062 H 
ATOM     48  C   LIG d   1       5.133 -11.816  -7.952  0.00  0.00    -0.057 A 
ATOM     49  H   LIG d   1       4.170 -11.389  -9.812  0.00  0.00     0.062 H 
ATOM     50  H   LIG d   1       6.036 -11.282  -8.209  0.00  0.00     0.062 H 
ENDBRANCH  37  40
ENDBRANCH  32  37
ENDBRANCH  24  30
ENDBRANCH  12  24
BRANCH  10  51
ATOM     51  O   LIG d   1       9.037  -6.337  -5.367  0.00  0.00    -0.391 OA
ATOM     52  H   LIG d   1       9.170  -7.032  -4.525  0.00  0.00     0.210 HD
ENDBRANCH  10  51
BRANCH   1  53
ATOM     53  C   LIG d   1       7.680  -4.395  -4.565  0.00  0.00    -0.060 C 
ATOM     54  H   LIG d   1       8.429  -5.198  -4.502  0.00  0.00     0.023 H 
ATOM     55  H   LIG d   1       7.152  -4.309  -3.604  0.00  0.00     0.023 H 
ATOM     56  H   LIG d   1       8.183  -3.443  -4.792  0.00  0.00     0.023 H 
ENDBRANCH   1  53
BRANCH   7  57
ATOM     57  C   LIG d   1       6.071  -5.781  -8.336  0.00  0.00    -0.059 C 
ATOM     58  H   LIG d   1       7.138  -5.517  -8.300  0.00  0.00     0.024 H 
ATOM     59  H   LIG d   1       5.467  -4.863  -8.405  0.00  0.00     0.024 H 
ATOM     60  H   LIG d   1       5.878  -6.413  -9.215  0.00  0.00     0.024 H 
ENDBRANCH   7  57
BRANCH   3  61
ATOM     61  N   LIG d   1       5.254  -2.862  -4.955  0.00  0.00    -0.312 N 
ATOM     62  C   LIG d   1       4.599  -2.388  -3.877  0.00  0.00     0.216 C 
ATOM     63  O   LIG d   1       4.024  -3.153  -3.132  0.00  0.00    -0.276 OA
ATOM     64  H   LIG d   1       5.775  -2.168  -5.631  0.00  0.00     0.149 HD
BRANCH  62  65
ATOM     65  C   LIG d   1       4.579  -0.907  -3.597  0.00  0.00     0.036 C 
ATOM     66  C   LIG d   1       3.259  -0.312  -4.089  0.00  0.00    -0.042 C 
ATOM     67  C   LIG d   1       3.240   1.191  -3.805  0.00  0.00    -0.052 C 
ATOM     68  H   LIG d   1       3.160  -0.482  -5.171  0.00  0.00     0.027 H 
ATOM     69  H   LIG d   1       2.421  -0.795  -3.564  0.00  0.00     0.027 H 
ATOM     70  C   LIG d   1       3.377   1.427  -2.298  0.00  0.00    -0.053 C 
ATOM     71  H   LIG d   1       2.290   1.619  -4.157  0.00  0.00     0.026 H 
ATOM     72  H   LIG d   1       4.077   1.674  -4.328  0.00  0.00     0.026 H 
ATOM     73  C   LIG d   1       4.697   0.831  -1.807  0.00  0.00    -0.052 C 
ATOM     74  H   LIG d   1       2.538   0.944  -1.774  0.00  0.00     0.026 H 
ATOM     75  H   LIG d   1       3.363   2.508  -2.093  0.00  0.00     0.026 H 
ATOM     76  C   LIG d   1       4.716  -0.672  -2.092  0.00  0.00    -0.042 C 
ATOM     77  H   LIG d   1       4.796   1.001  -0.725  0.00  0.00     0.026 H 
ATOM     78  H   LIG d   1       5.535   1.315  -2.332  0.00  0.00     0.026 H 
ATOM     79  H   LIG d   1       3.879  -1.155  -1.568  0.00  0.00     0.027 H 
ATOM     80  H   LIG d   1       5.666  -1.100  -1.738  0.00  0.00     0.027 H 
ATOM     81  H   LIG d   1       5.421  -0.438  -4.127  0.00  0.00     0.039 H 
ENDBRANCH  62  65
ENDBRANCH   3  61
TORSDOF 11
ENDMDL
MODEL 6
REMARK VINA RESULT:      -6.0      3.236      8.871
REMARK  11 active torsions:
REMARK  status: ('A' for Active; 'I' for Inactive)
REMARK    1  A    between atoms: C_1  and  C_2 
REMARK    2  A    between atoms: C_4  and  N_33 
REMARK    3  A    between atoms: C_8  and  C_32 
REMARK    4  A    between atoms: C_11  and  O_31 
REMARK    5  A    between atoms: C_13  and  C_17 
REMARK    6  A    between atoms: C_17  and  C_19 
REMARK    7  A    between atoms: C_17  and  C_20 
REMARK       I    between atoms: C_20  and  N_22 
REMARK    8  A    between atoms: N_22  and  C_23 
REMARK    9  A    between atoms: N_22  and  C_24 
REMARK   10  A    between atoms: C_24  and  C_25 
REMARK       I    between atoms: N_33  and  C_34 
REMARK   11  A    between atoms: C_34  and  C_36 
ROOT
ATOM      1  C   LIG d   1       5.193   0.826  -8.420  0.00  0.00    -0.020 C 
ATOM      2  H   LIG d   1       4.550   1.522  -7.861  0.00  0.00     0.032 H 
ATOM      3  C   LIG d   1       6.040   0.015  -7.437  0.00  0.00     0.026 C 
ATOM      4  H   LIG d   1       6.718  -0.661  -7.976  0.00  0.00     0.050 H 
ATOM      5  C   LIG d   1       5.121  -0.775  -6.504  0.00  0.00    -0.034 C 
ATOM      6  C   LIG d   1       4.250  -1.725  -7.329  0.00  0.00    -0.046 C 
ATOM      7  C   LIG d   1       3.402  -0.913  -8.312  0.00  0.00    -0.026 C 
ATOM      8  C   LIG d   1       4.322  -0.122  -9.246  0.00  0.00    -0.005 C 
ATOM      9  H   LIG d   1       4.965  -0.819  -9.803  0.00  0.00     0.033 H 
ATOM     10  C   LIG d   1       3.475   0.688 -10.228  0.00  0.00     0.062 C 
ATOM     11  H   LIG d   1       2.863   1.437  -9.705  0.00  0.00     0.060 H 
ATOM     12  C   LIG d   1       2.604  -0.260 -11.054  0.00  0.00    -0.004 C 
ATOM     13  H   LIG d   1       1.995   0.324 -11.761  0.00  0.00     0.033 H 
ATOM     14  C   LIG d   1       1.685  -1.050 -10.121  0.00  0.00    -0.047 C 
ATOM     15  C   LIG d   1       2.531  -1.862  -9.138  0.00  0.00    -0.047 C 
ATOM     16  H   LIG d   1       5.730  -1.359  -5.797  0.00  0.00     0.028 H 
ATOM     17  H   LIG d   1       4.478  -0.079  -5.945  0.00  0.00     0.028 H 
ATOM     18  H   LIG d   1       4.892  -2.421  -7.887  0.00  0.00     0.027 H 
ATOM     19  H   LIG d   1       3.588  -2.292  -6.658  0.00  0.00     0.027 H 
ATOM     20  H   LIG d   1       1.041  -0.355  -9.563  0.00  0.00     0.027 H 
ATOM     21  H   LIG d   1       1.058  -1.733 -10.714  0.00  0.00     0.027 H 
ATOM     22  H   LIG d   1       3.175  -2.558  -9.696  0.00  0.00     0.027 H 
ATOM     23  H   LIG d   1       1.870  -2.430  -8.467  0.00  0.00     0.027 H 
ENDROOT
BRANCH  12  24
ATOM     24  C   LIG d   1       3.498  -1.229 -11.830  0.00  0.00     0.038 C 
ATOM     25  H   LIG d   1       4.176  -1.748 -11.137  0.00  0.00     0.040 H 
BRANCH  24  26
ATOM     26  C   LIG d   1       4.310  -0.452 -12.869  0.00  0.00    -0.054 C 
ATOM     27  H   LIG d   1       5.090   0.135 -12.360  0.00  0.00     0.024 H 
ATOM     28  H   LIG d   1       3.644   0.225 -13.424  0.00  0.00     0.024 H 
ATOM     29  H   LIG d   1       4.781  -1.158 -13.569  0.00  0.00     0.024 H 
ENDBRANCH  24  26
BRANCH  24  30
ATOM     30  C   LIG d   1       2.642  -2.255 -12.527  0.00  0.00     0.219 C 
ATOM     31  O   LIG d   1       1.747  -1.898 -13.264  0.00  0.00    -0.275 OA
ATOM     32  N   LIG d   1       2.870  -3.568 -12.330  0.00  0.00    -0.300 N 
BRANCH  32  33
ATOM     33  C   LIG d   1       3.998  -4.000 -11.501  0.00  0.00     0.004 C 
ATOM     34  H   LIG d   1       3.776  -4.984 -11.064  0.00  0.00     0.043 H 
ATOM     35  H   LIG d   1       4.162  -3.269 -10.695  0.00  0.00     0.043 H 
ATOM     36  H   LIG d   1       4.903  -4.070 -12.122  0.00  0.00     0.043 H 
ENDBRANCH  32  33
BRANCH  32  37
ATOM     37  C   LIG d   1       1.990  -4.565 -12.945  0.00  0.00     0.039 C 
ATOM     38  H   LIG d   1       1.397  -4.091 -13.740  0.00  0.00     0.051 H 
ATOM     39  H   LIG d   1       2.598  -5.374 -13.376  0.00  0.00     0.051 H 
BRANCH  37  40
ATOM     40  C   LIG d   1       1.066  -5.132 -11.899  0.00  0.00    -0.030 A 
ATOM     41  C   LIG d   1       1.224  -6.438 -11.473  0.00  0.00    -0.057 A 
ATOM     42  C   LIG d   1       0.377  -6.959 -10.513  0.00  0.00    -0.061 A 
ATOM     43  H   LIG d   1       2.009  -7.051 -11.890  0.00  0.00     0.062 H 
ATOM     44  C   LIG d   1      -0.629  -6.174  -9.979  0.00  0.00    -0.062 A 
ATOM     45  H   LIG d   1       0.499  -7.979 -10.181  0.00  0.00     0.062 H 
ATOM     46  C   LIG d   1      -0.786  -4.868 -10.404  0.00  0.00    -0.061 A 
ATOM     47  H   LIG d   1      -1.291  -6.581  -9.229  0.00  0.00     0.062 H 
ATOM     48  C   LIG d   1       0.065  -4.346 -11.361  0.00  0.00    -0.057 A 
ATOM     49  H   LIG d   1      -1.571  -4.255  -9.987  0.00  0.00     0.062 H 
ATOM     50  H   LIG d   1      -0.056  -3.325 -11.691  0.00  0.00     0.062 H 
ENDBRANCH  37  40
ENDBRANCH  32  37
ENDBRANCH  24  30
ENDBRANCH  12  24
BRANCH  10  51
ATOM     51  O   LIG d   1       4.333   1.428 -11.100  0.00  0.00    -0.391 OA
ATOM     52  H   LIG d   1       4.204   1.355 -12.190  0.00  0.00     0.210 HD
ENDBRANCH  10  51
BRANCH   1  53
ATOM     53  C   LIG d   1       6.112   1.617  -9.353  0.00  0.00    -0.060 C 
ATOM     54  H   LIG d   1       5.776   1.491 -10.392  0.00  0.00     0.023 H 
ATOM     55  H   LIG d   1       7.143   1.248  -9.252  0.00  0.00     0.023 H 
ATOM     56  H   LIG d   1       6.077   2.684  -9.083  0.00  0.00     0.023 H 
ENDBRANCH   1  53
BRANCH   7  57
ATOM     57  C   LIG d   1       2.507   0.056  -7.536  0.00  0.00    -0.059 C 
ATOM     58  H   LIG d   1       2.950   1.063  -7.560  0.00  0.00     0.024 H 
ATOM     59  H   LIG d   1       2.419  -0.283  -6.493  0.00  0.00     0.024 H 
ATOM     60  H   LIG d   1       1.509   0.082  -7.998  0.00  0.00     0.024 H 
ENDBRANCH   7  57
BRANCH   3  61
ATOM     61  N   LIG d   1       6.874   0.923  -6.646  0.00  0.00    -0.312 N 
ATOM     62  C   LIG d   1       8.191   0.675  -6.501  0.00  0.00     0.216 C 
ATOM     63  O   LIG d   1       8.685  -0.300  -7.026  0.00  0.00    -0.276 OA
ATOM     64  H   LIG d   1       6.426   1.808  -6.170  0.00  0.00     0.149 HD
BRANCH  62  65
ATOM     65  C   LIG d   1       9.049   1.609  -5.688  0.00  0.00     0.036 C 
ATOM     66  C   LIG d   1       9.294   2.896  -6.478  0.00  0.00    -0.042 C 
ATOM     67  C   LIG d   1      10.166   3.844  -5.652  0.00  0.00    -0.052 C 
ATOM     68  H   LIG d   1       9.806   2.656  -7.421  0.00  0.00     0.027 H 
ATOM     69  H   LIG d   1       8.331   3.381  -6.696  0.00  0.00     0.027 H 
ATOM     70  C   LIG d   1       9.453   4.178  -4.339  0.00  0.00    -0.053 C 
ATOM     71  H   LIG d   1      10.341   4.770  -6.220  0.00  0.00     0.026 H 
ATOM     72  H   LIG d   1      11.128   3.360  -5.433  0.00  0.00     0.026 H 
ATOM     73  C   LIG d   1       9.209   2.892  -3.550  0.00  0.00    -0.052 C 
ATOM     74  H   LIG d   1       8.491   4.664  -4.558  0.00  0.00     0.026 H 
ATOM     75  H   LIG d   1      10.080   4.860  -3.745  0.00  0.00     0.026 H 
ATOM     76  C   LIG d   1       8.337   1.943  -4.376  0.00  0.00    -0.042 C 
ATOM     77  H   LIG d   1       8.697   3.132  -2.606  0.00  0.00     0.026 H 
ATOM     78  H   LIG d   1      10.172   2.407  -3.331  0.00  0.00     0.026 H 
ATOM     79  H   LIG d   1       7.374   2.428  -4.594  0.00  0.00     0.027 H 
ATOM     80  H   LIG d   1       8.162   1.018  -3.807  0.00  0.00     0.027 H 
ATOM     81  H   LIG d   1      10.008   1.112  -5.477  0.00  0.00     0.039 H 
ENDBRANCH  62  65
ENDBRANCH   3  61
TORSDOF 11
ENDMDL
MODEL 7
REMARK VINA RESULT:      -5.9      4.523      6.168
REMARK  11 active torsions:
REMARK  status: ('A' for Active; 'I' for Inactive)
REMARK    1  A    between atoms: C_1  and  C_2 
REMARK    2  A    between atoms: C_4  and  N_33 
REMARK    3  A    between atoms: C_8  and  C_32 
REMARK    4  A    between atoms: C_11  and  O_31 
REMARK    5  A    between atoms: C_13  and  C_17 
REMARK    6  A    between atoms: C_17  and  C_19 
REMARK    7  A    between atoms: C_17  and  C_20 
REMARK       I    between atoms: C_20  and  N_22 
REMARK    8  A    between atoms: N_22  and  C_23 
REMARK    9  A    between atoms: N_22  and  C_24 
REMARK   10  A    between atoms: C_24  and  C_25 
REMARK       I    between atoms: N_33  and  C_34 
REMARK   11  A    between atoms: C_34  and  C_36 
ROOT
ATOM      1  C   LIG d   1       1.939  -4.348 -10.591  0.00  0.00    -0.020 C 
ATOM      2  H   LIG d   1       2.365  -4.457 -11.599  0.00  0.00     0.032 H 
ATOM      3  C   LIG d   1       1.620  -5.732 -10.021  0.00  0.00     0.026 C 
ATOM      4  H   LIG d   1       1.157  -5.644  -9.028  0.00  0.00     0.050 H 
ATOM      5  C   LIG d   1       2.903  -6.560  -9.946  0.00  0.00    -0.034 C 
ATOM      6  C   LIG d   1       3.913  -5.856  -9.038  0.00  0.00    -0.046 C 
ATOM      7  C   LIG d   1       4.233  -4.472  -9.608  0.00  0.00    -0.026 C 
ATOM      8  C   LIG d   1       2.948  -3.642  -9.683  0.00  0.00    -0.005 C 
ATOM      9  H   LIG d   1       2.522  -3.535  -8.675  0.00  0.00     0.033 H 
ATOM     10  C   LIG d   1       3.267  -2.260 -10.253  0.00  0.00     0.062 C 
ATOM     11  H   LIG d   1       3.641  -2.329 -11.286  0.00  0.00     0.060 H 
ATOM     12  C   LIG d   1       4.277  -1.554  -9.346  0.00  0.00    -0.004 C 
ATOM     13  H   LIG d   1       4.506  -0.559  -9.756  0.00  0.00     0.033 H 
ATOM     14  C   LIG d   1       5.561  -2.383  -9.271  0.00  0.00    -0.047 C 
ATOM     15  C   LIG d   1       5.242  -3.766  -8.700  0.00  0.00    -0.047 C 
ATOM     16  H   LIG d   1       2.674  -7.555  -9.535  0.00  0.00     0.028 H 
ATOM     17  H   LIG d   1       3.330  -6.669 -10.953  0.00  0.00     0.028 H 
ATOM     18  H   LIG d   1       3.488  -5.747  -8.030  0.00  0.00     0.027 H 
ATOM     19  H   LIG d   1       4.837  -6.451  -8.984  0.00  0.00     0.027 H 
ATOM     20  H   LIG d   1       5.988  -2.491 -10.278  0.00  0.00     0.027 H 
ATOM     21  H   LIG d   1       6.287  -1.876  -8.618  0.00  0.00     0.027 H 
ATOM     22  H   LIG d   1       4.815  -3.658  -7.692  0.00  0.00     0.027 H 
ATOM     23  H   LIG d   1       6.165  -4.362  -8.646  0.00  0.00     0.027 H 
ENDROOT
BRANCH  12  24
ATOM     24  C   LIG d   1       3.684  -1.404  -7.943  0.00  0.00     0.038 C 
ATOM     25  H   LIG d   1       3.298  -2.372  -7.595  0.00  0.00     0.040 H 
BRANCH  24  26
ATOM     26  C   LIG d   1       2.553  -0.374  -7.976  0.00  0.00    -0.054 C 
ATOM     27  H   LIG d   1       2.714   0.321  -8.814  0.00  0.00     0.024 H 
ATOM     28  H   LIG d   1       2.541   0.188  -7.030  0.00  0.00     0.024 H 
ATOM     29  H   LIG d   1       1.591  -0.890  -8.108  0.00  0.00     0.024 H 
ENDBRANCH  24  26
BRANCH  24  30
ATOM     30  C   LIG d   1       4.757  -0.941  -6.991  0.00  0.00     0.219 C 
ATOM     31  O   LIG d   1       5.301   0.130  -7.164  0.00  0.00    -0.275 OA
ATOM     32  N   LIG d   1       5.113  -1.717  -5.949  0.00  0.00    -0.300 N 
BRANCH  32  33
ATOM     33  C   LIG d   1       4.404  -2.974  -5.696  0.00  0.00     0.004 C 
ATOM     34  H   LIG d   1       5.069  -3.669  -5.163  0.00  0.00     0.043 H 
ATOM     35  H   LIG d   1       4.097  -3.421  -6.653  0.00  0.00     0.043 H 
ATOM     36  H   LIG d   1       3.514  -2.775  -5.082  0.00  0.00     0.043 H 
ENDBRANCH  32  33
BRANCH  32  37
ATOM     37  C   LIG d   1       6.208  -1.304  -5.068  0.00  0.00     0.039 C 
ATOM     38  H   LIG d   1       6.793  -2.187  -4.772  0.00  0.00     0.051 H 
ATOM     39  H   LIG d   1       6.859  -0.595  -5.601  0.00  0.00     0.051 H 
BRANCH  37  40
ATOM     40  C   LIG d   1       5.642  -0.641  -3.840  0.00  0.00    -0.030 A 
ATOM     41  C   LIG d   1       5.737   0.730  -3.689  0.00  0.00    -0.057 A 
ATOM     42  C   LIG d   1       5.216   1.339  -2.562  0.00  0.00    -0.061 A 
ATOM     43  H   LIG d   1       6.217   1.325  -4.451  0.00  0.00     0.062 H 
ATOM     44  C   LIG d   1       4.601   0.577  -1.586  0.00  0.00    -0.062 A 
ATOM     45  H   LIG d   1       5.292   2.410  -2.443  0.00  0.00     0.062 H 
ATOM     46  C   LIG d   1       4.505  -0.794  -1.738  0.00  0.00    -0.061 A 
ATOM     47  H   LIG d   1       4.195   1.052  -0.705  0.00  0.00     0.062 H 
ATOM     48  C   LIG d   1       5.022  -1.402  -2.867  0.00  0.00    -0.057 A 
ATOM     49  H   LIG d   1       4.024  -1.388  -0.976  0.00  0.00     0.062 H 
ATOM     50  H   LIG d   1       4.943  -2.473  -2.986  0.00  0.00     0.062 H 
ENDBRANCH  37  40
ENDBRANCH  32  37
ENDBRANCH  24  30
ENDBRANCH  12  24
BRANCH  10  51
ATOM     51  O   LIG d   1       2.068  -1.485 -10.324  0.00  0.00    -0.391 OA
ATOM     52  H   LIG d   1       1.647  -1.037  -9.412  0.00  0.00     0.210 HD
ENDBRANCH  10  51
BRANCH   1  53
ATOM     53  C   LIG d   1       0.655  -3.519 -10.667  0.00  0.00    -0.060 C 
ATOM     54  H   LIG d   1      -0.101  -4.066 -11.249  0.00  0.00     0.023 H 
ATOM     55  H   LIG d   1       0.868  -2.557 -11.154  0.00  0.00     0.023 H 
ATOM     56  H   LIG d   1       0.274  -3.339  -9.650  0.00  0.00     0.023 H 
ENDBRANCH   1  53
BRANCH   7  57
ATOM     57  C   LIG d   1       4.826  -4.622 -11.011  0.00  0.00    -0.059 C 
ATOM     58  H   LIG d   1       5.917  -4.735 -10.938  0.00  0.00     0.024 H 
ATOM     59  H   LIG d   1       4.588  -3.727 -11.606  0.00  0.00     0.024 H 
ATOM     60  H   LIG d   1       4.396  -5.510 -11.497  0.00  0.00     0.024 H 
ENDBRANCH   7  57
BRANCH   3  61
ATOM     61  N   LIG d   1       0.653  -6.407 -10.890  0.00  0.00    -0.312 N 
ATOM     62  C   LIG d   1      -0.419  -7.023 -10.355  0.00  0.00     0.216 C 
ATOM     63  O   LIG d   1      -0.584  -7.018  -9.153  0.00  0.00    -0.276 OA
ATOM     64  H   LIG d   1       0.803  -6.412 -11.980  0.00  0.00     0.149 HD
BRANCH  62  65
ATOM     65  C   LIG d   1      -1.414  -7.718 -11.248  0.00  0.00     0.036 C 
ATOM     66  C   LIG d   1      -2.323  -8.611 -10.402  0.00  0.00    -0.042 C 
ATOM     67  C   LIG d   1      -3.332  -9.317 -11.311  0.00  0.00    -0.052 C 
ATOM     68  H   LIG d   1      -1.714  -9.363  -9.878  0.00  0.00     0.027 H 
ATOM     69  H   LIG d   1      -2.860  -7.995  -9.666  0.00  0.00     0.027 H 
ATOM     70  C   LIG d   1      -4.180  -8.271 -12.040  0.00  0.00    -0.053 C 
ATOM     71  H   LIG d   1      -3.987  -9.959 -10.702  0.00  0.00     0.026 H 
ATOM     72  H   LIG d   1      -2.796  -9.932 -12.047  0.00  0.00     0.026 H 
ATOM     73  C   LIG d   1      -3.271  -7.378 -12.885  0.00  0.00    -0.052 C 
ATOM     74  H   LIG d   1      -4.717  -7.656 -11.303  0.00  0.00     0.026 H 
ATOM     75  H   LIG d   1      -4.906  -8.778 -12.693  0.00  0.00     0.026 H 
ATOM     76  C   LIG d   1      -2.261  -6.672 -11.977  0.00  0.00    -0.042 C 
ATOM     77  H   LIG d   1      -3.880  -6.626 -13.410  0.00  0.00     0.026 H 
ATOM     78  H   LIG d   1      -2.734  -7.994 -13.622  0.00  0.00     0.026 H 
ATOM     79  H   LIG d   1      -2.798  -6.057 -11.241  0.00  0.00     0.027 H 
ATOM     80  H   LIG d   1      -1.607  -6.030 -12.586  0.00  0.00     0.027 H 
ATOM     81  H   LIG d   1      -0.864  -8.329 -11.979  0.00  0.00     0.039 H 
ENDBRANCH  62  65
ENDBRANCH   3  61
TORSDOF 11
ENDMDL
MODEL 8
REMARK VINA RESULT:      -5.9      1.930      9.961
REMARK  11 active torsions:
REMARK  status: ('A' for Active; 'I' for Inactive)
REMARK    1  A    between atoms: C_1  and  C_2 
REMARK    2  A    between atoms: C_4  and  N_33 
REMARK    3  A    between atoms: C_8  and  C_32 
REMARK    4  A    between atoms: C_11  and  O_31 
REMARK    5  A    between atoms: C_13  and  C_17 
REMARK    6  A    between atoms: C_17  and  C_19 
REMARK    7  A    between atoms: C_17  and  C_20 
REMARK       I    between atoms: C_20  and  N_22 
REMARK    8  A    between atoms: N_22  and  C_23 
REMARK    9  A    between atoms: N_22  and  C_24 
REMARK   10  A    between atoms: C_24  and  C_25 
REMARK       I    between atoms: N_33  and  C_34 
REMARK   11  A    between atoms: C_34  and  C_36 
ROOT
ATOM      1  C   LIG d   1       4.482  -1.345  -8.275  0.00  0.00    -0.020 C 
ATOM      2  H   LIG d   1       5.468  -0.887  -8.103  0.00  0.00     0.032 H 
ATOM      3  C   LIG d   1       3.405  -0.512  -7.577  0.00  0.00     0.026 C 
ATOM      4  H   LIG d   1       2.416  -0.974  -7.704  0.00  0.00     0.050 H 
ATOM      5  C   LIG d   1       3.414   0.909  -8.143  0.00  0.00    -0.034 C 
ATOM      6  C   LIG d   1       3.127   0.862  -9.646  0.00  0.00    -0.046 C 
ATOM      7  C   LIG d   1       4.205   0.029 -10.343  0.00  0.00    -0.026 C 
ATOM      8  C   LIG d   1       4.197  -1.393  -9.777  0.00  0.00    -0.005 C 
ATOM      9  H   LIG d   1       3.211  -1.850  -9.949  0.00  0.00     0.033 H 
ATOM     10  C   LIG d   1       5.274  -2.225 -10.475  0.00  0.00     0.062 C 
ATOM     11  H   LIG d   1       6.279  -1.828 -10.273  0.00  0.00     0.060 H 
ATOM     12  C   LIG d   1       4.988  -2.274 -11.977  0.00  0.00    -0.004 C 
ATOM     13  H   LIG d   1       5.763  -2.873 -12.478  0.00  0.00     0.033 H 
ATOM     14  C   LIG d   1       4.996  -0.853 -12.543  0.00  0.00    -0.047 C 
ATOM     15  C   LIG d   1       3.919  -0.019 -11.846  0.00  0.00    -0.047 C 
ATOM     16  H   LIG d   1       2.639   1.508  -7.642  0.00  0.00     0.028 H 
ATOM     17  H   LIG d   1       4.399   1.367  -7.972  0.00  0.00     0.028 H 
ATOM     18  H   LIG d   1       2.143   0.405  -9.817  0.00  0.00     0.027 H 
ATOM     19  H   LIG d   1       3.134   1.884 -10.053  0.00  0.00     0.027 H 
ATOM     20  H   LIG d   1       5.982  -0.395 -12.373  0.00  0.00     0.027 H 
ATOM     21  H   LIG d   1       4.791  -0.887 -13.623  0.00  0.00     0.027 H 
ATOM     22  H   LIG d   1       2.934  -0.477 -12.017  0.00  0.00     0.027 H 
ATOM     23  H   LIG d   1       3.926   1.003 -12.253  0.00  0.00     0.027 H 
ENDROOT
BRANCH  12  24
ATOM     24  C   LIG d   1       3.617  -2.910 -12.216  0.00  0.00     0.038 C 
ATOM     25  H   LIG d   1       2.826  -2.247 -11.835  0.00  0.00     0.040 H 
BRANCH  24  26
ATOM     26  C   LIG d   1       3.551  -4.261 -11.502  0.00  0.00    -0.054 C 
ATOM     27  H   LIG d   1       3.472  -4.100 -10.416  0.00  0.00     0.024 H 
ATOM     28  H   LIG d   1       4.463  -4.837 -11.721  0.00  0.00     0.024 H 
ATOM     29  H   LIG d   1       2.672  -4.820 -11.854  0.00  0.00     0.024 H 
ENDBRANCH  24  26
BRANCH  24  30
ATOM     30  C   LIG d   1       3.407  -3.112 -13.694  0.00  0.00     0.219 C 
ATOM     31  O   LIG d   1       4.233  -3.715 -14.347  0.00  0.00    -0.275 OA
ATOM     32  N   LIG d   1       2.304  -2.622 -14.291  0.00  0.00    -0.300 N 
BRANCH  32  33
ATOM     33  C   LIG d   1       1.270  -1.961 -13.490  0.00  0.00     0.004 C 
ATOM     34  H   LIG d   1       0.368  -2.590 -13.463  0.00  0.00     0.043 H 
ATOM     35  H   LIG d   1       1.024  -0.987 -13.941  0.00  0.00     0.043 H 
ATOM     36  H   LIG d   1       1.641  -1.808 -12.467  0.00  0.00     0.043 H 
ENDBRANCH  32  33
BRANCH  32  37
ATOM     37  C   LIG d   1       2.136  -2.750 -15.741  0.00  0.00     0.039 C 
ATOM     38  H   LIG d   1       2.807  -3.533 -16.120  0.00  0.00     0.051 H 
ATOM     39  H   LIG d   1       1.093  -3.020 -15.966  0.00  0.00     0.051 H 
BRANCH  37  40
ATOM     40  C   LIG d   1       2.468  -1.438 -16.402  0.00  0.00    -0.030 A 
ATOM     41  C   LIG d   1       1.628  -0.919 -17.370  0.00  0.00    -0.057 A 
ATOM     42  C   LIG d   1       1.933   0.285 -17.977  0.00  0.00    -0.061 A 
ATOM     43  H   LIG d   1       0.734  -1.454 -17.652  0.00  0.00     0.062 H 
ATOM     44  C   LIG d   1       3.078   0.970 -17.616  0.00  0.00    -0.062 A 
ATOM     45  H   LIG d   1       1.278   0.689 -18.734  0.00  0.00     0.062 H 
ATOM     46  C   LIG d   1       3.918   0.452 -16.647  0.00  0.00    -0.061 A 
ATOM     47  H   LIG d   1       3.317   1.911 -18.090  0.00  0.00     0.062 H 
ATOM     48  C   LIG d   1       3.610  -0.750 -16.038  0.00  0.00    -0.057 A 
ATOM     49  H   LIG d   1       4.812   0.988 -16.366  0.00  0.00     0.062 H 
ATOM     50  H   LIG d   1       4.265  -1.153 -15.279  0.00  0.00     0.062 H 
ENDBRANCH  37  40
ENDBRANCH  32  37
ENDBRANCH  24  30
ENDBRANCH  12  24
BRANCH  10  51
ATOM     51  O   LIG d   1       5.267  -3.554  -9.946  0.00  0.00    -0.391 OA
ATOM     52  H   LIG d   1       6.209  -4.115  -9.856  0.00  0.00     0.210 HD
ENDBRANCH  10  51
BRANCH   1  53
ATOM     53  C   LIG d   1       4.475  -2.766  -7.708  0.00  0.00    -0.060 C 
ATOM     54  H   LIG d   1       5.427  -2.961  -7.193  0.00  0.00     0.023 H 
ATOM     55  H   LIG d   1       4.347  -3.487  -8.529  0.00  0.00     0.023 H 
ATOM     56  H   LIG d   1       3.644  -2.872  -6.995  0.00  0.00     0.023 H 
ENDBRANCH   1  53
BRANCH   7  57
ATOM     57  C   LIG d   1       5.577   0.665 -10.105  0.00  0.00    -0.059 C 
ATOM     58  H   LIG d   1       5.878   0.506  -9.060  0.00  0.00     0.024 H 
ATOM     59  H   LIG d   1       5.520   1.744 -10.312  0.00  0.00     0.024 H 
ATOM     60  H   LIG d   1       6.316   0.201 -10.775  0.00  0.00     0.024 H 
ENDBRANCH   7  57
BRANCH   3  61
ATOM     61  N   LIG d   1       3.679  -0.466  -6.139  0.00  0.00    -0.312 N 
ATOM     62  C   LIG d   1       2.725  -0.048  -5.284  0.00  0.00     0.216 C 
ATOM     63  O   LIG d   1       1.639   0.290  -5.706  0.00  0.00    -0.276 OA
ATOM     64  H   LIG d   1       4.663  -0.772  -5.756  0.00  0.00     0.149 HD
BRANCH  62  65
ATOM     65  C   LIG d   1       3.005  -0.001  -3.804  0.00  0.00     0.036 C 
ATOM     66  C   LIG d   1       4.009  -1.096  -3.440  0.00  0.00    -0.042 C 
ATOM     67  C   LIG d   1       4.293  -1.048  -1.937  0.00  0.00    -0.052 C 
ATOM     68  H   LIG d   1       3.591  -2.079  -3.702  0.00  0.00     0.027 H 
ATOM     69  H   LIG d   1       4.945  -0.935  -3.996  0.00  0.00     0.027 H 
ATOM     70  C   LIG d   1       4.875   0.320  -1.572  0.00  0.00    -0.053 C 
ATOM     71  H   LIG d   1       5.016  -1.835  -1.675  0.00  0.00     0.026 H 
ATOM     72  H   LIG d   1       3.358  -1.208  -1.381  0.00  0.00     0.026 H 
ATOM     73  C   LIG d   1       3.871   1.415  -1.937  0.00  0.00    -0.052 C 
ATOM     74  H   LIG d   1       5.811   0.480  -2.128  0.00  0.00     0.026 H 
ATOM     75  H   LIG d   1       5.080   0.355  -0.492  0.00  0.00     0.026 H 
ATOM     76  C   LIG d   1       3.586   1.367  -3.440  0.00  0.00    -0.042 C 
ATOM     77  H   LIG d   1       4.289   2.398  -1.674  0.00  0.00     0.026 H 
ATOM     78  H   LIG d   1       2.935   1.254  -1.381  0.00  0.00     0.026 H 
ATOM     79  H   LIG d   1       4.522   1.527  -3.995  0.00  0.00     0.027 H 
ATOM     80  H   LIG d   1       2.864   2.154  -3.701  0.00  0.00     0.027 H 
ATOM     81  H   LIG d   1       2.062  -0.163  -3.262  0.00  0.00     0.039 H 
ENDBRANCH  62  65
ENDBRANCH   3  61
TORSDOF 11
ENDMDL
MODEL 9
REMARK VINA RESULT:      -5.8      6.043     10.583
REMARK  11 active torsions:
REMARK  status: ('A' for Active; 'I' for Inactive)
REMARK    1  A    between atoms: C_1  and  C_2 
REMARK    2  A    between atoms: C_4  and  N_33 
REMARK    3  A    between atoms: C_8  and  C_32 
REMARK    4  A    between atoms: C_11  and  O_31 
REMARK    5  A    between atoms: C_13  and  C_17 
REMARK    6  A    between atoms: C_17  and  C_19 
REMARK    7  A    between atoms: C_17  and  C_20 
REMARK       I    between atoms: C_20  and  N_22 
REMARK    8  A    between atoms: N_22  and  C_23 
REMARK    9  A    between atoms: N_22  and  C_24 
REMARK   10  A    between atoms: C_24  and  C_25 
REMARK       I    between atoms: N_33  and  C_34 
REMARK   11  A    between atoms: C_34  and  C_36 
ROOT
ATOM      1  C   LIG d   1      11.099   1.727  -4.785  0.00  0.00    -0.020 C 
ATOM      2  H   LIG d   1      11.365   2.223  -5.731  0.00  0.00     0.032 H 
ATOM      3  C   LIG d   1      10.667   2.780  -3.762  0.00  0.00     0.026 C 
ATOM      4  H   LIG d   1      10.433   2.309  -2.797  0.00  0.00     0.050 H 
ATOM      5  C   LIG d   1       9.454   3.542  -4.298  0.00  0.00    -0.034 C 
ATOM      6  C   LIG d   1       8.302   2.564  -4.540  0.00  0.00    -0.046 C 
ATOM      7  C   LIG d   1       8.735   1.512  -5.564  0.00  0.00    -0.026 C 
ATOM      8  C   LIG d   1       9.949   0.749  -5.028  0.00  0.00    -0.005 C 
ATOM      9  H   LIG d   1       9.682   0.254  -4.082  0.00  0.00     0.033 H 
ATOM     10  C   LIG d   1      10.381  -0.303  -6.050  0.00  0.00     0.062 C 
ATOM     11  H   LIG d   1      10.711   0.164  -6.990  0.00  0.00     0.060 H 
ATOM     12  C   LIG d   1       9.231  -1.282  -6.293  0.00  0.00    -0.004 C 
ATOM     13  H   LIG d   1       9.542  -2.039  -7.028  0.00  0.00     0.033 H 
ATOM     14  C   LIG d   1       8.017  -0.520  -6.829  0.00  0.00    -0.047 C 
ATOM     15  C   LIG d   1       7.584   0.533  -5.806  0.00  0.00    -0.047 C 
ATOM     16  H   LIG d   1       9.142   4.299  -3.562  0.00  0.00     0.028 H 
ATOM     17  H   LIG d   1       9.719   4.038  -5.243  0.00  0.00     0.028 H 
ATOM     18  H   LIG d   1       8.036   2.069  -3.596  0.00  0.00     0.027 H 
ATOM     19  H   LIG d   1       7.430   3.113  -4.926  0.00  0.00     0.027 H 
ATOM     20  H   LIG d   1       8.283  -0.025  -7.774  0.00  0.00     0.027 H 
ATOM     21  H   LIG d   1       7.190  -1.223  -7.003  0.00  0.00     0.027 H 
ATOM     22  H   LIG d   1       7.319   0.038  -4.860  0.00  0.00     0.027 H 
ATOM     23  H   LIG d   1       6.712   1.081  -6.192  0.00  0.00     0.027 H 
ENDROOT
BRANCH  12  24
ATOM     24  C   LIG d   1       8.860  -1.971  -4.978  0.00  0.00     0.038 C 
ATOM     25  H   LIG d   1       8.835  -1.232  -4.163  0.00  0.00     0.040 H 
BRANCH  24  26
ATOM     26  C   LIG d   1       9.891  -3.057  -4.663  0.00  0.00    -0.054 C 
ATOM     27  H   LIG d   1      10.041  -3.688  -5.552  0.00  0.00     0.024 H 
ATOM     28  H   LIG d   1       9.529  -3.676  -3.830  0.00  0.00     0.024 H 
ATOM     29  H   LIG d   1      10.845  -2.587  -4.383  0.00  0.00     0.024 H 
ENDBRANCH  24  26
BRANCH  24  30
ATOM     30  C   LIG d   1       7.495  -2.596  -5.105  0.00  0.00     0.219 C 
ATOM     31  O   LIG d   1       7.238  -3.302  -6.057  0.00  0.00    -0.275 OA
ATOM     32  N   LIG d   1       6.560  -2.370  -4.162  0.00  0.00    -0.300 N 
BRANCH  32  33
ATOM     33  C   LIG d   1       6.894  -1.580  -2.974  0.00  0.00     0.004 C 
ATOM     34  H   LIG d   1       7.984  -1.446  -2.917  0.00  0.00     0.043 H 
ATOM     35  H   LIG d   1       6.543  -2.106  -2.073  0.00  0.00     0.043 H 
ATOM     36  H   LIG d   1       6.407  -0.597  -3.038  0.00  0.00     0.043 H 
ENDBRANCH  32  33
BRANCH  32  37
ATOM     37  C   LIG d   1       5.210  -2.913  -4.323  0.00  0.00     0.039 C 
ATOM     38  H   LIG d   1       5.159  -3.502  -5.250  0.00  0.00     0.051 H 
ATOM     39  H   LIG d   1       4.970  -3.559  -3.465  0.00  0.00     0.051 H 
BRANCH  37  40
ATOM     40  C   LIG d   1       4.218  -1.781  -4.392  0.00  0.00    -0.030 A 
ATOM     41  C   LIG d   1       4.152  -0.987  -5.522  0.00  0.00    -0.057 A 
ATOM     42  C   LIG d   1       3.242   0.051  -5.585  0.00  0.00    -0.061 A 
ATOM     43  H   LIG d   1       4.813  -1.178  -6.354  0.00  0.00     0.062 H 
ATOM     44  C   LIG d   1       2.397   0.295  -4.519  0.00  0.00    -0.062 A 
ATOM     45  H   LIG d   1       3.193   0.672  -6.467  0.00  0.00     0.062 H 
ATOM     46  C   LIG d   1       2.461  -0.499  -3.390  0.00  0.00    -0.061 A 
ATOM     47  H   LIG d   1       1.686   1.107  -4.568  0.00  0.00     0.062 H 
ATOM     48  C   LIG d   1       3.369  -1.540  -3.328  0.00  0.00    -0.057 A 
ATOM     49  H   LIG d   1       1.801  -0.308  -2.557  0.00  0.00     0.062 H 
ATOM     50  H   LIG d   1       3.417  -2.163  -2.447  0.00  0.00     0.062 H 
ENDBRANCH  37  40
ENDBRANCH  32  37
ENDBRANCH  24  30
ENDBRANCH  12  24
BRANCH  10  51
ATOM     51  O   LIG d   1      11.515  -1.016  -5.551  0.00  0.00    -0.391 OA
ATOM     52  H   LIG d   1      11.373  -1.939  -4.969  0.00  0.00     0.210 HD
ENDBRANCH  10  51
BRANCH   1  53
ATOM     53  C   LIG d   1      12.313   0.965  -4.250  0.00  0.00    -0.060 C 
ATOM     54  H   LIG d   1      11.975   0.082  -3.690  0.00  0.00     0.023 H 
ATOM     55  H   LIG d   1      12.894   1.621  -3.585  0.00  0.00     0.023 H 
ATOM     56  H   LIG d   1      12.945   0.645  -5.093  0.00  0.00     0.023 H 
ENDBRANCH   1  53
BRANCH   7  57
ATOM     57  C   LIG d   1       9.105   2.200  -6.879  0.00  0.00    -0.059 C 
ATOM     58  H   LIG d   1       9.329   3.260  -6.689  0.00  0.00     0.024 H 
ATOM     59  H   LIG d   1       8.262   2.122  -7.582  0.00  0.00     0.024 H 
ATOM     60  H   LIG d   1       9.990   1.710  -7.312  0.00  0.00     0.024 H 
ENDBRANCH   7  57
BRANCH   3  61
ATOM     61  N   LIG d   1      11.769   3.717  -3.530  0.00  0.00    -0.312 N 
ATOM     62  C   LIG d   1      11.804   4.449  -2.399  0.00  0.00     0.216 C 
ATOM     63  O   LIG d   1      10.924   4.331  -1.573  0.00  0.00    -0.276 OA
ATOM     64  H   LIG d   1      12.567   3.824  -4.279  0.00  0.00     0.149 HD
BRANCH  62  65
ATOM     65  C   LIG d   1      12.937   5.412  -2.159  0.00  0.00     0.036 C 
ATOM     66  C   LIG d   1      12.891   5.905  -0.712  0.00  0.00    -0.042 C 
ATOM     67  C   LIG d   1      14.041   6.885  -0.469  0.00  0.00    -0.052 C 
ATOM     68  H   LIG d   1      11.933   6.413  -0.528  0.00  0.00     0.027 H 
ATOM     69  H   LIG d   1      12.988   5.048  -0.029  0.00  0.00     0.027 H 
ATOM     70  C   LIG d   1      15.375   6.177  -0.725  0.00  0.00    -0.053 C 
ATOM     71  H   LIG d   1      14.008   7.239   0.572  0.00  0.00     0.026 H 
ATOM     72  H   LIG d   1      13.944   7.741  -1.152  0.00  0.00     0.026 H 
ATOM     73  C   LIG d   1      15.421   5.684  -2.171  0.00  0.00    -0.052 C 
ATOM     74  H   LIG d   1      15.472   5.321  -0.041  0.00  0.00     0.026 H 
ATOM     75  H   LIG d   1      16.202   6.881  -0.550  0.00  0.00     0.026 H 
ATOM     76  C   LIG d   1      14.270   4.705  -2.415  0.00  0.00    -0.042 C 
ATOM     77  H   LIG d   1      16.380   5.176  -2.356  0.00  0.00     0.026 H 
ATOM     78  H   LIG d   1      15.324   6.542  -2.854  0.00  0.00     0.026 H 
ATOM     79  H   LIG d   1      14.368   3.849  -1.732  0.00  0.00     0.027 H 
ATOM     80  H   LIG d   1      14.304   4.351  -3.456  0.00  0.00     0.027 H 
ATOM     81  H   LIG d   1      12.827   6.263  -2.848  0.00  0.00     0.039 H 
ENDBRANCH  62  65
ENDBRANCH   3  61
TORSDOF 11
ENDMDL
