MODEL 1
REMARK VINA RESULT:      -6.5      0.000      0.000
REMARK  10 active torsions:
REMARK  status: ('A' for Active; 'I' for Inactive)
REMARK    1  A    between atoms: C_1  and  C_2 
REMARK    2  A    between atoms: C_2  and  C_4 
REMARK    3  A    between atoms: C_8  and  C_38 
REMARK    4  A    between atoms: C_11  and  C_35 
REMARK    5  A    between atoms: C_18  and  C_34 
REMARK    6  A    between atoms: C_23  and  C_33 
REMARK    7  A    between atoms: C_30  and  C_31 
REMARK    8  A    between atoms: C_30  and  C_32 
REMARK    9  A    between atoms: C_38  and  O_40 
REMARK   10  A    between atoms: O_40  and  C_41 
ROOT
ATOM      1  C   LIG d   1       4.456  -0.406  -3.931  0.00  0.00    -0.016 C 
ATOM      2  H   LIG d   1       4.142   0.544  -4.352  0.00  0.00     0.035 H 
ATOM      3  C   LIG d   1       5.801  -0.860  -4.512  0.00  0.00    -0.015 C 
ATOM      4  H   LIG d   1       6.241  -1.587  -3.816  0.00  0.00     0.032 H 
ATOM      5  C   LIG d   1       5.365  -1.578  -5.812  0.00  0.00     0.071 C 
ATOM      6  C   LIG d   1       6.565  -2.278  -6.401  0.00  0.00    -0.036 C 
ATOM      7  C   LIG d   1       7.639  -1.224  -6.730  0.00  0.00    -0.046 C 
ATOM      8  C   LIG d   1       8.044  -0.413  -5.497  0.00  0.00    -0.023 C 
ATOM      9  C   LIG d   1       6.803   0.222  -4.850  0.00  0.00    -0.031 C 
ATOM     10  H   LIG d   1       6.361   0.941  -5.546  0.00  0.00     0.031 H 
ATOM     11  C   LIG d   1       7.212   0.976  -3.586  0.00  0.00    -0.049 C 
ATOM     12  C   LIG d   1       8.264   2.028  -3.918  0.00  0.00    -0.049 C 
ATOM     13  C   LIG d   1       8.574   2.046  -5.421  0.00  0.00    -0.029 C 
ATOM     14  H   LIG d   1       7.652   2.284  -5.961  0.00  0.00     0.031 H 
ATOM     15  C   LIG d   1       9.066   0.673  -5.864  0.00  0.00    -0.023 C 
ATOM     16  C   LIG d   1      10.423   0.389  -5.215  0.00  0.00    -0.046 C 
ATOM     17  C   LIG d   1      11.426   1.479  -5.629  0.00  0.00    -0.048 C 
ATOM     18  C   LIG d   1      10.943   2.822  -5.095  0.00  0.00    -0.023 C 
ATOM     19  H   LIG d   1      10.807   2.692  -3.992  0.00  0.00     0.032 H 
ATOM     20  C   LIG d   1       9.575   3.183  -5.658  0.00  0.00    -0.021 C 
ATOM     21  C   LIG d   1       9.077   4.409  -4.849  0.00  0.00    -0.019 C 
ATOM     22  C   LIG d   1      10.045   5.538  -5.079  0.00  0.00    -0.019 C 
ATOM     23  C   LIG d   1       9.596   6.806  -5.045  0.00  0.00    -0.142 C 
ATOM     24  O   LIG d   1      10.451   7.828  -5.248  0.00  0.00    -0.879 OA
ATOM     25  C   LIG d   1      11.397   5.288  -5.322  0.00  0.00     0.164 C 
ATOM     26  O   LIG d   1      12.127   6.225  -5.574  0.00  0.00    -0.292 OA
ATOM     27  C   LIG d   1      11.990   3.909  -5.273  0.00  0.00     0.031 C 
ATOM     28  C   LIG d   1       4.235  -2.477  -5.295  0.00  0.00    -0.036 C 
ATOM     29  C   LIG d   1       3.470  -1.546  -4.320  0.00  0.00    -0.045 C 
ATOM     30  H   LIG d   1       6.954  -3.022  -5.709  0.00  0.00     0.028 H 
ATOM     31  H   LIG d   1       6.273  -2.784  -7.328  0.00  0.00     0.028 H 
ATOM     32  H   LIG d   1       8.512  -1.762  -7.106  0.00  0.00     0.027 H 
ATOM     33  H   LIG d   1       7.228  -0.582  -7.503  0.00  0.00     0.027 H 
ATOM     34  H   LIG d   1       6.331   1.495  -3.185  0.00  0.00     0.027 H 
ATOM     35  H   LIG d   1       7.582   0.294  -2.826  0.00  0.00     0.027 H 
ATOM     36  H   LIG d   1       7.864   3.004  -3.624  0.00  0.00     0.027 H 
ATOM     37  H   LIG d   1       9.176   1.833  -3.357  0.00  0.00     0.027 H 
ATOM     38  H   LIG d   1      10.348   0.419  -4.128  0.00  0.00     0.027 H 
ATOM     39  H   LIG d   1      10.820  -0.565  -5.559  0.00  0.00     0.027 H 
ATOM     40  H   LIG d   1      12.389   1.228  -5.168  0.00  0.00     0.027 H 
ATOM     41  H   LIG d   1      11.545   1.482  -6.702  0.00  0.00     0.027 H 
ATOM     42  H   LIG d   1       8.092   4.689  -5.195  0.00  0.00     0.032 H 
ATOM     43  H   LIG d   1       9.081   4.168  -3.793  0.00  0.00     0.032 H 
ATOM     44  H   LIG d   1       8.552   7.005  -4.857  0.00  0.00     0.045 H 
ATOM     45  H   LIG d   1       3.594  -2.783  -6.117  0.00  0.00     0.028 H 
ATOM     46  H   LIG d   1       4.646  -3.333  -4.770  0.00  0.00     0.028 H 
ATOM     47  H   LIG d   1       3.178  -2.102  -3.428  0.00  0.00     0.027 H 
ATOM     48  H   LIG d   1       2.590  -1.130  -4.805  0.00  0.00     0.027 H 
ENDROOT
BRANCH   1  49
ATOM     49  C   LIG d   1       4.530  -0.314  -2.423  0.00  0.00    -0.076 C 
ATOM     50  C   LIG d   1       4.670  -1.401  -1.706  0.00  0.00    -0.099 C 
ATOM     51  H   LIG d   1       4.733  -2.363  -2.192  0.00  0.00     0.053 H 
ATOM     52  H   LIG d   1       4.723  -1.335  -0.629  0.00  0.00     0.053 H 
BRANCH  49  53
ATOM     53  C   LIG d   1       4.441   1.029  -1.745  0.00  0.00    -0.044 C 
ATOM     54  H   LIG d   1       3.625   1.604  -2.184  0.00  0.00     0.027 H 
ATOM     55  H   LIG d   1       4.255   0.887  -0.681  0.00  0.00     0.027 H 
ATOM     56  H   LIG d   1       5.379   1.568  -1.882  0.00  0.00     0.027 H 
ENDBRANCH  49  53
ENDBRANCH   1  49
BRANCH   5  57
ATOM     57  C   LIG d   1       4.771  -0.614  -6.804  0.00  0.00     0.313 C 
ATOM     58  O   LIG d   1       5.144   0.535  -6.829  0.00  0.00    -0.250 OA
BRANCH  57  59
ATOM     59  O   LIG d   1       3.824  -1.029  -7.661  0.00  0.00    -0.468 OA
BRANCH  59  60
ATOM     60  C   LIG d   1       2.688  -0.181  -7.833  0.00  0.00     0.082 C 
ATOM     61  H   LIG d   1       2.695   0.236  -8.840  0.00  0.00     0.066 H 
ATOM     62  H   LIG d   1       1.776  -0.760  -7.686  0.00  0.00     0.066 H 
ATOM     63  H   LIG d   1       2.725   0.628  -7.104  0.00  0.00     0.066 H 
ENDBRANCH  59  60
ENDBRANCH  57  59
ENDBRANCH   5  57
BRANCH   8  64
ATOM     64  C   LIG d   1       8.681  -1.391  -4.502  0.00  0.00    -0.059 C 
ATOM     65  H   LIG d   1       8.273  -2.390  -4.663  0.00  0.00     0.024 H 
ATOM     66  H   LIG d   1       9.761  -1.412  -4.654  0.00  0.00     0.024 H 
ATOM     67  H   LIG d   1       8.462  -1.069  -3.485  0.00  0.00     0.024 H 
ENDBRANCH   8  64
BRANCH  15  68
ATOM     68  C   LIG d   1       9.266   0.637  -7.389  0.00  0.00    -0.059 C 
ATOM     69  H   LIG d   1       9.516  -0.377  -7.699  0.00  0.00     0.024 H 
ATOM     70  H   LIG d   1       8.347   0.952  -7.883  0.00  0.00     0.024 H 
ATOM     71  H   LIG d   1      10.076   1.312  -7.665  0.00  0.00     0.024 H 
ENDBRANCH  15  68
BRANCH  20  72
ATOM     72  C   LIG d   1       9.620   3.608  -7.122  0.00  0.00    -0.059 C 
ATOM     73  H   LIG d   1       9.683   4.695  -7.183  0.00  0.00     0.024 H 
ATOM     74  H   LIG d   1      10.493   3.167  -7.602  0.00  0.00     0.024 H 
ATOM     75  H   LIG d   1       8.716   3.268  -7.627  0.00  0.00     0.024 H 
ENDBRANCH  20  72
BRANCH  27  76
ATOM     76  C   LIG d   1      12.938   3.869  -4.057  0.00  0.00    -0.052 C 
ATOM     77  H   LIG d   1      13.444   2.903  -4.022  0.00  0.00     0.024 H 
ATOM     78  H   LIG d   1      13.679   4.663  -4.147  0.00  0.00     0.024 H 
ATOM     79  H   LIG d   1      12.363   4.011  -3.143  0.00  0.00     0.024 H 
ENDBRANCH  27  76
BRANCH  27  80
ATOM     80  C   LIG d   1      12.840   3.690  -6.526  0.00  0.00    -0.052 C 
ATOM     81  H   LIG d   1      12.458   2.832  -7.078  0.00  0.00     0.024 H 
ATOM     82  H   LIG d   1      12.793   4.577  -7.157  0.00  0.00     0.024 H 
ATOM     83  H   LIG d   1      13.874   3.505  -6.235  0.00  0.00     0.024 H 
ENDBRANCH  27  80
TORSDOF 10
ENDMDL
MODEL 2
REMARK VINA RESULT:      -6.3      4.024      6.459
REMARK  10 active torsions:
REMARK  status: ('A' for Active; 'I' for Inactive)
REMARK    1  A    between atoms: C_1  and  C_2 
REMARK    2  A    between atoms: C_2  and  C_4 
REMARK    3  A    between atoms: C_8  and  C_38 
REMARK    4  A    between atoms: C_11  and  C_35 
REMARK    5  A    between atoms: C_18  and  C_34 
REMARK    6  A    between atoms: C_23  and  C_33 
REMARK    7  A    between atoms: C_30  and  C_31 
REMARK    8  A    between atoms: C_30  and  C_32 
REMARK    9  A    between atoms: C_38  and  O_40 
REMARK   10  A    between atoms: O_40  and  C_41 
ROOT
ATOM      1  C   LIG d   1       4.273   0.060  -4.345  0.00  0.00    -0.016 C 
ATOM      2  H   LIG d   1       5.189   0.643  -4.365  0.00  0.00     0.035 H 
ATOM      3  C   LIG d   1       4.396  -1.206  -5.202  0.00  0.00    -0.015 C 
ATOM      4  H   LIG d   1       3.631  -1.917  -4.863  0.00  0.00     0.032 H 
ATOM      5  C   LIG d   1       4.033  -0.678  -6.611  0.00  0.00     0.071 C 
ATOM      6  C   LIG d   1       3.895  -1.856  -7.545  0.00  0.00    -0.036 C 
ATOM      7  C   LIG d   1       5.244  -2.599  -7.604  0.00  0.00    -0.046 C 
ATOM      8  C   LIG d   1       5.704  -3.064  -6.221  0.00  0.00    -0.023 C 
ATOM      9  C   LIG d   1       5.753  -1.872  -5.252  0.00  0.00    -0.031 C 
ATOM     10  H   LIG d   1       6.510  -1.160  -5.592  0.00  0.00     0.031 H 
ATOM     11  C   LIG d   1       6.153  -2.359  -3.859  0.00  0.00    -0.049 C 
ATOM     12  C   LIG d   1       7.494  -3.080  -3.920  0.00  0.00    -0.049 C 
ATOM     13  C   LIG d   1       8.064  -3.074  -5.344  0.00  0.00    -0.029 C 
ATOM     14  H   LIG d   1       8.206  -2.033  -5.655  0.00  0.00     0.031 H 
ATOM     15  C   LIG d   1       7.079  -3.743  -6.298  0.00  0.00    -0.023 C 
ATOM     16  C   LIG d   1       6.975  -5.231  -5.954  0.00  0.00    -0.046 C 
ATOM     17  C   LIG d   1       8.365  -5.881  -6.071  0.00  0.00    -0.048 C 
ATOM     18  C   LIG d   1       9.294  -5.245  -5.046  0.00  0.00    -0.023 C 
ATOM     19  H   LIG d   1       8.794  -5.362  -4.051  0.00  0.00     0.032 H 
ATOM     20  C   LIG d   1       9.439  -3.747  -5.280  0.00  0.00    -0.021 C 
ATOM     21  C   LIG d   1      10.172  -3.176  -4.040  0.00  0.00    -0.019 C 
ATOM     22  C   LIG d   1      11.530  -3.823  -3.968  0.00  0.00    -0.019 C 
ATOM     23  C   LIG d   1      12.558  -3.135  -3.437  0.00  0.00    -0.142 C 
ATOM     24  O   LIG d   1      13.779  -3.699  -3.365  0.00  0.00    -0.879 OA
ATOM     25  C   LIG d   1      11.735  -5.120  -4.439  0.00  0.00     0.164 C 
ATOM     26  O   LIG d   1      12.861  -5.573  -4.427  0.00  0.00    -0.292 OA
ATOM     27  C   LIG d   1      10.619  -5.985  -4.949  0.00  0.00     0.031 C 
ATOM     28  C   LIG d   1       2.752   0.113  -6.317  0.00  0.00    -0.036 C 
ATOM     29  C   LIG d   1       3.095   0.844  -4.994  0.00  0.00    -0.045 C 
ATOM     30  H   LIG d   1       3.103  -2.522  -7.211  0.00  0.00     0.028 H 
ATOM     31  H   LIG d   1       3.647  -1.496  -8.551  0.00  0.00     0.028 H 
ATOM     32  H   LIG d   1       5.101  -3.472  -8.245  0.00  0.00     0.027 H 
ATOM     33  H   LIG d   1       5.963  -1.917  -8.047  0.00  0.00     0.027 H 
ATOM     34  H   LIG d   1       6.268  -1.487  -3.201  0.00  0.00     0.027 H 
ATOM     35  H   LIG d   1       5.391  -3.007  -3.438  0.00  0.00     0.027 H 
ATOM     36  H   LIG d   1       8.187  -2.553  -3.255  0.00  0.00     0.027 H 
ATOM     37  H   LIG d   1       7.381  -4.106  -3.574  0.00  0.00     0.027 H 
ATOM     38  H   LIG d   1       6.643  -5.369  -4.926  0.00  0.00     0.027 H 
ATOM     39  H   LIG d   1       6.317  -5.740  -6.656  0.00  0.00     0.027 H 
ATOM     40  H   LIG d   1       8.245  -6.947  -5.844  0.00  0.00     0.027 H 
ATOM     41  H   LIG d   1       8.734  -5.780  -7.080  0.00  0.00     0.027 H 
ATOM     42  H   LIG d   1      10.277  -2.106  -4.147  0.00  0.00     0.032 H 
ATOM     43  H   LIG d   1       9.623  -3.442  -3.144  0.00  0.00     0.032 H 
ATOM     44  H   LIG d   1      12.404  -2.131  -3.070  0.00  0.00     0.045 H 
ATOM     45  H   LIG d   1       2.562   0.827  -7.112  0.00  0.00     0.028 H 
ATOM     46  H   LIG d   1       1.916  -0.564  -6.179  0.00  0.00     0.028 H 
ATOM     47  H   LIG d   1       2.231   0.831  -4.327  0.00  0.00     0.027 H 
ATOM     48  H   LIG d   1       3.394   1.871  -5.195  0.00  0.00     0.027 H 
ENDROOT
BRANCH   1  49
ATOM     49  C   LIG d   1       3.903  -0.292  -2.921  0.00  0.00    -0.076 C 
ATOM     50  C   LIG d   1       3.000  -1.210  -2.687  0.00  0.00    -0.099 C 
ATOM     51  H   LIG d   1       2.519  -1.717  -3.510  0.00  0.00     0.053 H 
ATOM     52  H   LIG d   1       2.737  -1.462  -1.670  0.00  0.00     0.053 H 
BRANCH  49  53
ATOM     53  C   LIG d   1       4.576   0.415  -1.773  0.00  0.00    -0.044 C 
ATOM     54  H   LIG d   1       5.013  -0.322  -1.099  0.00  0.00     0.027 H 
ATOM     55  H   LIG d   1       5.360   1.067  -2.157  0.00  0.00     0.027 H 
ATOM     56  H   LIG d   1       3.840   1.011  -1.232  0.00  0.00     0.027 H 
ENDBRANCH  49  53
ENDBRANCH   1  49
BRANCH   5  57
ATOM     57  C   LIG d   1       5.067   0.290  -7.123  0.00  0.00     0.313 C 
ATOM     58  O   LIG d   1       4.819   0.990  -8.076  0.00  0.00    -0.250 OA
BRANCH  57  59
ATOM     59  O   LIG d   1       6.265   0.373  -6.523  0.00  0.00    -0.468 OA
BRANCH  59  60
ATOM     60  C   LIG d   1       7.391   0.651  -7.357  0.00  0.00     0.082 C 
ATOM     61  H   LIG d   1       8.299   0.294  -6.872  0.00  0.00     0.066 H 
ATOM     62  H   LIG d   1       7.266   0.145  -8.314  0.00  0.00     0.066 H 
ATOM     63  H   LIG d   1       7.464   1.725  -7.522  0.00  0.00     0.066 H 
ENDBRANCH  59  60
ENDBRANCH  57  59
ENDBRANCH   5  57
BRANCH   8  64
ATOM     64  C   LIG d   1       4.668  -4.076  -5.717  0.00  0.00    -0.059 C 
ATOM     65  H   LIG d   1       3.730  -3.934  -6.254  0.00  0.00     0.024 H 
ATOM     66  H   LIG d   1       5.035  -5.088  -5.889  0.00  0.00     0.024 H 
ATOM     67  H   LIG d   1       4.502  -3.926  -4.651  0.00  0.00     0.024 H 
ENDBRANCH   8  64
BRANCH  15  68
ATOM     68  C   LIG d   1       7.578  -3.637  -7.750  0.00  0.00    -0.059 C 
ATOM     69  H   LIG d   1       7.520  -2.600  -8.079  0.00  0.00     0.024 H 
ATOM     70  H   LIG d   1       8.611  -3.979  -7.805  0.00  0.00     0.024 H 
ATOM     71  H   LIG d   1       6.955  -4.259  -8.393  0.00  0.00     0.024 H 
ENDBRANCH  15  68
BRANCH  20  72
ATOM     72  C   LIG d   1      10.297  -3.409  -6.495  0.00  0.00    -0.059 C 
ATOM     73  H   LIG d   1       9.696  -2.867  -7.225  0.00  0.00     0.024 H 
ATOM     74  H   LIG d   1      11.138  -2.789  -6.185  0.00  0.00     0.024 H 
ATOM     75  H   LIG d   1      10.670  -4.330  -6.944  0.00  0.00     0.024 H 
ENDBRANCH  20  72
BRANCH  27  76
ATOM     76  C   LIG d   1      10.451  -7.144  -3.945  0.00  0.00    -0.052 C 
ATOM     77  H   LIG d   1      11.152  -7.015  -3.120  0.00  0.00     0.024 H 
ATOM     78  H   LIG d   1       9.432  -7.145  -3.558  0.00  0.00     0.024 H 
ATOM     79  H   LIG d   1      10.650  -8.091  -4.446  0.00  0.00     0.024 H 
ENDBRANCH  27  76
BRANCH  27  80
ATOM     80  C   LIG d   1      11.035  -6.595  -6.289  0.00  0.00    -0.052 C 
ATOM     81  H   LIG d   1      11.809  -7.343  -6.122  0.00  0.00     0.024 H 
ATOM     82  H   LIG d   1      10.171  -7.064  -6.759  0.00  0.00     0.024 H 
ATOM     83  H   LIG d   1      11.421  -5.810  -6.940  0.00  0.00     0.024 H 
ENDBRANCH  27  80
TORSDOF 10
ENDMDL
MODEL 3
REMARK VINA RESULT:      -6.1      3.462      6.453
REMARK  10 active torsions:
REMARK  status: ('A' for Active; 'I' for Inactive)
REMARK    1  A    between atoms: C_1  and  C_2 
REMARK    2  A    between atoms: C_2  and  C_4 
REMARK    3  A    between atoms: C_8  and  C_38 
REMARK    4  A    between atoms: C_11  and  C_35 
REMARK    5  A    between atoms: C_18  and  C_34 
REMARK    6  A    between atoms: C_23  and  C_33 
REMARK    7  A    between atoms: C_30  and  C_31 
REMARK    8  A    between atoms: C_30  and  C_32 
REMARK    9  A    between atoms: C_38  and  O_40 
REMARK   10  A    between atoms: O_40  and  C_41 
ROOT
ATOM      1  C   LIG d   1      10.912   0.713  -5.473  0.00  0.00    -0.016 C 
ATOM      2  H   LIG d   1      10.295   0.579  -4.589  0.00  0.00     0.035 H 
ATOM      3  C   LIG d   1      10.953   2.182  -5.911  0.00  0.00    -0.015 C 
ATOM      4  H   LIG d   1      11.844   2.322  -6.537  0.00  0.00     0.032 H 
ATOM      5  C   LIG d   1       9.678   2.295  -6.781  0.00  0.00     0.071 C 
ATOM      6  C   LIG d   1       9.685   3.637  -7.472  0.00  0.00    -0.036 C 
ATOM      7  C   LIG d   1       9.676   4.743  -6.401  0.00  0.00    -0.046 C 
ATOM      8  C   LIG d   1      10.867   4.627  -5.447  0.00  0.00    -0.023 C 
ATOM      9  C   LIG d   1      10.905   3.226  -4.817  0.00  0.00    -0.031 C 
ATOM     10  H   LIG d   1      10.014   3.083  -4.198  0.00  0.00     0.031 H 
ATOM     11  C   LIG d   1      12.133   3.102  -3.916  0.00  0.00    -0.049 C 
ATOM     12  C   LIG d   1      12.114   4.190  -2.847  0.00  0.00    -0.049 C 
ATOM     13  C   LIG d   1      10.856   5.061  -2.967  0.00  0.00    -0.029 C 
ATOM     14  H   LIG d   1       9.978   4.421  -2.837  0.00  0.00     0.031 H 
ATOM     15  C   LIG d   1      10.800   5.701  -4.350  0.00  0.00    -0.023 C 
ATOM     16  C   LIG d   1      11.952   6.700  -4.492  0.00  0.00    -0.046 C 
ATOM     17  C   LIG d   1      11.834   7.774  -3.397  0.00  0.00    -0.048 C 
ATOM     18  C   LIG d   1      11.980   7.108  -2.035  0.00  0.00    -0.023 C 
ATOM     19  H   LIG d   1      12.952   6.553  -2.058  0.00  0.00     0.032 H 
ATOM     20  C   LIG d   1      10.894   6.064  -1.808  0.00  0.00    -0.021 C 
ATOM     21  C   LIG d   1      11.300   5.278  -0.535  0.00  0.00    -0.019 C 
ATOM     22  C   LIG d   1      11.333   6.248   0.616  0.00  0.00    -0.019 C 
ATOM     23  C   LIG d   1      11.043   5.809   1.854  0.00  0.00    -0.142 C 
ATOM     24  O   LIG d   1      11.069   6.665   2.894  0.00  0.00    -0.879 OA
ATOM     25  C   LIG d   1      11.662   7.590   0.416  0.00  0.00     0.164 C 
ATOM     26  O   LIG d   1      11.605   8.351   1.360  0.00  0.00    -0.292 OA
ATOM     27  C   LIG d   1      12.095   8.130  -0.916  0.00  0.00     0.031 C 
ATOM     28  C   LIG d   1       9.819   1.062  -7.683  0.00  0.00    -0.036 C 
ATOM     29  C   LIG d   1      10.307  -0.032  -6.699  0.00  0.00    -0.045 C 
ATOM     30  H   LIG d   1      10.554   3.732  -8.119  0.00  0.00     0.028 H 
ATOM     31  H   LIG d   1       8.781   3.734  -8.086  0.00  0.00     0.028 H 
ATOM     32  H   LIG d   1       9.732   5.699  -6.927  0.00  0.00     0.027 H 
ATOM     33  H   LIG d   1       8.736   4.660  -5.865  0.00  0.00     0.027 H 
ATOM     34  H   LIG d   1      12.099   2.129  -3.407  0.00  0.00     0.027 H 
ATOM     35  H   LIG d   1      13.050   3.153  -4.494  0.00  0.00     0.027 H 
ATOM     36  H   LIG d   1      12.115   3.697  -1.869  0.00  0.00     0.027 H 
ATOM     37  H   LIG d   1      13.002   4.812  -2.934  0.00  0.00     0.027 H 
ATOM     38  H   LIG d   1      12.913   6.207  -4.354  0.00  0.00     0.027 H 
ATOM     39  H   LIG d   1      11.900   7.209  -5.454  0.00  0.00     0.027 H 
ATOM     40  H   LIG d   1      12.657   8.483  -3.547  0.00  0.00     0.027 H 
ATOM     41  H   LIG d   1      10.898   8.302  -3.498  0.00  0.00     0.027 H 
ATOM     42  H   LIG d   1      10.570   4.504  -0.345  0.00  0.00     0.032 H 
ATOM     43  H   LIG d   1      12.296   4.872  -0.665  0.00  0.00     0.032 H 
ATOM     44  H   LIG d   1      10.789   4.772   2.014  0.00  0.00     0.045 H 
ATOM     45  H   LIG d   1       8.854   0.795  -8.105  0.00  0.00     0.028 H 
ATOM     46  H   LIG d   1      10.557   1.244  -8.456  0.00  0.00     0.028 H 
ATOM     47  H   LIG d   1      11.074  -0.644  -7.175  0.00  0.00     0.027 H 
ATOM     48  H   LIG d   1       9.475  -0.657  -6.383  0.00  0.00     0.027 H 
ENDROOT
BRANCH   1  49
ATOM     49  C   LIG d   1      12.310   0.191  -5.222  0.00  0.00    -0.076 C 
ATOM     50  C   LIG d   1      12.547  -0.574  -4.187  0.00  0.00    -0.099 C 
ATOM     51  H   LIG d   1      11.745  -0.833  -3.512  0.00  0.00     0.053 H 
ATOM     52  H   LIG d   1      13.545  -0.947  -4.008  0.00  0.00     0.053 H 
BRANCH  49  53
ATOM     53  C   LIG d   1      13.429   0.553  -6.165  0.00  0.00    -0.044 C 
ATOM     54  H   LIG d   1      13.577  -0.256  -6.880  0.00  0.00     0.027 H 
ATOM     55  H   LIG d   1      13.172   1.468  -6.699  0.00  0.00     0.027 H 
ATOM     56  H   LIG d   1      14.346   0.709  -5.597  0.00  0.00     0.027 H 
ENDBRANCH  49  53
ENDBRANCH   1  49
BRANCH   5  57
ATOM     57  C   LIG d   1       8.428   2.126  -5.958  0.00  0.00     0.313 C 
ATOM     58  O   LIG d   1       7.396   1.790  -6.488  0.00  0.00    -0.250 OA
BRANCH  57  59
ATOM     59  O   LIG d   1       8.460   2.349  -4.635  0.00  0.00    -0.468 OA
BRANCH  59  60
ATOM     60  C   LIG d   1       7.668   1.491  -3.812  0.00  0.00     0.082 C 
ATOM     61  H   LIG d   1       6.986   2.092  -3.211  0.00  0.00     0.066 H 
ATOM     62  H   LIG d   1       7.096   0.811  -4.442  0.00  0.00     0.066 H 
ATOM     63  H   LIG d   1       8.320   0.915  -3.155  0.00  0.00     0.066 H 
ENDBRANCH  59  60
ENDBRANCH  57  59
ENDBRANCH   5  57
BRANCH   8  64
ATOM     64  C   LIG d   1      12.136   4.835  -6.281  0.00  0.00    -0.059 C 
ATOM     65  H   LIG d   1      12.898   5.319  -5.670  0.00  0.00     0.024 H 
ATOM     66  H   LIG d   1      12.507   3.869  -6.626  0.00  0.00     0.024 H 
ATOM     67  H   LIG d   1      11.907   5.465  -7.141  0.00  0.00     0.024 H 
ENDBRANCH   8  64
BRANCH  15  68
ATOM     68  C   LIG d   1       9.486   6.480  -4.532  0.00  0.00    -0.059 C 
ATOM     69  H   LIG d   1       9.710   7.531  -4.718  0.00  0.00     0.024 H 
ATOM     70  H   LIG d   1       8.935   6.071  -5.378  0.00  0.00     0.024 H 
ATOM     71  H   LIG d   1       8.883   6.391  -3.629  0.00  0.00     0.024 H 
ENDBRANCH  15  68
BRANCH  20  72
ATOM     72  C   LIG d   1       9.523   6.672  -1.534  0.00  0.00    -0.059 C 
ATOM     73  H   LIG d   1       8.850   6.438  -2.360  0.00  0.00     0.024 H 
ATOM     74  H   LIG d   1       9.120   6.259  -0.610  0.00  0.00     0.024 H 
ATOM     75  H   LIG d   1       9.618   7.753  -1.438  0.00  0.00     0.024 H 
ENDBRANCH  20  72
BRANCH  27  76
ATOM     76  C   LIG d   1      13.580   8.529  -0.780  0.00  0.00    -0.052 C 
ATOM     77  H   LIG d   1      14.110   8.278  -1.699  0.00  0.00     0.024 H 
ATOM     78  H   LIG d   1      13.653   9.601  -0.600  0.00  0.00     0.024 H 
ATOM     79  H   LIG d   1      14.026   7.989   0.055  0.00  0.00     0.024 H 
ENDBRANCH  27  76
BRANCH  27  80
ATOM     80  C   LIG d   1      11.303   9.404  -1.217  0.00  0.00    -0.052 C 
ATOM     81  H   LIG d   1      11.984  10.253  -1.261  0.00  0.00     0.024 H 
ATOM     82  H   LIG d   1      10.793   9.297  -2.174  0.00  0.00     0.024 H 
ATOM     83  H   LIG d   1      10.567   9.568  -0.430  0.00  0.00     0.024 H 
ENDBRANCH  27  80
TORSDOF 10
ENDMDL
MODEL 4
REMARK VINA RESULT:      -6.0      2.275      7.892
REMARK  10 active torsions:
REMARK  status: ('A' for Active; 'I' for Inactive)
REMARK    1  A    between atoms: C_1  and  C_2 
REMARK    2  A    between atoms: C_2  and  C_4 
REMARK    3  A    between atoms: C_8  and  C_38 
REMARK    4  A    between atoms: C_11  and  C_35 
REMARK    5  A    between atoms: C_18  and  C_34 
REMARK    6  A    between atoms: C_23  and  C_33 
REMARK    7  A    between atoms: C_30  and  C_31 
REMARK    8  A    between atoms: C_30  and  C_32 
REMARK    9  A    between atoms: C_38  and  O_40 
REMARK   10  A    between atoms: O_40  and  C_41 
ROOT
ATOM      1  C   LIG d   1      11.585   4.033  -3.244  0.00  0.00    -0.016 C 
ATOM      2  H   LIG d   1      11.479   3.309  -2.441  0.00  0.00     0.035 H 
ATOM      3  C   LIG d   1      11.209   3.424  -4.601  0.00  0.00    -0.015 C 
ATOM      4  H   LIG d   1      10.973   4.249  -5.286  0.00  0.00     0.032 H 
ATOM      5  C   LIG d   1      12.535   2.751  -5.030  0.00  0.00     0.071 C 
ATOM      6  C   LIG d   1      12.397   2.284  -6.458  0.00  0.00    -0.036 C 
ATOM      7  C   LIG d   1      11.250   1.258  -6.533  0.00  0.00    -0.046 C 
ATOM      8  C   LIG d   1       9.927   1.838  -6.030  0.00  0.00    -0.023 C 
ATOM      9  C   LIG d   1      10.101   2.395  -4.608  0.00  0.00    -0.031 C 
ATOM     10  H   LIG d   1      10.343   1.575  -3.926  0.00  0.00     0.031 H 
ATOM     11  C   LIG d   1       8.791   3.028  -4.141  0.00  0.00    -0.049 C 
ATOM     12  C   LIG d   1       7.661   2.005  -4.203  0.00  0.00    -0.049 C 
ATOM     13  C   LIG d   1       8.176   0.640  -4.677  0.00  0.00    -0.029 C 
ATOM     14  H   LIG d   1       8.932   0.290  -3.967  0.00  0.00     0.031 H 
ATOM     15  C   LIG d   1       8.817   0.778  -6.053  0.00  0.00    -0.023 C 
ATOM     16  C   LIG d   1       7.738   1.138  -7.079  0.00  0.00    -0.046 C 
ATOM     17  C   LIG d   1       6.661   0.039  -7.095  0.00  0.00    -0.048 C 
ATOM     18  C   LIG d   1       5.987  -0.009  -5.730  0.00  0.00    -0.023 C 
ATOM     19  H   LIG d   1       5.612   1.026  -5.526  0.00  0.00     0.032 H 
ATOM     20  C   LIG d   1       6.988  -0.328  -4.627  0.00  0.00    -0.021 C 
ATOM     21  C   LIG d   1       6.254  -0.085  -3.283  0.00  0.00    -0.019 C 
ATOM     22  C   LIG d   1       5.089  -1.035  -3.215  0.00  0.00    -0.019 C 
ATOM     23  C   LIG d   1       4.677  -1.485  -2.015  0.00  0.00    -0.142 C 
ATOM     24  O   LIG d   1       3.635  -2.335  -1.937  0.00  0.00    -0.879 OA
ATOM     25  C   LIG d   1       4.431  -1.451  -4.373  0.00  0.00     0.164 C 
ATOM     26  O   LIG d   1       3.544  -2.274  -4.276  0.00  0.00    -0.292 OA
ATOM     27  C   LIG d   1       4.766  -0.915  -5.735  0.00  0.00     0.031 C 
ATOM     28  C   LIG d   1      13.543   3.879  -4.775  0.00  0.00    -0.036 C 
ATOM     29  C   LIG d   1      13.070   4.464  -3.419  0.00  0.00    -0.045 C 
ATOM     30  H   LIG d   1      12.207   3.125  -7.121  0.00  0.00     0.028 H 
ATOM     31  H   LIG d   1      13.328   1.796  -6.773  0.00  0.00     0.028 H 
ATOM     32  H   LIG d   1      11.141   0.976  -7.583  0.00  0.00     0.027 H 
ATOM     33  H   LIG d   1      11.552   0.400  -5.940  0.00  0.00     0.027 H 
ATOM     34  H   LIG d   1       8.905   3.342  -3.095  0.00  0.00     0.027 H 
ATOM     35  H   LIG d   1       8.545   3.902  -4.735  0.00  0.00     0.027 H 
ATOM     36  H   LIG d   1       7.250   1.902  -3.193  0.00  0.00     0.027 H 
ATOM     37  H   LIG d   1       6.878   2.355  -4.872  0.00  0.00     0.027 H 
ATOM     38  H   LIG d   1       7.241   2.069  -6.810  0.00  0.00     0.027 H 
ATOM     39  H   LIG d   1       8.165   1.190  -8.080  0.00  0.00     0.027 H 
ATOM     40  H   LIG d   1       5.924   0.318  -7.856  0.00  0.00     0.027 H 
ATOM     41  H   LIG d   1       7.103  -0.906  -7.369  0.00  0.00     0.027 H 
ATOM     42  H   LIG d   1       6.935  -0.274  -2.465  0.00  0.00     0.032 H 
ATOM     43  H   LIG d   1       5.868   0.927  -3.263  0.00  0.00     0.032 H 
ATOM     44  H   LIG d   1       5.181  -1.165  -1.116  0.00  0.00     0.045 H 
ATOM     45  H   LIG d   1      14.546   3.472  -4.688  0.00  0.00     0.028 H 
ATOM     46  H   LIG d   1      13.480   4.624  -5.560  0.00  0.00     0.028 H 
ATOM     47  H   LIG d   1      13.139   5.552  -3.441  0.00  0.00     0.027 H 
ATOM     48  H   LIG d   1      13.673   4.069  -2.605  0.00  0.00     0.027 H 
ENDROOT
BRANCH   1  49
ATOM     49  C   LIG d   1      10.748   5.260  -2.959  0.00  0.00    -0.076 C 
ATOM     50  C   LIG d   1      10.293   5.477  -1.751  0.00  0.00    -0.099 C 
ATOM     51  H   LIG d   1      10.516   4.780  -0.957  0.00  0.00     0.053 H 
ATOM     52  H   LIG d   1       9.696   6.354  -1.547  0.00  0.00     0.053 H 
BRANCH  49  53
ATOM     53  C   LIG d   1      10.437   6.233  -4.067  0.00  0.00    -0.044 C 
ATOM     54  H   LIG d   1       9.562   6.825  -3.797  0.00  0.00     0.027 H 
ATOM     55  H   LIG d   1      11.290   6.896  -4.219  0.00  0.00     0.027 H 
ATOM     56  H   LIG d   1      10.235   5.685  -4.987  0.00  0.00     0.027 H 
ENDBRANCH  49  53
ENDBRANCH   1  49
BRANCH   5  57
ATOM     57  C   LIG d   1      12.891   1.600  -4.125  0.00  0.00     0.313 C 
ATOM     58  O   LIG d   1      12.040   1.088  -3.437  0.00  0.00    -0.250 OA
BRANCH  57  59
ATOM     59  O   LIG d   1      14.153   1.145  -4.081  0.00  0.00    -0.468 OA
BRANCH  59  60
ATOM     60  C   LIG d   1      14.464   0.193  -3.062  0.00  0.00     0.082 C 
ATOM     61  H   LIG d   1      15.137  -0.563  -3.465  0.00  0.00     0.066 H 
ATOM     62  H   LIG d   1      14.944   0.700  -2.226  0.00  0.00     0.066 H 
ATOM     63  H   LIG d   1      13.546  -0.284  -2.719  0.00  0.00     0.066 H 
ENDBRANCH  59  60
ENDBRANCH  57  59
ENDBRANCH   5  57
BRANCH   8  64
ATOM     64  C   LIG d   1       9.550   2.987  -6.974  0.00  0.00    -0.059 C 
ATOM     65  H   LIG d   1       9.274   2.581  -7.947  0.00  0.00     0.024 H 
ATOM     66  H   LIG d   1       8.706   3.537  -6.557  0.00  0.00     0.024 H 
ATOM     67  H   LIG d   1      10.401   3.657  -7.088  0.00  0.00     0.024 H 
ENDBRANCH   8  64
BRANCH  15  68
ATOM     68  C   LIG d   1       9.446  -0.556  -6.493  0.00  0.00    -0.059 C 
ATOM     69  H   LIG d   1       9.069  -0.828  -7.478  0.00  0.00     0.024 H 
ATOM     70  H   LIG d   1      10.530  -0.449  -6.535  0.00  0.00     0.024 H 
ATOM     71  H   LIG d   1       9.186  -1.333  -5.775  0.00  0.00     0.024 H 
ENDBRANCH  15  68
BRANCH  20  72
ATOM     72  C   LIG d   1       7.439  -1.785  -4.627  0.00  0.00    -0.059 C 
ATOM     73  H   LIG d   1       8.512  -1.834  -4.813  0.00  0.00     0.024 H 
ATOM     74  H   LIG d   1       7.218  -2.234  -3.658  0.00  0.00     0.024 H 
ATOM     75  H   LIG d   1       6.909  -2.329  -5.409  0.00  0.00     0.024 H 
ENDBRANCH  20  72
BRANCH  27  76
ATOM     76  C   LIG d   1       3.553  -0.085  -6.204  0.00  0.00    -0.052 C 
ATOM     77  H   LIG d   1       3.328   0.681  -5.462  0.00  0.00     0.024 H 
ATOM     78  H   LIG d   1       3.784   0.390  -7.158  0.00  0.00     0.024 H 
ATOM     79  H   LIG d   1       2.690  -0.739  -6.324  0.00  0.00     0.024 H 
ENDBRANCH  27  76
BRANCH  27  80
ATOM     80  C   LIG d   1       4.924  -2.087  -6.706  0.00  0.00    -0.052 C 
ATOM     81  H   LIG d   1       4.669  -1.761  -7.713  0.00  0.00     0.024 H 
ATOM     82  H   LIG d   1       5.956  -2.437  -6.687  0.00  0.00     0.024 H 
ATOM     83  H   LIG d   1       4.261  -2.898  -6.406  0.00  0.00     0.024 H 
ENDBRANCH  27  80
TORSDOF 10
ENDMDL
MODEL 5
REMARK VINA RESULT:      -5.8      5.887     10.036
REMARK  10 active torsions:
REMARK  status: ('A' for Active; 'I' for Inactive)
REMARK    1  A    between atoms: C_1  and  C_2 
REMARK    2  A    between atoms: C_2  and  C_4 
REMARK    3  A    between atoms: C_8  and  C_38 
REMARK    4  A    between atoms: C_11  and  C_35 
REMARK    5  A    between atoms: C_18  and  C_34 
REMARK    6  A    between atoms: C_23  and  C_33 
REMARK    7  A    between atoms: C_30  and  C_31 
REMARK    8  A    between atoms: C_30  and  C_32 
REMARK    9  A    between atoms: C_38  and  O_40 
REMARK   10  A    between atoms: O_40  and  C_41 
ROOT
ATOM      1  C   LIG d   1       0.082  -6.966 -11.181  0.00  0.00    -0.016 C 
ATOM      2  H   LIG d   1      -0.109  -6.723 -10.139  0.00  0.00     0.035 H 
ATOM      3  C   LIG d   1       0.277  -5.701 -12.025  0.00  0.00    -0.015 C 
ATOM      4  H   LIG d   1       0.819  -5.984 -12.937  0.00  0.00     0.032 H 
ATOM      5  C   LIG d   1      -1.181  -5.322 -12.379  0.00  0.00     0.071 C 
ATOM      6  C   LIG d   1      -1.155  -4.207 -13.397  0.00  0.00    -0.036 C 
ATOM      7  C   LIG d   1      -0.442  -2.991 -12.778  0.00  0.00    -0.046 C 
ATOM      8  C   LIG d   1       0.978  -3.329 -12.319  0.00  0.00    -0.023 C 
ATOM      9  C   LIG d   1       0.951  -4.524 -11.353  0.00  0.00    -0.031 C 
ATOM     10  H   LIG d   1       0.405  -4.244 -10.447  0.00  0.00     0.031 H 
ATOM     11  C   LIG d   1       2.378  -4.892 -10.952  0.00  0.00    -0.049 C 
ATOM     12  C   LIG d   1       3.076  -3.690 -10.326  0.00  0.00    -0.049 C 
ATOM     13  C   LIG d   1       2.134  -2.481 -10.250  0.00  0.00    -0.029 C 
ATOM     14  H   LIG d   1       1.272  -2.753  -9.631  0.00  0.00     0.031 H 
ATOM     15  C   LIG d   1       1.643  -2.119 -11.647  0.00  0.00    -0.023 C 
ATOM     16  C   LIG d   1       2.822  -1.610 -12.481  0.00  0.00    -0.046 C 
ATOM     17  C   LIG d   1       3.442  -0.381 -11.793  0.00  0.00    -0.048 C 
ATOM     18  C   LIG d   1       3.996  -0.803 -10.438  0.00  0.00    -0.023 C 
ATOM     19  H   LIG d   1       4.703  -1.648 -10.635  0.00  0.00     0.032 H 
ATOM     20  C   LIG d   1       2.900  -1.360  -9.538  0.00  0.00    -0.021 C 
ATOM     21  C   LIG d   1       3.613  -1.995  -8.317  0.00  0.00    -0.019 C 
ATOM     22  C   LIG d   1       4.364  -0.904  -7.602  0.00  0.00    -0.019 C 
ATOM     23  C   LIG d   1       4.538  -0.990  -6.271  0.00  0.00    -0.142 C 
ATOM     24  O   LIG d   1       5.209  -0.022  -5.616  0.00  0.00    -0.879 OA
ATOM     25  C   LIG d   1       4.882   0.189  -8.300  0.00  0.00     0.164 C 
ATOM     26  O   LIG d   1       5.417   1.080  -7.672  0.00  0.00    -0.292 OA
ATOM     27  C   LIG d   1       4.817   0.303  -9.795  0.00  0.00     0.031 C 
ATOM     28  C   LIG d   1      -1.736  -6.670 -12.856  0.00  0.00    -0.036 C 
ATOM     29  C   LIG d   1      -1.146  -7.669 -11.828  0.00  0.00    -0.045 C 
ATOM     30  H   LIG d   1      -0.651  -4.529 -14.306  0.00  0.00     0.028 H 
ATOM     31  H   LIG d   1      -2.183  -3.922 -13.651  0.00  0.00     0.028 H 
ATOM     32  H   LIG d   1      -0.393  -2.220 -13.551  0.00  0.00     0.027 H 
ATOM     33  H   LIG d   1      -1.052  -2.653 -11.946  0.00  0.00     0.027 H 
ATOM     34  H   LIG d   1       2.337  -5.689 -10.196  0.00  0.00     0.027 H 
ATOM     35  H   LIG d   1       2.942  -5.259 -11.804  0.00  0.00     0.027 H 
ATOM     36  H   LIG d   1       3.380  -3.970  -9.312  0.00  0.00     0.027 H 
ATOM     37  H   LIG d   1       3.960  -3.430 -10.904  0.00  0.00     0.027 H 
ATOM     38  H   LIG d   1       3.604  -2.366 -12.550  0.00  0.00     0.027 H 
ATOM     39  H   LIG d   1       2.485  -1.295 -13.467  0.00  0.00     0.027 H 
ATOM     40  H   LIG d   1       4.263  -0.032 -12.429  0.00  0.00     0.027 H 
ATOM     41  H   LIG d   1       2.707   0.404 -11.710  0.00  0.00     0.027 H 
ATOM     42  H   LIG d   1       2.875  -2.430  -7.659  0.00  0.00     0.032 H 
ATOM     43  H   LIG d   1       4.331  -2.730  -8.663  0.00  0.00     0.032 H 
ATOM     44  H   LIG d   1       4.141  -1.833  -5.727  0.00  0.00     0.045 H 
ATOM     45  H   LIG d   1      -2.821  -6.666 -12.809  0.00  0.00     0.028 H 
ATOM     46  H   LIG d   1      -1.380  -6.890 -13.857  0.00  0.00     0.028 H 
ATOM     47  H   LIG d   1      -0.825  -8.579 -12.337  0.00  0.00     0.027 H 
ATOM     48  H   LIG d   1      -1.885  -7.909 -11.066  0.00  0.00     0.027 H 
ENDROOT
BRANCH   1  49
ATOM     49  C   LIG d   1       1.286  -7.876 -11.296  0.00  0.00    -0.076 C 
ATOM     50  C   LIG d   1       1.806  -8.412 -10.221  0.00  0.00    -0.099 C 
ATOM     51  H   LIG d   1       1.376  -8.206  -9.252  0.00  0.00     0.053 H 
ATOM     52  H   LIG d   1       2.665  -9.062 -10.303  0.00  0.00     0.053 H 
BRANCH  49  53
ATOM     53  C   LIG d   1       1.885  -8.163 -12.648  0.00  0.00    -0.044 C 
ATOM     54  H   LIG d   1       1.146  -8.665 -13.274  0.00  0.00     0.027 H 
ATOM     55  H   LIG d   1       2.184  -7.227 -13.119  0.00  0.00     0.027 H 
ATOM     56  H   LIG d   1       2.757  -8.806 -12.530  0.00  0.00     0.027 H 
ENDBRANCH  49  53
ENDBRANCH   1  49
BRANCH   5  57
ATOM     57  C   LIG d   1      -1.958  -4.908 -11.157  0.00  0.00     0.313 C 
ATOM     58  O   LIG d   1      -1.397  -4.798 -10.092  0.00  0.00    -0.250 OA
BRANCH  57  59
ATOM     59  O   LIG d   1      -3.275  -4.664 -11.249  0.00  0.00    -0.468 OA
BRANCH  59  60
ATOM     60  C   LIG d   1      -4.008  -4.589 -10.025  0.00  0.00     0.082 C 
ATOM     61  H   LIG d   1      -3.316  -4.620  -9.184  0.00  0.00     0.066 H 
ATOM     62  H   LIG d   1      -4.574  -3.658  -9.997  0.00  0.00     0.066 H 
ATOM     63  H   LIG d   1      -4.695  -5.433  -9.961  0.00  0.00     0.066 H 
ENDBRANCH  59  60
ENDBRANCH  57  59
ENDBRANCH   5  57
BRANCH   8  64
ATOM     64  C   LIG d   1       1.777  -3.716 -13.570  0.00  0.00    -0.059 C 
ATOM     65  H   LIG d   1       2.533  -4.455 -13.304  0.00  0.00     0.024 H 
ATOM     66  H   LIG d   1       1.102  -4.138 -14.315  0.00  0.00     0.024 H 
ATOM     67  H   LIG d   1       2.262  -2.830 -13.979  0.00  0.00     0.024 H 
ENDBRANCH   8  64
BRANCH  15  68
ATOM     68  C   LIG d   1       0.603  -0.987 -11.578  0.00  0.00    -0.059 C 
ATOM     69  H   LIG d   1       1.001  -0.097 -12.067  0.00  0.00     0.024 H 
ATOM     70  H   LIG d   1      -0.310  -1.301 -12.084  0.00  0.00     0.024 H 
ATOM     71  H   LIG d   1       0.381  -0.761 -10.536  0.00  0.00     0.024 H 
ENDBRANCH  15  68
BRANCH  20  72
ATOM     72  C   LIG d   1       1.964  -0.285  -8.994  0.00  0.00    -0.059 C 
ATOM     73  H   LIG d   1       2.483   0.294  -8.230  0.00  0.00     0.024 H 
ATOM     74  H   LIG d   1       1.659   0.376  -9.805  0.00  0.00     0.024 H 
ATOM     75  H   LIG d   1       1.084  -0.757  -8.558  0.00  0.00     0.024 H 
ENDBRANCH  20  72
BRANCH  27  76
ATOM     76  C   LIG d   1       6.264   0.194 -10.319  0.00  0.00    -0.052 C 
ATOM     77  H   LIG d   1       6.425  -0.798 -10.742  0.00  0.00     0.024 H 
ATOM     78  H   LIG d   1       6.430   0.948 -11.089  0.00  0.00     0.024 H 
ATOM     79  H   LIG d   1       6.961   0.356  -9.497  0.00  0.00     0.024 H 
ENDBRANCH  27  76
BRANCH  27  80
ATOM     80  C   LIG d   1       4.298   1.694 -10.165  0.00  0.00    -0.052 C 
ATOM     81  H   LIG d   1       3.958   2.205  -9.265  0.00  0.00     0.024 H 
ATOM     82  H   LIG d   1       5.099   2.269 -10.629  0.00  0.00     0.024 H 
ATOM     83  H   LIG d   1       3.467   1.597 -10.864  0.00  0.00     0.024 H 
ENDBRANCH  27  80
TORSDOF 10
ENDMDL
MODEL 6
REMARK VINA RESULT:      -5.5      6.297      9.345
REMARK  10 active torsions:
REMARK  status: ('A' for Active; 'I' for Inactive)
REMARK    1  A    between atoms: C_1  and  C_2 
REMARK    2  A    between atoms: C_2  and  C_4 
REMARK    3  A    between atoms: C_8  and  C_38 
REMARK    4  A    between atoms: C_11  and  C_35 
REMARK    5  A    between atoms: C_18  and  C_34 
REMARK    6  A    between atoms: C_23  and  C_33 
REMARK    7  A    between atoms: C_30  and  C_31 
REMARK    8  A    between atoms: C_30  and  C_32 
REMARK    9  A    between atoms: C_38  and  O_40 
REMARK   10  A    between atoms: O_40  and  C_41 
ROOT
ATOM      1  C   LIG d   1      13.131   8.787  -1.172  0.00  0.00    -0.016 C 
ATOM      2  H   LIG d   1      12.906   9.719  -1.683  0.00  0.00     0.035 H 
ATOM      3  C   LIG d   1      12.182   7.665  -1.609  0.00  0.00    -0.015 C 
ATOM      4  H   LIG d   1      12.663   6.706  -1.372  0.00  0.00     0.032 H 
ATOM      5  C   LIG d   1      10.968   7.887  -0.674  0.00  0.00     0.071 C 
ATOM      6  C   LIG d   1      10.022   6.720  -0.828  0.00  0.00    -0.036 C 
ATOM      7  C   LIG d   1       9.543   6.665  -2.291  0.00  0.00    -0.046 C 
ATOM      8  C   LIG d   1      10.709   6.541  -3.273  0.00  0.00    -0.023 C 
ATOM      9  C   LIG d   1      11.714   7.681  -3.047  0.00  0.00    -0.031 C 
ATOM     10  H   LIG d   1      11.234   8.637  -3.277  0.00  0.00     0.031 H 
ATOM     11  C   LIG d   1      12.905   7.511  -3.990  0.00  0.00    -0.049 C 
ATOM     12  C   LIG d   1      12.427   7.471  -5.438  0.00  0.00    -0.049 C 
ATOM     13  C   LIG d   1      10.906   7.649  -5.525  0.00  0.00    -0.029 C 
ATOM     14  H   LIG d   1      10.647   8.622  -5.093  0.00  0.00     0.031 H 
ATOM     15  C   LIG d   1      10.210   6.553  -4.726  0.00  0.00    -0.023 C 
ATOM     16  C   LIG d   1      10.458   5.201  -5.401  0.00  0.00    -0.046 C 
ATOM     17  C   LIG d   1       9.918   5.243  -6.841  0.00  0.00    -0.048 C 
ATOM     18  C   LIG d   1      10.696   6.289  -7.629  0.00  0.00    -0.023 C 
ATOM     19  H   LIG d   1      11.777   6.018  -7.531  0.00  0.00     0.032 H 
ATOM     20  C   LIG d   1      10.542   7.675  -7.014  0.00  0.00    -0.021 C 
ATOM     21  C   LIG d   1      11.575   8.587  -7.723  0.00  0.00    -0.019 C 
ATOM     22  C   LIG d   1      11.226   8.629  -9.186  0.00  0.00    -0.019 C 
ATOM     23  C   LIG d   1      11.506   9.737  -9.897  0.00  0.00    -0.142 C 
ATOM     24  O   LIG d   1      11.200   9.790 -11.208  0.00  0.00    -0.879 OA
ATOM     25  C   LIG d   1      10.621   7.539  -9.813  0.00  0.00     0.164 C 
ATOM     26  O   LIG d   1      10.291   7.645 -10.977  0.00  0.00    -0.292 OA
ATOM     27  C   LIG d   1      10.372   6.234  -9.112  0.00  0.00     0.031 C 
ATOM     28  C   LIG d   1      11.659   8.030   0.688  0.00  0.00    -0.036 C 
ATOM     29  C   LIG d   1      12.889   8.915   0.360  0.00  0.00    -0.045 C 
ATOM     30  H   LIG d   1      10.510   5.790  -0.546  0.00  0.00     0.028 H 
ATOM     31  H   LIG d   1       9.152   6.869  -0.178  0.00  0.00     0.028 H 
ATOM     32  H   LIG d   1       8.902   5.785  -2.385  0.00  0.00     0.027 H 
ATOM     33  H   LIG d   1       8.972   7.570  -2.474  0.00  0.00     0.027 H 
ATOM     34  H   LIG d   1      13.569   8.379  -3.878  0.00  0.00     0.027 H 
ATOM     35  H   LIG d   1      13.469   6.615  -3.751  0.00  0.00     0.027 H 
ATOM     36  H   LIG d   1      12.915   8.293  -5.973  0.00  0.00     0.027 H 
ATOM     37  H   LIG d   1      12.713   6.527  -5.898  0.00  0.00     0.027 H 
ATOM     38  H   LIG d   1      11.525   4.989  -5.465  0.00  0.00     0.027 H 
ATOM     39  H   LIG d   1       9.925   4.409  -4.877  0.00  0.00     0.027 H 
ATOM     40  H   LIG d   1      10.090   4.253  -7.281  0.00  0.00     0.027 H 
ATOM     41  H   LIG d   1       8.857   5.440  -6.831  0.00  0.00     0.027 H 
ATOM     42  H   LIG d   1      11.523   9.581  -7.301  0.00  0.00     0.032 H 
ATOM     43  H   LIG d   1      12.564   8.156  -7.623  0.00  0.00     0.032 H 
ATOM     44  H   LIG d   1      11.974  10.583  -9.418  0.00  0.00     0.045 H 
ATOM     45  H   LIG d   1      11.000   8.533   1.390  0.00  0.00     0.028 H 
ATOM     46  H   LIG d   1      11.969   7.058   1.056  0.00  0.00     0.028 H 
ATOM     47  H   LIG d   1      13.762   8.552   0.904  0.00  0.00     0.027 H 
ATOM     48  H   LIG d   1      12.690   9.952   0.623  0.00  0.00     0.027 H 
ENDROOT
BRANCH   1  49
ATOM     49  C   LIG d   1      14.571   8.391  -1.410  0.00  0.00    -0.076 C 
ATOM     50  C   LIG d   1      15.406   9.247  -1.945  0.00  0.00    -0.099 C 
ATOM     51  H   LIG d   1      15.065  10.235  -2.216  0.00  0.00     0.053 H 
ATOM     52  H   LIG d   1      16.434   8.965  -2.115  0.00  0.00     0.053 H 
BRANCH  49  53
ATOM     53  C   LIG d   1      15.046   7.012  -1.032  0.00  0.00    -0.044 C 
ATOM     54  H   LIG d   1      15.743   7.084  -0.196  0.00  0.00     0.027 H 
ATOM     55  H   LIG d   1      14.191   6.402  -0.740  0.00  0.00     0.027 H 
ATOM     56  H   LIG d   1      15.546   6.553  -1.884  0.00  0.00     0.027 H 
ENDBRANCH  49  53
ENDBRANCH   1  49
BRANCH   5  57
ATOM     57  C   LIG d   1      10.267   9.185  -0.976  0.00  0.00     0.313 C 
ATOM     58  O   LIG d   1       9.438   9.617  -0.210  0.00  0.00    -0.250 OA
BRANCH  57  59
ATOM     59  O   LIG d   1      10.561   9.862  -2.097  0.00  0.00    -0.468 OA
BRANCH  59  60
ATOM     60  C   LIG d   1       9.543  10.715  -2.625  0.00  0.00     0.082 C 
ATOM     61  H   LIG d   1       9.531  11.653  -2.071  0.00  0.00     0.066 H 
ATOM     62  H   LIG d   1       9.747  10.915  -3.677  0.00  0.00     0.066 H 
ATOM     63  H   LIG d   1       8.574  10.225  -2.531  0.00  0.00     0.066 H 
ENDBRANCH  59  60
ENDBRANCH  57  59
ENDBRANCH   5  57
BRANCH   8  64
ATOM     64  C   LIG d   1      11.400   5.202  -2.987  0.00  0.00    -0.059 C 
ATOM     65  H   LIG d   1      12.452   5.377  -2.758  0.00  0.00     0.024 H 
ATOM     66  H   LIG d   1      10.919   4.719  -2.136  0.00  0.00     0.024 H 
ATOM     67  H   LIG d   1      11.322   4.558  -3.863  0.00  0.00     0.024 H 
ENDBRANCH   8  64
BRANCH  15  68
ATOM     68  C   LIG d   1       8.689   6.785  -4.700  0.00  0.00    -0.059 C 
ATOM     69  H   LIG d   1       8.379   7.048  -3.689  0.00  0.00     0.024 H 
ATOM     70  H   LIG d   1       8.435   7.598  -5.380  0.00  0.00     0.024 H 
ATOM     71  H   LIG d   1       8.178   5.876  -5.014  0.00  0.00     0.024 H 
ENDBRANCH  15  68
BRANCH  20  72
ATOM     72  C   LIG d   1       9.168   8.291  -7.255  0.00  0.00    -0.059 C 
ATOM     73  H   LIG d   1       8.897   8.174  -8.305  0.00  0.00     0.024 H 
ATOM     74  H   LIG d   1       8.429   7.788  -6.631  0.00  0.00     0.024 H 
ATOM     75  H   LIG d   1       9.196   9.350  -7.003  0.00  0.00     0.024 H 
ENDBRANCH  20  72
BRANCH  27  76
ATOM     76  C   LIG d   1      11.295   5.186  -9.768  0.00  0.00    -0.052 C 
ATOM     77  H   LIG d   1      11.006   5.049 -10.811  0.00  0.00     0.024 H 
ATOM     78  H   LIG d   1      12.328   5.531  -9.720  0.00  0.00     0.024 H 
ATOM     79  H   LIG d   1      11.203   4.239  -9.239  0.00  0.00     0.024 H 
ENDBRANCH  27  76
BRANCH  27  80
ATOM     80  C   LIG d   1       8.927   5.800  -9.370  0.00  0.00    -0.052 C 
ATOM     81  H   LIG d   1       8.319   6.027  -8.496  0.00  0.00     0.024 H 
ATOM     82  H   LIG d   1       8.536   6.336 -10.234  0.00  0.00     0.024 H 
ATOM     83  H   LIG d   1       8.900   4.728  -9.565  0.00  0.00     0.024 H 
ENDBRANCH  27  80
TORSDOF 10
ENDMDL
MODEL 7
REMARK VINA RESULT:      -5.5      6.716      9.222
REMARK  10 active torsions:
REMARK  status: ('A' for Active; 'I' for Inactive)
REMARK    1  A    between atoms: C_1  and  C_2 
REMARK    2  A    between atoms: C_2  and  C_4 
REMARK    3  A    between atoms: C_8  and  C_38 
REMARK    4  A    between atoms: C_11  and  C_35 
REMARK    5  A    between atoms: C_18  and  C_34 
REMARK    6  A    between atoms: C_23  and  C_33 
REMARK    7  A    between atoms: C_30  and  C_31 
REMARK    8  A    between atoms: C_30  and  C_32 
REMARK    9  A    between atoms: C_38  and  O_40 
REMARK   10  A    between atoms: O_40  and  C_41 
ROOT
ATOM      1  C   LIG d   1      12.346   8.054  -0.816  0.00  0.00    -0.016 C 
ATOM      2  H   LIG d   1      11.998   9.071  -0.972  0.00  0.00     0.035 H 
ATOM      3  C   LIG d   1      11.805   7.106  -1.893  0.00  0.00    -0.015 C 
ATOM      4  H   LIG d   1      12.454   6.221  -1.919  0.00  0.00     0.032 H 
ATOM      5  C   LIG d   1      10.420   6.723  -1.319  0.00  0.00     0.071 C 
ATOM      6  C   LIG d   1       9.839   5.614  -2.163  0.00  0.00    -0.036 C 
ATOM      7  C   LIG d   1       9.676   6.127  -3.606  0.00  0.00    -0.046 C 
ATOM      8  C   LIG d   1      11.001   6.611  -4.197  0.00  0.00    -0.023 C 
ATOM      9  C   LIG d   1      11.630   7.674  -3.284  0.00  0.00    -0.031 C 
ATOM     10  H   LIG d   1      10.980   8.554  -3.252  0.00  0.00     0.031 H 
ATOM     11  C   LIG d   1      12.982   8.104  -3.852  0.00  0.00    -0.049 C 
ATOM     12  C   LIG d   1      12.814   8.625  -5.275  0.00  0.00    -0.049 C 
ATOM     13  C   LIG d   1      11.340   8.599  -5.703  0.00  0.00    -0.029 C 
ATOM     14  H   LIG d   1      10.771   9.240  -5.021  0.00  0.00     0.031 H 
ATOM     15  C   LIG d   1      10.799   7.177  -5.611  0.00  0.00    -0.023 C 
ATOM     16  C   LIG d   1      11.498   6.302  -6.655  0.00  0.00    -0.046 C 
ATOM     17  C   LIG d   1      11.248   6.883  -8.058  0.00  0.00    -0.048 C 
ATOM     18  C   LIG d   1      11.877   8.268  -8.137  0.00  0.00    -0.023 C 
ATOM     19  H   LIG d   1      12.953   8.142  -7.856  0.00  0.00     0.032 H 
ATOM     20  C   LIG d   1      11.271   9.212  -7.106  0.00  0.00    -0.021 C 
ATOM     21  C   LIG d   1      12.161  10.482  -7.097  0.00  0.00    -0.019 C 
ATOM     22  C   LIG d   1      12.097  11.101  -8.467  0.00  0.00    -0.019 C 
ATOM     23  C   LIG d   1      12.223  12.435  -8.592  0.00  0.00    -0.142 C 
ATOM     24  O   LIG d   1      12.168  13.004  -9.812  0.00  0.00    -0.879 OA
ATOM     25  C   LIG d   1      11.912  10.313  -9.604  0.00  0.00     0.164 C 
ATOM     26  O   LIG d   1      11.793  10.863 -10.681  0.00  0.00    -0.292 OA
ATOM     27  C   LIG d   1      11.865   8.813  -9.555  0.00  0.00     0.031 C 
ATOM     28  C   LIG d   1      10.781   6.362   0.127  0.00  0.00    -0.036 C 
ATOM     29  C   LIG d   1      11.793   7.470   0.517  0.00  0.00    -0.045 C 
ATOM     30  H   LIG d   1      10.480   4.735  -2.136  0.00  0.00     0.028 H 
ATOM     31  H   LIG d   1       8.852   5.338  -1.773  0.00  0.00     0.028 H 
ATOM     32  H   LIG d   1       9.302   5.291  -4.203  0.00  0.00     0.027 H 
ATOM     33  H   LIG d   1       8.944   6.928  -3.578  0.00  0.00     0.027 H 
ATOM     34  H   LIG d   1      13.377   8.925  -3.237  0.00  0.00     0.027 H 
ATOM     35  H   LIG d   1      13.695   7.285  -3.828  0.00  0.00     0.027 H 
ATOM     36  H   LIG d   1      13.174   9.658  -5.297  0.00  0.00     0.027 H 
ATOM     37  H   LIG d   1      13.406   8.026  -5.963  0.00  0.00     0.027 H 
ATOM     38  H   LIG d   1      12.576   6.296  -6.498  0.00  0.00     0.027 H 
ATOM     39  H   LIG d   1      11.089   5.293  -6.644  0.00  0.00     0.027 H 
ATOM     40  H   LIG d   1      11.740   6.218  -8.777  0.00  0.00     0.027 H 
ATOM     41  H   LIG d   1      10.190   6.899  -8.266  0.00  0.00     0.027 H 
ATOM     42  H   LIG d   1      11.785  11.176  -6.359  0.00  0.00     0.032 H 
ATOM     43  H   LIG d   1      13.188  10.199  -6.900  0.00  0.00     0.032 H 
ATOM     44  H   LIG d   1      12.367  13.049  -7.716  0.00  0.00     0.045 H 
ATOM     45  H   LIG d   1       9.898   6.410   0.757  0.00  0.00     0.028 H 
ATOM     46  H   LIG d   1      11.247   5.383   0.165  0.00  0.00     0.028 H 
ATOM     47  H   LIG d   1      12.609   7.040   1.098  0.00  0.00     0.027 H 
ATOM     48  H   LIG d   1      11.298   8.251   1.090  0.00  0.00     0.027 H 
ENDROOT
BRANCH   1  49
ATOM     49  C   LIG d   1      13.857   8.015  -0.780  0.00  0.00    -0.076 C 
ATOM     50  C   LIG d   1      14.540   9.131  -0.713  0.00  0.00    -0.099 C 
ATOM     51  H   LIG d   1      14.023  10.079  -0.683  0.00  0.00     0.053 H 
ATOM     52  H   LIG d   1      15.619   9.103  -0.686  0.00  0.00     0.053 H 
BRANCH  49  53
ATOM     53  C   LIG d   1      14.577   6.692  -0.821  0.00  0.00    -0.044 C 
ATOM     54  H   LIG d   1      15.340   6.718  -1.600  0.00  0.00     0.027 H 
ATOM     55  H   LIG d   1      15.050   6.506   0.144  0.00  0.00     0.027 H 
ATOM     56  H   LIG d   1      13.864   5.897  -1.037  0.00  0.00     0.027 H 
ENDBRANCH  49  53
ENDBRANCH   1  49
BRANCH   5  57
ATOM     57  C   LIG d   1       9.489   7.906  -1.282  0.00  0.00     0.313 C 
ATOM     58  O   LIG d   1       8.382   7.790  -0.812  0.00  0.00    -0.250 OA
BRANCH  57  59
ATOM     59  O   LIG d   1       9.888   9.091  -1.771  0.00  0.00    -0.468 OA
BRANCH  59  60
ATOM     60  C   LIG d   1       9.348  10.262  -1.157  0.00  0.00     0.082 C 
ATOM     61  H   LIG d   1      10.137  11.003  -1.031  0.00  0.00     0.066 H 
ATOM     62  H   LIG d   1       8.561  10.673  -1.789  0.00  0.00     0.066 H 
ATOM     63  H   LIG d   1       8.933  10.003  -0.183  0.00  0.00     0.066 H 
ENDBRANCH  59  60
ENDBRANCH  57  59
ENDBRANCH   5  57
BRANCH   8  64
ATOM     64  C   LIG d   1      11.935   5.396  -4.267  0.00  0.00    -0.059 C 
ATOM     65  H   LIG d   1      12.574   5.378  -3.384  0.00  0.00     0.024 H 
ATOM     66  H   LIG d   1      11.340   4.483  -4.304  0.00  0.00     0.024 H 
ATOM     67  H   LIG d   1      12.553   5.465  -5.161  0.00  0.00     0.024 H 
ENDBRANCH   8  64
BRANCH  15  68
ATOM     68  C   LIG d   1       9.292   7.151  -5.919  0.00  0.00    -0.059 C 
ATOM     69  H   LIG d   1       8.847   6.258  -5.482  0.00  0.00     0.024 H 
ATOM     70  H   LIG d   1       8.819   8.037  -5.495  0.00  0.00     0.024 H 
ATOM     71  H   LIG d   1       9.142   7.141  -6.998  0.00  0.00     0.024 H 
ENDBRANCH  15  68
BRANCH  20  72
ATOM     72  C   LIG d   1       9.859   9.665  -7.463  0.00  0.00    -0.059 C 
ATOM     73  H   LIG d   1       9.199   8.798  -7.503  0.00  0.00     0.024 H 
ATOM     74  H   LIG d   1       9.498  10.361  -6.705  0.00  0.00     0.024 H 
ATOM     75  H   LIG d   1       9.870  10.158  -8.434  0.00  0.00     0.024 H 
ENDBRANCH  20  72
BRANCH  27  76
ATOM     76  C   LIG d   1      13.126   8.299 -10.280  0.00  0.00    -0.052 C 
ATOM     77  H   LIG d   1      13.200   8.771 -11.260  0.00  0.00     0.024 H 
ATOM     78  H   LIG d   1      14.010   8.545  -9.691  0.00  0.00     0.024 H 
ATOM     79  H   LIG d   1      13.060   7.218 -10.402  0.00  0.00     0.024 H 
ENDBRANCH  27  76
BRANCH  27  80
ATOM     80  C   LIG d   1      10.649   8.328 -10.347  0.00  0.00    -0.052 C 
ATOM     81  H   LIG d   1      10.862   8.392 -11.414  0.00  0.00     0.024 H 
ATOM     82  H   LIG d   1      10.432   7.294 -10.081  0.00  0.00     0.024 H 
ATOM     83  H   LIG d   1       9.788   8.953 -10.110  0.00  0.00     0.024 H 
ENDBRANCH  27  80
TORSDOF 10
ENDMDL
MODEL 8
REMARK VINA RESULT:      -5.5      4.792      7.719
REMARK  10 active torsions:
REMARK  status: ('A' for Active; 'I' for Inactive)
REMARK    1  A    between atoms: C_1  and  C_2 
REMARK    2  A    between atoms: C_2  and  C_4 
REMARK    3  A    between atoms: C_8  and  C_38 
REMARK    4  A    between atoms: C_11  and  C_35 
REMARK    5  A    between atoms: C_18  and  C_34 
REMARK    6  A    between atoms: C_23  and  C_33 
REMARK    7  A    between atoms: C_30  and  C_31 
REMARK    8  A    between atoms: C_30  and  C_32 
REMARK    9  A    between atoms: C_38  and  O_40 
REMARK   10  A    between atoms: O_40  and  C_41 
ROOT
ATOM      1  C   LIG d   1       8.330  -5.964  -5.545  0.00  0.00    -0.016 C 
ATOM      2  H   LIG d   1       8.881  -5.680  -6.436  0.00  0.00     0.035 H 
ATOM      3  C   LIG d   1       7.585  -4.766  -4.942  0.00  0.00    -0.015 C 
ATOM      4  H   LIG d   1       6.779  -5.156  -4.306  0.00  0.00     0.032 H 
ATOM      5  C   LIG d   1       8.680  -4.118  -4.060  0.00  0.00     0.071 C 
ATOM      6  C   LIG d   1       8.043  -3.038  -3.219  0.00  0.00    -0.036 C 
ATOM      7  C   LIG d   1       7.439  -1.975  -4.157  0.00  0.00    -0.046 C 
ATOM      8  C   LIG d   1       6.415  -2.576  -5.121  0.00  0.00    -0.023 C 
ATOM      9  C   LIG d   1       7.046  -3.735  -5.908  0.00  0.00    -0.031 C 
ATOM     10  H   LIG d   1       7.853  -3.348  -6.536  0.00  0.00     0.031 H 
ATOM     11  C   LIG d   1       5.996  -4.367  -6.821  0.00  0.00    -0.049 C 
ATOM     12  C   LIG d   1       5.411  -3.315  -7.757  0.00  0.00    -0.049 C 
ATOM     13  C   LIG d   1       6.070  -1.948  -7.534  0.00  0.00    -0.029 C 
ATOM     14  H   LIG d   1       7.143  -2.044  -7.735  0.00  0.00     0.031 H 
ATOM     15  C   LIG d   1       5.876  -1.510  -6.087  0.00  0.00    -0.023 C 
ATOM     16  C   LIG d   1       4.390  -1.244  -5.834  0.00  0.00    -0.046 C 
ATOM     17  C   LIG d   1       3.895  -0.151  -6.798  0.00  0.00    -0.048 C 
ATOM     18  C   LIG d   1       4.026  -0.659  -8.228  0.00  0.00    -0.023 C 
ATOM     19  H   LIG d   1       3.463  -1.626  -8.272  0.00  0.00     0.032 H 
ATOM     20  C   LIG d   1       5.473  -0.989  -8.571  0.00  0.00    -0.021 C 
ATOM     21  C   LIG d   1       5.445  -1.738  -9.927  0.00  0.00    -0.019 C 
ATOM     22  C   LIG d   1       4.868  -0.806 -10.958  0.00  0.00    -0.019 C 
ATOM     23  C   LIG d   1       5.270  -0.912 -12.238  0.00  0.00    -0.142 C 
ATOM     24  O   LIG d   1       4.763  -0.085 -13.173  0.00  0.00    -0.879 OA
ATOM     25  C   LIG d   1       3.926   0.161 -10.606  0.00  0.00     0.164 C 
ATOM     26  O   LIG d   1       3.543   0.939 -11.457  0.00  0.00    -0.292 OA
ATOM     27  C   LIG d   1       3.354   0.274  -9.222  0.00  0.00     0.031 C 
ATOM     28  C   LIG d   1       9.223  -5.338  -3.307  0.00  0.00    -0.036 C 
ATOM     29  C   LIG d   1       9.292  -6.424  -4.412  0.00  0.00    -0.045 C 
ATOM     30  H   LIG d   1       7.279  -3.457  -2.569  0.00  0.00     0.028 H 
ATOM     31  H   LIG d   1       8.810  -2.563  -2.596  0.00  0.00     0.028 H 
ATOM     32  H   LIG d   1       6.943  -1.235  -3.524  0.00  0.00     0.027 H 
ATOM     33  H   LIG d   1       8.264  -1.520  -4.696  0.00  0.00     0.027 H 
ATOM     34  H   LIG d   1       6.483  -5.134  -7.438  0.00  0.00     0.027 H 
ATOM     35  H   LIG d   1       5.209  -4.842  -6.243  0.00  0.00     0.027 H 
ATOM     36  H   LIG d   1       5.602  -3.640  -8.785  0.00  0.00     0.027 H 
ATOM     37  H   LIG d   1       4.337  -3.235  -7.602  0.00  0.00     0.027 H 
ATOM     38  H   LIG d   1       3.796  -2.136  -6.031  0.00  0.00     0.027 H 
ATOM     39  H   LIG d   1       4.234  -0.878  -4.820  0.00  0.00     0.027 H 
ATOM     40  H   LIG d   1       2.838   0.029  -6.570  0.00  0.00     0.027 H 
ATOM     41  H   LIG d   1       4.447   0.762  -6.634  0.00  0.00     0.027 H 
ATOM     42  H   LIG d   1       6.452  -2.018 -10.202  0.00  0.00     0.032 H 
ATOM     43  H   LIG d   1       4.793  -2.600  -9.847  0.00  0.00     0.032 H 
ATOM     44  H   LIG d   1       5.998  -1.659 -12.516  0.00  0.00     0.045 H 
ATOM     45  H   LIG d   1      10.214  -5.126  -2.915  0.00  0.00     0.028 H 
ATOM     46  H   LIG d   1       8.536  -5.631  -2.520  0.00  0.00     0.028 H 
ATOM     47  H   LIG d   1       8.960  -7.382  -4.011  0.00  0.00     0.027 H 
ATOM     48  H   LIG d   1      10.306  -6.511  -4.794  0.00  0.00     0.027 H 
ENDROOT
BRANCH   1  49
ATOM     49  C   LIG d   1       7.367  -7.088  -5.858  0.00  0.00    -0.076 C 
ATOM     50  C   LIG d   1       6.543  -7.520  -4.937  0.00  0.00    -0.099 C 
ATOM     51  H   LIG d   1       6.550  -7.074  -3.954  0.00  0.00     0.053 H 
ATOM     52  H   LIG d   1       5.856  -8.323  -5.161  0.00  0.00     0.053 H 
BRANCH  49  53
ATOM     53  C   LIG d   1       7.358  -7.710  -7.230  0.00  0.00    -0.044 C 
ATOM     54  H   LIG d   1       8.210  -7.342  -7.802  0.00  0.00     0.027 H 
ATOM     55  H   LIG d   1       7.424  -8.794  -7.138  0.00  0.00     0.027 H 
ATOM     56  H   LIG d   1       6.434  -7.445  -7.744  0.00  0.00     0.027 H 
ENDBRANCH  49  53
ENDBRANCH   1  49
BRANCH   5  57
ATOM     57  C   LIG d   1       9.800  -3.553  -4.894  0.00  0.00     0.313 C 
ATOM     58  O   LIG d   1      10.823  -3.188  -4.364  0.00  0.00    -0.250 OA
BRANCH  57  59
ATOM     59  O   LIG d   1       9.662  -3.453  -6.225  0.00  0.00    -0.468 OA
BRANCH  59  60
ATOM     60  C   LIG d   1      10.841  -3.619  -7.014  0.00  0.00     0.082 C 
ATOM     61  H   LIG d   1      11.089  -2.676  -7.500  0.00  0.00     0.066 H 
ATOM     62  H   LIG d   1      11.666  -3.926  -6.373  0.00  0.00     0.066 H 
ATOM     63  H   LIG d   1      10.666  -4.383  -7.772  0.00  0.00     0.066 H 
ENDBRANCH  59  60
ENDBRANCH  57  59
ENDBRANCH   5  57
BRANCH   8  64
ATOM     64  C   LIG d   1       5.259  -3.119  -4.272  0.00  0.00    -0.059 C 
ATOM     65  H   LIG d   1       5.224  -2.585  -3.322  0.00  0.00     0.024 H 
ATOM     66  H   LIG d   1       4.318  -2.975  -4.804  0.00  0.00     0.024 H 
ATOM     67  H   LIG d   1       5.413  -4.181  -4.086  0.00  0.00     0.024 H 
ENDBRANCH   8  64
BRANCH  15  68
ATOM     68  C   LIG d   1       6.634  -0.199  -5.813  0.00  0.00    -0.059 C 
ATOM     69  H   LIG d   1       5.978   0.498  -5.292  0.00  0.00     0.024 H 
ATOM     70  H   LIG d   1       7.507  -0.406  -5.194  0.00  0.00     0.024 H 
ATOM     71  H   LIG d   1       6.954   0.240  -6.757  0.00  0.00     0.024 H 
ENDBRANCH  15  68
BRANCH  20  72
ATOM     72  C   LIG d   1       6.341   0.250  -8.768  0.00  0.00    -0.059 C 
ATOM     73  H   LIG d   1       6.490   0.747  -7.809  0.00  0.00     0.024 H 
ATOM     74  H   LIG d   1       7.307  -0.044  -9.178  0.00  0.00     0.024 H 
ATOM     75  H   LIG d   1       5.847   0.933  -9.458  0.00  0.00     0.024 H 
ENDBRANCH  20  72
BRANCH  27  76
ATOM     76  C   LIG d   1       1.864  -0.115  -9.316  0.00  0.00    -0.052 C 
ATOM     77  H   LIG d   1       1.290   0.734  -9.689  0.00  0.00     0.024 H 
ATOM     78  H   LIG d   1       1.751  -0.957  -9.998  0.00  0.00     0.024 H 
ATOM     79  H   LIG d   1       1.499  -0.395  -8.329  0.00  0.00     0.024 H 
ENDBRANCH  27  76
BRANCH  27  80
ATOM     80  C   LIG d   1       3.421   1.735  -8.774  0.00  0.00    -0.052 C 
ATOM     81  H   LIG d   1       3.650   2.367  -9.632  0.00  0.00     0.024 H 
ATOM     82  H   LIG d   1       2.461   2.030  -8.352  0.00  0.00     0.024 H 
ATOM     83  H   LIG d   1       4.200   1.849  -8.020  0.00  0.00     0.024 H 
ENDBRANCH  27  80
TORSDOF 10
ENDMDL
MODEL 9
REMARK VINA RESULT:      -5.4      4.240      7.171
REMARK  10 active torsions:
REMARK  status: ('A' for Active; 'I' for Inactive)
REMARK    1  A    between atoms: C_1  and  C_2 
REMARK    2  A    between atoms: C_2  and  C_4 
REMARK    3  A    between atoms: C_8  and  C_38 
REMARK    4  A    between atoms: C_11  and  C_35 
REMARK    5  A    between atoms: C_18  and  C_34 
REMARK    6  A    between atoms: C_23  and  C_33 
REMARK    7  A    between atoms: C_30  and  C_31 
REMARK    8  A    between atoms: C_30  and  C_32 
REMARK    9  A    between atoms: C_38  and  O_40 
REMARK   10  A    between atoms: O_40  and  C_41 
ROOT
ATOM      1  C   LIG d   1      10.636   2.720  -7.395  0.00  0.00    -0.016 C 
ATOM      2  H   LIG d   1      11.097   3.582  -7.868  0.00  0.00     0.035 H 
ATOM      3  C   LIG d   1      10.858   2.726  -5.878  0.00  0.00    -0.015 C 
ATOM      4  H   LIG d   1      10.093   2.084  -5.422  0.00  0.00     0.032 H 
ATOM      5  C   LIG d   1      12.248   2.055  -5.753  0.00  0.00     0.071 C 
ATOM      6  C   LIG d   1      12.522   1.787  -4.293  0.00  0.00    -0.036 C 
ATOM      7  C   LIG d   1      12.529   3.130  -3.538  0.00  0.00    -0.046 C 
ATOM      8  C   LIG d   1      11.210   3.888  -3.703  0.00  0.00    -0.023 C 
ATOM      9  C   LIG d   1      10.892   4.076  -5.194  0.00  0.00    -0.031 C 
ATOM     10  H   LIG d   1      11.658   4.710  -5.650  0.00  0.00     0.031 H 
ATOM     11  C   LIG d   1       9.543   4.777  -5.347  0.00  0.00    -0.049 C 
ATOM     12  C   LIG d   1       9.558   6.112  -4.610  0.00  0.00    -0.049 C 
ATOM     13  C   LIG d   1      10.927   6.375  -3.968  0.00  0.00    -0.029 C 
ATOM     14  H   LIG d   1      11.682   6.398  -4.760  0.00  0.00     0.031 H 
ATOM     15  C   LIG d   1      11.266   5.250  -2.996  0.00  0.00    -0.023 C 
ATOM     16  C   LIG d   1      10.293   5.293  -1.814  0.00  0.00    -0.046 C 
ATOM     17  C   LIG d   1      10.400   6.659  -1.114  0.00  0.00    -0.048 C 
ATOM     18  C   LIG d   1       9.971   7.747  -2.090  0.00  0.00    -0.023 C 
ATOM     19  H   LIG d   1       8.946   7.469  -2.443  0.00  0.00     0.032 H 
ATOM     20  C   LIG d   1      10.861   7.766  -3.327  0.00  0.00    -0.021 C 
ATOM     21  C   LIG d   1      10.176   8.710  -4.348  0.00  0.00    -0.019 C 
ATOM     22  C   LIG d   1      10.111  10.083  -3.736  0.00  0.00    -0.019 C 
ATOM     23  C   LIG d   1      10.160  11.163  -4.538  0.00  0.00    -0.142 C 
ATOM     24  O   LIG d   1      10.103  12.399  -4.006  0.00  0.00    -0.879 OA
ATOM     25  C   LIG d   1      10.000  10.251  -2.355  0.00  0.00     0.164 C 
ATOM     26  O   LIG d   1      10.025  11.377  -1.900  0.00  0.00    -0.292 OA
ATOM     27  C   LIG d   1       9.838   9.098  -1.406  0.00  0.00     0.031 C 
ATOM     28  C   LIG d   1      12.070   0.825  -6.651  0.00  0.00    -0.036 C 
ATOM     29  C   LIG d   1      11.302   1.396  -7.871  0.00  0.00    -0.045 C 
ATOM     30  H   LIG d   1      11.775   1.114  -3.878  0.00  0.00     0.028 H 
ATOM     31  H   LIG d   1      13.509   1.319  -4.188  0.00  0.00     0.028 H 
ATOM     32  H   LIG d   1      12.680   2.901  -2.480  0.00  0.00     0.027 H 
ATOM     33  H   LIG d   1      13.363   3.707  -3.923  0.00  0.00     0.027 H 
ATOM     34  H   LIG d   1       9.372   4.982  -6.413  0.00  0.00     0.027 H 
ATOM     35  H   LIG d   1       8.733   4.152  -4.984  0.00  0.00     0.027 H 
ATOM     36  H   LIG d   1       9.350   6.900  -5.343  0.00  0.00     0.027 H 
ATOM     37  H   LIG d   1       8.785   6.124  -3.845  0.00  0.00     0.027 H 
ATOM     38  H   LIG d   1       9.264   5.187  -2.154  0.00  0.00     0.027 H 
ATOM     39  H   LIG d   1      10.550   4.530  -1.080  0.00  0.00     0.027 H 
ATOM     40  H   LIG d   1       9.710   6.642  -0.262  0.00  0.00     0.027 H 
ATOM     41  H   LIG d   1      11.403   6.807  -0.747  0.00  0.00     0.027 H 
ATOM     42  H   LIG d   1      10.759   8.736  -5.257  0.00  0.00     0.032 H 
ATOM     43  H   LIG d   1       9.162   8.370  -4.526  0.00  0.00     0.032 H 
ATOM     44  H   LIG d   1      10.244  11.038  -5.607  0.00  0.00     0.045 H 
ATOM     45  H   LIG d   1      13.039   0.440  -6.954  0.00  0.00     0.028 H 
ATOM     46  H   LIG d   1      11.481   0.070  -6.142  0.00  0.00     0.028 H 
ATOM     47  H   LIG d   1      10.534   0.690  -8.190  0.00  0.00     0.027 H 
ATOM     48  H   LIG d   1      11.988   1.596  -8.691  0.00  0.00     0.027 H 
ENDROOT
BRANCH   1  49
ATOM     49  C   LIG d   1       9.159   2.670  -7.718  0.00  0.00    -0.076 C 
ATOM     50  C   LIG d   1       8.679   3.392  -8.699  0.00  0.00    -0.099 C 
ATOM     51  H   LIG d   1       9.337   4.022  -9.278  0.00  0.00     0.053 H 
ATOM     52  H   LIG d   1       7.624   3.356  -8.930  0.00  0.00     0.053 H 
BRANCH  49  53
ATOM     53  C   LIG d   1       8.241   1.790  -6.910  0.00  0.00    -0.044 C 
ATOM     54  H   LIG d   1       7.448   1.404  -7.553  0.00  0.00     0.027 H 
ATOM     55  H   LIG d   1       8.809   0.957  -6.495  0.00  0.00     0.027 H 
ATOM     56  H   LIG d   1       7.801   2.370  -6.099  0.00  0.00     0.027 H 
ENDBRANCH  49  53
ENDBRANCH   1  49
BRANCH   5  57
ATOM     57  C   LIG d   1      13.333   2.912  -6.350  0.00  0.00     0.313 C 
ATOM     58  O   LIG d   1      14.425   2.442  -6.564  0.00  0.00    -0.250 OA
BRANCH  57  59
ATOM     59  O   LIG d   1      13.087   4.199  -6.644  0.00  0.00    -0.468 OA
BRANCH  59  60
ATOM     60  C   LIG d   1      14.114   5.142  -6.333  0.00  0.00     0.082 C 
ATOM     61  H   LIG d   1      13.717   5.903  -5.662  0.00  0.00     0.066 H 
ATOM     62  H   LIG d   1      14.945   4.628  -5.851  0.00  0.00     0.066 H 
ATOM     63  H   LIG d   1      14.463   5.614  -7.252  0.00  0.00     0.066 H 
ENDBRANCH  59  60
ENDBRANCH  57  59
ENDBRANCH   5  57
BRANCH   8  64
ATOM     64  C   LIG d   1      10.113   3.029  -3.062  0.00  0.00    -0.059 C 
ATOM     65  H   LIG d   1      10.144   3.149  -1.979  0.00  0.00     0.024 H 
ATOM     66  H   LIG d   1       9.139   3.348  -3.434  0.00  0.00     0.024 H 
ATOM     67  H   LIG d   1      10.275   1.983  -3.317  0.00  0.00     0.024 H 
ENDBRANCH   8  64
BRANCH  15  68
ATOM     68  C   LIG d   1      12.686   5.432  -2.433  0.00  0.00    -0.059 C 
ATOM     69  H   LIG d   1      12.691   5.186  -1.371  0.00  0.00     0.024 H 
ATOM     70  H   LIG d   1      13.374   4.772  -2.961  0.00  0.00     0.024 H 
ATOM     71  H   LIG d   1      13.000   6.466  -2.568  0.00  0.00     0.024 H 
ENDBRANCH  15  68
BRANCH  20  72
ATOM     72  C   LIG d   1      12.250   8.337  -3.059  0.00  0.00    -0.059 C 
ATOM     73  H   LIG d   1      12.626   8.815  -3.964  0.00  0.00     0.024 H 
ATOM     74  H   LIG d   1      12.192   9.074  -2.258  0.00  0.00     0.024 H 
ATOM     75  H   LIG d   1      12.923   7.532  -2.766  0.00  0.00     0.024 H 
ENDBRANCH  20  72
BRANCH  27  76
ATOM     76  C   LIG d   1       8.418   9.199  -0.812  0.00  0.00    -0.052 C 
ATOM     77  H   LIG d   1       7.837   9.926  -1.380  0.00  0.00     0.024 H 
ATOM     78  H   LIG d   1       7.932   8.225  -0.864  0.00  0.00     0.024 H 
ATOM     79  H   LIG d   1       8.481   9.518   0.228  0.00  0.00     0.024 H 
ENDBRANCH  27  76
BRANCH  27  80
ATOM     80  C   LIG d   1      10.831   9.259  -0.254  0.00  0.00    -0.052 C 
ATOM     81  H   LIG d   1      11.636   8.533  -0.364  0.00  0.00     0.024 H 
ATOM     82  H   LIG d   1      11.246  10.267  -0.271  0.00  0.00     0.024 H 
ATOM     83  H   LIG d   1      10.318   9.094   0.693  0.00  0.00     0.024 H 
ENDBRANCH  27  80
TORSDOF 10
ENDMDL
