MODEL 1
REMARK VINA RESULT:      -5.3      0.000      0.000
REMARK  6 active torsions:
REMARK  status: ('A' for Active; 'I' for Inactive)
REMARK    1  A    between atoms: C_1  and  C_2 
REMARK    2  A    between atoms: C_3  and  C_18 
REMARK    3  A    between atoms: C_10  and  C_13 
REMARK    4  A    between atoms: C_13  and  N_14 
REMARK    5  A    between atoms: N_14  and  C_15 
REMARK    6  A    between atoms: N_14  and  C_16 
ROOT
ATOM      1  C   LIG d   1       8.696   0.029  -5.051  0.00  0.00     0.114 A 
ATOM      2  C   LIG d   1       8.151   1.036  -4.320  0.00  0.00     0.067 A 
ATOM      3  C   LIG d   1       6.835   0.824  -3.693  0.00  0.00     0.200 A 
ATOM      4  O   LIG d   1       6.296   1.692  -3.027  0.00  0.00    -0.286 OA
ATOM      5  C   LIG d   1       6.199  -0.488  -3.912  0.00  0.00     0.065 A 
ATOM      6  C   LIG d   1       4.952  -0.789  -3.363  0.00  0.00    -0.048 A 
ATOM      7  C   LIG d   1       4.392  -2.015  -3.585  0.00  0.00    -0.068 A 
ATOM      8  C   LIG d   1       5.058  -2.963  -4.357  0.00  0.00    -0.097 A 
ATOM      9  C   LIG d   1       6.296  -2.679  -4.909  0.00  0.00     0.032 A 
ATOM     10  C   LIG d   1       6.883  -1.441  -4.688  0.00  0.00     0.146 A 
ATOM     11  O   LIG d   1       8.084  -1.145  -5.224  0.00  0.00    -0.459 OA
ATOM     12  O   LIG d   1       4.490  -4.177  -4.571  0.00  0.00    -0.873 OA
ATOM     13  H   LIG d   1       4.433  -0.056  -2.764  0.00  0.00     0.063 H 
ATOM     14  H   LIG d   1       3.427  -2.249  -3.160  0.00  0.00     0.061 H 
ENDROOT
BRANCH   9  15
ATOM     15  C   LIG d   1       7.007  -3.714  -5.743  0.00  0.00    -0.004 C 
ATOM     16  H   LIG d   1       6.333  -4.075  -6.533  0.00  0.00     0.087 H 
ATOM     17  H   LIG d   1       7.901  -3.265  -6.200  0.00  0.00     0.087 H 
BRANCH  15  18
ATOM     18  N   LIG d   1       7.408  -4.840  -4.889  0.00  0.00     0.234 N 
ATOM     19  H   LIG d   1       6.708  -4.888  -4.042  0.00  0.00     0.203 HD
BRANCH  18  20
ATOM     20  C   LIG d   1       7.320  -6.112  -5.620  0.00  0.00    -0.043 C 
ATOM     21  H   LIG d   1       7.859  -6.892  -5.062  0.00  0.00     0.078 H 
ATOM     22  H   LIG d   1       7.772  -5.994  -6.615  0.00  0.00     0.078 H 
ATOM     23  H   LIG d   1       6.265  -6.401  -5.728  0.00  0.00     0.078 H 
ENDBRANCH  18  20
BRANCH  18  24
ATOM     24  C   LIG d   1       8.757  -4.636  -4.347  0.00  0.00    -0.043 C 
ATOM     25  H   LIG d   1       9.300  -3.912  -4.973  0.00  0.00     0.078 H 
ATOM     26  H   LIG d   1       9.300  -5.593  -4.341  0.00  0.00     0.078 H 
ATOM     27  H   LIG d   1       8.685  -4.250  -3.319  0.00  0.00     0.078 H 
ENDBRANCH  18  24
ENDBRANCH  15  18
ENDBRANCH   9  15
BRANCH   1  28
ATOM     28  C   LIG d   1      10.043   0.247  -5.691  0.00  0.00    -0.006 C 
ATOM     29  H   LIG d   1      10.832   0.133  -4.934  0.00  0.00     0.031 H 
ATOM     30  H   LIG d   1      10.086   1.259  -6.117  0.00  0.00     0.031 H 
ATOM     31  H   LIG d   1      10.191  -0.495  -6.490  0.00  0.00     0.031 H 
ENDBRANCH   1  28
BRANCH   2  32
ATOM     32  C   LIG d   1       8.867   2.325  -4.155  0.00  0.00    -0.011 A 
ATOM     33  C   LIG d   1       9.753   2.501  -3.093  0.00  0.00    -0.052 A 
ATOM     34  C   LIG d   1      10.417   3.701  -2.945  0.00  0.00    -0.043 A 
ATOM     35  H   LIG d   1       9.919   1.700  -2.388  0.00  0.00     0.062 H 
ATOM     36  C   LIG d   1      10.207   4.728  -3.849  0.00  0.00     0.041 A 
ATOM     37  H   LIG d   1      11.105   3.839  -2.123  0.00  0.00     0.063 H 
ATOM     38  C   LIG d   1       9.327   4.558  -4.904  0.00  0.00    -0.043 A 
ATOM     39 CL   LIG d   1      11.046   6.235  -3.656  0.00  0.00    -0.084 Cl
ATOM     40  C   LIG d   1       8.662   3.359  -5.065  0.00  0.00    -0.052 A 
ATOM     41  H   LIG d   1       9.165   5.363  -5.606  0.00  0.00     0.063 H 
ATOM     42  H   LIG d   1       7.980   3.226  -5.892  0.00  0.00     0.062 H 
ENDBRANCH   2  32
TORSDOF 6
ENDMDL
MODEL 2
REMARK VINA RESULT:      -5.2      5.343      6.705
REMARK  6 active torsions:
REMARK  status: ('A' for Active; 'I' for Inactive)
REMARK    1  A    between atoms: C_1  and  C_2 
REMARK    2  A    between atoms: C_3  and  C_18 
REMARK    3  A    between atoms: C_10  and  C_13 
REMARK    4  A    between atoms: C_13  and  N_14 
REMARK    5  A    between atoms: N_14  and  C_15 
REMARK    6  A    between atoms: N_14  and  C_16 
ROOT
ATOM      1  C   LIG d   1       4.195  -2.270  -7.089  0.00  0.00     0.114 A 
ATOM      2  C   LIG d   1       3.980  -0.962  -6.790  0.00  0.00     0.067 A 
ATOM      3  C   LIG d   1       3.548  -0.053  -7.866  0.00  0.00     0.200 A 
ATOM      4  O   LIG d   1       3.340   1.131  -7.658  0.00  0.00    -0.286 OA
ATOM      5  C   LIG d   1       3.380  -0.643  -9.206  0.00  0.00     0.065 A 
ATOM      6  C   LIG d   1       2.975   0.133 -10.293  0.00  0.00    -0.048 A 
ATOM      7  C   LIG d   1       2.830  -0.445 -11.522  0.00  0.00    -0.068 A 
ATOM      8  C   LIG d   1       3.084  -1.804 -11.694  0.00  0.00    -0.097 A 
ATOM      9  C   LIG d   1       3.486  -2.586 -10.626  0.00  0.00     0.032 A 
ATOM     10  C   LIG d   1       3.634  -2.017  -9.368  0.00  0.00     0.146 A 
ATOM     11  O   LIG d   1       4.031  -2.763  -8.319  0.00  0.00    -0.459 OA
ATOM     12  O   LIG d   1       2.936  -2.366 -12.921  0.00  0.00    -0.873 OA
ATOM     13  H   LIG d   1       2.777   1.187 -10.163  0.00  0.00     0.063 H 
ATOM     14  H   LIG d   1       2.516   0.154 -12.364  0.00  0.00     0.061 H 
ENDROOT
BRANCH   9  15
ATOM     15  C   LIG d   1       3.759  -4.056 -10.825  0.00  0.00    -0.004 C 
ATOM     16  H   LIG d   1       3.560  -4.326 -11.872  0.00  0.00     0.087 H 
ATOM     17  H   LIG d   1       4.810  -4.269 -10.584  0.00  0.00     0.087 H 
BRANCH  15  18
ATOM     18  N   LIG d   1       2.885  -4.840  -9.942  0.00  0.00     0.234 N 
ATOM     19  H   LIG d   1       2.754  -4.276  -9.007  0.00  0.00     0.203 HD
BRANCH  18  20
ATOM     20  C   LIG d   1       1.559  -5.028 -10.546  0.00  0.00    -0.043 C 
ATOM     21  H   LIG d   1       1.169  -4.056 -10.883  0.00  0.00     0.078 H 
ATOM     22  H   LIG d   1       0.875  -5.459  -9.800  0.00  0.00     0.078 H 
ATOM     23  H   LIG d   1       1.640  -5.709 -11.406  0.00  0.00     0.078 H 
ENDBRANCH  18  20
BRANCH  18  24
ATOM     24  C   LIG d   1       3.498  -6.132  -9.607  0.00  0.00    -0.043 C 
ATOM     25  H   LIG d   1       4.335  -6.330 -10.292  0.00  0.00     0.078 H 
ATOM     26  H   LIG d   1       2.749  -6.931  -9.704  0.00  0.00     0.078 H 
ATOM     27  H   LIG d   1       3.870  -6.103  -8.572  0.00  0.00     0.078 H 
ENDBRANCH  18  24
ENDBRANCH  15  18
ENDBRANCH   9  15
BRANCH   1  28
ATOM     28  C   LIG d   1       4.637  -3.199  -5.988  0.00  0.00    -0.006 C 
ATOM     29  H   LIG d   1       5.735  -3.243  -5.963  0.00  0.00     0.031 H 
ATOM     30  H   LIG d   1       4.233  -4.205  -6.175  0.00  0.00     0.031 H 
ATOM     31  H   LIG d   1       4.262  -2.827  -5.022  0.00  0.00     0.031 H 
ENDBRANCH   1  28
BRANCH   2  32
ATOM     32  C   LIG d   1       4.175  -0.459  -5.408  0.00  0.00    -0.011 A 
ATOM     33  C   LIG d   1       3.073  -0.215  -4.591  0.00  0.00    -0.052 A 
ATOM     34  C   LIG d   1       3.260   0.252  -3.307  0.00  0.00    -0.043 A 
ATOM     35  H   LIG d   1       2.074  -0.391  -4.962  0.00  0.00     0.062 H 
ATOM     36  C   LIG d   1       4.539   0.477  -2.828  0.00  0.00     0.041 A 
ATOM     37  H   LIG d   1       2.407   0.441  -2.671  0.00  0.00     0.063 H 
ATOM     38  C   LIG d   1       5.638   0.237  -3.637  0.00  0.00    -0.043 A 
ATOM     39 CL   LIG d   1       4.767   1.065  -1.211  0.00  0.00    -0.084 Cl
ATOM     40  C   LIG d   1       5.461  -0.236  -4.922  0.00  0.00    -0.052 A 
ATOM     41  H   LIG d   1       6.634   0.416  -3.260  0.00  0.00     0.063 H 
ATOM     42  H   LIG d   1       6.319  -0.427  -5.549  0.00  0.00     0.062 H 
ENDBRANCH   2  32
TORSDOF 6
ENDMDL
MODEL 3
REMARK VINA RESULT:      -5.2      5.498      7.414
REMARK  6 active torsions:
REMARK  status: ('A' for Active; 'I' for Inactive)
REMARK    1  A    between atoms: C_1  and  C_2 
REMARK    2  A    between atoms: C_3  and  C_18 
REMARK    3  A    between atoms: C_10  and  C_13 
REMARK    4  A    between atoms: C_13  and  N_14 
REMARK    5  A    between atoms: N_14  and  C_15 
REMARK    6  A    between atoms: N_14  and  C_16 
ROOT
ATOM      1  C   LIG d   1       4.080   0.128  -7.955  0.00  0.00     0.114 A 
ATOM      2  C   LIG d   1       4.295  -0.960  -8.740  0.00  0.00     0.067 A 
ATOM      3  C   LIG d   1       4.538  -2.262  -8.094  0.00  0.00     0.200 A 
ATOM      4  O   LIG d   1       4.737  -3.272  -8.747  0.00  0.00    -0.286 OA
ATOM      5  C   LIG d   1       4.529  -2.284  -6.620  0.00  0.00     0.065 A 
ATOM      6  C   LIG d   1       4.749  -3.465  -5.912  0.00  0.00    -0.048 A 
ATOM      7  C   LIG d   1       4.734  -3.450  -4.546  0.00  0.00    -0.068 A 
ATOM      8  C   LIG d   1       4.502  -2.262  -3.859  0.00  0.00    -0.097 A 
ATOM      9  C   LIG d   1       4.281  -1.081  -4.547  0.00  0.00     0.032 A 
ATOM     10  C   LIG d   1       4.287  -1.079  -5.936  0.00  0.00     0.146 A 
ATOM     11  O   LIG d   1       4.081   0.063  -6.621  0.00  0.00    -0.459 OA
ATOM     12  O   LIG d   1       4.490  -2.260  -2.502  0.00  0.00    -0.873 OA
ATOM     13  H   LIG d   1       4.930  -4.389  -6.443  0.00  0.00     0.063 H 
ATOM     14  H   LIG d   1       4.904  -4.365  -3.997  0.00  0.00     0.061 H 
ENDROOT
BRANCH   9  15
ATOM     15  C   LIG d   1       4.031   0.199  -3.792  0.00  0.00    -0.004 C 
ATOM     16  H   LIG d   1       4.029   1.045  -4.494  0.00  0.00     0.087 H 
ATOM     17  H   LIG d   1       3.056   0.141  -3.286  0.00  0.00     0.087 H 
BRANCH  15  18
ATOM     18  N   LIG d   1       5.090   0.394  -2.793  0.00  0.00     0.234 N 
ATOM     19  H   LIG d   1       5.429  -0.599  -2.461  0.00  0.00     0.203 HD
BRANCH  18  20
ATOM     20  C   LIG d   1       6.242   1.094  -3.377  0.00  0.00    -0.043 C 
ATOM     21  H   LIG d   1       6.981   1.301  -2.590  0.00  0.00     0.078 H 
ATOM     22  H   LIG d   1       5.907   2.040  -3.825  0.00  0.00     0.078 H 
ATOM     23  H   LIG d   1       6.700   0.462  -4.152  0.00  0.00     0.078 H 
ENDBRANCH  18  20
BRANCH  18  24
ATOM     24  C   LIG d   1       4.580   1.111  -1.617  0.00  0.00    -0.043 C 
ATOM     25  H   LIG d   1       3.485   1.195  -1.684  0.00  0.00     0.078 H 
ATOM     26  H   LIG d   1       5.022   2.117  -1.579  0.00  0.00     0.078 H 
ATOM     27  H   LIG d   1       4.849   0.557  -0.705  0.00  0.00     0.078 H 
ENDBRANCH  18  24
ENDBRANCH  15  18
ENDBRANCH   9  15
BRANCH   1  28
ATOM     28  C   LIG d   1       3.832   1.459  -8.616  0.00  0.00    -0.006 C 
ATOM     29  H   LIG d   1       4.067   1.387  -9.688  0.00  0.00     0.031 H 
ATOM     30  H   LIG d   1       4.471   2.224  -8.151  0.00  0.00     0.031 H 
ATOM     31  H   LIG d   1       2.775   1.738  -8.491  0.00  0.00     0.031 H 
ENDBRANCH   1  28
BRANCH   2  32
ATOM     32  C   LIG d   1       4.285  -0.840 -10.218  0.00  0.00    -0.011 A 
ATOM     33  C   LIG d   1       5.479  -0.644 -10.912  0.00  0.00    -0.052 A 
ATOM     34  C   LIG d   1       5.464  -0.533 -12.287  0.00  0.00    -0.043 A 
ATOM     35  H   LIG d   1       6.413  -0.579 -10.373  0.00  0.00     0.062 H 
ATOM     36  C   LIG d   1       4.268  -0.617 -12.978  0.00  0.00     0.041 A 
ATOM     37  H   LIG d   1       6.388  -0.382 -12.825  0.00  0.00     0.063 H 
ATOM     38  C   LIG d   1       3.080  -0.810 -12.294  0.00  0.00    -0.043 A 
ATOM     39 CL   LIG d   1       4.257  -0.476 -14.708  0.00  0.00    -0.084 Cl
ATOM     40  C   LIG d   1       3.084  -0.928 -10.919  0.00  0.00    -0.052 A 
ATOM     41  H   LIG d   1       2.149  -0.874 -12.838  0.00  0.00     0.063 H 
ATOM     42  H   LIG d   1       2.157  -1.084 -10.387  0.00  0.00     0.062 H 
ENDBRANCH   2  32
TORSDOF 6
ENDMDL
MODEL 4
REMARK VINA RESULT:      -5.2      5.285      7.104
REMARK  6 active torsions:
REMARK  status: ('A' for Active; 'I' for Inactive)
REMARK    1  A    between atoms: C_1  and  C_2 
REMARK    2  A    between atoms: C_3  and  C_18 
REMARK    3  A    between atoms: C_10  and  C_13 
REMARK    4  A    between atoms: C_13  and  N_14 
REMARK    5  A    between atoms: N_14  and  C_15 
REMARK    6  A    between atoms: N_14  and  C_16 
ROOT
ATOM      1  C   LIG d   1       5.671  -0.742  -7.734  0.00  0.00     0.114 A 
ATOM      2  C   LIG d   1       4.418  -0.592  -8.238  0.00  0.00     0.067 A 
ATOM      3  C   LIG d   1       3.318  -0.267  -7.314  0.00  0.00     0.200 A 
ATOM      4  O   LIG d   1       2.173  -0.121  -7.709  0.00  0.00    -0.286 OA
ATOM      5  C   LIG d   1       3.667  -0.127  -5.889  0.00  0.00     0.065 A 
ATOM      6  C   LIG d   1       2.699   0.178  -4.933  0.00  0.00    -0.048 A 
ATOM      7  C   LIG d   1       3.056   0.300  -3.620  0.00  0.00    -0.068 A 
ATOM      8  C   LIG d   1       4.382   0.120  -3.233  0.00  0.00    -0.097 A 
ATOM      9  C   LIG d   1       5.355  -0.183  -4.170  0.00  0.00     0.032 A 
ATOM     10  C   LIG d   1       5.010  -0.305  -5.510  0.00  0.00     0.146 A 
ATOM     11  O   LIG d   1       5.943  -0.607  -6.434  0.00  0.00    -0.459 OA
ATOM     12  O   LIG d   1       4.724   0.244  -1.926  0.00  0.00    -0.873 OA
ATOM     13  H   LIG d   1       1.669   0.318  -5.229  0.00  0.00     0.063 H 
ATOM     14  H   LIG d   1       2.307   0.537  -2.879  0.00  0.00     0.061 H 
ENDROOT
BRANCH   9  15
ATOM     15  C   LIG d   1       6.786  -0.375  -3.739  0.00  0.00    -0.004 C 
ATOM     16  H   LIG d   1       6.882  -0.136  -2.670  0.00  0.00     0.087 H 
ATOM     17  H   LIG d   1       7.083  -1.421  -3.909  0.00  0.00     0.087 H 
BRANCH  15  18
ATOM     18  N   LIG d   1       7.657   0.513  -4.520  0.00  0.00     0.234 N 
ATOM     19  H   LIG d   1       7.127   0.777  -5.447  0.00  0.00     0.203 HD
BRANCH  18  20
ATOM     20  C   LIG d   1       7.933   1.757  -3.788  0.00  0.00    -0.043 C 
ATOM     21  H   LIG d   1       8.813   2.251  -4.225  0.00  0.00     0.078 H 
ATOM     22  H   LIG d   1       8.130   1.523  -2.731  0.00  0.00     0.078 H 
ATOM     23  H   LIG d   1       7.063   2.425  -3.860  0.00  0.00     0.078 H 
ENDBRANCH  18  20
BRANCH  18  24
ATOM     24  C   LIG d   1       8.904  -0.166  -4.893  0.00  0.00    -0.043 C 
ATOM     25  H   LIG d   1       9.151   0.067  -5.939  0.00  0.00     0.078 H 
ATOM     26  H   LIG d   1       8.779  -1.253  -4.780  0.00  0.00     0.078 H 
ATOM     27  H   LIG d   1       9.719   0.178  -4.239  0.00  0.00     0.078 H 
ENDBRANCH  18  24
ENDBRANCH  15  18
ENDBRANCH   9  15
BRANCH   1  28
ATOM     28  C   LIG d   1       6.796  -1.074  -8.680  0.00  0.00    -0.006 C 
ATOM     29  H   LIG d   1       7.241  -2.039  -8.397  0.00  0.00     0.031 H 
ATOM     30  H   LIG d   1       7.562  -0.287  -8.628  0.00  0.00     0.031 H 
ATOM     31  H   LIG d   1       6.404  -1.138  -9.706  0.00  0.00     0.031 H 
ENDBRANCH   1  28
BRANCH   2  32
ATOM     32  C   LIG d   1       4.163  -0.752  -9.691  0.00  0.00    -0.011 A 
ATOM     33  C   LIG d   1       4.297   0.339 -10.548  0.00  0.00    -0.052 A 
ATOM     34  C   LIG d   1       4.059   0.185 -11.898  0.00  0.00    -0.043 A 
ATOM     35  H   LIG d   1       4.586   1.303 -10.156  0.00  0.00     0.062 H 
ATOM     36  C   LIG d   1       3.689  -1.050 -12.403  0.00  0.00     0.041 A 
ATOM     37  H   LIG d   1       4.162   1.030 -12.564  0.00  0.00     0.063 H 
ATOM     38  C   LIG d   1       3.554  -2.137 -11.555  0.00  0.00    -0.043 A 
ATOM     39 CL   LIG d   1       3.391  -1.236 -14.102  0.00  0.00    -0.084 Cl
ATOM     40  C   LIG d   1       3.796  -1.994 -10.203  0.00  0.00    -0.052 A 
ATOM     41  H   LIG d   1       3.265  -3.098 -11.952  0.00  0.00     0.063 H 
ATOM     42  H   LIG d   1       3.695  -2.844  -9.544  0.00  0.00     0.062 H 
ENDBRANCH   2  32
TORSDOF 6
ENDMDL
MODEL 5
REMARK VINA RESULT:      -5.1      1.860      2.136
REMARK  6 active torsions:
REMARK  status: ('A' for Active; 'I' for Inactive)
REMARK    1  A    between atoms: C_1  and  C_2 
REMARK    2  A    between atoms: C_3  and  C_18 
REMARK    3  A    between atoms: C_10  and  C_13 
REMARK    4  A    between atoms: C_13  and  N_14 
REMARK    5  A    between atoms: N_14  and  C_15 
REMARK    6  A    between atoms: N_14  and  C_16 
ROOT
ATOM      1  C   LIG d   1       8.470  -0.416  -5.402  0.00  0.00     0.114 A 
ATOM      2  C   LIG d   1       8.476   0.813  -4.824  0.00  0.00     0.067 A 
ATOM      3  C   LIG d   1       7.440   1.131  -3.827  0.00  0.00     0.200 A 
ATOM      4  O   LIG d   1       7.394   2.218  -3.276  0.00  0.00    -0.286 OA
ATOM      5  C   LIG d   1       6.459   0.072  -3.528  0.00  0.00     0.065 A 
ATOM      6  C   LIG d   1       5.437   0.273  -2.600  0.00  0.00    -0.048 A 
ATOM      7  C   LIG d   1       4.544  -0.730  -2.346  0.00  0.00    -0.068 A 
ATOM      8  C   LIG d   1       4.650  -1.949  -3.011  0.00  0.00    -0.097 A 
ATOM      9  C   LIG d   1       5.658  -2.163  -3.934  0.00  0.00     0.032 A 
ATOM     10  C   LIG d   1       6.578  -1.157  -4.200  0.00  0.00     0.146 A 
ATOM     11  O   LIG d   1       7.561  -1.347  -5.102  0.00  0.00    -0.459 OA
ATOM     12  O   LIG d   1       3.756  -2.937  -2.750  0.00  0.00    -0.873 OA
ATOM     13  H   LIG d   1       5.352   1.218  -2.083  0.00  0.00     0.063 H 
ATOM     14  H   LIG d   1       3.753  -0.576  -1.627  0.00  0.00     0.061 H 
ENDROOT
BRANCH   9  15
ATOM     15  C   LIG d   1       5.762  -3.488  -4.647  0.00  0.00    -0.004 C 
ATOM     16  H   LIG d   1       6.620  -3.468  -5.334  0.00  0.00     0.087 H 
ATOM     17  H   LIG d   1       5.902  -4.291  -3.908  0.00  0.00     0.087 H 
BRANCH  15  18
ATOM     18  N   LIG d   1       4.530  -3.732  -5.409  0.00  0.00     0.234 N 
ATOM     19  H   LIG d   1       3.683  -3.369  -4.808  0.00  0.00     0.203 HD
BRANCH  18  20
ATOM     20  C   LIG d   1       4.538  -2.987  -6.675  0.00  0.00    -0.043 C 
ATOM     21  H   LIG d   1       3.712  -3.338  -7.311  0.00  0.00     0.078 H 
ATOM     22  H   LIG d   1       5.495  -3.153  -7.191  0.00  0.00     0.078 H 
ATOM     23  H   LIG d   1       4.413  -1.914  -6.470  0.00  0.00     0.078 H 
ENDBRANCH  18  20
BRANCH  18  24
ATOM     24  C   LIG d   1       4.332  -5.168  -5.643  0.00  0.00    -0.043 C 
ATOM     25  H   LIG d   1       3.258  -5.378  -5.756  0.00  0.00     0.078 H 
ATOM     26  H   LIG d   1       4.728  -5.738  -4.790  0.00  0.00     0.078 H 
ATOM     27  H   LIG d   1       4.862  -5.466  -6.561  0.00  0.00     0.078 H 
ENDBRANCH  18  24
ENDBRANCH  15  18
ENDBRANCH   9  15
BRANCH   1  28
ATOM     28  C   LIG d   1       9.531  -0.741  -6.422  0.00  0.00    -0.006 C 
ATOM     29  H   LIG d   1       9.814  -1.800  -6.334  0.00  0.00     0.031 H 
ATOM     30  H   LIG d   1      10.414  -0.109  -6.246  0.00  0.00     0.031 H 
ATOM     31  H   LIG d   1       9.138  -0.550  -7.432  0.00  0.00     0.031 H 
ENDBRANCH   1  28
BRANCH   2  32
ATOM     32  C   LIG d   1       9.506   1.816  -5.190  0.00  0.00    -0.011 A 
ATOM     33  C   LIG d   1      10.712   1.866  -4.492  0.00  0.00    -0.052 A 
ATOM     34  C   LIG d   1      11.667   2.800  -4.837  0.00  0.00    -0.043 A 
ATOM     35  H   LIG d   1      10.898   1.175  -3.684  0.00  0.00     0.062 H 
ATOM     36  C   LIG d   1      11.430   3.686  -5.874  0.00  0.00     0.041 A 
ATOM     37  H   LIG d   1      12.602   2.840  -4.297  0.00  0.00     0.063 H 
ATOM     38  C   LIG d   1      10.234   3.641  -6.569  0.00  0.00    -0.043 A 
ATOM     39 CL   LIG d   1      12.636   4.859  -6.301  0.00  0.00    -0.084 Cl
ATOM     40  C   LIG d   1       9.274   2.707  -6.236  0.00  0.00    -0.052 A 
ATOM     41  H   LIG d   1      10.053   4.335  -7.377  0.00  0.00     0.063 H 
ATOM     42  H   LIG d   1       8.343   2.669  -6.783  0.00  0.00     0.062 H 
ENDBRANCH   2  32
TORSDOF 6
ENDMDL
MODEL 6
REMARK VINA RESULT:      -5.1      4.809      6.515
REMARK  6 active torsions:
REMARK  status: ('A' for Active; 'I' for Inactive)
REMARK    1  A    between atoms: C_1  and  C_2 
REMARK    2  A    between atoms: C_3  and  C_18 
REMARK    3  A    between atoms: C_10  and  C_13 
REMARK    4  A    between atoms: C_13  and  N_14 
REMARK    5  A    between atoms: N_14  and  C_15 
REMARK    6  A    between atoms: N_14  and  C_16 
ROOT
ATOM      1  C   LIG d   1       6.866  -4.336  -4.940  0.00  0.00     0.114 A 
ATOM      2  C   LIG d   1       5.526  -4.198  -5.120  0.00  0.00     0.067 A 
ATOM      3  C   LIG d   1       4.749  -5.365  -5.572  0.00  0.00     0.200 A 
ATOM      4  O   LIG d   1       3.545  -5.300  -5.751  0.00  0.00    -0.286 OA
ATOM      5  C   LIG d   1       5.498  -6.614  -5.799  0.00  0.00     0.065 A 
ATOM      6  C   LIG d   1       4.856  -7.775  -6.229  0.00  0.00    -0.048 A 
ATOM      7  C   LIG d   1       5.579  -8.916  -6.430  0.00  0.00    -0.068 A 
ATOM      8  C   LIG d   1       6.955  -8.924  -6.209  0.00  0.00    -0.097 A 
ATOM      9  C   LIG d   1       7.606  -7.780  -5.782  0.00  0.00     0.032 A 
ATOM     10  C   LIG d   1       6.885  -6.613  -5.567  0.00  0.00     0.146 A 
ATOM     11  O   LIG d   1       7.505  -5.488  -5.159  0.00  0.00    -0.459 OA
ATOM     12  O   LIG d   1       7.662 -10.064  -6.413  0.00  0.00    -0.873 OA
ATOM     13  H   LIG d   1       3.789  -7.772  -6.401  0.00  0.00     0.063 H 
ATOM     14  H   LIG d   1       5.083  -9.816  -6.763  0.00  0.00     0.061 H 
ENDROOT
BRANCH   9  15
ATOM     15  C   LIG d   1       9.095  -7.801  -5.546  0.00  0.00    -0.004 C 
ATOM     16  H   LIG d   1       9.485  -8.807  -5.757  0.00  0.00     0.087 H 
ATOM     17  H   LIG d   1       9.582  -7.072  -6.211  0.00  0.00     0.087 H 
BRANCH  15  18
ATOM     18  N   LIG d   1       9.375  -7.451  -4.148  0.00  0.00     0.234 N 
ATOM     19  H   LIG d   1       8.614  -6.726  -3.822  0.00  0.00     0.203 HD
BRANCH  18  20
ATOM     20  C   LIG d   1       9.274  -8.632  -3.279  0.00  0.00    -0.043 C 
ATOM     21  H   LIG d   1      10.040  -9.366  -3.570  0.00  0.00     0.078 H 
ATOM     22  H   LIG d   1       8.276  -9.081  -3.386  0.00  0.00     0.078 H 
ATOM     23  H   LIG d   1       9.432  -8.332  -2.233  0.00  0.00     0.078 H 
ENDBRANCH  18  20
BRANCH  18  24
ATOM     24  C   LIG d   1      10.691  -6.812  -4.017  0.00  0.00    -0.043 C 
ATOM     25  H   LIG d   1      11.271  -6.974  -4.938  0.00  0.00     0.078 H 
ATOM     26  H   LIG d   1      11.229  -7.250  -3.164  0.00  0.00     0.078 H 
ATOM     27  H   LIG d   1      10.559  -5.732  -3.852  0.00  0.00     0.078 H 
ENDBRANCH  18  24
ENDBRANCH  15  18
ENDBRANCH   9  15
BRANCH   1  28
ATOM     28  C   LIG d   1       7.661  -3.142  -4.477  0.00  0.00    -0.006 C 
ATOM     29  H   LIG d   1       8.682  -3.459  -4.219  0.00  0.00     0.031 H 
ATOM     30  H   LIG d   1       7.178  -2.702  -3.593  0.00  0.00     0.031 H 
ATOM     31  H   LIG d   1       7.701  -2.395  -5.284  0.00  0.00     0.031 H 
ENDBRANCH   1  28
BRANCH   2  32
ATOM     32  C   LIG d   1       4.859  -2.898  -4.865  0.00  0.00    -0.011 A 
ATOM     33  C   LIG d   1       4.759  -1.952  -5.885  0.00  0.00    -0.052 A 
ATOM     34  C   LIG d   1       4.137  -0.745  -5.643  0.00  0.00    -0.043 A 
ATOM     35  H   LIG d   1       5.166  -2.165  -6.862  0.00  0.00     0.062 H 
ATOM     36  C   LIG d   1       3.613  -0.471  -4.391  0.00  0.00     0.041 A 
ATOM     37  H   LIG d   1       4.058  -0.011  -6.432  0.00  0.00     0.063 H 
ATOM     38  C   LIG d   1       3.711  -1.407  -3.375  0.00  0.00    -0.043 A 
ATOM     39 CL   LIG d   1       2.832   1.050  -4.094  0.00  0.00    -0.084 Cl
ATOM     40  C   LIG d   1       4.326  -2.620  -3.608  0.00  0.00    -0.052 A 
ATOM     41  H   LIG d   1       3.302  -1.189  -2.399  0.00  0.00     0.063 H 
ATOM     42  H   LIG d   1       4.398  -3.351  -2.816  0.00  0.00     0.062 H 
ENDBRANCH   2  32
TORSDOF 6
ENDMDL
MODEL 7
REMARK VINA RESULT:      -5.1      5.774      9.661
REMARK  6 active torsions:
REMARK  status: ('A' for Active; 'I' for Inactive)
REMARK    1  A    between atoms: C_1  and  C_2 
REMARK    2  A    between atoms: C_3  and  C_18 
REMARK    3  A    between atoms: C_10  and  C_13 
REMARK    4  A    between atoms: C_13  and  N_14 
REMARK    5  A    between atoms: N_14  and  C_15 
REMARK    6  A    between atoms: N_14  and  C_16 
ROOT
ATOM      1  C   LIG d   1       9.534   6.227  -3.679  0.00  0.00     0.114 A 
ATOM      2  C   LIG d   1       9.927   4.931  -3.575  0.00  0.00     0.067 A 
ATOM      3  C   LIG d   1      10.578   4.487  -2.331  0.00  0.00     0.200 A 
ATOM      4  O   LIG d   1      10.953   3.337  -2.180  0.00  0.00    -0.286 OA
ATOM      5  C   LIG d   1      10.757   5.502  -1.276  0.00  0.00     0.065 A 
ATOM      6  C   LIG d   1      11.364   5.184  -0.061  0.00  0.00    -0.048 A 
ATOM      7  C   LIG d   1      11.515   6.148   0.895  0.00  0.00    -0.068 A 
ATOM      8  C   LIG d   1      11.066   7.446   0.660  0.00  0.00    -0.097 A 
ATOM      9  C   LIG d   1      10.462   7.777  -0.541  0.00  0.00     0.032 A 
ATOM     10  C   LIG d   1      10.296   6.808  -1.521  0.00  0.00     0.146 A 
ATOM     11  O   LIG d   1       9.717   7.115  -2.698  0.00  0.00    -0.459 OA
ATOM     12  O   LIG d   1      11.223   8.395   1.618  0.00  0.00    -0.873 OA
ATOM     13  H   LIG d   1      11.713   4.178   0.123  0.00  0.00     0.063 H 
ATOM     14  H   LIG d   1      11.984   5.903   1.836  0.00  0.00     0.061 H 
ENDROOT
BRANCH   9  15
ATOM     15  C   LIG d   1       9.981   9.185  -0.782  0.00  0.00    -0.004 C 
ATOM     16  H   LIG d   1       8.894   9.178  -0.944  0.00  0.00     0.087 H 
ATOM     17  H   LIG d   1      10.218   9.808   0.093  0.00  0.00     0.087 H 
BRANCH  15  18
ATOM     18  N   LIG d   1      10.650   9.734  -1.969  0.00  0.00     0.234 N 
ATOM     19  H   LIG d   1      10.837   8.904  -2.666  0.00  0.00     0.203 HD
BRANCH  18  20
ATOM     20  C   LIG d   1       9.792  10.713  -2.651  0.00  0.00    -0.043 C 
ATOM     21  H   LIG d   1       9.123  11.186  -1.918  0.00  0.00     0.078 H 
ATOM     22  H   LIG d   1       9.194  10.203  -3.419  0.00  0.00     0.078 H 
ATOM     23  H   LIG d   1      10.419  11.482  -3.125  0.00  0.00     0.078 H 
ENDBRANCH  18  20
BRANCH  18  24
ATOM     24  C   LIG d   1      11.947  10.326  -1.616  0.00  0.00    -0.043 C 
ATOM     25  H   LIG d   1      11.971  11.378  -1.938  0.00  0.00     0.078 H 
ATOM     26  H   LIG d   1      12.753   9.772  -2.119  0.00  0.00     0.078 H 
ATOM     27  H   LIG d   1      12.090  10.273  -0.527  0.00  0.00     0.078 H 
ENDBRANCH  18  24
ENDBRANCH  15  18
ENDBRANCH   9  15
BRANCH   1  28
ATOM     28  C   LIG d   1       8.867   6.681  -4.953  0.00  0.00    -0.006 C 
ATOM     29  H   LIG d   1       8.691   5.813  -5.604  0.00  0.00     0.031 H 
ATOM     30  H   LIG d   1       9.517   7.403  -5.469  0.00  0.00     0.031 H 
ATOM     31  H   LIG d   1       7.906   7.159  -4.711  0.00  0.00     0.031 H 
ENDBRANCH   1  28
BRANCH   2  32
ATOM     32  C   LIG d   1       9.704   3.981  -4.692  0.00  0.00    -0.011 A 
ATOM     33  C   LIG d   1       8.631   3.091  -4.649  0.00  0.00    -0.052 A 
ATOM     34  C   LIG d   1       8.427   2.210  -5.690  0.00  0.00    -0.043 A 
ATOM     35  H   LIG d   1       7.961   3.092  -3.802  0.00  0.00     0.062 H 
ATOM     36  C   LIG d   1       9.284   2.208  -6.777  0.00  0.00     0.041 A 
ATOM     37  H   LIG d   1       7.596   1.520  -5.659  0.00  0.00     0.063 H 
ATOM     38  C   LIG d   1      10.352   3.089  -6.825  0.00  0.00    -0.043 A 
ATOM     39 CL   LIG d   1       9.022   1.096  -8.084  0.00  0.00    -0.084 Cl
ATOM     40  C   LIG d   1      10.561   3.979  -5.790  0.00  0.00    -0.052 A 
ATOM     41  H   LIG d   1      11.019   3.084  -7.674  0.00  0.00     0.063 H 
ATOM     42  H   LIG d   1      11.390   4.669  -5.830  0.00  0.00     0.062 H 
ENDBRANCH   2  32
TORSDOF 6
ENDMDL
MODEL 8
REMARK VINA RESULT:      -5.1      6.309     10.473
REMARK  6 active torsions:
REMARK  status: ('A' for Active; 'I' for Inactive)
REMARK    1  A    between atoms: C_1  and  C_2 
REMARK    2  A    between atoms: C_3  and  C_18 
REMARK    3  A    between atoms: C_10  and  C_13 
REMARK    4  A    between atoms: C_13  and  N_14 
REMARK    5  A    between atoms: N_14  and  C_15 
REMARK    6  A    between atoms: N_14  and  C_16 
ROOT
ATOM      1  C   LIG d   1       9.842   6.643  -3.252  0.00  0.00     0.114 A 
ATOM      2  C   LIG d   1      10.456   5.624  -2.597  0.00  0.00     0.067 A 
ATOM      3  C   LIG d   1      11.005   5.875  -1.253  0.00  0.00     0.200 A 
ATOM      4  O   LIG d   1      11.568   5.000  -0.618  0.00  0.00    -0.286 OA
ATOM      5  C   LIG d   1      10.842   7.237  -0.714  0.00  0.00     0.065 A 
ATOM      6  C   LIG d   1      11.327   7.579   0.549  0.00  0.00    -0.048 A 
ATOM      7  C   LIG d   1      11.159   8.851   1.019  0.00  0.00    -0.068 A 
ATOM      8  C   LIG d   1      10.508   9.806   0.243  0.00  0.00    -0.097 A 
ATOM      9  C   LIG d   1      10.021   9.483  -1.012  0.00  0.00     0.032 A 
ATOM     10  C   LIG d   1      10.178   8.193  -1.503  0.00  0.00     0.146 A 
ATOM     11  O   LIG d   1       9.716   7.864  -2.725  0.00  0.00    -0.459 OA
ATOM     12  O   LIG d   1      10.348  11.066   0.721  0.00  0.00    -0.873 OA
ATOM     13  H   LIG d   1      11.833   6.840   1.153  0.00  0.00     0.063 H 
ATOM     14  H   LIG d   1      11.534   9.116   1.997  0.00  0.00     0.061 H 
ENDROOT
BRANCH   9  15
ATOM     15  C   LIG d   1       9.318  10.526  -1.842  0.00  0.00    -0.004 C 
ATOM     16  H   LIG d   1       8.290  10.198  -2.050  0.00  0.00     0.087 H 
ATOM     17  H   LIG d   1       9.295  11.478  -1.291  0.00  0.00     0.087 H 
BRANCH  15  18
ATOM     18  N   LIG d   1      10.038  10.711  -3.109  0.00  0.00     0.234 N 
ATOM     19  H   LIG d   1      10.490   9.747  -3.385  0.00  0.00     0.203 HD
BRANCH  18  20
ATOM     20  C   LIG d   1       9.118  11.104  -4.185  0.00  0.00    -0.043 C 
ATOM     21  H   LIG d   1       9.584  10.896  -5.159  0.00  0.00     0.078 H 
ATOM     22  H   LIG d   1       8.898  12.178  -4.105  0.00  0.00     0.078 H 
ATOM     23  H   LIG d   1       8.183  10.531  -4.095  0.00  0.00     0.078 H 
ENDBRANCH  18  20
BRANCH  18  24
ATOM     24  C   LIG d   1      11.123  11.690  -2.961  0.00  0.00    -0.043 C 
ATOM     25  H   LIG d   1      12.087  11.164  -2.897  0.00  0.00     0.078 H 
ATOM     26  H   LIG d   1      10.965  12.277  -2.045  0.00  0.00     0.078 H 
ATOM     27  H   LIG d   1      11.130  12.363  -3.831  0.00  0.00     0.078 H 
ENDBRANCH  18  24
ENDBRANCH  15  18
ENDBRANCH   9  15
BRANCH   1  28
ATOM     28  C   LIG d   1       9.280   6.385  -4.627  0.00  0.00    -0.006 C 
ATOM     29  H   LIG d   1       9.615   7.176  -5.314  0.00  0.00     0.031 H 
ATOM     30  H   LIG d   1       8.182   6.381  -4.578  0.00  0.00     0.031 H 
ATOM     31  H   LIG d   1       9.636   5.409  -4.989  0.00  0.00     0.031 H 
ENDBRANCH   1  28
BRANCH   2  32
ATOM     32  C   LIG d   1      10.573   4.284  -3.222  0.00  0.00    -0.011 A 
ATOM     33  C   LIG d   1      11.743   3.923  -3.889  0.00  0.00    -0.052 A 
ATOM     34  C   LIG d   1      11.846   2.675  -4.468  0.00  0.00    -0.043 A 
ATOM     35  H   LIG d   1      12.567   4.618  -3.951  0.00  0.00     0.062 H 
ATOM     36  C   LIG d   1      10.792   1.782  -4.389  0.00  0.00     0.041 A 
ATOM     37  H   LIG d   1      12.753   2.394  -4.984  0.00  0.00     0.063 H 
ATOM     38  C   LIG d   1       9.627   2.136  -3.729  0.00  0.00    -0.043 A 
ATOM     39 CL   LIG d   1      10.929   0.214  -5.120  0.00  0.00    -0.084 Cl
ATOM     40  C   LIG d   1       9.516   3.380  -3.141  0.00  0.00    -0.052 A 
ATOM     41  H   LIG d   1       8.806   1.437  -3.670  0.00  0.00     0.063 H 
ATOM     42  H   LIG d   1       8.609   3.653  -2.622  0.00  0.00     0.062 H 
ENDBRANCH   2  32
TORSDOF 6
ENDMDL
MODEL 9
REMARK VINA RESULT:      -4.8      7.270      9.752
REMARK  6 active torsions:
REMARK  status: ('A' for Active; 'I' for Inactive)
REMARK    1  A    between atoms: C_1  and  C_2 
REMARK    2  A    between atoms: C_3  and  C_18 
REMARK    3  A    between atoms: C_10  and  C_13 
REMARK    4  A    between atoms: C_13  and  N_14 
REMARK    5  A    between atoms: N_14  and  C_15 
REMARK    6  A    between atoms: N_14  and  C_16 
ROOT
ATOM      1  C   LIG d   1      10.275   7.882  -6.154  0.00  0.00     0.114 A 
ATOM      2  C   LIG d   1      10.089   6.646  -6.686  0.00  0.00     0.067 A 
ATOM      3  C   LIG d   1       9.946   5.498  -5.775  0.00  0.00     0.200 A 
ATOM      4  O   LIG d   1       9.777   4.365  -6.195  0.00  0.00    -0.286 OA
ATOM      5  C   LIG d   1      10.017   5.783  -4.330  0.00  0.00     0.065 A 
ATOM      6  C   LIG d   1       9.895   4.766  -3.384  0.00  0.00    -0.048 A 
ATOM      7  C   LIG d   1       9.966   5.065  -2.053  0.00  0.00    -0.068 A 
ATOM      8  C   LIG d   1      10.162   6.380  -1.638  0.00  0.00    -0.097 A 
ATOM      9  C   LIG d   1      10.285   7.400  -2.565  0.00  0.00     0.032 A 
ATOM     10  C   LIG d   1      10.209   7.115  -3.921  0.00  0.00     0.146 A 
ATOM     11  O   LIG d   1      10.335   8.096  -4.837  0.00  0.00    -0.459 OA
ATOM     12  O   LIG d   1      10.232   6.663  -0.312  0.00  0.00    -0.873 OA
ATOM     13  H   LIG d   1       9.743   3.745  -3.703  0.00  0.00     0.063 H 
ATOM     14  H   LIG d   1       9.871   4.278  -1.320  0.00  0.00     0.061 H 
ENDROOT
BRANCH   9  15
ATOM     15  C   LIG d   1      10.497   8.820  -2.102  0.00  0.00    -0.004 C 
ATOM     16  H   LIG d   1      10.861   8.817  -1.065  0.00  0.00     0.087 H 
ATOM     17  H   LIG d   1      11.239   9.309  -2.750  0.00  0.00     0.087 H 
BRANCH  15  18
ATOM     18  N   LIG d   1       9.226   9.553  -2.174  0.00  0.00     0.234 N 
ATOM     19  H   LIG d   1       8.522   8.952  -2.769  0.00  0.00     0.203 HD
BRANCH  18  20
ATOM     20  C   LIG d   1       8.647   9.734  -0.836  0.00  0.00    -0.043 C 
ATOM     21  H   LIG d   1       7.619   9.345  -0.826  0.00  0.00     0.078 H 
ATOM     22  H   LIG d   1       8.637  10.804  -0.583  0.00  0.00     0.078 H 
ATOM     23  H   LIG d   1       9.253   9.188  -0.097  0.00  0.00     0.078 H 
ENDBRANCH  18  20
BRANCH  18  24
ATOM     24  C   LIG d   1       9.400  10.844  -2.851  0.00  0.00    -0.043 C 
ATOM     25  H   LIG d   1       9.937  11.538  -2.188  0.00  0.00     0.078 H 
ATOM     26  H   LIG d   1       8.415  11.264  -3.101  0.00  0.00     0.078 H 
ATOM     27  H   LIG d   1       9.980  10.698  -3.775  0.00  0.00     0.078 H 
ENDBRANCH  18  24
ENDBRANCH  15  18
ENDBRANCH   9  15
BRANCH   1  28
ATOM     28  C   LIG d   1      10.421   9.057  -7.087  0.00  0.00    -0.006 C 
ATOM     29  H   LIG d   1      10.247   8.728  -8.121  0.00  0.00     0.031 H 
ATOM     30  H   LIG d   1      11.437   9.470  -6.998  0.00  0.00     0.031 H 
ATOM     31  H   LIG d   1       9.685   9.830  -6.819  0.00  0.00     0.031 H 
ENDBRANCH   1  28
BRANCH   2  32
ATOM     32  C   LIG d   1      10.030   6.457  -8.156  0.00  0.00    -0.011 A 
ATOM     33  C   LIG d   1      11.202   6.250  -8.881  0.00  0.00    -0.052 A 
ATOM     34  C   LIG d   1      11.142   6.074 -10.248  0.00  0.00    -0.043 A 
ATOM     35  H   LIG d   1      12.156   6.227  -8.374  0.00  0.00     0.062 H 
ATOM     36  C   LIG d   1       9.921   6.101 -10.900  0.00  0.00     0.041 A 
ATOM     37  H   LIG d   1      12.050   5.912 -10.812  0.00  0.00     0.063 H 
ATOM     38  C   LIG d   1       8.754   6.308 -10.184  0.00  0.00    -0.043 A 
ATOM     39 CL   LIG d   1       9.853   5.879 -12.620  0.00  0.00    -0.084 Cl
ATOM     40  C   LIG d   1       8.803   6.479  -8.815  0.00  0.00    -0.052 A 
ATOM     41  H   LIG d   1       7.804   6.330 -10.696  0.00  0.00     0.063 H 
ATOM     42  H   LIG d   1       7.891   6.635  -8.257  0.00  0.00     0.062 H 
ENDBRANCH   2  32
TORSDOF 6
ENDMDL
MODEL 10
REMARK VINA RESULT:      -4.8      9.694     12.425
REMARK  6 active torsions:
REMARK  status: ('A' for Active; 'I' for Inactive)
REMARK    1  A    between atoms: C_1  and  C_2 
REMARK    2  A    between atoms: C_3  and  C_18 
REMARK    3  A    between atoms: C_10  and  C_13 
REMARK    4  A    between atoms: C_13  and  N_14 
REMARK    5  A    between atoms: N_14  and  C_15 
REMARK    6  A    between atoms: N_14  and  C_16 
ROOT
ATOM      1  C   LIG d   1       7.728 -11.189  -1.187  0.00  0.00     0.114 A 
ATOM      2  C   LIG d   1       7.339 -10.446  -2.256  0.00  0.00     0.067 A 
ATOM      3  C   LIG d   1       8.071  -9.205  -2.559  0.00  0.00     0.200 A 
ATOM      4  O   LIG d   1       7.767  -8.497  -3.505  0.00  0.00    -0.286 OA
ATOM      5  C   LIG d   1       9.189  -8.857  -1.663  0.00  0.00     0.065 A 
ATOM      6  C   LIG d   1       9.945  -7.702  -1.862  0.00  0.00    -0.048 A 
ATOM      7  C   LIG d   1      10.974  -7.410  -1.013  0.00  0.00    -0.068 A 
ATOM      8  C   LIG d   1      11.270  -8.259   0.051  0.00  0.00    -0.097 A 
ATOM      9  C   LIG d   1      10.529  -9.409   0.262  0.00  0.00     0.032 A 
ATOM     10  C   LIG d   1       9.483  -9.725  -0.595  0.00  0.00     0.146 A 
ATOM     11  O   LIG d   1       8.747 -10.836  -0.400  0.00  0.00    -0.459 OA
ATOM     12  O   LIG d   1      12.294  -7.957   0.888  0.00  0.00    -0.873 OA
ATOM     13  H   LIG d   1       9.718  -7.041  -2.686  0.00  0.00     0.063 H 
ATOM     14  H   LIG d   1      11.560  -6.516  -1.166  0.00  0.00     0.061 H 
ENDROOT
BRANCH   9  15
ATOM     15  C   LIG d   1      10.859 -10.320   1.417  0.00  0.00    -0.004 C 
ATOM     16  H   LIG d   1      10.855  -9.742   2.352  0.00  0.00     0.087 H 
ATOM     17  H   LIG d   1      10.109 -11.122   1.477  0.00  0.00     0.087 H 
BRANCH  15  18
ATOM     18  N   LIG d   1      12.189 -10.909   1.211  0.00  0.00     0.234 N 
ATOM     19  H   LIG d   1      12.779 -10.208   0.602  0.00  0.00     0.203 HD
BRANCH  18  20
ATOM     20  C   LIG d   1      12.887 -11.092   2.491  0.00  0.00    -0.043 C 
ATOM     21  H   LIG d   1      13.812 -11.664   2.325  0.00  0.00     0.078 H 
ATOM     22  H   LIG d   1      12.236 -11.641   3.187  0.00  0.00     0.078 H 
ATOM     23  H   LIG d   1      13.135 -10.110   2.918  0.00  0.00     0.078 H 
ENDBRANCH  18  20
BRANCH  18  24
ATOM     24  C   LIG d   1      12.096 -12.176   0.475  0.00  0.00    -0.043 C 
ATOM     25  H   LIG d   1      11.111 -12.632   0.652  0.00  0.00     0.078 H 
ATOM     26  H   LIG d   1      12.884 -12.861   0.822  0.00  0.00     0.078 H 
ATOM     27  H   LIG d   1      12.225 -11.986  -0.601  0.00  0.00     0.078 H 
ENDBRANCH  18  24
ENDBRANCH  15  18
ENDBRANCH   9  15
BRANCH   1  28
ATOM     28  C   LIG d   1       6.979 -12.460  -0.878  0.00  0.00    -0.006 C 
ATOM     29  H   LIG d   1       5.920 -12.226  -0.691  0.00  0.00     0.031 H 
ATOM     30  H   LIG d   1       7.414 -12.933   0.014  0.00  0.00     0.031 H 
ATOM     31  H   LIG d   1       7.056 -13.147  -1.734  0.00  0.00     0.031 H 
ENDBRANCH   1  28
BRANCH   2  32
ATOM     32  C   LIG d   1       6.200 -10.878  -3.103  0.00  0.00    -0.011 A 
ATOM     33  C   LIG d   1       4.896 -10.534  -2.747  0.00  0.00    -0.052 A 
ATOM     34  C   LIG d   1       3.840 -10.937  -3.538  0.00  0.00    -0.043 A 
ATOM     35  H   LIG d   1       4.713  -9.953  -1.855  0.00  0.00     0.062 H 
ATOM     36  C   LIG d   1       4.072 -11.680  -4.682  0.00  0.00     0.041 A 
ATOM     37  H   LIG d   1       2.829 -10.671  -3.264  0.00  0.00     0.063 H 
ATOM     38  C   LIG d   1       5.365 -12.025  -5.039  0.00  0.00    -0.043 A 
ATOM     39 CL   LIG d   1       2.738 -12.184  -5.672  0.00  0.00    -0.084 Cl
ATOM     40  C   LIG d   1       6.429 -11.622  -4.258  0.00  0.00    -0.052 A 
ATOM     41  H   LIG d   1       5.541 -12.606  -5.932  0.00  0.00     0.063 H 
ATOM     42  H   LIG d   1       7.437 -11.887  -4.540  0.00  0.00     0.062 H 
ENDBRANCH   2  32
TORSDOF 6
ENDMDL
