MODEL 1
REMARK VINA RESULT:      -7.0      0.000      0.000
REMARK  7 active torsions:
REMARK  status: ('A' for Active; 'I' for Inactive)
REMARK    1  A    between atoms: C_1  and  O_2 
REMARK    2  A    between atoms: O_2  and  C_3 
REMARK    3  A    between atoms: C_7  and  C_9 
REMARK    4  A    between atoms: C_9  and  C_10 
REMARK    5  A    between atoms: C_10  and  N_11 
REMARK    6  A    between atoms: N_11  and  C_12 
REMARK    7  A    between atoms: C_20  and  N_22 
ROOT
ATOM      1  C   LIG d   1       5.180  -3.000  -4.639  0.00  0.00     0.020 C 
ATOM      2  H   LIG d   1       6.090  -2.402  -4.700  0.00  0.00     0.047 H 
ATOM      3  H   LIG d   1       5.439  -4.059  -4.665  0.00  0.00     0.047 H 
ENDROOT
BRANCH   1   4
ATOM      4  C   LIG d   1       4.450  -2.685  -3.332  0.00  0.00    -0.012 C 
ATOM      5  H   LIG d   1       4.909  -3.243  -2.517  0.00  0.00     0.033 H 
ATOM      6  H   LIG d   1       3.402  -2.970  -3.423  0.00  0.00     0.033 H 
BRANCH   4   7
ATOM      7  C   LIG d   1       4.546  -1.208  -3.047  0.00  0.00    -0.042 A 
ATOM      8  C   LIG d   1       3.448  -0.526  -2.558  0.00  0.00    -0.058 A 
ATOM      9  C   LIG d   1       3.534   0.828  -2.294  0.00  0.00    -0.058 A 
ATOM     10  H   LIG d   1       2.521  -1.052  -2.381  0.00  0.00     0.062 H 
ATOM     11  C   LIG d   1       4.717   1.504  -2.519  0.00  0.00    -0.020 A 
ATOM     12  H   LIG d   1       2.675   1.360  -1.912  0.00  0.00     0.062 H 
ATOM     13  C   LIG d   1       5.821   0.822  -3.011  0.00  0.00     0.120 A 
ATOM     14  H   LIG d   1       4.784   2.562  -2.314  0.00  0.00     0.065 H 
ATOM     15  C   LIG d   1       5.731  -0.536  -3.279  0.00  0.00    -0.017 A 
ATOM     16  H   LIG d   1       6.588  -1.069  -3.666  0.00  0.00     0.066 H 
BRANCH  13  17
ATOM     17  O   LIG d   1       6.987   1.484  -3.235  0.00  0.00    -0.495 OA
BRANCH  17  18
ATOM     18  C   LIG d   1       7.845   0.962  -4.251  0.00  0.00     0.079 C 
ATOM     19  H   LIG d   1       7.305   0.217  -4.835  0.00  0.00     0.066 H 
ATOM     20  H   LIG d   1       8.168   1.771  -4.905  0.00  0.00     0.066 H 
ATOM     21  H   LIG d   1       8.716   0.499  -3.788  0.00  0.00     0.066 H 
ENDBRANCH  17  18
ENDBRANCH  13  17
ENDBRANCH   4   7
ENDBRANCH   1   4
BRANCH   1  22
ATOM     22  N   LIG d   1       4.309  -2.683  -5.774  0.00  0.00    -0.274 N 
ATOM     23  H   LIG d   1       3.536  -3.237  -5.962  0.00  0.00     0.153 HD
BRANCH  22  24
ATOM     24  C   LIG d   1       4.589  -1.591  -6.576  0.00  0.00     0.374 A 
ATOM     25  N   LIG d   1       5.856  -1.346  -6.899  0.00  0.00    -0.157 NA
ATOM     26  C   LIG d   1       6.187  -0.319  -7.667  0.00  0.00     0.138 A 
ATOM     27  C   LIG d   1       5.153   0.530  -8.136  0.00  0.00     0.086 A 
ATOM     28  C   LIG d   1       3.819   0.234  -7.762  0.00  0.00     0.219 A 
ATOM     29  C   LIG d   1       5.414   1.640  -8.946  0.00  0.00    -0.045 A 
ATOM     30  N   LIG d   1       3.588  -0.834  -6.984  0.00  0.00    -0.174 N 
ATOM     31  C   LIG d   1       2.781   1.060  -8.212  0.00  0.00     0.011 A 
ATOM     32  H   LIG d   1       2.681  -1.051  -6.720  0.00  0.00     0.457 HD
ATOM     33  C   LIG d   1       3.069   2.134  -9.002  0.00  0.00    -0.056 A 
ATOM     34  H   LIG d   1       1.758   0.848  -7.937  0.00  0.00     0.068 H 
ATOM     35  C   LIG d   1       4.380   2.424  -9.368  0.00  0.00    -0.061 A 
ATOM     36  H   LIG d   1       2.267   2.771  -9.348  0.00  0.00     0.062 H 
ATOM     37  H   LIG d   1       4.583   3.280  -9.994  0.00  0.00     0.062 H 
ATOM     38  H   LIG d   1       6.428   1.874  -9.237  0.00  0.00     0.063 H 
BRANCH  26  39
ATOM     39  N   LIG d   1       7.503  -0.079  -7.999  0.00  0.00    -0.342 N 
ATOM     40  H   LIG d   1       7.717   0.465  -8.773  0.00  0.00     0.144 HD
ATOM     41  H   LIG d   1       8.215  -0.454  -7.458  0.00  0.00     0.144 HD
ENDBRANCH  26  39
ENDBRANCH  22  24
ENDBRANCH   1  22
TORSDOF 7
ENDMDL
MODEL 2
REMARK VINA RESULT:      -7.0      2.321      5.374
REMARK  7 active torsions:
REMARK  status: ('A' for Active; 'I' for Inactive)
REMARK    1  A    between atoms: C_1  and  O_2 
REMARK    2  A    between atoms: O_2  and  C_3 
REMARK    3  A    between atoms: C_7  and  C_9 
REMARK    4  A    between atoms: C_9  and  C_10 
REMARK    5  A    between atoms: C_10  and  N_11 
REMARK    6  A    between atoms: N_11  and  C_12 
REMARK    7  A    between atoms: C_20  and  N_22 
ROOT
ATOM      1  C   LIG d   1       4.092  -4.445  -6.648  0.00  0.00     0.020 C 
ATOM      2  H   LIG d   1       3.037  -4.170  -6.648  0.00  0.00     0.047 H 
ATOM      3  H   LIG d   1       4.212  -5.424  -7.113  0.00  0.00     0.047 H 
ENDROOT
BRANCH   1   4
ATOM      4  C   LIG d   1       4.890  -3.405  -7.437  0.00  0.00    -0.012 C 
ATOM      5  H   LIG d   1       5.424  -3.897  -8.248  0.00  0.00     0.033 H 
ATOM      6  H   LIG d   1       5.605  -2.917  -6.774  0.00  0.00     0.033 H 
BRANCH   4   7
ATOM      7  C   LIG d   1       3.948  -2.375  -8.005  0.00  0.00    -0.042 A 
ATOM      8  C   LIG d   1       3.101  -2.713  -9.043  0.00  0.00    -0.058 A 
ATOM      9  C   LIG d   1       2.234  -1.770  -9.565  0.00  0.00    -0.058 A 
ATOM     10  H   LIG d   1       3.114  -3.715  -9.446  0.00  0.00     0.062 H 
ATOM     11  C   LIG d   1       2.213  -0.488  -9.052  0.00  0.00    -0.020 A 
ATOM     12  H   LIG d   1       1.572  -2.036 -10.376  0.00  0.00     0.062 H 
ATOM     13  C   LIG d   1       3.064  -0.146  -8.011  0.00  0.00     0.120 A 
ATOM     14  H   LIG d   1       1.537   0.248  -9.461  0.00  0.00     0.065 H 
ATOM     15  C   LIG d   1       3.936  -1.092  -7.492  0.00  0.00    -0.017 A 
ATOM     16  H   LIG d   1       4.602  -0.827  -6.684  0.00  0.00     0.066 H 
BRANCH  13  17
ATOM     17  O   LIG d   1       3.047   1.115  -7.504  0.00  0.00    -0.495 OA
BRANCH  17  18
ATOM     18  C   LIG d   1       2.937   2.189  -8.440  0.00  0.00     0.079 C 
ATOM     19  H   LIG d   1       2.971   3.139  -7.908  0.00  0.00     0.066 H 
ATOM     20  H   LIG d   1       3.765   2.139  -9.148  0.00  0.00     0.066 H 
ATOM     21  H   LIG d   1       1.993   2.106  -8.978  0.00  0.00     0.066 H 
ENDBRANCH  17  18
ENDBRANCH  13  17
ENDBRANCH   4   7
ENDBRANCH   1   4
BRANCH   1  22
ATOM     22  N   LIG d   1       4.584  -4.496  -5.269  0.00  0.00    -0.274 N 
ATOM     23  H   LIG d   1       4.739  -5.353  -4.841  0.00  0.00     0.153 HD
BRANCH  22  24
ATOM     24  C   LIG d   1       4.831  -3.323  -4.579  0.00  0.00     0.374 A 
ATOM     25  N   LIG d   1       6.090  -3.003  -4.297  0.00  0.00    -0.157 NA
ATOM     26  C   LIG d   1       6.391  -1.891  -3.643  0.00  0.00     0.138 A 
ATOM     27  C   LIG d   1       5.330  -1.043  -3.236  0.00  0.00     0.086 A 
ATOM     28  C   LIG d   1       4.004  -1.427  -3.554  0.00  0.00     0.219 A 
ATOM     29  C   LIG d   1       5.557   0.146  -2.536  0.00  0.00    -0.045 A 
ATOM     30  N   LIG d   1       3.806  -2.571  -4.225  0.00  0.00    -0.174 N 
ATOM     31  C   LIG d   1       2.939  -0.605  -3.160  0.00  0.00     0.011 A 
ATOM     32  H   LIG d   1       2.904  -2.848  -4.451  0.00  0.00     0.457 HD
ATOM     33  C   LIG d   1       3.195   0.548  -2.480  0.00  0.00    -0.056 A 
ATOM     34  H   LIG d   1       1.922  -0.883  -3.395  0.00  0.00     0.068 H 
ATOM     35  C   LIG d   1       4.498   0.924  -2.169  0.00  0.00    -0.061 A 
ATOM     36  H   LIG d   1       2.372   1.181  -2.177  0.00  0.00     0.062 H 
ATOM     37  H   LIG d   1       4.674   1.842  -1.629  0.00  0.00     0.062 H 
ATOM     38  H   LIG d   1       6.565   0.448  -2.290  0.00  0.00     0.063 H 
BRANCH  26  39
ATOM     39  N   LIG d   1       7.701  -1.568  -3.361  0.00  0.00    -0.342 N 
ATOM     40  H   LIG d   1       8.248  -2.174  -2.836  0.00  0.00     0.144 HD
ATOM     41  H   LIG d   1       8.076  -0.736  -3.688  0.00  0.00     0.144 HD
ENDBRANCH  26  39
ENDBRANCH  22  24
ENDBRANCH   1  22
TORSDOF 7
ENDMDL
MODEL 3
REMARK VINA RESULT:      -6.9      2.072      5.223
REMARK  7 active torsions:
REMARK  status: ('A' for Active; 'I' for Inactive)
REMARK    1  A    between atoms: C_1  and  O_2 
REMARK    2  A    between atoms: O_2  and  C_3 
REMARK    3  A    between atoms: C_7  and  C_9 
REMARK    4  A    between atoms: C_9  and  C_10 
REMARK    5  A    between atoms: C_10  and  N_11 
REMARK    6  A    between atoms: N_11  and  C_12 
REMARK    7  A    between atoms: C_20  and  N_22 
ROOT
ATOM      1  C   LIG d   1       4.586  -2.294  -8.109  0.00  0.00     0.020 C 
ATOM      2  H   LIG d   1       4.892  -3.109  -8.767  0.00  0.00     0.047 H 
ATOM      3  H   LIG d   1       5.390  -1.562  -8.041  0.00  0.00     0.047 H 
ENDROOT
BRANCH   1   4
ATOM      4  C   LIG d   1       3.333  -1.624  -8.676  0.00  0.00    -0.012 C 
ATOM      5  H   LIG d   1       2.500  -1.774  -7.990  0.00  0.00     0.033 H 
ATOM      6  H   LIG d   1       3.091  -2.066  -9.644  0.00  0.00     0.033 H 
BRANCH   4   7
ATOM      7  C   LIG d   1       3.586  -0.149  -8.847  0.00  0.00    -0.042 A 
ATOM      8  C   LIG d   1       2.534   0.745  -8.782  0.00  0.00    -0.058 A 
ATOM      9  C   LIG d   1       2.765   2.100  -8.936  0.00  0.00    -0.058 A 
ATOM     10  H   LIG d   1       1.531   0.385  -8.609  0.00  0.00     0.062 H 
ATOM     11  C   LIG d   1       4.046   2.564  -9.157  0.00  0.00    -0.020 A 
ATOM     12  H   LIG d   1       1.941   2.797  -8.885  0.00  0.00     0.062 H 
ATOM     13  C   LIG d   1       5.104   1.668  -9.224  0.00  0.00     0.120 A 
ATOM     14  H   LIG d   1       4.226   3.622  -9.278  0.00  0.00     0.065 H 
ATOM     15  C   LIG d   1       4.870   0.310  -9.073  0.00  0.00    -0.017 A 
ATOM     16  H   LIG d   1       5.692  -0.390  -9.129  0.00  0.00     0.066 H 
BRANCH  13  17
ATOM     17  O   LIG d   1       6.367   2.122  -9.441  0.00  0.00    -0.495 OA
BRANCH  17  18
ATOM     18  C   LIG d   1       7.339   1.844  -8.430  0.00  0.00     0.079 C 
ATOM     19  H   LIG d   1       7.817   2.773  -8.121  0.00  0.00     0.066 H 
ATOM     20  H   LIG d   1       6.849   1.385  -7.572  0.00  0.00     0.066 H 
ATOM     21  H   LIG d   1       8.091   1.163  -8.827  0.00  0.00     0.066 H 
ENDBRANCH  17  18
ENDBRANCH  13  17
ENDBRANCH   4   7
ENDBRANCH   1   4
BRANCH   1  22
ATOM     22  N   LIG d   1       4.295  -2.826  -6.775  0.00  0.00    -0.274 N 
ATOM     23  H   LIG d   1       3.888  -3.701  -6.680  0.00  0.00     0.153 HD
BRANCH  22  24
ATOM     24  C   LIG d   1       4.603  -2.080  -5.652  0.00  0.00     0.374 A 
ATOM     25  N   LIG d   1       5.778  -2.274  -5.061  0.00  0.00    -0.157 NA
ATOM     26  C   LIG d   1       6.132  -1.588  -3.984  0.00  0.00     0.138 A 
ATOM     27  C   LIG d   1       5.219  -0.637  -3.463  0.00  0.00     0.086 A 
ATOM     28  C   LIG d   1       3.977  -0.467  -4.123  0.00  0.00     0.219 A 
ATOM     29  C   LIG d   1       5.510   0.126  -2.328  0.00  0.00    -0.045 A 
ATOM     30  N   LIG d   1       3.716  -1.208  -5.210  0.00  0.00    -0.174 N 
ATOM     31  C   LIG d   1       3.058   0.467  -3.625  0.00  0.00     0.011 A 
ATOM     32  H   LIG d   1       2.871  -1.103  -5.673  0.00  0.00     0.457 HD
ATOM     33  C   LIG d   1       3.373   1.195  -2.516  0.00  0.00    -0.056 A 
ATOM     34  H   LIG d   1       2.108   0.610  -4.117  0.00  0.00     0.068 H 
ATOM     35  C   LIG d   1       4.594   1.027  -1.870  0.00  0.00    -0.061 A 
ATOM     36  H   LIG d   1       2.663   1.915  -2.134  0.00  0.00     0.062 H 
ATOM     37  H   LIG d   1       4.819   1.616  -0.993  0.00  0.00     0.062 H 
ATOM     38  H   LIG d   1       6.455   0.004  -1.819  0.00  0.00     0.063 H 
BRANCH  26  39
ATOM     39  N   LIG d   1       7.355  -1.796  -3.384  0.00  0.00    -0.342 N 
ATOM     40  H   LIG d   1       8.113  -1.240  -3.621  0.00  0.00     0.144 HD
ATOM     41  H   LIG d   1       7.457  -2.499  -2.722  0.00  0.00     0.144 HD
ENDBRANCH  26  39
ENDBRANCH  22  24
ENDBRANCH   1  22
TORSDOF 7
ENDMDL
MODEL 4
REMARK VINA RESULT:      -6.8      1.296      1.971
REMARK  7 active torsions:
REMARK  status: ('A' for Active; 'I' for Inactive)
REMARK    1  A    between atoms: C_1  and  O_2 
REMARK    2  A    between atoms: O_2  and  C_3 
REMARK    3  A    between atoms: C_7  and  C_9 
REMARK    4  A    between atoms: C_9  and  C_10 
REMARK    5  A    between atoms: C_10  and  N_11 
REMARK    6  A    between atoms: N_11  and  C_12 
REMARK    7  A    between atoms: C_20  and  N_22 
ROOT
ATOM      1  C   LIG d   1       4.710  -3.257  -5.176  0.00  0.00     0.020 C 
ATOM      2  H   LIG d   1       4.529  -4.331  -5.151  0.00  0.00     0.047 H 
ATOM      3  H   LIG d   1       3.817  -2.729  -4.840  0.00  0.00     0.047 H 
ENDROOT
BRANCH   1   4
ATOM      4  C   LIG d   1       5.881  -2.915  -4.252  0.00  0.00    -0.012 C 
ATOM      5  H   LIG d   1       6.776  -2.744  -4.850  0.00  0.00     0.033 H 
ATOM      6  H   LIG d   1       6.055  -3.744  -3.565  0.00  0.00     0.033 H 
BRANCH   4   7
ATOM      7  C   LIG d   1       5.555  -1.671  -3.467  0.00  0.00    -0.042 A 
ATOM      8  C   LIG d   1       4.606  -1.717  -2.463  0.00  0.00    -0.058 A 
ATOM      9  C   LIG d   1       4.307  -0.577  -1.739  0.00  0.00    -0.058 A 
ATOM     10  H   LIG d   1       4.099  -2.645  -2.241  0.00  0.00     0.062 H 
ATOM     11  C   LIG d   1       4.953   0.611  -2.019  0.00  0.00    -0.020 A 
ATOM     12  H   LIG d   1       3.565  -0.615  -0.954  0.00  0.00     0.062 H 
ATOM     13  C   LIG d   1       5.905   0.659  -3.027  0.00  0.00     0.120 A 
ATOM     14  H   LIG d   1       4.718   1.501  -1.454  0.00  0.00     0.065 H 
ATOM     15  C   LIG d   1       6.201  -0.484  -3.754  0.00  0.00    -0.017 A 
ATOM     16  H   LIG d   1       6.939  -0.447  -4.543  0.00  0.00     0.066 H 
BRANCH  13  17
ATOM     17  O   LIG d   1       6.543   1.827  -3.305  0.00  0.00    -0.495 OA
BRANCH  17  18
ATOM     18  C   LIG d   1       7.859   1.732  -3.853  0.00  0.00     0.079 C 
ATOM     19  H   LIG d   1       8.591   1.982  -3.086  0.00  0.00     0.066 H 
ATOM     20  H   LIG d   1       8.034   0.716  -4.204  0.00  0.00     0.066 H 
ATOM     21  H   LIG d   1       7.956   2.427  -4.687  0.00  0.00     0.066 H 
ENDBRANCH  17  18
ENDBRANCH  13  17
ENDBRANCH   4   7
ENDBRANCH   1   4
BRANCH   1  22
ATOM     22  N   LIG d   1       5.032  -2.846  -6.545  0.00  0.00    -0.274 N 
ATOM     23  H   LIG d   1       5.588  -3.412  -7.102  0.00  0.00     0.153 HD
BRANCH  22  24
ATOM     24  C   LIG d   1       4.540  -1.653  -7.043  0.00  0.00     0.374 A 
ATOM     25  N   LIG d   1       3.839  -0.865  -6.232  0.00  0.00    -0.157 NA
ATOM     26  C   LIG d   1       3.346   0.291  -6.648  0.00  0.00     0.138 A 
ATOM     27  C   LIG d   1       3.576   0.674  -7.994  0.00  0.00     0.086 A 
ATOM     28  C   LIG d   1       4.323  -0.199  -8.822  0.00  0.00     0.219 A 
ATOM     29  C   LIG d   1       3.086   1.876  -8.518  0.00  0.00    -0.045 A 
ATOM     30  N   LIG d   1       4.784  -1.346  -8.303  0.00  0.00    -0.174 N 
ATOM     31  C   LIG d   1       4.562   0.158 -10.157  0.00  0.00     0.011 A 
ATOM     32  H   LIG d   1       5.298  -1.954  -8.856  0.00  0.00     0.457 HD
ATOM     33  C   LIG d   1       4.071   1.337 -10.636  0.00  0.00    -0.056 A 
ATOM     34  H   LIG d   1       5.131  -0.495 -10.801  0.00  0.00     0.068 H 
ATOM     35  C   LIG d   1       3.337   2.193  -9.820  0.00  0.00    -0.061 A 
ATOM     36  H   LIG d   1       4.256   1.611 -11.665  0.00  0.00     0.062 H 
ATOM     37  H   LIG d   1       2.959   3.121 -10.224  0.00  0.00     0.062 H 
ATOM     38  H   LIG d   1       2.516   2.547  -7.893  0.00  0.00     0.063 H 
BRANCH  26  39
ATOM     39  N   LIG d   1       2.625   1.100  -5.797  0.00  0.00    -0.342 N 
ATOM     40  H   LIG d   1       1.747   1.419  -6.058  0.00  0.00     0.144 HD
ATOM     41  H   LIG d   1       2.996   1.350  -4.936  0.00  0.00     0.144 HD
ENDBRANCH  26  39
ENDBRANCH  22  24
ENDBRANCH   1  22
TORSDOF 7
ENDMDL
MODEL 5
REMARK VINA RESULT:      -6.8      4.357      6.754
REMARK  7 active torsions:
REMARK  status: ('A' for Active; 'I' for Inactive)
REMARK    1  A    between atoms: C_1  and  O_2 
REMARK    2  A    between atoms: O_2  and  C_3 
REMARK    3  A    between atoms: C_7  and  C_9 
REMARK    4  A    between atoms: C_9  and  C_10 
REMARK    5  A    between atoms: C_10  and  N_11 
REMARK    6  A    between atoms: N_11  and  C_12 
REMARK    7  A    between atoms: C_20  and  N_22 
ROOT
ATOM      1  C   LIG d   1       9.172   2.573  -3.643  0.00  0.00     0.020 C 
ATOM      2  H   LIG d   1       9.767   1.703  -3.924  0.00  0.00     0.047 H 
ATOM      3  H   LIG d   1       9.142   2.657  -2.557  0.00  0.00     0.047 H 
ENDROOT
BRANCH   1   4
ATOM      4  C   LIG d   1       9.804   3.835  -4.235  0.00  0.00    -0.012 C 
ATOM      5  H   LIG d   1       9.159   4.230  -5.018  0.00  0.00     0.033 H 
ATOM      6  H   LIG d   1      10.780   3.590  -4.655  0.00  0.00     0.033 H 
BRANCH   4   7
ATOM      7  C   LIG d   1       9.970   4.868  -3.150  0.00  0.00    -0.042 A 
ATOM      8  C   LIG d   1       9.405   6.121  -3.298  0.00  0.00    -0.058 A 
ATOM      9  C   LIG d   1       9.554   7.070  -2.304  0.00  0.00    -0.058 A 
ATOM     10  H   LIG d   1       8.845   6.358  -4.191  0.00  0.00     0.062 H 
ATOM     11  C   LIG d   1      10.269   6.770  -1.161  0.00  0.00    -0.020 A 
ATOM     12  H   LIG d   1       9.111   8.049  -2.421  0.00  0.00     0.062 H 
ATOM     13  C   LIG d   1      10.838   5.514  -1.011  0.00  0.00     0.120 A 
ATOM     14  H   LIG d   1      10.385   7.513  -0.385  0.00  0.00     0.065 H 
ATOM     15  C   LIG d   1      10.691   4.564  -2.011  0.00  0.00    -0.017 A 
ATOM     16  H   LIG d   1      11.137   3.587  -1.898  0.00  0.00     0.066 H 
BRANCH  13  17
ATOM     17  O   LIG d   1      11.542   5.215   0.113  0.00  0.00    -0.495 OA
BRANCH  17  18
ATOM     18  C   LIG d   1      11.091   5.800   1.336  0.00  0.00     0.079 C 
ATOM     19  H   LIG d   1      10.183   5.297   1.666  0.00  0.00     0.066 H 
ATOM     20  H   LIG d   1      11.864   5.691   2.097  0.00  0.00     0.066 H 
ATOM     21  H   LIG d   1      10.884   6.858   1.177  0.00  0.00     0.066 H 
ENDBRANCH  17  18
ENDBRANCH  13  17
ENDBRANCH   4   7
ENDBRANCH   1   4
BRANCH   1  22
ATOM     22  N   LIG d   1       7.810   2.421  -4.159  0.00  0.00    -0.274 N 
ATOM     23  H   LIG d   1       7.435   3.097  -4.745  0.00  0.00     0.153 HD
BRANCH  22  24
ATOM     24  C   LIG d   1       7.058   1.313  -3.812  0.00  0.00     0.374 A 
ATOM     25  N   LIG d   1       7.666   0.132  -3.730  0.00  0.00    -0.157 NA
ATOM     26  C   LIG d   1       7.002  -0.965  -3.399  0.00  0.00     0.138 A 
ATOM     27  C   LIG d   1       5.612  -0.857  -3.139  0.00  0.00     0.086 A 
ATOM     28  C   LIG d   1       5.007   0.420  -3.243  0.00  0.00     0.219 A 
ATOM     29  C   LIG d   1       4.834  -1.965  -2.788  0.00  0.00    -0.045 A 
ATOM     30  N   LIG d   1       5.769   1.470  -3.581  0.00  0.00    -0.174 N 
ATOM     31  C   LIG d   1       3.634   0.551  -2.991  0.00  0.00     0.011 A 
ATOM     32  H   LIG d   1       5.370   2.351  -3.655  0.00  0.00     0.457 HD
ATOM     33  C   LIG d   1       2.905  -0.550  -2.651  0.00  0.00    -0.056 A 
ATOM     34  H   LIG d   1       3.158   1.516  -3.065  0.00  0.00     0.068 H 
ATOM     35  C   LIG d   1       3.501  -1.803  -2.549  0.00  0.00    -0.061 A 
ATOM     36  H   LIG d   1       1.846  -0.447  -2.458  0.00  0.00     0.062 H 
ATOM     37  H   LIG d   1       2.901  -2.659  -2.278  0.00  0.00     0.062 H 
ATOM     38  H   LIG d   1       5.287  -2.942  -2.705  0.00  0.00     0.063 H 
BRANCH  26  39
ATOM     39  N   LIG d   1       7.644  -2.181  -3.313  0.00  0.00    -0.342 N 
ATOM     40  H   LIG d   1       8.608  -2.229  -3.409  0.00  0.00     0.144 HD
ATOM     41  H   LIG d   1       7.132  -2.990  -3.156  0.00  0.00     0.144 HD
ENDBRANCH  26  39
ENDBRANCH  22  24
ENDBRANCH   1  22
TORSDOF 7
ENDMDL
MODEL 6
REMARK VINA RESULT:      -6.5      3.107      6.019
REMARK  7 active torsions:
REMARK  status: ('A' for Active; 'I' for Inactive)
REMARK    1  A    between atoms: C_1  and  O_2 
REMARK    2  A    between atoms: O_2  and  C_3 
REMARK    3  A    between atoms: C_7  and  C_9 
REMARK    4  A    between atoms: C_9  and  C_10 
REMARK    5  A    between atoms: C_10  and  N_11 
REMARK    6  A    between atoms: N_11  and  C_12 
REMARK    7  A    between atoms: C_20  and  N_22 
ROOT
ATOM      1  C   LIG d   1       4.279  -4.080  -6.991  0.00  0.00     0.020 C 
ATOM      2  H   LIG d   1       3.283  -4.234  -7.406  0.00  0.00     0.047 H 
ATOM      3  H   LIG d   1       4.955  -4.846  -7.372  0.00  0.00     0.047 H 
ENDROOT
BRANCH   1   4
ATOM      4  C   LIG d   1       4.793  -2.697  -7.400  0.00  0.00    -0.012 C 
ATOM      5  H   LIG d   1       5.667  -2.810  -8.040  0.00  0.00     0.033 H 
ATOM      6  H   LIG d   1       5.066  -2.133  -6.508  0.00  0.00     0.033 H 
BRANCH   4   7
ATOM      7  C   LIG d   1       3.712  -1.962  -8.149  0.00  0.00    -0.042 A 
ATOM      8  C   LIG d   1       3.428  -0.646  -7.837  0.00  0.00    -0.058 A 
ATOM      9  C   LIG d   1       2.438   0.032  -8.524  0.00  0.00    -0.058 A 
ATOM     10  H   LIG d   1       3.982  -0.145  -7.056  0.00  0.00     0.062 H 
ATOM     11  C   LIG d   1       1.729  -0.604  -9.524  0.00  0.00    -0.020 A 
ATOM     12  H   LIG d   1       2.218   1.061  -8.279  0.00  0.00     0.062 H 
ATOM     13  C   LIG d   1       2.012  -1.926  -9.839  0.00  0.00     0.120 A 
ATOM     14  H   LIG d   1       0.955  -0.074 -10.060  0.00  0.00     0.065 H 
ATOM     15  C   LIG d   1       3.002  -2.605  -9.145  0.00  0.00    -0.017 A 
ATOM     16  H   LIG d   1       3.221  -3.635  -9.385  0.00  0.00     0.066 H 
BRANCH  13  17
ATOM     17  O   LIG d   1       1.315  -2.555 -10.822  0.00  0.00    -0.495 OA
BRANCH  17  18
ATOM     18  C   LIG d   1       1.069  -3.952 -10.649  0.00  0.00     0.079 C 
ATOM     19  H   LIG d   1      -0.004  -4.139 -10.687  0.00  0.00     0.066 H 
ATOM     20  H   LIG d   1       1.562  -4.509 -11.446  0.00  0.00     0.066 H 
ATOM     21  H   LIG d   1       1.460  -4.273  -9.684  0.00  0.00     0.066 H 
ENDBRANCH  17  18
ENDBRANCH  13  17
ENDBRANCH   4   7
ENDBRANCH   1   4
BRANCH   1  22
ATOM     22  N   LIG d   1       4.218  -4.166  -5.530  0.00  0.00    -0.274 N 
ATOM     23  H   LIG d   1       3.931  -4.988  -5.104  0.00  0.00     0.153 HD
BRANCH  22  24
ATOM     24  C   LIG d   1       4.573  -3.074  -4.758  0.00  0.00     0.374 A 
ATOM     25  N   LIG d   1       5.847  -2.931  -4.405  0.00  0.00    -0.157 NA
ATOM     26  C   LIG d   1       6.250  -1.905  -3.670  0.00  0.00     0.138 A 
ATOM     27  C   LIG d   1       5.282  -0.955  -3.255  0.00  0.00     0.086 A 
ATOM     28  C   LIG d   1       3.936  -1.151  -3.650  0.00  0.00     0.219 A 
ATOM     29  C   LIG d   1       5.620   0.154  -2.472  0.00  0.00    -0.045 A 
ATOM     30  N   LIG d   1       3.632  -2.221  -4.399  0.00  0.00    -0.174 N 
ATOM     31  C   LIG d   1       2.962  -0.227  -3.249  0.00  0.00     0.011 A 
ATOM     32  H   LIG d   1       2.715  -2.369  -4.678  0.00  0.00     0.457 HD
ATOM     33  C   LIG d   1       3.325   0.845  -2.487  0.00  0.00    -0.056 A 
ATOM     34  H   LIG d   1       1.932  -0.360  -3.542  0.00  0.00     0.068 H 
ATOM     35  C   LIG d   1       4.648   1.036  -2.100  0.00  0.00    -0.061 A 
ATOM     36  H   LIG d   1       2.572   1.557  -2.179  0.00  0.00     0.062 H 
ATOM     37  H   LIG d   1       4.909   1.892  -1.497  0.00  0.00     0.062 H 
ATOM     38  H   LIG d   1       6.644   0.312  -2.167  0.00  0.00     0.063 H 
BRANCH  26  39
ATOM     39  N   LIG d   1       7.574  -1.766  -3.316  0.00  0.00    -0.342 N 
ATOM     40  H   LIG d   1       7.818  -1.658  -2.383  0.00  0.00     0.144 HD
ATOM     41  H   LIG d   1       8.263  -1.775  -3.999  0.00  0.00     0.144 HD
ENDBRANCH  26  39
ENDBRANCH  22  24
ENDBRANCH   1  22
TORSDOF 7
ENDMDL
MODEL 7
REMARK VINA RESULT:      -6.4      2.357      5.954
REMARK  7 active torsions:
REMARK  status: ('A' for Active; 'I' for Inactive)
REMARK    1  A    between atoms: C_1  and  O_2 
REMARK    2  A    between atoms: O_2  and  C_3 
REMARK    3  A    between atoms: C_7  and  C_9 
REMARK    4  A    between atoms: C_9  and  C_10 
REMARK    5  A    between atoms: C_10  and  N_11 
REMARK    6  A    between atoms: N_11  and  C_12 
REMARK    7  A    between atoms: C_20  and  N_22 
ROOT
ATOM      1  C   LIG d   1       7.313   0.419  -7.973  0.00  0.00     0.020 C 
ATOM      2  H   LIG d   1       6.677  -0.464  -8.028  0.00  0.00     0.047 H 
ATOM      3  H   LIG d   1       8.318   0.166  -8.311  0.00  0.00     0.047 H 
ENDROOT
BRANCH   1   4
ATOM      4  C   LIG d   1       6.737   1.520  -8.866  0.00  0.00    -0.012 C 
ATOM      5  H   LIG d   1       7.158   1.432  -9.867  0.00  0.00     0.033 H 
ATOM      6  H   LIG d   1       6.988   2.495  -8.449  0.00  0.00     0.033 H 
BRANCH   4   7
ATOM      7  C   LIG d   1       5.238   1.375  -8.937  0.00  0.00    -0.042 A 
ATOM      8  C   LIG d   1       4.449   2.479  -9.195  0.00  0.00    -0.058 A 
ATOM      9  C   LIG d   1       3.074   2.348  -9.263  0.00  0.00    -0.058 A 
ATOM     10  H   LIG d   1       4.906   3.446  -9.346  0.00  0.00     0.062 H 
ATOM     11  C   LIG d   1       2.485   1.114  -9.071  0.00  0.00    -0.020 A 
ATOM     12  H   LIG d   1       2.458   3.213  -9.465  0.00  0.00     0.062 H 
ATOM     13  C   LIG d   1       3.276   0.004  -8.811  0.00  0.00     0.120 A 
ATOM     14  H   LIG d   1       1.411   1.013  -9.124  0.00  0.00     0.065 H 
ATOM     15  C   LIG d   1       4.654   0.138  -8.740  0.00  0.00    -0.017 A 
ATOM     16  H   LIG d   1       5.271  -0.724  -8.533  0.00  0.00     0.066 H 
BRANCH  13  17
ATOM     17  O   LIG d   1       2.699  -1.213  -8.622  0.00  0.00    -0.495 OA
BRANCH  17  18
ATOM     18  C   LIG d   1       2.620  -2.077  -9.758  0.00  0.00     0.079 C 
ATOM     19  H   LIG d   1       2.839  -1.509 -10.662  0.00  0.00     0.066 H 
ATOM     20  H   LIG d   1       3.345  -2.884  -9.651  0.00  0.00     0.066 H 
ATOM     21  H   LIG d   1       1.616  -2.495  -9.826  0.00  0.00     0.066 H 
ENDBRANCH  17  18
ENDBRANCH  13  17
ENDBRANCH   4   7
ENDBRANCH   1   4
BRANCH   1  22
ATOM     22  N   LIG d   1       7.370   0.894  -6.588  0.00  0.00    -0.274 N 
ATOM     23  H   LIG d   1       7.830   1.722  -6.377  0.00  0.00     0.153 HD
BRANCH  22  24
ATOM     24  C   LIG d   1       6.765   0.164  -5.581  0.00  0.00     0.374 A 
ATOM     25  N   LIG d   1       7.516  -0.653  -4.847  0.00  0.00    -0.157 NA
ATOM     26  C   LIG d   1       6.996  -1.375  -3.867  0.00  0.00     0.138 A 
ATOM     27  C   LIG d   1       5.605  -1.267  -3.617  0.00  0.00     0.086 A 
ATOM     28  C   LIG d   1       4.843  -0.389  -4.427  0.00  0.00     0.219 A 
ATOM     29  C   LIG d   1       4.974  -1.998  -2.605  0.00  0.00    -0.045 A 
ATOM     30  N   LIG d   1       5.466   0.303  -5.392  0.00  0.00    -0.174 N 
ATOM     31  C   LIG d   1       3.466  -0.266  -4.199  0.00  0.00     0.011 A 
ATOM     32  H   LIG d   1       4.959   0.909  -5.954  0.00  0.00     0.457 HD
ATOM     33  C   LIG d   1       2.881  -0.993  -3.204  0.00  0.00    -0.056 A 
ATOM     34  H   LIG d   1       2.871   0.399  -4.806  0.00  0.00     0.068 H 
ATOM     35  C   LIG d   1       3.631  -1.855  -2.409  0.00  0.00    -0.061 A 
ATOM     36  H   LIG d   1       1.819  -0.897  -3.029  0.00  0.00     0.062 H 
ATOM     37  H   LIG d   1       3.144  -2.419  -1.627  0.00  0.00     0.062 H 
ATOM     38  H   LIG d   1       5.546  -2.669  -1.982  0.00  0.00     0.063 H 
BRANCH  26  39
ATOM     39  N   LIG d   1       7.786  -2.214  -3.111  0.00  0.00    -0.342 N 
ATOM     40  H   LIG d   1       8.265  -2.944  -3.535  0.00  0.00     0.144 HD
ATOM     41  H   LIG d   1       7.865  -2.075  -2.154  0.00  0.00     0.144 HD
ENDBRANCH  26  39
ENDBRANCH  22  24
ENDBRANCH   1  22
TORSDOF 7
ENDMDL
MODEL 8
REMARK VINA RESULT:      -6.3      3.757      7.502
REMARK  7 active torsions:
REMARK  status: ('A' for Active; 'I' for Inactive)
REMARK    1  A    between atoms: C_1  and  O_2 
REMARK    2  A    between atoms: O_2  and  C_3 
REMARK    3  A    between atoms: C_7  and  C_9 
REMARK    4  A    between atoms: C_9  and  C_10 
REMARK    5  A    between atoms: C_10  and  N_11 
REMARK    6  A    between atoms: N_11  and  C_12 
REMARK    7  A    between atoms: C_20  and  N_22 
ROOT
ATOM      1  C   LIG d   1       2.575  -0.224  -8.253  0.00  0.00     0.020 C 
ATOM      2  H   LIG d   1       1.888   0.100  -7.471  0.00  0.00     0.047 H 
ATOM      3  H   LIG d   1       2.253  -1.190  -8.643  0.00  0.00     0.047 H 
ENDROOT
BRANCH   1   4
ATOM      4  C   LIG d   1       2.583   0.806  -9.384  0.00  0.00    -0.012 C 
ATOM      5  H   LIG d   1       3.346   1.557  -9.185  0.00  0.00     0.033 H 
ATOM      6  H   LIG d   1       1.606   1.287  -9.445  0.00  0.00     0.033 H 
BRANCH   4   7
ATOM      7  C   LIG d   1       2.884   0.116 -10.690  0.00  0.00    -0.042 A 
ATOM      8  C   LIG d   1       4.055   0.399 -11.367  0.00  0.00    -0.058 A 
ATOM      9  C   LIG d   1       4.335  -0.234 -12.564  0.00  0.00    -0.058 A 
ATOM     10  H   LIG d   1       4.754   1.116 -10.960  0.00  0.00     0.062 H 
ATOM     11  C   LIG d   1       3.444  -1.151 -13.087  0.00  0.00    -0.020 A 
ATOM     12  H   LIG d   1       5.251  -0.012 -13.091  0.00  0.00     0.062 H 
ATOM     13  C   LIG d   1       2.267  -1.436 -12.409  0.00  0.00     0.120 A 
ATOM     14  H   LIG d   1       3.663  -1.645 -14.022  0.00  0.00     0.065 H 
ATOM     15  C   LIG d   1       1.987  -0.797 -11.211  0.00  0.00    -0.017 A 
ATOM     16  H   LIG d   1       1.069  -1.014 -10.684  0.00  0.00     0.066 H 
BRANCH  13  17
ATOM     17  O   LIG d   1       1.389  -2.338 -12.922  0.00  0.00    -0.495 OA
BRANCH  17  18
ATOM     18  C   LIG d   1       1.419  -2.542 -14.336  0.00  0.00     0.079 C 
ATOM     19  H   LIG d   1       0.474  -2.218 -14.770  0.00  0.00     0.066 H 
ATOM     20  H   LIG d   1       2.235  -1.964 -14.769  0.00  0.00     0.066 H 
ATOM     21  H   LIG d   1       1.572  -3.601 -14.546  0.00  0.00     0.066 H 
ENDBRANCH  17  18
ENDBRANCH  13  17
ENDBRANCH   4   7
ENDBRANCH   1   4
BRANCH   1  22
ATOM     22  N   LIG d   1       3.924  -0.348  -7.696  0.00  0.00    -0.274 N 
ATOM     23  H   LIG d   1       4.698  -0.187  -8.259  0.00  0.00     0.153 HD
BRANCH  22  24
ATOM     24  C   LIG d   1       4.095  -0.693  -6.368  0.00  0.00     0.374 A 
ATOM     25  N   LIG d   1       4.305  -1.971  -6.064  0.00  0.00    -0.157 NA
ATOM     26  C   LIG d   1       4.480  -2.363  -4.811  0.00  0.00     0.138 A 
ATOM     27  C   LIG d   1       4.429  -1.384  -3.787  0.00  0.00     0.086 A 
ATOM     28  C   LIG d   1       4.198  -0.036  -4.157  0.00  0.00     0.219 A 
ATOM     29  C   LIG d   1       4.598  -1.712  -2.437  0.00  0.00    -0.045 A 
ATOM     30  N   LIG d   1       4.039   0.258  -5.455  0.00  0.00    -0.174 N 
ATOM     31  C   LIG d   1       4.143   0.949  -3.161  0.00  0.00     0.011 A 
ATOM     32  H   LIG d   1       3.881   1.176  -5.725  0.00  0.00     0.457 HD
ATOM     33  C   LIG d   1       4.312   0.596  -1.855  0.00  0.00    -0.056 A 
ATOM     34  H   LIG d   1       3.969   1.980  -3.427  0.00  0.00     0.068 H 
ATOM     35  C   LIG d   1       4.539  -0.729  -1.493  0.00  0.00    -0.061 A 
ATOM     36  H   LIG d   1       4.269   1.356  -1.089  0.00  0.00     0.062 H 
ATOM     37  H   LIG d   1       4.670  -0.983  -0.452  0.00  0.00     0.062 H 
ATOM     38  H   LIG d   1       4.776  -2.737  -2.145  0.00  0.00     0.063 H 
BRANCH  26  39
ATOM     39  N   LIG d   1       4.701  -3.690  -4.509  0.00  0.00    -0.342 N 
ATOM     40  H   LIG d   1       4.991  -3.944  -3.619  0.00  0.00     0.144 HD
ATOM     41  H   LIG d   1       4.567  -4.370  -5.188  0.00  0.00     0.144 HD
ENDBRANCH  26  39
ENDBRANCH  22  24
ENDBRANCH   1  22
TORSDOF 7
ENDMDL
MODEL 9
REMARK VINA RESULT:      -6.3      4.228      6.708
REMARK  7 active torsions:
REMARK  status: ('A' for Active; 'I' for Inactive)
REMARK    1  A    between atoms: C_1  and  O_2 
REMARK    2  A    between atoms: O_2  and  C_3 
REMARK    3  A    between atoms: C_7  and  C_9 
REMARK    4  A    between atoms: C_9  and  C_10 
REMARK    5  A    between atoms: C_10  and  N_11 
REMARK    6  A    between atoms: N_11  and  C_12 
REMARK    7  A    between atoms: C_20  and  N_22 
ROOT
ATOM      1  C   LIG d   1       9.320   2.300  -3.762  0.00  0.00     0.020 C 
ATOM      2  H   LIG d   1       9.724   1.306  -3.957  0.00  0.00     0.047 H 
ATOM      3  H   LIG d   1       9.449   2.544  -2.707  0.00  0.00     0.047 H 
ENDROOT
BRANCH   1   4
ATOM      4  C   LIG d   1      10.062   3.329  -4.618  0.00  0.00    -0.012 C 
ATOM      5  H   LIG d   1       9.612   3.367  -5.609  0.00  0.00     0.033 H 
ATOM      6  H   LIG d   1      11.110   3.042  -4.705  0.00  0.00     0.033 H 
BRANCH   4   7
ATOM      7  C   LIG d   1       9.964   4.685  -3.969  0.00  0.00    -0.042 A 
ATOM      8  C   LIG d   1      10.026   4.798  -2.593  0.00  0.00    -0.058 A 
ATOM      9  C   LIG d   1       9.939   6.042  -1.995  0.00  0.00    -0.058 A 
ATOM     10  H   LIG d   1      10.145   3.914  -1.983  0.00  0.00     0.062 H 
ATOM     11  C   LIG d   1       9.787   7.175  -2.770  0.00  0.00    -0.020 A 
ATOM     12  H   LIG d   1       9.988   6.128  -0.919  0.00  0.00     0.062 H 
ATOM     13  C   LIG d   1       9.723   7.064  -4.151  0.00  0.00     0.120 A 
ATOM     14  H   LIG d   1       9.718   8.146  -2.302  0.00  0.00     0.065 H 
ATOM     15  C   LIG d   1       9.807   5.815  -4.749  0.00  0.00    -0.017 A 
ATOM     16  H   LIG d   1       9.753   5.726  -5.825  0.00  0.00     0.066 H 
BRANCH  13  17
ATOM     17  O   LIG d   1       9.574   8.176  -4.918  0.00  0.00    -0.495 OA
BRANCH  17  18
ATOM     18  C   LIG d   1       9.406   7.978  -6.323  0.00  0.00     0.079 C 
ATOM     19  H   LIG d   1       9.449   6.913  -6.548  0.00  0.00     0.066 H 
ATOM     20  H   LIG d   1       8.439   8.375  -6.633  0.00  0.00     0.066 H 
ATOM     21  H   LIG d   1      10.201   8.496  -6.860  0.00  0.00     0.066 H 
ENDBRANCH  17  18
ENDBRANCH  13  17
ENDBRANCH   4   7
ENDBRANCH   1   4
BRANCH   1  22
ATOM     22  N   LIG d   1       7.894   2.322  -4.097  0.00  0.00    -0.274 N 
ATOM     23  H   LIG d   1       7.515   3.089  -4.554  0.00  0.00     0.153 HD
BRANCH  22  24
ATOM     24  C   LIG d   1       7.089   1.248  -3.763  0.00  0.00     0.374 A 
ATOM     25  N   LIG d   1       7.642   0.042  -3.670  0.00  0.00    -0.157 NA
ATOM     26  C   LIG d   1       6.925  -1.025  -3.350  0.00  0.00     0.138 A 
ATOM     27  C   LIG d   1       5.537  -0.855  -3.115  0.00  0.00     0.086 A 
ATOM     28  C   LIG d   1       4.990   0.447  -3.230  0.00  0.00     0.219 A 
ATOM     29  C   LIG d   1       4.705  -1.928  -2.777  0.00  0.00    -0.045 A 
ATOM     30  N   LIG d   1       5.804   1.462  -3.554  0.00  0.00    -0.174 N 
ATOM     31  C   LIG d   1       3.621   0.638  -3.003  0.00  0.00     0.011 A 
ATOM     32  H   LIG d   1       5.445   2.360  -3.636  0.00  0.00     0.457 HD
ATOM     33  C   LIG d   1       2.837  -0.429  -2.675  0.00  0.00    -0.056 A 
ATOM     34  H   LIG d   1       3.188   1.624  -3.086  0.00  0.00     0.068 H 
ATOM     35  C   LIG d   1       3.376  -1.707  -2.562  0.00  0.00    -0.061 A 
ATOM     36  H   LIG d   1       1.781  -0.279  -2.500  0.00  0.00     0.062 H 
ATOM     37  H   LIG d   1       2.734  -2.535  -2.302  0.00  0.00     0.062 H 
ATOM     38  H   LIG d   1       5.113  -2.924  -2.686  0.00  0.00     0.063 H 
BRANCH  26  39
ATOM     39  N   LIG d   1       7.511  -2.268  -3.252  0.00  0.00    -0.342 N 
ATOM     40  H   LIG d   1       8.432  -2.394  -3.531  0.00  0.00     0.144 HD
ATOM     41  H   LIG d   1       7.003  -3.017  -2.904  0.00  0.00     0.144 HD
ENDBRANCH  26  39
ENDBRANCH  22  24
ENDBRANCH   1  22
TORSDOF 7
ENDMDL
MODEL 10
REMARK VINA RESULT:      -6.2      4.970      7.182
REMARK  7 active torsions:
REMARK  status: ('A' for Active; 'I' for Inactive)
REMARK    1  A    between atoms: C_1  and  O_2 
REMARK    2  A    between atoms: O_2  and  C_3 
REMARK    3  A    between atoms: C_7  and  C_9 
REMARK    4  A    between atoms: C_9  and  C_10 
REMARK    5  A    between atoms: C_10  and  N_11 
REMARK    6  A    between atoms: N_11  and  C_12 
REMARK    7  A    between atoms: C_20  and  N_22 
ROOT
ATOM      1  C   LIG d   1       9.123  -3.620  -4.104  0.00  0.00     0.020 C 
ATOM      2  H   LIG d   1       9.976  -3.652  -4.781  0.00  0.00     0.047 H 
ATOM      3  H   LIG d   1       8.308  -4.214  -4.517  0.00  0.00     0.047 H 
ENDROOT
BRANCH   1   4
ATOM      4  C   LIG d   1       9.530  -4.191  -2.743  0.00  0.00    -0.012 C 
ATOM      5  H   LIG d   1       8.801  -3.890  -1.991  0.00  0.00     0.033 H 
ATOM      6  H   LIG d   1      10.514  -3.810  -2.469  0.00  0.00     0.033 H 
BRANCH   4   7
ATOM      7  C   LIG d   1       9.578  -5.695  -2.824  0.00  0.00    -0.042 A 
ATOM      8  C   LIG d   1       8.908  -6.354  -3.837  0.00  0.00    -0.058 A 
ATOM      9  C   LIG d   1       8.951  -7.734  -3.915  0.00  0.00    -0.058 A 
ATOM     10  H   LIG d   1       8.350  -5.790  -4.571  0.00  0.00     0.062 H 
ATOM     11  C   LIG d   1       9.664  -8.458  -2.979  0.00  0.00    -0.020 A 
ATOM     12  H   LIG d   1       8.427  -8.247  -4.708  0.00  0.00     0.062 H 
ATOM     13  C   LIG d   1      10.336  -7.799  -1.960  0.00  0.00     0.120 A 
ATOM     14  H   LIG d   1       9.697  -9.536  -3.040  0.00  0.00     0.065 H 
ATOM     15  C   LIG d   1      10.287  -6.415  -1.882  0.00  0.00    -0.017 A 
ATOM     16  H   LIG d   1      10.807  -5.899  -1.087  0.00  0.00     0.066 H 
BRANCH  13  17
ATOM     17  O   LIG d   1      11.038  -8.508  -1.037  0.00  0.00    -0.495 OA
BRANCH  17  18
ATOM     18  C   LIG d   1      11.241  -7.893   0.237  0.00  0.00     0.079 C 
ATOM     19  H   LIG d   1      10.344  -7.345   0.522  0.00  0.00     0.066 H 
ATOM     20  H   LIG d   1      11.449  -8.661   0.982  0.00  0.00     0.066 H 
ATOM     21  H   LIG d   1      12.084  -7.205   0.178  0.00  0.00     0.066 H 
ENDBRANCH  17  18
ENDBRANCH  13  17
ENDBRANCH   4   7
ENDBRANCH   1   4
BRANCH   1  22
ATOM     22  N   LIG d   1       8.681  -2.233  -3.939  0.00  0.00    -0.274 N 
ATOM     23  H   LIG d   1       9.331  -1.513  -3.948  0.00  0.00     0.153 HD
BRANCH  22  24
ATOM     24  C   LIG d   1       7.338  -1.950  -3.773  0.00  0.00     0.374 A 
ATOM     25  N   LIG d   1       6.442  -2.821  -4.232  0.00  0.00    -0.157 NA
ATOM     26  C   LIG d   1       5.142  -2.608  -4.099  0.00  0.00     0.138 A 
ATOM     27  C   LIG d   1       4.717  -1.417  -3.459  0.00  0.00     0.086 A 
ATOM     28  C   LIG d   1       5.706  -0.517  -2.991  0.00  0.00     0.219 A 
ATOM     29  C   LIG d   1       3.363  -1.111  -3.283  0.00  0.00    -0.045 A 
ATOM     30  N   LIG d   1       6.998  -0.827  -3.170  0.00  0.00    -0.174 N 
ATOM     31  C   LIG d   1       5.309   0.668  -2.356  0.00  0.00     0.011 A 
ATOM     32  H   LIG d   1       7.687  -0.222  -2.854  0.00  0.00     0.457 HD
ATOM     33  C   LIG d   1       3.981   0.936  -2.199  0.00  0.00    -0.056 A 
ATOM     34  H   LIG d   1       6.050   1.364  -1.992  0.00  0.00     0.068 H 
ATOM     35  C   LIG d   1       3.011   0.050  -2.660  0.00  0.00    -0.061 A 
ATOM     36  H   LIG d   1       3.677   1.850  -1.709  0.00  0.00     0.062 H 
ATOM     37  H   LIG d   1       1.966   0.285  -2.523  0.00  0.00     0.062 H 
ATOM     38  H   LIG d   1       2.602  -1.792  -3.635  0.00  0.00     0.063 H 
BRANCH  26  39
ATOM     39  N   LIG d   1       4.224  -3.520  -4.575  0.00  0.00    -0.342 N 
ATOM     40  H   LIG d   1       3.994  -3.531  -5.518  0.00  0.00     0.144 HD
ATOM     41  H   LIG d   1       3.809  -4.152  -3.967  0.00  0.00     0.144 HD
ENDBRANCH  26  39
ENDBRANCH  22  24
ENDBRANCH   1  22
TORSDOF 7
ENDMDL
