MODEL 1
REMARK VINA RESULT:      -5.2      0.000      0.000
REMARK  12 active torsions:
REMARK  status: ('A' for Active; 'I' for Inactive)
REMARK    1  A    between atoms: C_1  and  N_2 
REMARK    2  A    between atoms: N_2  and  C_3 
REMARK    3  A    between atoms: N_2  and  C_4 
REMARK    4  A    between atoms: C_4  and  C_5 
REMARK    5  A    between atoms: C_5  and  C_6 
REMARK    6  A    between atoms: C_6  and  N_7 
REMARK    7  A    between atoms: C_9  and  N_14 
REMARK    8  A    between atoms: N_14  and  C_15 
REMARK    9  A    between atoms: C_15  and  C_16 
REMARK   10  A    between atoms: C_16  and  C_17 
REMARK   11  A    between atoms: C_24  and  O_27 
REMARK   12  A    between atoms: O_27  and  C_28 
ROOT
ATOM      1  N   LIG d   1       5.641  -0.034  -6.824  0.00  0.00    -0.282 NA
ATOM      2  C   LIG d   1       4.417  -0.273  -7.154  0.00  0.00     0.111 C 
ATOM      3  C   LIG d   1       3.068   0.358  -6.882  0.00  0.00     0.121 C 
ATOM      4  C   LIG d   1       2.635  -0.266  -8.190  0.00  0.00     0.227 C 
ATOM      5  O   LIG d   1       1.801  -0.040  -9.034  0.00  0.00    -0.286 OA
ATOM      6  C   LIG d   1       3.703  -1.286  -7.974  0.00  0.00     0.246 C 
ATOM      7  O   LIG d   1       3.900  -2.433  -8.318  0.00  0.00    -0.282 OA
ATOM      8  H   LIG d   1       3.082   1.448  -6.897  0.00  0.00     0.061 H 
ENDROOT
BRANCH   3   9
ATOM      9  N   LIG d   1       2.382  -0.192  -5.705  0.00  0.00    -0.301 N 
ATOM     10  H   LIG d   1       2.478  -1.195  -5.666  0.00  0.00     0.123 HD
BRANCH   9  11
ATOM     11  C   LIG d   1       2.872   0.433  -4.469  0.00  0.00     0.001 C 
ATOM     12  H   LIG d   1       3.792   0.978  -4.678  0.00  0.00     0.043 H 
ATOM     13  H   LIG d   1       2.120   1.123  -4.087  0.00  0.00     0.043 H 
BRANCH  11  14
ATOM     14  C   LIG d   1       3.148  -0.651  -3.425  0.00  0.00    -0.013 C 
ATOM     15  H   LIG d   1       2.843  -0.294  -2.441  0.00  0.00     0.033 H 
ATOM     16  H   LIG d   1       2.585  -1.550  -3.675  0.00  0.00     0.033 H 
BRANCH  14  17
ATOM     17  C   LIG d   1       4.621  -0.970  -3.409  0.00  0.00    -0.021 A 
ATOM     18  C   LIG d   1       5.265  -2.141  -4.007  0.00  0.00     0.006 A 
ATOM     19  C   LIG d   1       6.641  -2.006  -3.742  0.00  0.00     0.047 A 
ATOM     20  C   LIG d   1       4.797  -3.245  -4.722  0.00  0.00    -0.011 A 
ATOM     21  N   LIG d   1       6.804  -0.839  -3.026  0.00  0.00    -0.360 N 
ATOM     22  C   LIG d   1       7.524  -2.979  -4.196  0.00  0.00    -0.034 A 
ATOM     23  C   LIG d   1       5.589  -0.236  -2.838  0.00  0.00     0.006 A 
ATOM     24  H   LIG d   1       7.652  -0.497  -2.703  0.00  0.00     0.165 HD
ATOM     25  H   LIG d   1       5.434   0.692  -2.308  0.00  0.00     0.081 H 
ATOM     26  C   LIG d   1       7.050  -4.068  -4.894  0.00  0.00    -0.018 A 
ATOM     27  H   LIG d   1       8.580  -2.886  -3.994  0.00  0.00     0.064 H 
ATOM     28  C   LIG d   1       5.691  -4.203  -5.161  0.00  0.00     0.121 A 
ATOM     29  H   LIG d   1       7.741  -4.822  -5.241  0.00  0.00     0.066 H 
ATOM     30  H   LIG d   1       3.742  -3.351  -4.930  0.00  0.00     0.066 H 
BRANCH  28  31
ATOM     31  O   LIG d   1       5.240  -5.280  -5.856  0.00  0.00    -0.495 OA
BRANCH  31  32
ATOM     32  C   LIG d   1       3.981  -5.144  -6.520  0.00  0.00     0.079 C 
ATOM     33  H   LIG d   1       3.419  -6.073  -6.424  0.00  0.00     0.066 H 
ATOM     34  H   LIG d   1       3.418  -4.329  -6.065  0.00  0.00     0.066 H 
ATOM     35  H   LIG d   1       4.148  -4.927  -7.575  0.00  0.00     0.066 H 
ENDBRANCH  31  32
ENDBRANCH  28  31
ENDBRANCH  14  17
ENDBRANCH  11  14
ENDBRANCH   9  11
ENDBRANCH   3   9
BRANCH   1  36
ATOM     36  C   LIG d   1       6.714  -0.906  -7.312  0.00  0.00     0.045 C 
ATOM     37  H   LIG d   1       6.473  -1.249  -8.318  0.00  0.00     0.051 H 
ATOM     38  H   LIG d   1       6.814  -1.765  -6.649  0.00  0.00     0.051 H 
BRANCH  36  39
ATOM     39  C   LIG d   1       8.030  -0.127  -7.341  0.00  0.00     0.007 C 
ATOM     40  H   LIG d   1       7.954   0.692  -8.056  0.00  0.00     0.034 H 
ATOM     41  H   LIG d   1       8.841  -0.793  -7.636  0.00  0.00     0.034 H 
BRANCH  39  42
ATOM     42  C   LIG d   1       8.318   0.438  -5.949  0.00  0.00    -0.031 C 
ATOM     43  H   LIG d   1       9.375   0.308  -5.715  0.00  0.00     0.082 H 
ATOM     44  H   LIG d   1       7.716  -0.091  -5.209  0.00  0.00     0.082 H 
BRANCH  42  45
ATOM     45  N   LIG d   1       7.984   1.868  -5.921  0.00  0.00     0.231 N 
ATOM     46  H   LIG d   1       7.023   1.994  -6.203  0.00  0.00     0.203 HD
BRANCH  45  47
ATOM     47  C   LIG d   1       8.167   2.387  -4.559  0.00  0.00    -0.043 C 
ATOM     48  H   LIG d   1       7.327   2.077  -3.936  0.00  0.00     0.078 H 
ATOM     49  H   LIG d   1       9.093   1.993  -4.141  0.00  0.00     0.078 H 
ATOM     50  H   LIG d   1       8.216   3.475  -4.589  0.00  0.00     0.078 H 
ENDBRANCH  45  47
BRANCH  45  51
ATOM     51  C   LIG d   1       8.864   2.596  -6.845  0.00  0.00    -0.043 C 
ATOM     52  H   LIG d   1       8.332   3.459  -7.248  0.00  0.00     0.078 H 
ATOM     53  H   LIG d   1       9.752   2.933  -6.311  0.00  0.00     0.078 H 
ATOM     54  H   LIG d   1       9.158   1.936  -7.662  0.00  0.00     0.078 H 
ENDBRANCH  45  51
ENDBRANCH  42  45
ENDBRANCH  39  42
ENDBRANCH  36  39
ENDBRANCH   1  36
TORSDOF 12
ENDMDL
MODEL 2
REMARK VINA RESULT:      -5.1      5.192      9.013
REMARK  12 active torsions:
REMARK  status: ('A' for Active; 'I' for Inactive)
REMARK    1  A    between atoms: C_1  and  N_2 
REMARK    2  A    between atoms: N_2  and  C_3 
REMARK    3  A    between atoms: N_2  and  C_4 
REMARK    4  A    between atoms: C_4  and  C_5 
REMARK    5  A    between atoms: C_5  and  C_6 
REMARK    6  A    between atoms: C_6  and  N_7 
REMARK    7  A    between atoms: C_9  and  N_14 
REMARK    8  A    between atoms: N_14  and  C_15 
REMARK    9  A    between atoms: C_15  and  C_16 
REMARK   10  A    between atoms: C_16  and  C_17 
REMARK   11  A    between atoms: C_24  and  O_27 
REMARK   12  A    between atoms: O_27  and  C_28 
ROOT
ATOM      1  N   LIG d   1       6.220   1.727  -3.037  0.00  0.00    -0.282 NA
ATOM      2  C   LIG d   1       7.058   1.402  -3.964  0.00  0.00     0.111 C 
ATOM      3  C   LIG d   1       8.503   1.712  -4.289  0.00  0.00     0.121 C 
ATOM      4  C   LIG d   1       8.507   0.387  -5.021  0.00  0.00     0.227 C 
ATOM      5  O   LIG d   1       9.332  -0.438  -5.330  0.00  0.00    -0.286 OA
ATOM      6  C   LIG d   1       7.033   0.555  -5.185  0.00  0.00     0.246 C 
ATOM      7  O   LIG d   1       6.191   0.169  -5.968  0.00  0.00    -0.282 OA
ATOM      8  H   LIG d   1       9.155   1.734  -3.415  0.00  0.00     0.061 H 
ENDROOT
BRANCH   3   9
ATOM      9  N   LIG d   1       8.678   2.877  -5.167  0.00  0.00    -0.301 N 
ATOM     10  H   LIG d   1       7.887   3.499  -5.103  0.00  0.00     0.123 HD
BRANCH   9  11
ATOM     11  C   LIG d   1       9.930   3.582  -4.863  0.00  0.00     0.001 C 
ATOM     12  H   LIG d   1      10.530   2.979  -4.181  0.00  0.00     0.043 H 
ATOM     13  H   LIG d   1      10.486   3.750  -5.785  0.00  0.00     0.043 H 
BRANCH  11  14
ATOM     14  C   LIG d   1       9.611   4.927  -4.208  0.00  0.00    -0.013 C 
ATOM     15  H   LIG d   1      10.022   5.734  -4.816  0.00  0.00     0.033 H 
ATOM     16  H   LIG d   1       8.531   5.047  -4.128  0.00  0.00     0.033 H 
BRANCH  14  17
ATOM     17  C   LIG d   1      10.224   4.973  -2.831  0.00  0.00    -0.021 A 
ATOM     18  C   LIG d   1      10.277   6.135  -1.940  0.00  0.00     0.006 A 
ATOM     19  C   LIG d   1      10.936   5.701  -0.775  0.00  0.00     0.047 A 
ATOM     20  C   LIG d   1       9.830   7.454  -2.040  0.00  0.00    -0.011 A 
ATOM     21  N   LIG d   1      11.261   4.375  -0.963  0.00  0.00    -0.360 N 
ATOM     22  C   LIG d   1      11.136   6.595   0.271  0.00  0.00    -0.034 A 
ATOM     23  C   LIG d   1      10.829   3.960  -2.193  0.00  0.00     0.006 A 
ATOM     24  H   LIG d   1      11.728   3.818  -0.319  0.00  0.00     0.165 HD
ATOM     25  H   LIG d   1      10.956   2.964  -2.591  0.00  0.00     0.081 H 
ATOM     26  C   LIG d   1      10.697   7.896   0.159  0.00  0.00    -0.018 A 
ATOM     27  H   LIG d   1      11.644   6.272   1.167  0.00  0.00     0.064 H 
ATOM     28  C   LIG d   1      10.043   8.327  -0.991  0.00  0.00     0.121 A 
ATOM     29  H   LIG d   1      10.859   8.586   0.974  0.00  0.00     0.066 H 
ATOM     30  H   LIG d   1       9.322   7.790  -2.932  0.00  0.00     0.066 H 
BRANCH  28  31
ATOM     31  O   LIG d   1       9.610   9.612  -1.082  0.00  0.00    -0.495 OA
BRANCH  31  32
ATOM     32  C   LIG d   1       9.608  10.384   0.121  0.00  0.00     0.079 C 
ATOM     33  H   LIG d   1      10.591  10.835   0.264  0.00  0.00     0.066 H 
ATOM     34  H   LIG d   1       8.856  11.170   0.047  0.00  0.00     0.066 H 
ATOM     35  H   LIG d   1       9.378   9.738   0.968  0.00  0.00     0.066 H 
ENDBRANCH  31  32
ENDBRANCH  28  31
ENDBRANCH  14  17
ENDBRANCH  11  14
ENDBRANCH   9  11
ENDBRANCH   3   9
BRANCH   1  36
ATOM     36  C   LIG d   1       4.854   1.195  -3.066  0.00  0.00     0.045 C 
ATOM     37  H   LIG d   1       4.745   0.520  -3.914  0.00  0.00     0.051 H 
ATOM     38  H   LIG d   1       4.147   2.019  -3.163  0.00  0.00     0.051 H 
BRANCH  36  39
ATOM     39  C   LIG d   1       4.575   0.435  -1.768  0.00  0.00     0.007 C 
ATOM     40  H   LIG d   1       3.648   0.799  -1.324  0.00  0.00     0.034 H 
ATOM     41  H   LIG d   1       5.398   0.592  -1.071  0.00  0.00     0.034 H 
BRANCH  39  42
ATOM     42  C   LIG d   1       4.443  -1.059  -2.071  0.00  0.00    -0.031 C 
ATOM     43  H   LIG d   1       3.389  -1.315  -2.179  0.00  0.00     0.082 H 
ATOM     44  H   LIG d   1       4.874  -1.635  -1.252  0.00  0.00     0.082 H 
BRANCH  42  45
ATOM     45  N   LIG d   1       5.153  -1.371  -3.318  0.00  0.00     0.231 N 
ATOM     46  H   LIG d   1       5.382  -0.514  -3.798  0.00  0.00     0.203 HD
BRANCH  45  47
ATOM     47  C   LIG d   1       6.389  -2.103  -3.006  0.00  0.00    -0.043 C 
ATOM     48  H   LIG d   1       6.451  -2.269  -1.931  0.00  0.00     0.078 H 
ATOM     49  H   LIG d   1       6.382  -3.063  -3.523  0.00  0.00     0.078 H 
ATOM     50  H   LIG d   1       7.249  -1.519  -3.335  0.00  0.00     0.078 H 
ENDBRANCH  45  47
BRANCH  45  51
ATOM     51  C   LIG d   1       4.296  -2.200  -4.176  0.00  0.00    -0.043 C 
ATOM     52  H   LIG d   1       3.815  -2.971  -3.573  0.00  0.00     0.078 H 
ATOM     53  H   LIG d   1       3.534  -1.574  -4.640  0.00  0.00     0.078 H 
ATOM     54  H   LIG d   1       4.903  -2.669  -4.950  0.00  0.00     0.078 H 
ENDBRANCH  45  51
ENDBRANCH  42  45
ENDBRANCH  39  42
ENDBRANCH  36  39
ENDBRANCH   1  36
TORSDOF 12
ENDMDL
MODEL 3
REMARK VINA RESULT:      -5.0      2.104      3.071
REMARK  12 active torsions:
REMARK  status: ('A' for Active; 'I' for Inactive)
REMARK    1  A    between atoms: C_1  and  N_2 
REMARK    2  A    between atoms: N_2  and  C_3 
REMARK    3  A    between atoms: N_2  and  C_4 
REMARK    4  A    between atoms: C_4  and  C_5 
REMARK    5  A    between atoms: C_5  and  C_6 
REMARK    6  A    between atoms: C_6  and  N_7 
REMARK    7  A    between atoms: C_9  and  N_14 
REMARK    8  A    between atoms: N_14  and  C_15 
REMARK    9  A    between atoms: C_15  and  C_16 
REMARK   10  A    between atoms: C_16  and  C_17 
REMARK   11  A    between atoms: C_24  and  O_27 
REMARK   12  A    between atoms: O_27  and  C_28 
ROOT
ATOM      1  N   LIG d   1       4.359  -2.053  -7.802  0.00  0.00    -0.282 NA
ATOM      2  C   LIG d   1       3.628  -1.011  -7.589  0.00  0.00     0.111 C 
ATOM      3  C   LIG d   1       3.511   0.040  -6.506  0.00  0.00     0.121 C 
ATOM      4  C   LIG d   1       2.953   0.937  -7.589  0.00  0.00     0.227 C 
ATOM      5  O   LIG d   1       2.885   2.126  -7.792  0.00  0.00    -0.286 OA
ATOM      6  C   LIG d   1       2.529  -0.306  -8.300  0.00  0.00     0.246 C 
ATOM      7  O   LIG d   1       1.670  -0.604  -9.102  0.00  0.00    -0.282 OA
ATOM      8  H   LIG d   1       4.471   0.372  -6.110  0.00  0.00     0.061 H 
ENDROOT
BRANCH   3   9
ATOM      9  N   LIG d   1       2.541  -0.296  -5.454  0.00  0.00    -0.301 N 
ATOM     10  H   LIG d   1       2.494  -1.293  -5.311  0.00  0.00     0.123 HD
BRANCH   9  11
ATOM     11  C   LIG d   1       2.859   0.402  -4.202  0.00  0.00     0.001 C 
ATOM     12  H   LIG d   1       3.676   1.103  -4.374  0.00  0.00     0.043 H 
ATOM     13  H   LIG d   1       1.980   0.947  -3.857  0.00  0.00     0.043 H 
BRANCH  11  14
ATOM     14  C   LIG d   1       3.276  -0.618  -3.141  0.00  0.00    -0.013 C 
ATOM     15  H   LIG d   1       3.073  -0.214  -2.149  0.00  0.00     0.033 H 
ATOM     16  H   LIG d   1       2.712  -1.540  -3.281  0.00  0.00     0.033 H 
BRANCH  14  17
ATOM     17  C   LIG d   1       4.750  -0.906  -3.274  0.00  0.00    -0.021 A 
ATOM     18  C   LIG d   1       5.354  -2.079  -3.910  0.00  0.00     0.006 A 
ATOM     19  C   LIG d   1       6.746  -1.910  -3.795  0.00  0.00     0.047 A 
ATOM     20  C   LIG d   1       4.838  -3.211  -4.545  0.00  0.00    -0.011 A 
ATOM     21  N   LIG d   1       6.957  -0.722  -3.128  0.00  0.00    -0.360 N 
ATOM     22  C   LIG d   1       7.598  -2.876  -4.317  0.00  0.00    -0.034 A 
ATOM     23  C   LIG d   1       5.755  -0.139  -2.826  0.00  0.00     0.006 A 
ATOM     24  H   LIG d   1       7.826  -0.354  -2.905  0.00  0.00     0.165 HD
ATOM     25  H   LIG d   1       5.636   0.799  -2.305  0.00  0.00     0.081 H 
ATOM     26  C   LIG d   1       7.078  -3.993  -4.935  0.00  0.00    -0.018 A 
ATOM     27  H   LIG d   1       8.668  -2.757  -4.230  0.00  0.00     0.064 H 
ATOM     28  C   LIG d   1       5.702  -4.161  -5.053  0.00  0.00     0.121 A 
ATOM     29  H   LIG d   1       7.746  -4.741  -5.335  0.00  0.00     0.066 H 
ATOM     30  H   LIG d   1       3.770  -3.344  -4.636  0.00  0.00     0.066 H 
BRANCH  28  31
ATOM     31  O   LIG d   1       5.205  -5.265  -5.671  0.00  0.00    -0.495 OA
BRANCH  31  32
ATOM     32  C   LIG d   1       5.889  -5.716  -6.843  0.00  0.00     0.079 C 
ATOM     33  H   LIG d   1       5.546  -6.718  -7.100  0.00  0.00     0.066 H 
ATOM     34  H   LIG d   1       5.677  -5.036  -7.670  0.00  0.00     0.066 H 
ATOM     35  H   LIG d   1       6.962  -5.735  -6.654  0.00  0.00     0.066 H 
ENDBRANCH  31  32
ENDBRANCH  28  31
ENDBRANCH  14  17
ENDBRANCH  11  14
ENDBRANCH   9  11
ENDBRANCH   3   9
BRANCH   1  36
ATOM     36  C   LIG d   1       4.168  -2.843  -9.022  0.00  0.00     0.045 C 
ATOM     37  H   LIG d   1       3.150  -2.710  -9.385  0.00  0.00     0.051 H 
ATOM     38  H   LIG d   1       4.342  -3.897  -8.802  0.00  0.00     0.051 H 
BRANCH  36  39
ATOM     39  C   LIG d   1       5.158  -2.376 -10.091  0.00  0.00     0.007 C 
ATOM     40  H   LIG d   1       5.689  -3.238 -10.497  0.00  0.00     0.034 H 
ATOM     41  H   LIG d   1       5.874  -1.685  -9.647  0.00  0.00     0.034 H 
BRANCH  39  42
ATOM     42  C   LIG d   1       4.398  -1.670 -11.215  0.00  0.00    -0.031 C 
ATOM     43  H   LIG d   1       3.375  -1.472 -10.894  0.00  0.00     0.082 H 
ATOM     44  H   LIG d   1       4.383  -2.307 -12.100  0.00  0.00     0.082 H 
BRANCH  42  45
ATOM     45  N   LIG d   1       5.065  -0.402 -11.536  0.00  0.00     0.231 N 
ATOM     46  H   LIG d   1       5.347  -0.406 -12.505  0.00  0.00     0.203 HD
BRANCH  45  47
ATOM     47  C   LIG d   1       4.136   0.712 -11.301  0.00  0.00    -0.043 C 
ATOM     48  H   LIG d   1       3.836   1.143 -12.257  0.00  0.00     0.078 H 
ATOM     49  H   LIG d   1       3.255   0.345 -10.775  0.00  0.00     0.078 H 
ATOM     50  H   LIG d   1       4.629   1.474 -10.697  0.00  0.00     0.078 H 
ENDBRANCH  45  47
BRANCH  45  51
ATOM     51  C   LIG d   1       6.250  -0.240 -10.683  0.00  0.00    -0.043 C 
ATOM     52  H   LIG d   1       6.975  -1.020 -10.919  0.00  0.00     0.078 H 
ATOM     53  H   LIG d   1       6.696   0.738 -10.862  0.00  0.00     0.078 H 
ATOM     54  H   LIG d   1       5.957  -0.321  -9.636  0.00  0.00     0.078 H 
ENDBRANCH  45  51
ENDBRANCH  42  45
ENDBRANCH  39  42
ENDBRANCH  36  39
ENDBRANCH   1  36
TORSDOF 12
ENDMDL
MODEL 4
REMARK VINA RESULT:      -5.0      2.289      4.605
REMARK  12 active torsions:
REMARK  status: ('A' for Active; 'I' for Inactive)
REMARK    1  A    between atoms: C_1  and  N_2 
REMARK    2  A    between atoms: N_2  and  C_3 
REMARK    3  A    between atoms: N_2  and  C_4 
REMARK    4  A    between atoms: C_4  and  C_5 
REMARK    5  A    between atoms: C_5  and  C_6 
REMARK    6  A    between atoms: C_6  and  N_7 
REMARK    7  A    between atoms: C_9  and  N_14 
REMARK    8  A    between atoms: N_14  and  C_15 
REMARK    9  A    between atoms: C_15  and  C_16 
REMARK   10  A    between atoms: C_16  and  C_17 
REMARK   11  A    between atoms: C_24  and  O_27 
REMARK   12  A    between atoms: O_27  and  C_28 
ROOT
ATOM      1  N   LIG d   1       4.255  -1.944  -8.146  0.00  0.00    -0.282 NA
ATOM      2  C   LIG d   1       3.563  -0.876  -7.935  0.00  0.00     0.111 C 
ATOM      3  C   LIG d   1       3.427   0.136  -6.818  0.00  0.00     0.121 C 
ATOM      4  C   LIG d   1       2.984   1.102  -7.895  0.00  0.00     0.227 C 
ATOM      5  O   LIG d   1       2.986   2.299  -8.051  0.00  0.00    -0.286 OA
ATOM      6  C   LIG d   1       2.548  -0.089  -8.683  0.00  0.00     0.246 C 
ATOM      7  O   LIG d   1       1.730  -0.311  -9.550  0.00  0.00    -0.282 OA
ATOM      8  H   LIG d   1       4.374   0.403  -6.349  0.00  0.00     0.061 H 
ENDROOT
BRANCH   3   9
ATOM      9  N   LIG d   1       2.376  -0.192  -5.845  0.00  0.00    -0.301 N 
ATOM     10  H   LIG d   1       2.248  -1.190  -5.773  0.00  0.00     0.123 HD
BRANCH   9  11
ATOM     11  C   LIG d   1       2.671   0.398  -4.533  0.00  0.00     0.001 C 
ATOM     12  H   LIG d   1       3.533   1.060  -4.617  0.00  0.00     0.043 H 
ATOM     13  H   LIG d   1       1.807   0.967  -4.188  0.00  0.00     0.043 H 
BRANCH  11  14
ATOM     14  C   LIG d   1       2.979  -0.716  -3.531  0.00  0.00    -0.013 C 
ATOM     15  H   LIG d   1       2.583  -0.445  -2.552  0.00  0.00     0.033 H 
ATOM     16  H   LIG d   1       2.518  -1.645  -3.865  0.00  0.00     0.033 H 
BRANCH  14  17
ATOM     17  C   LIG d   1       4.472  -0.905  -3.433  0.00  0.00    -0.021 A 
ATOM     18  C   LIG d   1       5.253  -1.993  -4.025  0.00  0.00     0.006 A 
ATOM     19  C   LIG d   1       6.593  -1.748  -3.672  0.00  0.00     0.047 A 
ATOM     20  C   LIG d   1       4.929  -3.109  -4.799  0.00  0.00    -0.011 A 
ATOM     21  N   LIG d   1       6.608  -0.596  -2.914  0.00  0.00    -0.360 N 
ATOM     22  C   LIG d   1       7.585  -2.622  -4.099  0.00  0.00    -0.034 A 
ATOM     23  C   LIG d   1       5.335  -0.109  -2.783  0.00  0.00     0.006 A 
ATOM     24  H   LIG d   1       7.401  -0.191  -2.530  0.00  0.00     0.165 HD
ATOM     25  H   LIG d   1       5.066   0.783  -2.237  0.00  0.00     0.081 H 
ATOM     26  C   LIG d   1       7.253  -3.724  -4.856  0.00  0.00    -0.018 A 
ATOM     27  H   LIG d   1       8.615  -2.444  -3.829  0.00  0.00     0.064 H 
ATOM     28  C   LIG d   1       5.929  -3.969  -5.210  0.00  0.00     0.121 A 
ATOM     29  H   LIG d   1       8.028  -4.402  -5.182  0.00  0.00     0.066 H 
ATOM     30  H   LIG d   1       3.902  -3.300  -5.074  0.00  0.00     0.066 H 
BRANCH  28  31
ATOM     31  O   LIG d   1       5.619  -5.057  -5.963  0.00  0.00    -0.495 OA
BRANCH  31  32
ATOM     32  C   LIG d   1       4.537  -5.874  -5.508  0.00  0.00     0.079 C 
ATOM     33  H   LIG d   1       4.671  -6.891  -5.879  0.00  0.00     0.066 H 
ATOM     34  H   LIG d   1       4.524  -5.884  -4.418  0.00  0.00     0.066 H 
ATOM     35  H   LIG d   1       3.596  -5.471  -5.881  0.00  0.00     0.066 H 
ENDBRANCH  31  32
ENDBRANCH  28  31
ENDBRANCH  14  17
ENDBRANCH  11  14
ENDBRANCH   9  11
ENDBRANCH   3   9
BRANCH   1  36
ATOM     36  C   LIG d   1       4.107  -2.675  -9.409  0.00  0.00     0.045 C 
ATOM     37  H   LIG d   1       5.079  -3.052  -9.726  0.00  0.00     0.051 H 
ATOM     38  H   LIG d   1       3.709  -2.005 -10.171  0.00  0.00     0.051 H 
BRANCH  36  39
ATOM     39  C   LIG d   1       3.146  -3.848  -9.209  0.00  0.00     0.007 C 
ATOM     40  H   LIG d   1       2.775  -3.844  -8.183  0.00  0.00     0.034 H 
ATOM     41  H   LIG d   1       3.669  -4.784  -9.402  0.00  0.00     0.034 H 
BRANCH  39  42
ATOM     42  C   LIG d   1       1.969  -3.714 -10.177  0.00  0.00    -0.031 C 
ATOM     43  H   LIG d   1       2.333  -3.782 -11.203  0.00  0.00     0.082 H 
ATOM     44  H   LIG d   1       1.484  -2.749 -10.028  0.00  0.00     0.082 H 
BRANCH  42  45
ATOM     45  N   LIG d   1       1.003  -4.792  -9.928  0.00  0.00     0.231 N 
ATOM     46  H   LIG d   1       0.701  -4.756  -8.966  0.00  0.00     0.203 HD
BRANCH  45  47
ATOM     47  C   LIG d   1      -0.157  -4.624 -10.814  0.00  0.00    -0.043 C 
ATOM     48  H   LIG d   1      -1.068  -4.592 -10.216  0.00  0.00     0.078 H 
ATOM     49  H   LIG d   1      -0.056  -3.694 -11.372  0.00  0.00     0.078 H 
ATOM     50  H   LIG d   1      -0.207  -5.462 -11.509  0.00  0.00     0.078 H 
ENDBRANCH  45  47
BRANCH  45  51
ATOM     51  C   LIG d   1       1.638  -6.090 -10.193  0.00  0.00    -0.043 C 
ATOM     52  H   LIG d   1       2.149  -6.435  -9.292  0.00  0.00     0.078 H 
ATOM     53  H   LIG d   1       0.876  -6.816 -10.478  0.00  0.00     0.078 H 
ATOM     54  H   LIG d   1       2.361  -5.983 -11.001  0.00  0.00     0.078 H 
ENDBRANCH  45  51
ENDBRANCH  42  45
ENDBRANCH  39  42
ENDBRANCH  36  39
ENDBRANCH   1  36
TORSDOF 12
ENDMDL
MODEL 5
REMARK VINA RESULT:      -4.9      2.888      4.798
REMARK  12 active torsions:
REMARK  status: ('A' for Active; 'I' for Inactive)
REMARK    1  A    between atoms: C_1  and  N_2 
REMARK    2  A    between atoms: N_2  and  C_3 
REMARK    3  A    between atoms: N_2  and  C_4 
REMARK    4  A    between atoms: C_4  and  C_5 
REMARK    5  A    between atoms: C_5  and  C_6 
REMARK    6  A    between atoms: C_6  and  N_7 
REMARK    7  A    between atoms: C_9  and  N_14 
REMARK    8  A    between atoms: N_14  and  C_15 
REMARK    9  A    between atoms: C_15  and  C_16 
REMARK   10  A    between atoms: C_16  and  C_17 
REMARK   11  A    between atoms: C_24  and  O_27 
REMARK   12  A    between atoms: O_27  and  C_28 
ROOT
ATOM      1  N   LIG d   1       4.172   0.095  -5.566  0.00  0.00    -0.282 NA
ATOM      2  C   LIG d   1       4.359  -0.075  -4.300  0.00  0.00     0.111 C 
ATOM      3  C   LIG d   1       5.548  -0.298  -3.391  0.00  0.00     0.121 C 
ATOM      4  C   LIG d   1       4.692   0.315  -2.304  0.00  0.00     0.227 C 
ATOM      5  O   LIG d   1       4.883   0.907  -1.268  0.00  0.00    -0.286 OA
ATOM      6  C   LIG d   1       3.503  -0.134  -3.087  0.00  0.00     0.246 C 
ATOM      7  O   LIG d   1       2.350  -0.420  -2.839  0.00  0.00    -0.282 OA
ATOM      8  H   LIG d   1       6.421   0.301  -3.654  0.00  0.00     0.061 H 
ENDROOT
BRANCH   3   9
ATOM      9  N   LIG d   1       5.868  -1.714  -3.167  0.00  0.00    -0.301 N 
ATOM     10  H   LIG d   1       5.095  -2.305  -3.432  0.00  0.00     0.123 HD
BRANCH   9  11
ATOM     11  C   LIG d   1       7.093  -2.096  -3.881  0.00  0.00     0.001 C 
ATOM     12  H   LIG d   1       7.836  -1.306  -3.776  0.00  0.00     0.043 H 
ATOM     13  H   LIG d   1       7.486  -3.022  -3.460  0.00  0.00     0.043 H 
BRANCH  11  14
ATOM     14  C   LIG d   1       6.776  -2.304  -5.363  0.00  0.00    -0.013 C 
ATOM     15  H   LIG d   1       6.310  -1.404  -5.764  0.00  0.00     0.033 H 
ATOM     16  H   LIG d   1       7.698  -2.509  -5.908  0.00  0.00     0.033 H 
BRANCH  14  17
ATOM     17  C   LIG d   1       5.833  -3.470  -5.516  0.00  0.00    -0.021 A 
ATOM     18  C   LIG d   1       6.186  -4.890  -5.453  0.00  0.00     0.006 A 
ATOM     19  C   LIG d   1       4.986  -5.599  -5.648  0.00  0.00     0.047 A 
ATOM     20  C   LIG d   1       7.382  -5.584  -5.250  0.00  0.00    -0.011 A 
ATOM     21  N   LIG d   1       3.988  -4.665  -5.824  0.00  0.00    -0.360 N 
ATOM     22  C   LIG d   1       5.002  -6.989  -5.636  0.00  0.00    -0.034 A 
ATOM     23  C   LIG d   1       4.512  -3.403  -5.742  0.00  0.00     0.006 A 
ATOM     24  H   LIG d   1       3.053  -4.870  -5.983  0.00  0.00     0.165 HD
ATOM     25  H   LIG d   1       3.946  -2.489  -5.845  0.00  0.00     0.081 H 
ATOM     26  C   LIG d   1       6.188  -7.663  -5.442  0.00  0.00    -0.018 A 
ATOM     27  H   LIG d   1       4.087  -7.540  -5.788  0.00  0.00     0.064 H 
ATOM     28  C   LIG d   1       7.376  -6.965  -5.246  0.00  0.00     0.121 A 
ATOM     29  H   LIG d   1       6.194  -8.742  -5.438  0.00  0.00     0.066 H 
ATOM     30  H   LIG d   1       8.305  -5.043  -5.098  0.00  0.00     0.066 H 
BRANCH  28  31
ATOM     31  O   LIG d   1       8.537  -7.645  -5.050  0.00  0.00    -0.495 OA
BRANCH  31  32
ATOM     32  C   LIG d   1       9.018  -7.734  -3.707  0.00  0.00     0.079 C 
ATOM     33  H   LIG d   1       9.842  -7.033  -3.570  0.00  0.00     0.066 H 
ATOM     34  H   LIG d   1       8.212  -7.486  -3.016  0.00  0.00     0.066 H 
ATOM     35  H   LIG d   1       9.366  -8.748  -3.511  0.00  0.00     0.066 H 
ENDBRANCH  31  32
ENDBRANCH  28  31
ENDBRANCH  14  17
ENDBRANCH  11  14
ENDBRANCH   9  11
ENDBRANCH   3   9
BRANCH   1  36
ATOM     36  C   LIG d   1       2.816   0.294  -6.085  0.00  0.00     0.045 C 
ATOM     37  H   LIG d   1       2.480   1.302  -5.845  0.00  0.00     0.051 H 
ATOM     38  H   LIG d   1       2.143  -0.432  -5.629  0.00  0.00     0.051 H 
BRANCH  36  39
ATOM     39  C   LIG d   1       2.818   0.104  -7.603  0.00  0.00     0.007 C 
ATOM     40  H   LIG d   1       2.217   0.886  -8.069  0.00  0.00     0.034 H 
ATOM     41  H   LIG d   1       2.398  -0.871  -7.848  0.00  0.00     0.034 H 
BRANCH  39  42
ATOM     42  C   LIG d   1       4.254   0.186  -8.125  0.00  0.00    -0.031 C 
ATOM     43  H   LIG d   1       4.333  -0.371  -9.059  0.00  0.00     0.082 H 
ATOM     44  H   LIG d   1       4.934  -0.244  -7.389  0.00  0.00     0.082 H 
BRANCH  42  45
ATOM     45  N   LIG d   1       4.611   1.591  -8.361  0.00  0.00     0.231 N 
ATOM     46  H   LIG d   1       4.673   2.074  -7.477  0.00  0.00     0.203 HD
BRANCH  45  47
ATOM     47  C   LIG d   1       5.907   1.657  -9.049  0.00  0.00    -0.043 C 
ATOM     48  H   LIG d   1       6.687   1.907  -8.330  0.00  0.00     0.078 H 
ATOM     49  H   LIG d   1       6.127   0.691  -9.503  0.00  0.00     0.078 H 
ATOM     50  H   LIG d   1       5.868   2.423  -9.824  0.00  0.00     0.078 H 
ENDBRANCH  45  47
BRANCH  45  51
ATOM     51  C   LIG d   1       3.580   2.226  -9.194  0.00  0.00    -0.043 C 
ATOM     52  H   LIG d   1       3.794   3.291  -9.286  0.00  0.00     0.078 H 
ATOM     53  H   LIG d   1       3.581   1.768 -10.184  0.00  0.00     0.078 H 
ATOM     54  H   LIG d   1       2.604   2.089  -8.730  0.00  0.00     0.078 H 
ENDBRANCH  45  51
ENDBRANCH  42  45
ENDBRANCH  39  42
ENDBRANCH  36  39
ENDBRANCH   1  36
TORSDOF 12
ENDMDL
MODEL 6
REMARK VINA RESULT:      -4.9      3.484      6.820
REMARK  12 active torsions:
REMARK  status: ('A' for Active; 'I' for Inactive)
REMARK    1  A    between atoms: C_1  and  N_2 
REMARK    2  A    between atoms: N_2  and  C_3 
REMARK    3  A    between atoms: N_2  and  C_4 
REMARK    4  A    between atoms: C_4  and  C_5 
REMARK    5  A    between atoms: C_5  and  C_6 
REMARK    6  A    between atoms: C_6  and  N_7 
REMARK    7  A    between atoms: C_9  and  N_14 
REMARK    8  A    between atoms: N_14  and  C_15 
REMARK    9  A    between atoms: C_15  and  C_16 
REMARK   10  A    between atoms: C_16  and  C_17 
REMARK   11  A    between atoms: C_24  and  O_27 
REMARK   12  A    between atoms: O_27  and  C_28 
ROOT
ATOM      1  N   LIG d   1       4.714  -2.334  -5.155  0.00  0.00    -0.282 NA
ATOM      2  C   LIG d   1       4.499  -2.940  -6.274  0.00  0.00     0.111 C 
ATOM      3  C   LIG d   1       4.562  -2.579  -7.742  0.00  0.00     0.121 C 
ATOM      4  C   LIG d   1       4.796  -4.055  -7.982  0.00  0.00     0.227 C 
ATOM      5  O   LIG d   1       5.326  -4.730  -8.831  0.00  0.00    -0.286 OA
ATOM      6  C   LIG d   1       4.083  -4.303  -6.694  0.00  0.00     0.246 C 
ATOM      7  O   LIG d   1       3.448  -5.215  -6.208  0.00  0.00    -0.282 OA
ATOM      8  H   LIG d   1       5.413  -1.950  -8.004  0.00  0.00     0.061 H 
ENDROOT
BRANCH   3   9
ATOM      9  N   LIG d   1       3.291  -2.083  -8.287  0.00  0.00    -0.301 N 
ATOM     10  H   LIG d   1       2.508  -2.575  -7.884  0.00  0.00     0.123 HD
BRANCH   9  11
ATOM     11  C   LIG d   1       3.162  -0.634  -8.088  0.00  0.00     0.001 C 
ATOM     12  H   LIG d   1       2.705  -0.440  -7.118  0.00  0.00     0.043 H 
ATOM     13  H   LIG d   1       4.149  -0.172  -8.124  0.00  0.00     0.043 H 
BRANCH  11  14
ATOM     14  C   LIG d   1       2.283  -0.044  -9.193  0.00  0.00    -0.013 C 
ATOM     15  H   LIG d   1       1.360  -0.617  -9.267  0.00  0.00     0.033 H 
ATOM     16  H   LIG d   1       2.048   0.994  -8.956  0.00  0.00     0.033 H 
BRANCH  14  17
ATOM     17  C   LIG d   1       3.020  -0.104 -10.507  0.00  0.00    -0.021 A 
ATOM     18  C   LIG d   1       2.630  -0.878 -11.688  0.00  0.00     0.006 A 
ATOM     19  C   LIG d   1       3.612  -0.620 -12.663  0.00  0.00     0.047 A 
ATOM     20  C   LIG d   1       1.564  -1.731 -11.980  0.00  0.00    -0.011 A 
ATOM     21  N   LIG d   1       4.529   0.241 -12.097  0.00  0.00    -0.360 N 
ATOM     22  C   LIG d   1       3.511  -1.220 -13.912  0.00  0.00    -0.034 A 
ATOM     23  C   LIG d   1       4.158   0.537 -10.813  0.00  0.00     0.006 A 
ATOM     24  H   LIG d   1       5.319   0.586 -12.542  0.00  0.00     0.165 HD
ATOM     25  H   LIG d   1       4.702   1.189 -10.146  0.00  0.00     0.081 H 
ATOM     26  C   LIG d   1       2.459  -2.066 -14.187  0.00  0.00    -0.018 A 
ATOM     27  H   LIG d   1       4.262  -1.031 -14.664  0.00  0.00     0.064 H 
ATOM     28  C   LIG d   1       1.484  -2.321 -13.226  0.00  0.00     0.121 A 
ATOM     29  H   LIG d   1       2.388  -2.532 -15.158  0.00  0.00     0.066 H 
ATOM     30  H   LIG d   1       0.807  -1.930 -11.235  0.00  0.00     0.066 H 
BRANCH  28  31
ATOM     31  O   LIG d   1       0.449  -3.153 -13.516  0.00  0.00    -0.495 OA
BRANCH  31  32
ATOM     32  C   LIG d   1       0.138  -4.162 -12.551  0.00  0.00     0.079 C 
ATOM     33  H   LIG d   1      -0.907  -4.455 -12.658  0.00  0.00     0.066 H 
ATOM     34  H   LIG d   1       0.778  -5.029 -12.715  0.00  0.00     0.066 H 
ATOM     35  H   LIG d   1       0.305  -3.770 -11.548  0.00  0.00     0.066 H 
ENDBRANCH  31  32
ENDBRANCH  28  31
ENDBRANCH  14  17
ENDBRANCH  11  14
ENDBRANCH   9  11
ENDBRANCH   3   9
BRANCH   1  36
ATOM     36  C   LIG d   1       4.546  -3.053  -3.888  0.00  0.00     0.045 C 
ATOM     37  H   LIG d   1       5.440  -3.640  -3.683  0.00  0.00     0.051 H 
ATOM     38  H   LIG d   1       3.684  -3.716  -3.960  0.00  0.00     0.051 H 
BRANCH  36  39
ATOM     39  C   LIG d   1       4.324  -2.048  -2.757  0.00  0.00     0.007 C 
ATOM     40  H   LIG d   1       5.203  -1.410  -2.658  0.00  0.00     0.034 H 
ATOM     41  H   LIG d   1       4.156  -2.584  -1.823  0.00  0.00     0.034 H 
BRANCH  39  42
ATOM     42  C   LIG d   1       3.101  -1.184  -3.074  0.00  0.00    -0.031 C 
ATOM     43  H   LIG d   1       2.517  -1.035  -2.166  0.00  0.00     0.082 H 
ATOM     44  H   LIG d   1       2.487  -1.685  -3.823  0.00  0.00     0.082 H 
BRANCH  42  45
ATOM     45  N   LIG d   1       3.542   0.117  -3.593  0.00  0.00     0.231 N 
ATOM     46  H   LIG d   1       4.457   0.021  -4.007  0.00  0.00     0.203 HD
BRANCH  45  47
ATOM     47  C   LIG d   1       2.591   0.585  -4.611  0.00  0.00    -0.043 C 
ATOM     48  H   LIG d   1       3.065   0.556  -5.592  0.00  0.00     0.078 H 
ATOM     49  H   LIG d   1       1.713  -0.061  -4.612  0.00  0.00     0.078 H 
ATOM     50  H   LIG d   1       2.290   1.608  -4.383  0.00  0.00     0.078 H 
ENDBRANCH  45  47
BRANCH  45  51
ATOM     51  C   LIG d   1       3.601   1.089  -2.493  0.00  0.00    -0.043 C 
ATOM     52  H   LIG d   1       4.554   1.618  -2.528  0.00  0.00     0.078 H 
ATOM     53  H   LIG d   1       2.784   1.804  -2.596  0.00  0.00     0.078 H 
ATOM     54  H   LIG d   1       3.510   0.566  -1.542  0.00  0.00     0.078 H 
ENDBRANCH  45  51
ENDBRANCH  42  45
ENDBRANCH  39  42
ENDBRANCH  36  39
ENDBRANCH   1  36
TORSDOF 12
ENDMDL
MODEL 7
REMARK VINA RESULT:      -4.9      2.729      5.044
REMARK  12 active torsions:
REMARK  status: ('A' for Active; 'I' for Inactive)
REMARK    1  A    between atoms: C_1  and  N_2 
REMARK    2  A    between atoms: N_2  and  C_3 
REMARK    3  A    between atoms: N_2  and  C_4 
REMARK    4  A    between atoms: C_4  and  C_5 
REMARK    5  A    between atoms: C_5  and  C_6 
REMARK    6  A    between atoms: C_6  and  N_7 
REMARK    7  A    between atoms: C_9  and  N_14 
REMARK    8  A    between atoms: N_14  and  C_15 
REMARK    9  A    between atoms: C_15  and  C_16 
REMARK   10  A    between atoms: C_16  and  C_17 
REMARK   11  A    between atoms: C_24  and  O_27 
REMARK   12  A    between atoms: O_27  and  C_28 
ROOT
ATOM      1  N   LIG d   1       4.245   0.251  -5.563  0.00  0.00    -0.282 NA
ATOM      2  C   LIG d   1       4.483   0.112  -4.303  0.00  0.00     0.111 C 
ATOM      3  C   LIG d   1       5.700   0.182  -3.406  0.00  0.00     0.121 C 
ATOM      4  C   LIG d   1       4.728   0.538  -2.301  0.00  0.00     0.227 C 
ATOM      5  O   LIG d   1       4.775   1.140  -1.255  0.00  0.00    -0.286 OA
ATOM      6  C   LIG d   1       3.684  -0.185  -3.086  0.00  0.00     0.246 C 
ATOM      7  O   LIG d   1       2.644  -0.758  -2.837  0.00  0.00    -0.282 OA
ATOM      8  H   LIG d   1       6.389   0.987  -3.662  0.00  0.00     0.061 H 
ENDROOT
BRANCH   3   9
ATOM      9  N   LIG d   1       6.372  -1.110  -3.213  0.00  0.00    -0.301 N 
ATOM     10  H   LIG d   1       5.701  -1.845  -3.047  0.00  0.00     0.123 HD
BRANCH   9  11
ATOM     11  C   LIG d   1       7.233  -1.432  -4.357  0.00  0.00     0.001 C 
ATOM     12  H   LIG d   1       6.871  -0.910  -5.243  0.00  0.00     0.043 H 
ATOM     13  H   LIG d   1       8.255  -1.118  -4.143  0.00  0.00     0.043 H 
BRANCH  11  14
ATOM     14  C   LIG d   1       7.205  -2.941  -4.608  0.00  0.00    -0.013 C 
ATOM     15  H   LIG d   1       8.084  -3.230  -5.185  0.00  0.00     0.033 H 
ATOM     16  H   LIG d   1       7.206  -3.469  -3.655  0.00  0.00     0.033 H 
BRANCH  14  17
ATOM     17  C   LIG d   1       5.960  -3.299  -5.379  0.00  0.00    -0.021 A 
ATOM     18  C   LIG d   1       5.708  -3.038  -6.798  0.00  0.00     0.006 A 
ATOM     19  C   LIG d   1       4.425  -3.549  -7.066  0.00  0.00     0.047 A 
ATOM     20  C   LIG d   1       6.448  -2.436  -7.819  0.00  0.00    -0.011 A 
ATOM     21  N   LIG d   1       3.941  -4.070  -5.885  0.00  0.00    -0.360 N 
ATOM     22  C   LIG d   1       3.903  -3.450  -8.350  0.00  0.00    -0.034 A 
ATOM     23  C   LIG d   1       4.870  -3.912  -4.892  0.00  0.00     0.006 A 
ATOM     24  H   LIG d   1       3.072  -4.487  -5.774  0.00  0.00     0.165 HD
ATOM     25  H   LIG d   1       4.744  -4.233  -3.869  0.00  0.00     0.081 H 
ATOM     26  C   LIG d   1       4.638  -2.848  -9.348  0.00  0.00    -0.018 A 
ATOM     27  H   LIG d   1       2.918  -3.836  -8.564  0.00  0.00     0.064 H 
ATOM     28  C   LIG d   1       5.909  -2.344  -9.087  0.00  0.00     0.121 A 
ATOM     29  H   LIG d   1       4.226  -2.771 -10.343  0.00  0.00     0.066 H 
ATOM     30  H   LIG d   1       7.434  -2.045  -7.617  0.00  0.00     0.066 H 
BRANCH  28  31
ATOM     31  O   LIG d   1       6.624  -1.760 -10.084  0.00  0.00    -0.495 OA
BRANCH  31  32
ATOM     32  C   LIG d   1       7.993  -1.451  -9.807  0.00  0.00     0.079 C 
ATOM     33  H   LIG d   1       8.636  -2.030 -10.470  0.00  0.00     0.066 H 
ATOM     34  H   LIG d   1       8.165  -0.387  -9.972  0.00  0.00     0.066 H 
ATOM     35  H   LIG d   1       8.219  -1.701  -8.771  0.00  0.00     0.066 H 
ENDBRANCH  31  32
ENDBRANCH  28  31
ENDBRANCH  14  17
ENDBRANCH  11  14
ENDBRANCH   9  11
ENDBRANCH   3   9
BRANCH   1  36
ATOM     36  C   LIG d   1       2.877   0.109  -6.070  0.00  0.00     0.045 C 
ATOM     37  H   LIG d   1       2.312   1.013  -5.849  0.00  0.00     0.051 H 
ATOM     38  H   LIG d   1       2.400  -0.745  -5.590  0.00  0.00     0.051 H 
BRANCH  36  39
ATOM     39  C   LIG d   1       2.915  -0.113  -7.584  0.00  0.00     0.007 C 
ATOM     40  H   LIG d   1       1.928  -0.422  -7.931  0.00  0.00     0.034 H 
ATOM     41  H   LIG d   1       3.643  -0.889  -7.819  0.00  0.00     0.034 H 
BRANCH  39  42
ATOM     42  C   LIG d   1       3.315   1.189  -8.280  0.00  0.00    -0.031 C 
ATOM     43  H   LIG d   1       3.729   1.881  -7.546  0.00  0.00     0.082 H 
ATOM     44  H   LIG d   1       2.436   1.638  -8.745  0.00  0.00     0.082 H 
BRANCH  42  45
ATOM     45  N   LIG d   1       4.323   0.905  -9.309  0.00  0.00     0.231 N 
ATOM     46  H   LIG d   1       4.431  -0.093  -9.407  0.00  0.00     0.203 HD
BRANCH  45  47
ATOM     47  C   LIG d   1       3.890   1.481 -10.590  0.00  0.00    -0.043 C 
ATOM     48  H   LIG d   1       2.838   1.760 -10.525  0.00  0.00     0.078 H 
ATOM     49  H   LIG d   1       4.488   2.364 -10.812  0.00  0.00     0.078 H 
ATOM     50  H   LIG d   1       4.022   0.743 -11.382  0.00  0.00     0.078 H 
ENDBRANCH  45  47
BRANCH  45  51
ATOM     51  C   LIG d   1       5.608   1.499  -8.914  0.00  0.00    -0.043 C 
ATOM     52  H   LIG d   1       5.923   2.218  -9.672  0.00  0.00     0.078 H 
ATOM     53  H   LIG d   1       5.494   2.007  -7.956  0.00  0.00     0.078 H 
ATOM     54  H   LIG d   1       6.358   0.714  -8.824  0.00  0.00     0.078 H 
ENDBRANCH  45  51
ENDBRANCH  42  45
ENDBRANCH  39  42
ENDBRANCH  36  39
ENDBRANCH   1  36
TORSDOF 12
ENDMDL
MODEL 8
REMARK VINA RESULT:      -4.8      3.115      5.862
REMARK  12 active torsions:
REMARK  status: ('A' for Active; 'I' for Inactive)
REMARK    1  A    between atoms: C_1  and  N_2 
REMARK    2  A    between atoms: N_2  and  C_3 
REMARK    3  A    between atoms: N_2  and  C_4 
REMARK    4  A    between atoms: C_4  and  C_5 
REMARK    5  A    between atoms: C_5  and  C_6 
REMARK    6  A    between atoms: C_6  and  N_7 
REMARK    7  A    between atoms: C_9  and  N_14 
REMARK    8  A    between atoms: N_14  and  C_15 
REMARK    9  A    between atoms: C_15  and  C_16 
REMARK   10  A    between atoms: C_16  and  C_17 
REMARK   11  A    between atoms: C_24  and  O_27 
REMARK   12  A    between atoms: O_27  and  C_28 
ROOT
ATOM      1  N   LIG d   1       6.354   0.450  -4.412  0.00  0.00    -0.282 NA
ATOM      2  C   LIG d   1       5.204  -0.025  -4.070  0.00  0.00     0.111 C 
ATOM      3  C   LIG d   1       4.220  -1.024  -4.640  0.00  0.00     0.121 C 
ATOM      4  C   LIG d   1       3.759  -1.218  -3.212  0.00  0.00     0.227 C 
ATOM      5  O   LIG d   1       3.228  -2.097  -2.576  0.00  0.00    -0.286 OA
ATOM      6  C   LIG d   1       4.258   0.161  -2.939  0.00  0.00     0.246 C 
ATOM      7  O   LIG d   1       4.004   1.042  -2.144  0.00  0.00    -0.282 OA
ATOM      8  H   LIG d   1       4.691  -1.906  -5.075  0.00  0.00     0.061 H 
ENDROOT
BRANCH   3   9
ATOM      9  N   LIG d   1       3.205  -0.424  -5.516  0.00  0.00    -0.301 N 
ATOM     10  H   LIG d   1       2.933   0.488  -5.183  0.00  0.00     0.123 HD
BRANCH   9  11
ATOM     11  C   LIG d   1       3.679  -0.357  -6.904  0.00  0.00     0.001 C 
ATOM     12  H   LIG d   1       4.752  -0.164  -6.913  0.00  0.00     0.043 H 
ATOM     13  H   LIG d   1       3.477  -1.305  -7.403  0.00  0.00     0.043 H 
BRANCH  11  14
ATOM     14  C   LIG d   1       2.952   0.771  -7.638  0.00  0.00    -0.013 C 
ATOM     15  H   LIG d   1       1.887   0.726  -7.409  0.00  0.00     0.033 H 
ATOM     16  H   LIG d   1       3.352   1.732  -7.317  0.00  0.00     0.033 H 
BRANCH  14  17
ATOM     17  C   LIG d   1       3.153   0.615  -9.124  0.00  0.00    -0.021 A 
ATOM     18  C   LIG d   1       2.597  -0.442  -9.972  0.00  0.00     0.006 A 
ATOM     19  C   LIG d   1       3.050  -0.173 -11.277  0.00  0.00     0.047 A 
ATOM     20  C   LIG d   1       1.778  -1.548  -9.732  0.00  0.00    -0.011 A 
ATOM     21  N   LIG d   1       3.831   0.961 -11.209  0.00  0.00    -0.360 N 
ATOM     22  C   LIG d   1       2.678  -1.015 -12.318  0.00  0.00    -0.034 A 
ATOM     23  C   LIG d   1       3.880   1.415  -9.919  0.00  0.00     0.006 A 
ATOM     24  H   LIG d   1       4.280   1.375 -11.963  0.00  0.00     0.165 HD
ATOM     25  H   LIG d   1       4.423   2.289  -9.590  0.00  0.00     0.081 H 
ATOM     26  C   LIG d   1       1.877  -2.108 -12.068  0.00  0.00    -0.018 A 
ATOM     27  H   LIG d   1       3.025  -0.819 -13.321  0.00  0.00     0.064 H 
ATOM     28  C   LIG d   1       1.424  -2.374 -10.780  0.00  0.00     0.121 A 
ATOM     29  H   LIG d   1       1.594  -2.760 -12.881  0.00  0.00     0.066 H 
ATOM     30  H   LIG d   1       1.427  -1.757  -8.732  0.00  0.00     0.066 H 
BRANCH  28  31
ATOM     31  O   LIG d   1       0.628  -3.453 -10.551  0.00  0.00    -0.495 OA
BRANCH  31  32
ATOM     32  C   LIG d   1      -0.025  -4.030 -11.685  0.00  0.00     0.079 C 
ATOM     33  H   LIG d   1      -0.933  -3.469 -11.905  0.00  0.00     0.066 H 
ATOM     34  H   LIG d   1       0.644  -3.993 -12.546  0.00  0.00     0.066 H 
ATOM     35  H   LIG d   1      -0.281  -5.067 -11.467  0.00  0.00     0.066 H 
ENDBRANCH  31  32
ENDBRANCH  28  31
ENDBRANCH  14  17
ENDBRANCH  11  14
ENDBRANCH   9  11
ENDBRANCH   3   9
BRANCH   1  36
ATOM     36  C   LIG d   1       7.022   1.437  -3.559  0.00  0.00     0.045 C 
ATOM     37  H   LIG d   1       7.099   1.047  -2.544  0.00  0.00     0.051 H 
ATOM     38  H   LIG d   1       6.442   2.360  -3.551  0.00  0.00     0.051 H 
BRANCH  36  39
ATOM     39  C   LIG d   1       8.422   1.719  -4.105  0.00  0.00     0.007 C 
ATOM     40  H   LIG d   1       9.157   1.583  -3.311  0.00  0.00     0.034 H 
ATOM     41  H   LIG d   1       8.470   2.745  -4.472  0.00  0.00     0.034 H 
BRANCH  39  42
ATOM     42  C   LIG d   1       8.727   0.754  -5.252  0.00  0.00    -0.031 C 
ATOM     43  H   LIG d   1       9.235   1.291  -6.053  0.00  0.00     0.082 H 
ATOM     44  H   LIG d   1       7.794   0.334  -5.631  0.00  0.00     0.082 H 
BRANCH  42  45
ATOM     45  N   LIG d   1       9.589  -0.330  -4.764  0.00  0.00     0.231 N 
ATOM     46  H   LIG d   1       9.509  -0.398  -3.761  0.00  0.00     0.203 HD
BRANCH  45  47
ATOM     47  C   LIG d   1       9.173  -1.599  -5.377  0.00  0.00    -0.043 C 
ATOM     48  H   LIG d   1       9.412  -2.423  -4.703  0.00  0.00     0.078 H 
ATOM     49  H   LIG d   1       8.099  -1.580  -5.559  0.00  0.00     0.078 H 
ATOM     50  H   LIG d   1       9.701  -1.736  -6.321  0.00  0.00     0.078 H 
ENDBRANCH  45  47
BRANCH  45  51
ATOM     51  C   LIG d   1      10.985  -0.046  -5.125  0.00  0.00    -0.043 C 
ATOM     52  H   LIG d   1      11.197  -0.464  -6.110  0.00  0.00     0.078 H 
ATOM     53  H   LIG d   1      11.142   1.032  -5.147  0.00  0.00     0.078 H 
ATOM     54  H   LIG d   1      11.649  -0.497  -4.388  0.00  0.00     0.078 H 
ENDBRANCH  45  51
ENDBRANCH  42  45
ENDBRANCH  39  42
ENDBRANCH  36  39
ENDBRANCH   1  36
TORSDOF 12
ENDMDL
MODEL 9
REMARK VINA RESULT:      -4.7      3.352      5.608
REMARK  12 active torsions:
REMARK  status: ('A' for Active; 'I' for Inactive)
REMARK    1  A    between atoms: C_1  and  N_2 
REMARK    2  A    between atoms: N_2  and  C_3 
REMARK    3  A    between atoms: N_2  and  C_4 
REMARK    4  A    between atoms: C_4  and  C_5 
REMARK    5  A    between atoms: C_5  and  C_6 
REMARK    6  A    between atoms: C_6  and  N_7 
REMARK    7  A    between atoms: C_9  and  N_14 
REMARK    8  A    between atoms: N_14  and  C_15 
REMARK    9  A    between atoms: C_15  and  C_16 
REMARK   10  A    between atoms: C_16  and  C_17 
REMARK   11  A    between atoms: C_24  and  O_27 
REMARK   12  A    between atoms: O_27  and  C_28 
ROOT
ATOM      1  N   LIG d   1       9.361   2.840  -3.048  0.00  0.00    -0.282 NA
ATOM      2  C   LIG d   1       8.998   2.110  -4.048  0.00  0.00     0.111 C 
ATOM      3  C   LIG d   1       7.939   1.061  -4.308  0.00  0.00     0.121 C 
ATOM      4  C   LIG d   1       8.041   1.476  -5.760  0.00  0.00     0.227 C 
ATOM      5  O   LIG d   1       7.320   1.455  -6.729  0.00  0.00    -0.286 OA
ATOM      6  C   LIG d   1       9.431   1.928  -5.458  0.00  0.00     0.246 C 
ATOM      7  O   LIG d   1      10.457   2.079  -6.087  0.00  0.00    -0.282 OA
ATOM      8  H   LIG d   1       6.974   1.288  -3.853  0.00  0.00     0.061 H 
ENDROOT
BRANCH   3   9
ATOM      9  N   LIG d   1       8.387  -0.314  -4.050  0.00  0.00    -0.301 N 
ATOM     10  H   LIG d   1       8.588  -0.451  -3.071  0.00  0.00     0.123 HD
BRANCH   9  11
ATOM     11  C   LIG d   1       7.399  -1.290  -4.527  0.00  0.00     0.001 C 
ATOM     12  H   LIG d   1       6.742  -0.814  -5.255  0.00  0.00     0.043 H 
ATOM     13  H   LIG d   1       7.913  -2.129  -4.996  0.00  0.00     0.043 H 
BRANCH  11  14
ATOM     14  C   LIG d   1       6.570  -1.795  -3.345  0.00  0.00    -0.013 C 
ATOM     15  H   LIG d   1       6.367  -2.859  -3.472  0.00  0.00     0.033 H 
ATOM     16  H   LIG d   1       7.123  -1.639  -2.419  0.00  0.00     0.033 H 
BRANCH  14  17
ATOM     17  C   LIG d   1       5.267  -1.039  -3.285  0.00  0.00    -0.021 A 
ATOM     18  C   LIG d   1       4.451  -0.619  -4.426  0.00  0.00     0.006 A 
ATOM     19  C   LIG d   1       3.336   0.047  -3.883  0.00  0.00     0.047 A 
ATOM     20  C   LIG d   1       4.575  -0.757  -5.810  0.00  0.00    -0.011 A 
ATOM     21  N   LIG d   1       3.484   0.033  -2.512  0.00  0.00    -0.360 N 
ATOM     22  C   LIG d   1       2.366   0.564  -4.733  0.00  0.00    -0.034 A 
ATOM     23  C   LIG d   1       4.640  -0.619  -2.176  0.00  0.00     0.006 A 
ATOM     24  H   LIG d   1       2.862   0.426  -1.880  0.00  0.00     0.165 HD
ATOM     25  H   LIG d   1       4.994  -0.771  -1.167  0.00  0.00     0.081 H 
ATOM     26  C   LIG d   1       2.503   0.429  -6.098  0.00  0.00    -0.018 A 
ATOM     27  H   LIG d   1       1.510   1.080  -4.325  0.00  0.00     0.064 H 
ATOM     28  C   LIG d   1       3.602  -0.232  -6.638  0.00  0.00     0.121 A 
ATOM     29  H   LIG d   1       1.748   0.836  -6.753  0.00  0.00     0.066 H 
ATOM     30  H   LIG d   1       5.429  -1.269  -6.231  0.00  0.00     0.066 H 
BRANCH  28  31
ATOM     31  O   LIG d   1       3.719  -0.362  -7.986  0.00  0.00    -0.495 OA
BRANCH  31  32
ATOM     32  C   LIG d   1       2.537  -0.153  -8.763  0.00  0.00     0.079 C 
ATOM     33  H   LIG d   1       2.269  -1.079  -9.272  0.00  0.00     0.066 H 
ATOM     34  H   LIG d   1       1.721   0.151  -8.107  0.00  0.00     0.066 H 
ATOM     35  H   LIG d   1       2.721   0.628  -9.501  0.00  0.00     0.066 H 
ENDBRANCH  31  32
ENDBRANCH  28  31
ENDBRANCH  14  17
ENDBRANCH  11  14
ENDBRANCH   9  11
ENDBRANCH   3   9
BRANCH   1  36
ATOM     36  C   LIG d   1      10.475   3.782  -3.196  0.00  0.00     0.045 C 
ATOM     37  H   LIG d   1      10.666   3.955  -4.254  0.00  0.00     0.051 H 
ATOM     38  H   LIG d   1      11.366   3.365  -2.728  0.00  0.00     0.051 H 
BRANCH  36  39
ATOM     39  C   LIG d   1      10.116   5.106  -2.519  0.00  0.00     0.007 C 
ATOM     40  H   LIG d   1      11.015   5.555  -2.097  0.00  0.00     0.034 H 
ATOM     41  H   LIG d   1       9.393   4.924  -1.723  0.00  0.00     0.034 H 
BRANCH  39  42
ATOM     42  C   LIG d   1       9.507   6.058  -3.550  0.00  0.00    -0.031 C 
ATOM     43  H   LIG d   1       8.518   5.700  -3.836  0.00  0.00     0.082 H 
ATOM     44  H   LIG d   1      10.147   6.096  -4.433  0.00  0.00     0.082 H 
BRANCH  42  45
ATOM     45  N   LIG d   1       9.393   7.402  -2.970  0.00  0.00     0.231 N 
ATOM     46  H   LIG d   1       8.548   7.841  -3.303  0.00  0.00     0.203 HD
BRANCH  45  47
ATOM     47  C   LIG d   1       9.348   7.301  -1.505  0.00  0.00    -0.043 C 
ATOM     48  H   LIG d   1       8.319   7.139  -1.184  0.00  0.00     0.078 H 
ATOM     49  H   LIG d   1       9.967   6.464  -1.180  0.00  0.00     0.078 H 
ATOM     50  H   LIG d   1       9.725   8.224  -1.066  0.00  0.00     0.078 H 
ENDBRANCH  45  47
BRANCH  45  51
ATOM     51  C   LIG d   1      10.553   8.210  -3.371  0.00  0.00    -0.043 C 
ATOM     52  H   LIG d   1      10.535   8.360  -4.451  0.00  0.00     0.078 H 
ATOM     53  H   LIG d   1      10.514   9.176  -2.869  0.00  0.00     0.078 H 
ATOM     54  H   LIG d   1      11.470   7.691  -3.091  0.00  0.00     0.078 H 
ENDBRANCH  45  51
ENDBRANCH  42  45
ENDBRANCH  39  42
ENDBRANCH  36  39
ENDBRANCH   1  36
TORSDOF 12
ENDMDL
