MODEL 1
REMARK VINA RESULT:      -7.6      0.000      0.000
REMARK  3 active torsions:
REMARK  status: ('A' for Active; 'I' for Inactive)
REMARK    1  A    between atoms: CG_4  and  CB_7 
REMARK    2  A    between atoms: CB_7  and  CA_8 
REMARK       I    between atoms: N_15  and  C_22 
REMARK    3  A    between atoms: C_22  and  C_24 
ROOT
ATOM      1  CA  PHE d   2       5.079  -2.698  -5.281  0.00  0.00     0.100 C 
ATOM      2  HA  PHE d   2       5.211  -1.718  -5.739  0.00  0.00     0.059 H 
ATOM      3  C   PHE d   2       6.371  -3.458  -5.344  0.00  0.00     0.237 C 
ATOM      4  O   PHE d   2       7.414  -2.846  -5.445  0.00  0.00    -0.274 OA
ATOM      5  N   PHE d   2       4.040  -3.434  -6.000  0.00  0.00    -0.302 N 
ATOM      6  H   PHE d   2       3.313  -2.952  -6.425  0.00  0.00     0.149 HD
ATOM      7  N   UNK d   1       6.403  -4.810  -5.291  0.00  0.00    -0.285 N 
ATOM      8  C   UNK d   1       7.705  -5.437  -5.083  0.00  0.00     0.031 C 
ATOM      9  C   UNK d   1       7.867  -6.751  -5.827  0.00  0.00     0.031 C 
ATOM     10  N   UNK d   1       6.614  -7.510  -5.789  0.00  0.00    -0.297 N 
ATOM     11  C   UNK d   1       5.395  -6.842  -6.259  0.00  0.00     0.042 C 
ATOM     12  C   UNK d   1       5.169  -5.579  -5.413  0.00  0.00     0.118 C 
ATOM     13  H   UNK d   1       4.836  -5.882  -4.421  0.00  0.00     0.061 H 
ATOM     14  C   UNK d   1       4.084  -4.772  -6.074  0.00  0.00     0.236 C 
ATOM     15  O   UNK d   1       3.219  -5.353  -6.694  0.00  0.00    -0.274 OA
ATOM     16  C   UNK d   1       6.583  -8.781  -5.342  0.00  0.00     0.219 C 
ATOM     17  O   UNK d   1       7.588  -9.290  -4.891  0.00  0.00    -0.275 OA
ATOM     18  H   UNK d   1       7.839  -5.621  -4.017  0.00  0.00     0.048 H 
ATOM     19  H   UNK d   1       8.482  -4.749  -5.417  0.00  0.00     0.048 H 
ATOM     20  H   UNK d   1       8.659  -7.336  -5.358  0.00  0.00     0.048 H 
ATOM     21  H   UNK d   1       8.137  -6.549  -6.863  0.00  0.00     0.048 H 
ATOM     22  H   UNK d   1       5.510  -6.568  -7.307  0.00  0.00     0.049 H 
ATOM     23  H   UNK d   1       4.544  -7.515  -6.148  0.00  0.00     0.049 H 
ENDROOT
BRANCH   1  24
ATOM     24  CB  PHE d   2       4.662  -2.524  -3.820  0.00  0.00    -0.023 C 
ATOM     25  HB1 PHE d   2       3.660  -2.929  -3.676  0.00  0.00     0.029 H 
ATOM     26  HB2 PHE d   2       5.363  -3.054  -3.175  0.00  0.00     0.029 H 
BRANCH  24  27
ATOM     27  CG  PHE d   2       4.665  -1.036  -3.461  0.00  0.00    -0.039 A 
ATOM     28  CD1 PHE d   2       3.443  -0.359  -4.082  0.00  0.00    -0.050 A 
ATOM     29  CE1 PHE d   2       3.446   1.129  -3.723  0.00  0.00    -0.053 A 
ATOM     30 1HD1 PHE d   2       3.475  -0.472  -5.165  0.00  0.00     0.027 H 
ATOM     31 2HD1 PHE d   2       2.535  -0.823  -3.695  0.00  0.00     0.027 H 
ATOM     32  CZ  PHE d   2       3.400   1.286  -2.202  0.00  0.00    -0.053 A 
ATOM     33 1HE1 PHE d   2       4.354   1.593  -4.109  0.00  0.00     0.026 H 
ATOM     34 2HE1 PHE d   2       2.574   1.612  -4.165  0.00  0.00     0.026 H 
ATOM     35  CE2 PHE d   2       4.624   0.609  -1.581  0.00  0.00    -0.053 A 
ATOM     36  HZ1 PHE d   2       3.404   2.346  -1.947  0.00  0.00     0.026 H 
ATOM     37  HZ2 PHE d   2       2.494   0.823  -1.816  0.00  0.00     0.026 H 
ATOM     38  CD2 PHE d   2       4.620  -0.879  -1.940  0.00  0.00    -0.050 A 
ATOM     39 1HE2 PHE d   2       5.531   1.074  -1.968  0.00  0.00     0.026 H 
ATOM     40 2HE2 PHE d   2       4.592   0.721  -0.498  0.00  0.00     0.026 H 
ATOM     41 1HD2 PHE d   2       3.713  -1.342  -1.554  0.00  0.00     0.027 H 
ATOM     42 2HD2 PHE d   2       5.491  -1.361  -1.498  0.00  0.00     0.027 H 
ATOM     43  HG  PHE d   2       5.573  -0.572  -3.848  0.00  0.00     0.030 H 
ENDBRANCH  24  27
ENDBRANCH   1  24
BRANCH  16  44
ATOM     44  C   UNK d   1       5.300  -9.569  -5.400  0.00  0.00     0.036 C 
ATOM     45  C   UNK d   1       5.410 -10.641  -6.487  0.00  0.00    -0.042 C 
ATOM     46  C   UNK d   1       4.107 -11.442  -6.546  0.00  0.00    -0.052 C 
ATOM     47  H   UNK d   1       5.587 -10.165  -7.450  0.00  0.00     0.027 H 
ATOM     48  H   UNK d   1       6.238 -11.311  -6.254  0.00  0.00     0.027 H 
ATOM     49  C   UNK d   1       3.857 -12.111  -5.193  0.00  0.00    -0.053 C 
ATOM     50  H   UNK d   1       4.185 -12.205  -7.320  0.00  0.00     0.026 H 
ATOM     51  H   UNK d   1       3.280 -10.772  -6.778  0.00  0.00     0.026 H 
ATOM     52  C   UNK d   1       3.748 -11.038  -4.106  0.00  0.00    -0.052 C 
ATOM     53  H   UNK d   1       4.685 -12.780  -4.960  0.00  0.00     0.026 H 
ATOM     54  H   UNK d   1       2.929 -12.681  -5.234  0.00  0.00     0.026 H 
ATOM     55  C   UNK d   1       5.050 -10.238  -4.046  0.00  0.00    -0.042 C 
ATOM     56  H   UNK d   1       2.920 -10.369  -4.338  0.00  0.00     0.026 H 
ATOM     57  H   UNK d   1       3.570 -11.515  -3.142  0.00  0.00     0.026 H 
ATOM     58  H   UNK d   1       4.974  -9.474  -3.273  0.00  0.00     0.027 H 
ATOM     59  H   UNK d   1       5.879 -10.908  -3.815  0.00  0.00     0.027 H 
ATOM     60  H   UNK d   1       4.472  -8.900  -5.632  0.00  0.00     0.039 H 
ENDBRANCH  16  44
TORSDOF 3
ENDMDL
MODEL 2
REMARK VINA RESULT:      -7.1      7.122     11.664
REMARK  3 active torsions:
REMARK  status: ('A' for Active; 'I' for Inactive)
REMARK    1  A    between atoms: CG_4  and  CB_7 
REMARK    2  A    between atoms: CB_7  and  CA_8 
REMARK       I    between atoms: N_15  and  C_22 
REMARK    3  A    between atoms: C_22  and  C_24 
ROOT
ATOM      1  CA  PHE d   2       8.243   0.697  -4.467  0.00  0.00     0.100 C 
ATOM      2  HA  PHE d   2       8.328  -0.341  -4.146  0.00  0.00     0.059 H 
ATOM      3  C   PHE d   2       7.876   0.741  -5.922  0.00  0.00     0.237 C 
ATOM      4  O   PHE d   2       7.322  -0.215  -6.422  0.00  0.00    -0.274 OA
ATOM      5  N   PHE d   2       9.522   1.377  -4.262  0.00  0.00    -0.302 N 
ATOM      6  H   PHE d   2      10.105   1.099  -3.539  0.00  0.00     0.149 HD
ATOM      7  N   UNK d   1       8.148   1.821  -6.690  0.00  0.00    -0.285 N 
ATOM      8  C   UNK d   1       7.514   1.880  -8.004  0.00  0.00     0.031 C 
ATOM      9  C   UNK d   1       8.391   2.514  -9.070  0.00  0.00     0.031 C 
ATOM     10  N   UNK d   1       9.135   3.643  -8.504  0.00  0.00    -0.297 N 
ATOM     11  C   UNK d   1       9.942   3.400  -7.304  0.00  0.00     0.042 C 
ATOM     12  C   UNK d   1       9.020   2.878  -6.190  0.00  0.00     0.118 C 
ATOM     13  H   UNK d   1       8.410   3.706  -5.830  0.00  0.00     0.061 H 
ATOM     14  C   UNK d   1       9.892   2.383  -5.067  0.00  0.00     0.236 C 
ATOM     15  O   UNK d   1      10.967   2.914  -4.884  0.00  0.00    -0.274 OA
ATOM     16  C   UNK d   1       9.081   4.864  -9.072  0.00  0.00     0.219 C 
ATOM     17  O   UNK d   1       8.353   5.062 -10.021  0.00  0.00    -0.275 OA
ATOM     18  H   UNK d   1       6.593   2.456  -7.923  0.00  0.00     0.048 H 
ATOM     19  H   UNK d   1       7.263   0.866  -8.317  0.00  0.00     0.048 H 
ATOM     20  H   UNK d   1       7.765   2.866  -9.890  0.00  0.00     0.048 H 
ATOM     21  H   UNK d   1       9.094   1.772  -9.448  0.00  0.00     0.048 H 
ATOM     22  H   UNK d   1      10.709   2.658  -7.524  0.00  0.00     0.049 H 
ATOM     23  H   UNK d   1      10.413   4.330  -6.985  0.00  0.00     0.049 H 
ENDROOT
BRANCH   1  24
ATOM     24  CB  PHE d   2       7.157   1.396  -3.647  0.00  0.00    -0.023 C 
ATOM     25  HB1 PHE d   2       7.548   1.641  -2.659  0.00  0.00     0.029 H 
ATOM     26  HB2 PHE d   2       6.851   2.312  -4.154  0.00  0.00     0.029 H 
BRANCH  24  27
ATOM     27  CG  PHE d   2       5.950   0.467  -3.502  0.00  0.00    -0.039 A 
ATOM     28  CD1 PHE d   2       6.428  -0.937  -3.130  0.00  0.00    -0.050 A 
ATOM     29  CE1 PHE d   2       5.221  -1.866  -2.985  0.00  0.00    -0.053 A 
ATOM     30 1HD1 PHE d   2       7.087  -1.316  -3.911  0.00  0.00     0.027 H 
ATOM     31 2HD1 PHE d   2       6.972  -0.897  -2.185  0.00  0.00     0.027 H 
ATOM     32  CZ  PHE d   2       4.298  -1.334  -1.888  0.00  0.00    -0.053 A 
ATOM     33 1HE1 PHE d   2       4.677  -1.906  -3.929  0.00  0.00     0.026 H 
ATOM     34 2HE1 PHE d   2       5.562  -2.867  -2.720  0.00  0.00     0.026 H 
ATOM     35  CE2 PHE d   2       3.819   0.071  -2.260  0.00  0.00    -0.053 A 
ATOM     36  HZ1 PHE d   2       3.438  -1.995  -1.785  0.00  0.00     0.026 H 
ATOM     37  HZ2 PHE d   2       4.840  -1.294  -0.944  0.00  0.00     0.026 H 
ATOM     38  CD2 PHE d   2       5.027   0.999  -2.405  0.00  0.00    -0.050 A 
ATOM     39 1HE2 PHE d   2       3.276   0.031  -3.204  0.00  0.00     0.026 H 
ATOM     40 2HE2 PHE d   2       3.161   0.450  -1.478  0.00  0.00     0.026 H 
ATOM     41 1HD2 PHE d   2       5.569   1.039  -1.461  0.00  0.00     0.027 H 
ATOM     42 2HD2 PHE d   2       4.685   2.000  -2.670  0.00  0.00     0.027 H 
ATOM     43  HG  PHE d   2       5.407   0.427  -4.447  0.00  0.00     0.030 H 
ENDBRANCH  24  27
ENDBRANCH   1  24
BRANCH  16  44
ATOM     44  C   UNK d   1       9.928   5.986  -8.526  0.00  0.00     0.036 C 
ATOM     45  C   UNK d   1      11.164   6.168  -9.409  0.00  0.00    -0.042 C 
ATOM     46  C   UNK d   1      12.023   7.307  -8.855  0.00  0.00    -0.052 C 
ATOM     47  H   UNK d   1      11.744   5.246  -9.416  0.00  0.00     0.027 H 
ATOM     48  H   UNK d   1      10.852   6.410 -10.425  0.00  0.00     0.027 H 
ATOM     49  C   UNK d   1      11.208   8.602  -8.844  0.00  0.00    -0.053 C 
ATOM     50  H   UNK d   1      12.903   7.436  -9.484  0.00  0.00     0.026 H 
ATOM     51  H   UNK d   1      12.334   7.066  -7.839  0.00  0.00     0.026 H 
ATOM     52  C   UNK d   1       9.971   8.420  -7.961  0.00  0.00    -0.052 C 
ATOM     53  H   UNK d   1      10.896   8.843  -9.861  0.00  0.00     0.026 H 
ATOM     54  H   UNK d   1      11.820   9.413  -8.449  0.00  0.00     0.026 H 
ATOM     55  C   UNK d   1       9.112   7.281  -8.515  0.00  0.00    -0.042 C 
ATOM     56  H   UNK d   1      10.283   8.178  -6.945  0.00  0.00     0.026 H 
ATOM     57  H   UNK d   1       9.391   9.342  -7.954  0.00  0.00     0.026 H 
ATOM     58  H   UNK d   1       8.232   7.151  -7.887  0.00  0.00     0.027 H 
ATOM     59  H   UNK d   1       8.801   7.522  -9.532  0.00  0.00     0.027 H 
ATOM     60  H   UNK d   1      10.239   5.745  -7.510  0.00  0.00     0.039 H 
ENDBRANCH  16  44
TORSDOF 3
ENDMDL
MODEL 3
REMARK VINA RESULT:      -6.8      7.397     12.331
REMARK  3 active torsions:
REMARK  status: ('A' for Active; 'I' for Inactive)
REMARK    1  A    between atoms: CG_4  and  CB_7 
REMARK    2  A    between atoms: CB_7  and  CA_8 
REMARK       I    between atoms: N_15  and  C_22 
REMARK    3  A    between atoms: C_22  and  C_24 
ROOT
ATOM      1  CA  PHE d   2       8.392   1.032  -4.188  0.00  0.00     0.100 C 
ATOM      2  HA  PHE d   2       8.581  -0.016  -3.957  0.00  0.00     0.059 H 
ATOM      3  C   PHE d   2       8.551   1.256  -5.664  0.00  0.00     0.237 C 
ATOM      4  O   PHE d   2       8.424   0.317  -6.422  0.00  0.00    -0.274 OA
ATOM      5  N   PHE d   2       9.342   1.871  -3.458  0.00  0.00    -0.302 N 
ATOM      6  H   PHE d   2       9.684   1.577  -2.599  0.00  0.00     0.149 HD
ATOM      7  N   UNK d   1       8.834   2.479  -6.170  0.00  0.00    -0.285 N 
ATOM      8  C   UNK d   1       8.698   2.649  -7.614  0.00  0.00     0.031 C 
ATOM      9  C   UNK d   1       9.731   3.588  -8.211  0.00  0.00     0.031 C 
ATOM     10  N   UNK d   1       9.971   4.715  -7.305  0.00  0.00    -0.297 N 
ATOM     11  C   UNK d   1      10.345   4.413  -5.919  0.00  0.00     0.042 C 
ATOM     12  C   UNK d   1       9.229   3.567  -5.283  0.00  0.00     0.118 C 
ATOM     13  H   UNK d   1       8.369   4.212  -5.101  0.00  0.00     0.061 H 
ATOM     14  C   UNK d   1       9.743   3.045  -3.969  0.00  0.00     0.236 C 
ATOM     15  O   UNK d   1      10.547   3.708  -3.349  0.00  0.00    -0.274 OA
ATOM     16  C   UNK d   1       9.857   5.987  -7.734  0.00  0.00     0.219 C 
ATOM     17  O   UNK d   1       9.478   6.216  -8.863  0.00  0.00    -0.275 OA
ATOM     18  H   UNK d   1       7.704   3.043  -7.827  0.00  0.00     0.048 H 
ATOM     19  H   UNK d   1       8.795   1.674  -8.091  0.00  0.00     0.048 H 
ATOM     20  H   UNK d   1       9.368   3.963  -9.168  0.00  0.00     0.048 H 
ATOM     21  H   UNK d   1      10.663   3.046  -8.368  0.00  0.00     0.048 H 
ATOM     22  H   UNK d   1      11.281   3.855  -5.906  0.00  0.00     0.049 H 
ATOM     23  H   UNK d   1      10.464   5.342  -5.362  0.00  0.00     0.049 H 
ENDROOT
BRANCH   1  24
ATOM     24  CB  PHE d   2       6.966   1.396  -3.770  0.00  0.00    -0.023 C 
ATOM     25  HB1 PHE d   2       6.992   2.241  -3.082  0.00  0.00     0.029 H 
ATOM     26  HB2 PHE d   2       6.384   1.664  -4.652  0.00  0.00     0.029 H 
BRANCH  24  27
ATOM     27  CG  PHE d   2       6.316   0.195  -3.078  0.00  0.00    -0.039 A 
ATOM     28  CD1 PHE d   2       5.057   0.653  -2.339  0.00  0.00    -0.050 A 
ATOM     29  CE1 PHE d   2       4.407  -0.547  -1.647  0.00  0.00    -0.053 A 
ATOM     30 1HD1 PHE d   2       5.325   1.401  -1.593  0.00  0.00     0.027 H 
ATOM     31 2HD1 PHE d   2       4.354   1.086  -3.051  0.00  0.00     0.027 H 
ATOM     32  CZ  PHE d   2       4.030  -1.597  -2.694  0.00  0.00    -0.053 A 
ATOM     33 1HE1 PHE d   2       5.109  -0.981  -0.935  0.00  0.00     0.026 H 
ATOM     34 2HE1 PHE d   2       3.510  -0.221  -1.120  0.00  0.00     0.026 H 
ATOM     35  CE2 PHE d   2       5.289  -2.054  -3.434  0.00  0.00    -0.053 A 
ATOM     36  HZ1 PHE d   2       3.568  -2.452  -2.201  0.00  0.00     0.026 H 
ATOM     37  HZ2 PHE d   2       3.328  -1.164  -3.406  0.00  0.00     0.026 H 
ATOM     38  CD2 PHE d   2       5.939  -0.854  -4.125  0.00  0.00    -0.050 A 
ATOM     39 1HE2 PHE d   2       5.992  -2.487  -2.721  0.00  0.00     0.026 H 
ATOM     40 2HE2 PHE d   2       5.022  -2.802  -4.180  0.00  0.00     0.026 H 
ATOM     41 1HD2 PHE d   2       5.237  -0.422  -4.837  0.00  0.00     0.027 H 
ATOM     42 2HD2 PHE d   2       6.836  -1.180  -4.652  0.00  0.00     0.027 H 
ATOM     43  HG  PHE d   2       7.018  -0.237  -2.365  0.00  0.00     0.030 H 
ENDBRANCH  24  27
ENDBRANCH   1  24
BRANCH  16  44
ATOM     44  C   UNK d   1      10.199   7.127  -6.808  0.00  0.00     0.036 C 
ATOM     45  C   UNK d   1      11.582   7.676  -7.166  0.00  0.00    -0.042 C 
ATOM     46  C   UNK d   1      11.930   8.833  -6.227  0.00  0.00    -0.052 C 
ATOM     47  H   UNK d   1      12.325   6.886  -7.059  0.00  0.00     0.027 H 
ATOM     48  H   UNK d   1      11.576   8.033  -8.196  0.00  0.00     0.027 H 
ATOM     49  C   UNK d   1      10.887   9.942  -6.377  0.00  0.00    -0.053 C 
ATOM     50  H   UNK d   1      12.915   9.223  -6.481  0.00  0.00     0.026 H 
ATOM     51  H   UNK d   1      11.935   8.477  -5.198  0.00  0.00     0.026 H 
ATOM     52  C   UNK d   1       9.503   9.394  -6.020  0.00  0.00    -0.052 C 
ATOM     53  H   UNK d   1      10.881  10.299  -7.407  0.00  0.00     0.026 H 
ATOM     54  H   UNK d   1      11.133  10.767  -5.708  0.00  0.00     0.026 H 
ATOM     55  C   UNK d   1       9.155   8.237  -6.959  0.00  0.00    -0.042 C 
ATOM     56  H   UNK d   1       9.509   9.037  -4.990  0.00  0.00     0.026 H 
ATOM     57  H   UNK d   1       8.760  10.184  -6.127  0.00  0.00     0.026 H 
ATOM     58  H   UNK d   1       8.171   7.845  -6.705  0.00  0.00     0.027 H 
ATOM     59  H   UNK d   1       9.151   8.593  -7.989  0.00  0.00     0.027 H 
ATOM     60  H   UNK d   1      10.204   6.771  -5.779  0.00  0.00     0.039 H 
ENDBRANCH  16  44
TORSDOF 3
ENDMDL
MODEL 4
REMARK VINA RESULT:      -6.8      5.433      7.239
REMARK  3 active torsions:
REMARK  status: ('A' for Active; 'I' for Inactive)
REMARK    1  A    between atoms: CG_4  and  CB_7 
REMARK    2  A    between atoms: CB_7  and  CA_8 
REMARK       I    between atoms: N_15  and  C_22 
REMARK    3  A    between atoms: C_22  and  C_24 
ROOT
ATOM      1  CA  PHE d   2       3.547   0.288  -6.159  0.00  0.00     0.100 C 
ATOM      2  HA  PHE d   2       4.199   0.886  -5.523  0.00  0.00     0.059 H 
ATOM      3  C   PHE d   2       4.312  -0.889  -6.691  0.00  0.00     0.237 C 
ATOM      4  O   PHE d   2       5.289  -1.282  -6.088  0.00  0.00    -0.274 OA
ATOM      5  N   PHE d   2       3.067   1.106  -7.272  0.00  0.00    -0.302 N 
ATOM      6  H   PHE d   2       2.948   2.062  -7.152  0.00  0.00     0.149 HD
ATOM      7  N   UNK d   1       3.939  -1.522  -7.828  0.00  0.00    -0.285 N 
ATOM      8  C   UNK d   1       4.572  -2.807  -8.111  0.00  0.00     0.031 C 
ATOM      9  C   UNK d   1       4.816  -3.047  -9.591  0.00  0.00     0.031 C 
ATOM     10  N   UNK d   1       3.690  -2.534 -10.376  0.00  0.00    -0.297 N 
ATOM     11  C   UNK d   1       3.296  -1.135 -10.177  0.00  0.00     0.042 C 
ATOM     12  C   UNK d   1       2.927  -0.934  -8.699  0.00  0.00     0.118 C 
ATOM     13  H   UNK d   1       1.969  -1.419  -8.512  0.00  0.00     0.061 H 
ATOM     14  C   UNK d   1       2.789   0.545  -8.457  0.00  0.00     0.236 C 
ATOM     15  O   UNK d   1       2.412   1.253  -9.366  0.00  0.00    -0.274 OA
ATOM     16  C   UNK d   1       3.040  -3.322 -11.256  0.00  0.00     0.219 C 
ATOM     17  O   UNK d   1       3.336  -4.495 -11.355  0.00  0.00    -0.275 OA
ATOM     18  H   UNK d   1       3.933  -3.604  -7.730  0.00  0.00     0.048 H 
ATOM     19  H   UNK d   1       5.528  -2.849  -7.589  0.00  0.00     0.048 H 
ATOM     20  H   UNK d   1       4.926  -4.117  -9.770  0.00  0.00     0.048 H 
ATOM     21  H   UNK d   1       5.730  -2.536  -9.894  0.00  0.00     0.048 H 
ATOM     22  H   UNK d   1       4.126  -0.481 -10.442  0.00  0.00     0.049 H 
ATOM     23  H   UNK d   1       2.434  -0.905 -10.805  0.00  0.00     0.049 H 
ENDROOT
BRANCH   1  24
ATOM     24  CB  PHE d   2       2.354  -0.210  -5.341  0.00  0.00    -0.023 C 
ATOM     25  HB1 PHE d   2       1.492   0.433  -5.525  0.00  0.00     0.029 H 
ATOM     26  HB2 PHE d   2       2.113  -1.232  -5.632  0.00  0.00     0.029 H 
BRANCH  24  27
ATOM     27  CG  PHE d   2       2.706  -0.175  -3.852  0.00  0.00    -0.039 A 
ATOM     28  CD1 PHE d   2       3.484  -1.439  -3.482  0.00  0.00    -0.050 A 
ATOM     29  CE1 PHE d   2       3.836  -1.404  -1.993  0.00  0.00    -0.053 A 
ATOM     30 1HD1 PHE d   2       2.872  -2.316  -3.690  0.00  0.00     0.027 H 
ATOM     31 2HD1 PHE d   2       4.400  -1.487  -4.071  0.00  0.00     0.027 H 
ATOM     32  CZ  PHE d   2       4.696  -0.172  -1.702  0.00  0.00    -0.053 A 
ATOM     33 1HE1 PHE d   2       2.920  -1.355  -1.404  0.00  0.00     0.026 H 
ATOM     34 2HE1 PHE d   2       4.391  -2.305  -1.729  0.00  0.00     0.026 H 
ATOM     35  CE2 PHE d   2       3.918   1.092  -2.072  0.00  0.00    -0.053 A 
ATOM     36  HZ1 PHE d   2       4.946  -0.147  -0.641  0.00  0.00     0.026 H 
ATOM     37  HZ2 PHE d   2       5.611  -0.221  -2.290  0.00  0.00     0.026 H 
ATOM     38  CD2 PHE d   2       3.566   1.057  -3.561  0.00  0.00    -0.050 A 
ATOM     39 1HE2 PHE d   2       3.002   1.140  -1.482  0.00  0.00     0.026 H 
ATOM     40 2HE2 PHE d   2       4.530   1.970  -1.864  0.00  0.00     0.026 H 
ATOM     41 1HD2 PHE d   2       4.481   1.009  -4.149  0.00  0.00     0.027 H 
ATOM     42 2HD2 PHE d   2       3.011   1.958  -3.824  0.00  0.00     0.027 H 
ATOM     43  HG  PHE d   2       1.790  -0.127  -3.263  0.00  0.00     0.030 H 
ENDBRANCH  24  27
ENDBRANCH   1  24
BRANCH  16  44
ATOM     44  C   UNK d   1       1.947  -2.745 -12.119  0.00  0.00     0.036 C 
ATOM     45  C   UNK d   1       2.332  -2.886 -13.593  0.00  0.00    -0.042 C 
ATOM     46  C   UNK d   1       1.222  -2.301 -14.468  0.00  0.00    -0.052 C 
ATOM     47  H   UNK d   1       3.262  -2.349 -13.778  0.00  0.00     0.027 H 
ATOM     48  H   UNK d   1       2.467  -3.941 -13.834  0.00  0.00     0.027 H 
ATOM     49  C   UNK d   1      -0.084  -3.056 -14.208  0.00  0.00    -0.053 C 
ATOM     50  H   UNK d   1       1.496  -2.401 -15.518  0.00  0.00     0.026 H 
ATOM     51  H   UNK d   1       1.086  -1.248 -14.227  0.00  0.00     0.026 H 
ATOM     52  C   UNK d   1      -0.469  -2.916 -12.733  0.00  0.00    -0.052 C 
ATOM     53  H   UNK d   1       0.052  -4.110 -14.449  0.00  0.00     0.026 H 
ATOM     54  H   UNK d   1      -0.875  -2.639 -14.831  0.00  0.00     0.026 H 
ATOM     55  C   UNK d   1       0.641  -3.501 -11.858  0.00  0.00    -0.042 C 
ATOM     56  H   UNK d   1      -0.605  -1.861 -12.493  0.00  0.00     0.026 H 
ATOM     57  H   UNK d   1      -1.399  -3.453 -12.548  0.00  0.00     0.026 H 
ATOM     58  H   UNK d   1       0.367  -3.401 -10.808  0.00  0.00     0.027 H 
ATOM     59  H   UNK d   1       0.777  -4.555 -12.100  0.00  0.00     0.027 H 
ATOM     60  H   UNK d   1       1.811  -1.692 -11.877  0.00  0.00     0.039 H 
ENDBRANCH  16  44
TORSDOF 3
ENDMDL
MODEL 5
REMARK VINA RESULT:      -6.5      6.053      8.841
REMARK  3 active torsions:
REMARK  status: ('A' for Active; 'I' for Inactive)
REMARK    1  A    between atoms: CG_4  and  CB_7 
REMARK    2  A    between atoms: CB_7  and  CA_8 
REMARK       I    between atoms: N_15  and  C_22 
REMARK    3  A    between atoms: C_22  and  C_24 
ROOT
ATOM      1  CA  PHE d   2       9.081   1.772  -9.386  0.00  0.00     0.100 C 
ATOM      2  HA  PHE d   2       9.348   1.752 -10.442  0.00  0.00     0.059 H 
ATOM      3  C   PHE d   2       9.484   0.477  -8.744  0.00  0.00     0.237 C 
ATOM      4  O   PHE d   2      10.363  -0.188  -9.252  0.00  0.00    -0.274 OA
ATOM      5  N   PHE d   2       7.637   1.959  -9.252  0.00  0.00    -0.302 N 
ATOM      6  H   PHE d   2       7.151   2.462  -9.925  0.00  0.00     0.149 HD
ATOM      7  N   UNK d   1       8.891   0.031  -7.612  0.00  0.00    -0.285 N 
ATOM      8  C   UNK d   1       9.531  -1.084  -6.921  0.00  0.00     0.031 C 
ATOM      9  C   UNK d   1       8.544  -2.041  -6.275  0.00  0.00     0.031 C 
ATOM     10  N   UNK d   1       7.424  -1.294  -5.695  0.00  0.00    -0.297 N 
ATOM     11  C   UNK d   1       6.692  -0.368  -6.567  0.00  0.00     0.042 C 
ATOM     12  C   UNK d   1       7.680   0.674  -7.115  0.00  0.00     0.118 C 
ATOM     13  H   UNK d   1       7.943   1.359  -6.308  0.00  0.00     0.061 H 
ATOM     14  C   UNK d   1       6.980   1.441  -8.204  0.00  0.00     0.236 C 
ATOM     15  O   UNK d   1       5.779   1.596  -8.132  0.00  0.00    -0.274 OA
ATOM     16  C   UNK d   1       7.076  -1.455  -4.403  0.00  0.00     0.219 C 
ATOM     17  O   UNK d   1       7.738  -2.171  -3.680  0.00  0.00    -0.275 OA
ATOM     18  H   UNK d   1      10.187  -0.686  -6.147  0.00  0.00     0.048 H 
ATOM     19  H   UNK d   1      10.136  -1.639  -7.637  0.00  0.00     0.048 H 
ATOM     20  H   UNK d   1       9.048  -2.605  -5.490  0.00  0.00     0.048 H 
ATOM     21  H   UNK d   1       8.165  -2.732  -7.027  0.00  0.00     0.048 H 
ATOM     22  H   UNK d   1       6.245  -0.921  -7.392  0.00  0.00     0.049 H 
ATOM     23  H   UNK d   1       5.911   0.132  -5.995  0.00  0.00     0.049 H 
ENDROOT
BRANCH   1  24
ATOM     24  CB  PHE d   2       9.810   2.928  -8.699  0.00  0.00    -0.023 C 
ATOM     25  HB1 PHE d   2       9.642   2.878  -7.623  0.00  0.00     0.029 H 
ATOM     26  HB2 PHE d   2      10.879   2.857  -8.903  0.00  0.00     0.029 H 
BRANCH  24  27
ATOM     27  CG  PHE d   2       9.278   4.259  -9.237  0.00  0.00    -0.039 A 
ATOM     28  CD1 PHE d   2       9.683   5.390  -8.291  0.00  0.00    -0.050 A 
ATOM     29  CE1 PHE d   2       9.151   6.720  -8.828  0.00  0.00    -0.053 A 
ATOM     30 1HD1 PHE d   2       9.266   5.204  -7.302  0.00  0.00     0.027 H 
ATOM     31 2HD1 PHE d   2      10.771   5.435  -8.223  0.00  0.00     0.027 H 
ATOM     32  CZ  PHE d   2       9.738   6.980 -10.216  0.00  0.00    -0.053 A 
ATOM     33 1HE1 PHE d   2       8.064   6.676  -8.896  0.00  0.00     0.026 H 
ATOM     34 2HE1 PHE d   2       9.440   7.527  -8.154  0.00  0.00     0.026 H 
ATOM     35  CE2 PHE d   2       9.332   5.848 -11.163  0.00  0.00    -0.053 A 
ATOM     36  HZ1 PHE d   2       9.358   7.927 -10.599  0.00  0.00     0.026 H 
ATOM     37  HZ2 PHE d   2      10.824   7.025 -10.149  0.00  0.00     0.026 H 
ATOM     38  CD2 PHE d   2       9.865   4.519 -10.625  0.00  0.00    -0.050 A 
ATOM     39 1HE2 PHE d   2       8.245   5.804 -11.230  0.00  0.00     0.026 H 
ATOM     40 2HE2 PHE d   2       9.750   6.034 -12.152  0.00  0.00     0.026 H 
ATOM     41 1HD2 PHE d   2      10.951   4.564 -10.558  0.00  0.00     0.027 H 
ATOM     42 2HD2 PHE d   2       9.575   3.712 -11.299  0.00  0.00     0.027 H 
ATOM     43  HG  PHE d   2       8.191   4.213  -9.304  0.00  0.00     0.030 H 
ENDBRANCH  24  27
ENDBRANCH   1  24
BRANCH  16  44
ATOM     44  C   UNK d   1       5.864  -0.746  -3.855  0.00  0.00     0.036 C 
ATOM     45  C   UNK d   1       5.233  -1.594  -2.749  0.00  0.00    -0.042 C 
ATOM     46  C   UNK d   1       4.003  -0.874  -2.193  0.00  0.00    -0.052 C 
ATOM     47  H   UNK d   1       4.935  -2.559  -3.157  0.00  0.00     0.027 H 
ATOM     48  H   UNK d   1       5.958  -1.746  -1.949  0.00  0.00     0.027 H 
ATOM     49  C   UNK d   1       4.422   0.482  -1.620  0.00  0.00    -0.053 C 
ATOM     50  H   UNK d   1       3.553  -1.478  -1.406  0.00  0.00     0.026 H 
ATOM     51  H   UNK d   1       3.279  -0.721  -2.992  0.00  0.00     0.026 H 
ATOM     52  C   UNK d   1       5.054   1.331  -2.726  0.00  0.00    -0.052 C 
ATOM     53  H   UNK d   1       5.147   0.330  -0.820  0.00  0.00     0.026 H 
ATOM     54  H   UNK d   1       3.546   0.996  -1.224  0.00  0.00     0.026 H 
ATOM     55  C   UNK d   1       6.283   0.610  -3.282  0.00  0.00    -0.042 C 
ATOM     56  H   UNK d   1       4.329   1.483  -3.525  0.00  0.00     0.026 H 
ATOM     57  H   UNK d   1       5.352   2.296  -2.317  0.00  0.00     0.026 H 
ATOM     58  H   UNK d   1       6.734   1.214  -4.070  0.00  0.00     0.027 H 
ATOM     59  H   UNK d   1       7.008   0.457  -2.482  0.00  0.00     0.027 H 
ATOM     60  H   UNK d   1       5.140  -0.593  -4.655  0.00  0.00     0.039 H 
ENDBRANCH  16  44
TORSDOF 3
ENDMDL
MODEL 6
REMARK VINA RESULT:      -6.3      7.750     11.357
REMARK  3 active torsions:
REMARK  status: ('A' for Active; 'I' for Inactive)
REMARK    1  A    between atoms: CG_4  and  CB_7 
REMARK    2  A    between atoms: CB_7  and  CA_8 
REMARK       I    between atoms: N_15  and  C_22 
REMARK    3  A    between atoms: C_22  and  C_24 
ROOT
ATOM      1  CA  PHE d   2       7.552   0.472  -6.789  0.00  0.00     0.100 C 
ATOM      2  HA  PHE d   2       7.224  -0.509  -7.132  0.00  0.00     0.059 H 
ATOM      3  C   PHE d   2       9.038   0.456  -6.575  0.00  0.00     0.237 C 
ATOM      4  O   PHE d   2       9.712  -0.364  -7.163  0.00  0.00    -0.274 OA
ATOM      5  N   PHE d   2       6.878   0.799  -5.533  0.00  0.00    -0.302 N 
ATOM      6  H   PHE d   2       5.988   0.454  -5.359  0.00  0.00     0.149 HD
ATOM      7  N   UNK d   1       9.644   1.332  -5.741  0.00  0.00    -0.285 N 
ATOM      8  C   UNK d   1      11.100   1.417  -5.810  0.00  0.00     0.031 C 
ATOM      9  C   UNK d   1      11.754   1.671  -4.463  0.00  0.00     0.031 C 
ATOM     10  N   UNK d   1      10.948   2.613  -3.681  0.00  0.00    -0.297 N 
ATOM     11  C   UNK d   1       9.531   2.292  -3.472  0.00  0.00     0.042 C 
ATOM     12  C   UNK d   1       8.849   2.162  -4.843  0.00  0.00     0.118 C 
ATOM     13  H   UNK d   1       8.746   3.158  -5.273  0.00  0.00     0.061 H 
ATOM     14  C   UNK d   1       7.482   1.575  -4.621  0.00  0.00     0.236 C 
ATOM     15  O   UNK d   1       6.905   1.812  -3.581  0.00  0.00    -0.274 OA
ATOM     16  C   UNK d   1      11.491   3.734  -3.168  0.00  0.00     0.219 C 
ATOM     17  O   UNK d   1      12.645   4.017  -3.412  0.00  0.00    -0.275 OA
ATOM     18  H   UNK d   1      11.372   2.226  -6.488  0.00  0.00     0.048 H 
ATOM     19  H   UNK d   1      11.486   0.481  -6.214  0.00  0.00     0.048 H 
ATOM     20  H   UNK d   1      12.750   2.089  -4.618  0.00  0.00     0.048 H 
ATOM     21  H   UNK d   1      11.841   0.731  -3.920  0.00  0.00     0.048 H 
ATOM     22  H   UNK d   1       9.447   1.351  -2.928  0.00  0.00     0.049 H 
ATOM     23  H   UNK d   1       9.057   3.090  -2.900  0.00  0.00     0.049 H 
ENDROOT
BRANCH   1  24
ATOM     24  CB  PHE d   2       7.202   1.522  -7.844  0.00  0.00    -0.023 C 
ATOM     25  HB1 PHE d   2       7.080   2.494  -7.365  0.00  0.00     0.029 H 
ATOM     26  HB2 PHE d   2       8.004   1.580  -8.581  0.00  0.00     0.029 H 
BRANCH  24  27
ATOM     27  CG  PHE d   2       5.898   1.130  -8.542  0.00  0.00    -0.039 A 
ATOM     28  CD1 PHE d   2       5.233   2.380  -9.121  0.00  0.00    -0.050 A 
ATOM     29  CE1 PHE d   2       3.929   1.988  -9.818  0.00  0.00    -0.053 A 
ATOM     30 1HD1 PHE d   2       5.018   3.083  -8.317  0.00  0.00     0.027 H 
ATOM     31 2HD1 PHE d   2       5.904   2.848  -9.842  0.00  0.00     0.027 H 
ATOM     32  CZ  PHE d   2       4.232   1.002 -10.947  0.00  0.00    -0.053 A 
ATOM     33 1HE1 PHE d   2       3.258   1.521  -9.098  0.00  0.00     0.026 H 
ATOM     34 2HE1 PHE d   2       3.455   2.879 -10.231  0.00  0.00     0.026 H 
ATOM     35  CE2 PHE d   2       4.897  -0.249 -10.369  0.00  0.00    -0.053 A 
ATOM     36  HZ1 PHE d   2       3.302   0.722 -11.444  0.00  0.00     0.026 H 
ATOM     37  HZ2 PHE d   2       4.902   1.469 -11.668  0.00  0.00     0.026 H 
ATOM     38  CD2 PHE d   2       6.201   0.144  -9.671  0.00  0.00    -0.050 A 
ATOM     39 1HE2 PHE d   2       4.225  -0.716  -9.647  0.00  0.00     0.026 H 
ATOM     40 2HE2 PHE d   2       5.112  -0.952 -11.172  0.00  0.00     0.026 H 
ATOM     41 1HD2 PHE d   2       6.871   0.611 -10.392  0.00  0.00     0.027 H 
ATOM     42 2HD2 PHE d   2       6.674  -0.747  -9.258  0.00  0.00     0.027 H 
ATOM     43  HG  PHE d   2       5.227   0.663  -7.820  0.00  0.00     0.030 H 
ENDBRANCH  24  27
ENDBRANCH   1  24
BRANCH  16  44
ATOM     44  C   UNK d   1      10.663   4.638  -2.290  0.00  0.00     0.036 C 
ATOM     45  C   UNK d   1      11.496   5.079  -1.084  0.00  0.00    -0.042 C 
ATOM     46  C   UNK d   1      10.656   5.997  -0.193  0.00  0.00    -0.052 C 
ATOM     47  H   UNK d   1      11.803   4.202  -0.515  0.00  0.00     0.027 H 
ATOM     48  H   UNK d   1      12.379   5.616  -1.429  0.00  0.00     0.027 H 
ATOM     49  C   UNK d   1      10.224   7.228  -0.992  0.00  0.00    -0.053 C 
ATOM     50  H   UNK d   1      11.249   6.310   0.666  0.00  0.00     0.026 H 
ATOM     51  H   UNK d   1       9.773   5.460   0.152  0.00  0.00     0.026 H 
ATOM     52  C   UNK d   1       9.392   6.787  -2.199  0.00  0.00    -0.052 C 
ATOM     53  H   UNK d   1      11.107   7.765  -1.338  0.00  0.00     0.026 H 
ATOM     54  H   UNK d   1       9.625   7.882  -0.358  0.00  0.00     0.026 H 
ATOM     55  C   UNK d   1      10.232   5.870  -3.090  0.00  0.00    -0.042 C 
ATOM     56  H   UNK d   1       8.509   6.250  -1.853  0.00  0.00     0.026 H 
ATOM     57  H   UNK d   1       9.084   7.664  -2.768  0.00  0.00     0.026 H 
ATOM     58  H   UNK d   1       9.640   5.555  -3.949  0.00  0.00     0.027 H 
ATOM     59  H   UNK d   1      11.116   6.406  -3.434  0.00  0.00     0.027 H 
ATOM     60  H   UNK d   1       9.780   4.101  -1.945  0.00  0.00     0.039 H 
ENDBRANCH  16  44
TORSDOF 3
ENDMDL
MODEL 7
REMARK VINA RESULT:      -6.3      2.357      2.928
REMARK  3 active torsions:
REMARK  status: ('A' for Active; 'I' for Inactive)
REMARK    1  A    between atoms: CG_4  and  CB_7 
REMARK    2  A    between atoms: CB_7  and  CA_8 
REMARK       I    between atoms: N_15  and  C_22 
REMARK    3  A    between atoms: C_22  and  C_24 
ROOT
ATOM      1  CA  PHE d   2       7.451  -1.950  -4.846  0.00  0.00     0.100 C 
ATOM      2  HA  PHE d   2       7.499  -1.072  -5.490  0.00  0.00     0.059 H 
ATOM      3  C   PHE d   2       8.801  -2.604  -4.791  0.00  0.00     0.237 C 
ATOM      4  O   PHE d   2       9.789  -1.945  -5.036  0.00  0.00    -0.274 OA
ATOM      5  N   PHE d   2       6.469  -2.893  -5.381  0.00  0.00    -0.302 N 
ATOM      6  H   PHE d   2       5.702  -2.562  -5.874  0.00  0.00     0.149 HD
ATOM      7  N   UNK d   1       8.943  -3.913  -4.476  0.00  0.00    -0.285 N 
ATOM      8  C   UNK d   1      10.293  -4.383  -4.181  0.00  0.00     0.031 C 
ATOM      9  C   UNK d   1      10.555  -5.801  -4.657  0.00  0.00     0.031 C 
ATOM     10  N   UNK d   1       9.368  -6.633  -4.440  0.00  0.00    -0.297 N 
ATOM     11  C   UNK d   1       8.094  -6.169  -5.001  0.00  0.00     0.042 C 
ATOM     12  C   UNK d   1       7.775  -4.785  -4.414  0.00  0.00     0.118 C 
ATOM     13  H   UNK d   1       7.477  -4.911  -3.373  0.00  0.00     0.061 H 
ATOM     14  C   UNK d   1       6.621  -4.211  -5.192  0.00  0.00     0.236 C 
ATOM     15  O   UNK d   1       5.801  -4.969  -5.665  0.00  0.00    -0.274 OA
ATOM     16  C   UNK d   1       9.445  -7.789  -3.752  0.00  0.00     0.219 C 
ATOM     17  O   UNK d   1      10.492  -8.120  -3.236  0.00  0.00    -0.275 OA
ATOM     18  H   UNK d   1      10.451  -4.342  -3.104  0.00  0.00     0.048 H 
ATOM     19  H   UNK d   1      11.008  -3.716  -4.662  0.00  0.00     0.048 H 
ATOM     20  H   UNK d   1      11.396  -6.219  -4.102  0.00  0.00     0.048 H 
ATOM     21  H   UNK d   1      10.798  -5.787  -5.719  0.00  0.00     0.048 H 
ATOM     22  H   UNK d   1       8.177  -6.098  -6.086  0.00  0.00     0.049 H 
ATOM     23  H   UNK d   1       7.302  -6.870  -4.739  0.00  0.00     0.049 H 
ENDROOT
BRANCH   1  24
ATOM     24  CB  PHE d   2       7.034  -1.525  -3.437  0.00  0.00    -0.023 C 
ATOM     25  HB1 PHE d   2       6.921  -2.408  -2.808  0.00  0.00     0.029 H 
ATOM     26  HB2 PHE d   2       7.799  -0.873  -3.012  0.00  0.00     0.029 H 
BRANCH  24  27
ATOM     27  CG  PHE d   2       5.703  -0.772  -3.503  0.00  0.00    -0.039 A 
ATOM     28  CD1 PHE d   2       4.673  -1.478  -2.621  0.00  0.00    -0.050 A 
ATOM     29  CE1 PHE d   2       3.342  -0.726  -2.687  0.00  0.00    -0.053 A 
ATOM     30 1HD1 PHE d   2       4.531  -2.499  -2.973  0.00  0.00     0.027 H 
ATOM     31 2HD1 PHE d   2       5.029  -1.497  -1.590  0.00  0.00     0.027 H 
ATOM     32  CZ  PHE d   2       3.543   0.708  -2.191  0.00  0.00    -0.053 A 
ATOM     33 1HE1 PHE d   2       2.987  -0.707  -3.717  0.00  0.00     0.026 H 
ATOM     34 2HE1 PHE d   2       2.608  -1.229  -2.058  0.00  0.00     0.026 H 
ATOM     35  CE2 PHE d   2       4.573   1.414  -3.074  0.00  0.00    -0.053 A 
ATOM     36  HZ1 PHE d   2       2.595   1.244  -2.239  0.00  0.00     0.026 H 
ATOM     37  HZ2 PHE d   2       3.898   0.690  -1.162  0.00  0.00     0.026 H 
ATOM     38  CD2 PHE d   2       5.904   0.661  -3.007  0.00  0.00    -0.050 A 
ATOM     39 1HE2 PHE d   2       4.217   1.432  -4.105  0.00  0.00     0.026 H 
ATOM     40 2HE2 PHE d   2       4.716   2.435  -2.721  0.00  0.00     0.026 H 
ATOM     41 1HD2 PHE d   2       6.259   0.643  -1.978  0.00  0.00     0.027 H 
ATOM     42 2HD2 PHE d   2       6.638   1.165  -3.637  0.00  0.00     0.027 H 
ATOM     43  HG  PHE d   2       5.348  -0.755  -4.534  0.00  0.00     0.030 H 
ENDBRANCH  24  27
ENDBRANCH   1  24
BRANCH  16  44
ATOM     44  C   UNK d   1       8.230  -8.671  -3.623  0.00  0.00     0.036 C 
ATOM     45  C   UNK d   1       8.420  -9.928  -4.475  0.00  0.00    -0.042 C 
ATOM     46  C   UNK d   1       7.186 -10.824  -4.344  0.00  0.00    -0.052 C 
ATOM     47  H   UNK d   1       8.552  -9.643  -5.519  0.00  0.00     0.027 H 
ATOM     48  H   UNK d   1       9.301 -10.470  -4.132  0.00  0.00     0.027 H 
ATOM     49  C   UNK d   1       7.000 -11.224  -2.879  0.00  0.00    -0.053 C 
ATOM     50  H   UNK d   1       7.321 -11.719  -4.951  0.00  0.00     0.026 H 
ATOM     51  H   UNK d   1       6.305 -10.282  -4.687  0.00  0.00     0.026 H 
ATOM     52  C   UNK d   1       6.810  -9.967  -2.026  0.00  0.00    -0.052 C 
ATOM     53  H   UNK d   1       7.881 -11.766  -2.536  0.00  0.00     0.026 H 
ATOM     54  H   UNK d   1       6.121 -11.862  -2.785  0.00  0.00     0.026 H 
ATOM     55  C   UNK d   1       8.044  -9.072  -2.157  0.00  0.00    -0.042 C 
ATOM     56  H   UNK d   1       5.929  -9.425  -2.370  0.00  0.00     0.026 H 
ATOM     57  H   UNK d   1       6.678 -10.253  -0.983  0.00  0.00     0.026 H 
ATOM     58  H   UNK d   1       7.910  -8.176  -1.551  0.00  0.00     0.027 H 
ATOM     59  H   UNK d   1       8.925  -9.614  -1.815  0.00  0.00     0.027 H 
ATOM     60  H   UNK d   1       7.349  -8.129  -3.966  0.00  0.00     0.039 H 
ENDBRANCH  16  44
TORSDOF 3
ENDMDL
MODEL 8
REMARK VINA RESULT:      -6.2      3.972      5.654
REMARK  3 active torsions:
REMARK  status: ('A' for Active; 'I' for Inactive)
REMARK    1  A    between atoms: CG_4  and  CB_7 
REMARK    2  A    between atoms: CB_7  and  CA_8 
REMARK       I    between atoms: N_15  and  C_22 
REMARK    3  A    between atoms: C_22  and  C_24 
ROOT
ATOM      1  CA  PHE d   2       5.001  -1.662  -6.087  0.00  0.00     0.100 C 
ATOM      2  HA  PHE d   2       5.885  -1.345  -5.533  0.00  0.00     0.059 H 
ATOM      3  C   PHE d   2       4.908  -3.160  -6.063  0.00  0.00     0.237 C 
ATOM      4  O   PHE d   2       5.459  -3.774  -5.173  0.00  0.00    -0.274 OA
ATOM      5  N   PHE d   2       5.100  -1.198  -7.470  0.00  0.00    -0.302 N 
ATOM      6  H   PHE d   2       5.577  -0.377  -7.670  0.00  0.00     0.149 HD
ATOM      7  N   UNK d   1       4.225  -3.844  -7.010  0.00  0.00    -0.285 N 
ATOM      8  C   UNK d   1       3.963  -5.257  -6.752  0.00  0.00     0.031 C 
ATOM      9  C   UNK d   1       4.007  -6.117  -8.002  0.00  0.00     0.031 C 
ATOM     10  N   UNK d   1       3.406  -5.399  -9.130  0.00  0.00    -0.297 N 
ATOM     11  C   UNK d   1       3.928  -4.066  -9.449  0.00  0.00     0.042 C 
ATOM     12  C   UNK d   1       3.761  -3.165  -8.215  0.00  0.00     0.118 C 
ATOM     13  H   UNK d   1       2.704  -2.922  -8.105  0.00  0.00     0.061 H 
ATOM     14  C   UNK d   1       4.535  -1.898  -8.464  0.00  0.00     0.236 C 
ATOM     15  O   UNK d   1       4.652  -1.498  -9.602  0.00  0.00    -0.274 OA
ATOM     16  C   UNK d   1       2.410  -5.949  -9.853  0.00  0.00     0.219 C 
ATOM     17  O   UNK d   1       1.945  -7.021  -9.529  0.00  0.00    -0.275 OA
ATOM     18  H   UNK d   1       2.976  -5.352  -6.298  0.00  0.00     0.048 H 
ATOM     19  H   UNK d   1       4.706  -5.627  -6.047  0.00  0.00     0.048 H 
ATOM     20  H   UNK d   1       3.454  -7.041  -7.825  0.00  0.00     0.048 H 
ATOM     21  H   UNK d   1       5.043  -6.359  -8.238  0.00  0.00     0.048 H 
ATOM     22  H   UNK d   1       4.983  -4.139  -9.711  0.00  0.00     0.049 H 
ATOM     23  H   UNK d   1       3.371  -3.647 -10.288  0.00  0.00     0.049 H 
ENDROOT
BRANCH   1  24
ATOM     24  CB  PHE d   2       3.752  -1.065  -5.437  0.00  0.00    -0.023 C 
ATOM     25  HB1 PHE d   2       3.115  -0.627  -6.206  0.00  0.00     0.029 H 
ATOM     26  HB2 PHE d   2       3.203  -1.849  -4.914  0.00  0.00     0.029 H 
BRANCH  24  27
ATOM     27  CG  PHE d   2       4.165   0.019  -4.438  0.00  0.00    -0.039 A 
ATOM     28  CD1 PHE d   2       3.034   0.245  -3.434  0.00  0.00    -0.050 A 
ATOM     29  CE1 PHE d   2       3.447   1.329  -2.435  0.00  0.00    -0.053 A 
ATOM     30 1HD1 PHE d   2       2.135   0.561  -3.962  0.00  0.00     0.027 H 
ATOM     31 2HD1 PHE d   2       2.833  -0.684  -2.898  0.00  0.00     0.027 H 
ATOM     32  CZ  PHE d   2       4.709   0.884  -1.693  0.00  0.00    -0.053 A 
ATOM     33 1HE1 PHE d   2       3.649   2.257  -2.970  0.00  0.00     0.026 H 
ATOM     34 2HE1 PHE d   2       2.641   1.489  -1.719  0.00  0.00     0.026 H 
ATOM     35  CE2 PHE d   2       5.840   0.658  -2.699  0.00  0.00    -0.053 A 
ATOM     36  HZ1 PHE d   2       5.003   1.656  -0.983  0.00  0.00     0.026 H 
ATOM     37  HZ2 PHE d   2       4.508  -0.044  -1.159  0.00  0.00     0.026 H 
ATOM     38  CD2 PHE d   2       5.426  -0.426  -3.696  0.00  0.00    -0.050 A 
ATOM     39 1HE2 PHE d   2       6.041   1.587  -3.233  0.00  0.00     0.026 H 
ATOM     40 2HE2 PHE d   2       6.739   0.342  -2.170  0.00  0.00     0.026 H 
ATOM     41 1HD2 PHE d   2       5.226  -1.353  -3.162  0.00  0.00     0.027 H 
ATOM     42 2HD2 PHE d   2       6.232  -0.586  -4.413  0.00  0.00     0.027 H 
ATOM     43  HG  PHE d   2       4.365   0.947  -4.974  0.00  0.00     0.030 H 
ENDBRANCH  24  27
ENDBRANCH   1  24
BRANCH  16  44
ATOM     44  C   UNK d   1       1.874  -5.229 -11.064  0.00  0.00     0.036 C 
ATOM     45  C   UNK d   1       1.767  -6.210 -12.234  0.00  0.00    -0.042 C 
ATOM     46  C   UNK d   1       1.222  -5.480 -13.463  0.00  0.00    -0.052 C 
ATOM     47  H   UNK d   1       2.754  -6.615 -12.460  0.00  0.00     0.027 H 
ATOM     48  H   UNK d   1       1.093  -7.024 -11.965  0.00  0.00     0.027 H 
ATOM     49  C   UNK d   1      -0.163  -4.912 -13.147  0.00  0.00    -0.053 C 
ATOM     50  H   UNK d   1       1.147  -6.179 -14.296  0.00  0.00     0.026 H 
ATOM     51  H   UNK d   1       1.896  -4.667 -13.731  0.00  0.00     0.026 H 
ATOM     52  C   UNK d   1      -0.056  -3.931 -11.976  0.00  0.00    -0.052 C 
ATOM     53  H   UNK d   1      -0.837  -5.725 -12.878  0.00  0.00     0.026 H 
ATOM     54  H   UNK d   1      -0.551  -4.391 -14.022  0.00  0.00     0.026 H 
ATOM     55  C   UNK d   1       0.488  -4.661 -10.747  0.00  0.00    -0.042 C 
ATOM     56  H   UNK d   1       0.618  -3.117 -12.245  0.00  0.00     0.026 H 
ATOM     57  H   UNK d   1      -1.043  -3.526 -11.751  0.00  0.00     0.026 H 
ATOM     58  H   UNK d   1       0.565  -3.963  -9.913  0.00  0.00     0.027 H 
ATOM     59  H   UNK d   1      -0.185  -5.475 -10.479  0.00  0.00     0.027 H 
ATOM     60  H   UNK d   1       2.547  -4.416 -11.332  0.00  0.00     0.039 H 
ENDBRANCH  16  44
TORSDOF 3
ENDMDL
MODEL 9
REMARK VINA RESULT:      -5.9      4.564      7.614
REMARK  3 active torsions:
REMARK  status: ('A' for Active; 'I' for Inactive)
REMARK    1  A    between atoms: CG_4  and  CB_7 
REMARK    2  A    between atoms: CB_7  and  CA_8 
REMARK       I    between atoms: N_15  and  C_22 
REMARK    3  A    between atoms: C_22  and  C_24 
ROOT
ATOM      1  CA  PHE d   2       4.247  -1.186  -5.657  0.00  0.00     0.100 C 
ATOM      2  HA  PHE d   2       3.248  -1.163  -5.222  0.00  0.00     0.059 H 
ATOM      3  C   PHE d   2       4.948  -2.444  -5.233  0.00  0.00     0.237 C 
ATOM      4  O   PHE d   2       4.289  -3.404  -4.893  0.00  0.00    -0.274 OA
ATOM      5  N   PHE d   2       5.005  -0.022  -5.199  0.00  0.00    -0.302 N 
ATOM      6  H   PHE d   2       4.541   0.805  -4.995  0.00  0.00     0.149 HD
ATOM      7  N   UNK d   1       6.298  -2.533  -5.219  0.00  0.00    -0.285 N 
ATOM      8  C   UNK d   1       6.875  -3.865  -5.059  0.00  0.00     0.031 C 
ATOM      9  C   UNK d   1       8.157  -3.874  -4.244  0.00  0.00     0.031 C 
ATOM     10  N   UNK d   1       8.970  -2.699  -4.571  0.00  0.00    -0.297 N 
ATOM     11  C   UNK d   1       8.341  -1.378  -4.458  0.00  0.00     0.042 C 
ATOM     12  C   UNK d   1       7.116  -1.337  -5.385  0.00  0.00     0.118 C 
ATOM     13  H   UNK d   1       7.465  -1.282  -6.416  0.00  0.00     0.061 H 
ATOM     14  C   UNK d   1       6.337  -0.091  -5.060  0.00  0.00     0.236 C 
ATOM     15  O   UNK d   1       6.934   0.885  -4.659  0.00  0.00    -0.274 OA
ATOM     16  C   UNK d   1      10.254  -2.828  -4.957  0.00  0.00     0.219 C 
ATOM     17  O   UNK d   1      10.734  -3.932  -5.113  0.00  0.00    -0.275 OA
ATOM     18  H   UNK d   1       7.087  -4.276  -6.046  0.00  0.00     0.048 H 
ATOM     19  H   UNK d   1       6.144  -4.506  -4.566  0.00  0.00     0.048 H 
ATOM     20  H   UNK d   1       8.721  -4.780  -4.470  0.00  0.00     0.048 H 
ATOM     21  H   UNK d   1       7.911  -3.860  -3.183  0.00  0.00     0.048 H 
ATOM     22  H   UNK d   1       8.029  -1.210  -3.428  0.00  0.00     0.049 H 
ATOM     23  H   UNK d   1       9.053  -0.608  -4.756  0.00  0.00     0.049 H 
ENDROOT
BRANCH   1  24
ATOM     24  CB  PHE d   2       4.138  -1.155  -7.182  0.00  0.00    -0.023 C 
ATOM     25  HB1 PHE d   2       5.005  -1.652  -7.620  0.00  0.00     0.029 H 
ATOM     26  HB2 PHE d   2       3.229  -1.670  -7.494  0.00  0.00     0.029 H 
BRANCH  24  27
ATOM     27  CG  PHE d   2       4.089   0.298  -7.661  0.00  0.00    -0.039 A 
ATOM     28  CD1 PHE d   2       5.190   0.531  -8.697  0.00  0.00    -0.050 A 
ATOM     29  CE1 PHE d   2       5.141   1.984  -9.176  0.00  0.00    -0.053 A 
ATOM     30 1HD1 PHE d   2       6.161   0.329  -8.247  0.00  0.00     0.027 H 
ATOM     31 2HD1 PHE d   2       5.037  -0.137  -9.546  0.00  0.00     0.027 H 
ATOM     32  CZ  PHE d   2       3.777   2.266  -9.808  0.00  0.00    -0.053 A 
ATOM     33 1HE1 PHE d   2       5.293   2.651  -8.327  0.00  0.00     0.026 H 
ATOM     34 2HE1 PHE d   2       5.925   2.150  -9.914  0.00  0.00     0.026 H 
ATOM     35  CE2 PHE d   2       2.675   2.032  -8.772  0.00  0.00    -0.053 A 
ATOM     36  HZ1 PHE d   2       3.741   3.301 -10.148  0.00  0.00     0.026 H 
ATOM     37  HZ2 PHE d   2       3.624   1.599 -10.656  0.00  0.00     0.026 H 
ATOM     38  CD2 PHE d   2       2.725   0.580  -8.293  0.00  0.00    -0.050 A 
ATOM     39 1HE2 PHE d   2       2.828   2.700  -7.923  0.00  0.00     0.026 H 
ATOM     40 2HE2 PHE d   2       1.703   2.234  -9.221  0.00  0.00     0.026 H 
ATOM     41 1HD2 PHE d   2       2.572  -0.087  -9.141  0.00  0.00     0.027 H 
ATOM     42 2HD2 PHE d   2       1.941   0.414  -7.555  0.00  0.00     0.027 H 
ATOM     43  HG  PHE d   2       4.242   0.964  -6.812  0.00  0.00     0.030 H 
ENDBRANCH  24  27
ENDBRANCH   1  24
BRANCH  16  44
ATOM     44  C   UNK d   1      11.095  -1.601  -5.197  0.00  0.00     0.036 C 
ATOM     45  C   UNK d   1      12.298  -1.614  -4.251  0.00  0.00    -0.042 C 
ATOM     46  C   UNK d   1      13.152  -0.368  -4.495  0.00  0.00    -0.052 C 
ATOM     47  H   UNK d   1      11.948  -1.618  -3.219  0.00  0.00     0.027 H 
ATOM     48  H   UNK d   1      12.896  -2.506  -4.436  0.00  0.00     0.027 H 
ATOM     49  C   UNK d   1      13.643  -0.361  -5.944  0.00  0.00    -0.053 C 
ATOM     50  H   UNK d   1      14.008  -0.377  -3.821  0.00  0.00     0.026 H 
ATOM     51  H   UNK d   1      12.554   0.524  -4.311  0.00  0.00     0.026 H 
ATOM     52  C   UNK d   1      12.440  -0.349  -6.891  0.00  0.00    -0.052 C 
ATOM     53  H   UNK d   1      14.241  -1.254  -6.129  0.00  0.00     0.026 H 
ATOM     54  H   UNK d   1      14.251   0.526  -6.118  0.00  0.00     0.026 H 
ATOM     55  C   UNK d   1      11.587  -1.595  -6.647  0.00  0.00    -0.042 C 
ATOM     56  H   UNK d   1      11.843   0.544  -6.706  0.00  0.00     0.026 H 
ATOM     57  H   UNK d   1      12.791  -0.345  -7.923  0.00  0.00     0.026 H 
ATOM     58  H   UNK d   1      10.730  -1.587  -7.321  0.00  0.00     0.027 H 
ATOM     59  H   UNK d   1      12.185  -2.487  -6.831  0.00  0.00     0.027 H 
ATOM     60  H   UNK d   1      10.497  -0.709  -5.013  0.00  0.00     0.039 H 
ENDBRANCH  16  44
TORSDOF 3
ENDMDL
MODEL 10
REMARK VINA RESULT:      -5.9      5.608      8.265
REMARK  3 active torsions:
REMARK  status: ('A' for Active; 'I' for Inactive)
REMARK    1  A    between atoms: CG_4  and  CB_7 
REMARK    2  A    between atoms: CB_7  and  CA_8 
REMARK       I    between atoms: N_15  and  C_22 
REMARK    3  A    between atoms: C_22  and  C_24 
ROOT
ATOM      1  CA  PHE d   2      11.571   1.655  -5.526  0.00  0.00     0.100 C 
ATOM      2  HA  PHE d   2      12.337   1.978  -6.230  0.00  0.00     0.059 H 
ATOM      3  C   PHE d   2      11.267   0.202  -5.749  0.00  0.00     0.237 C 
ATOM      4  O   PHE d   2      12.101  -0.502  -6.279  0.00  0.00    -0.274 OA
ATOM      5  N   PHE d   2      10.359   2.447  -5.728  0.00  0.00    -0.302 N 
ATOM      6  H   PHE d   2      10.427   3.362  -6.044  0.00  0.00     0.149 HD
ATOM      7  N   UNK d   1      10.086  -0.342  -5.375  0.00  0.00    -0.285 N 
ATOM      8  C   UNK d   1       9.993  -1.799  -5.382  0.00  0.00     0.031 C 
ATOM      9  C   UNK d   1       8.624  -2.314  -5.792  0.00  0.00     0.031 C 
ATOM     10  N   UNK d   1       7.575  -1.461  -5.227  0.00  0.00    -0.297 N 
ATOM     11  C   UNK d   1       7.643  -0.021  -5.496  0.00  0.00     0.042 C 
ATOM     12  C   UNK d   1       8.981   0.515  -4.961  0.00  0.00     0.118 C 
ATOM     13  H   UNK d   1       8.933   0.538  -3.872  0.00  0.00     0.061 H 
ATOM     14  C   UNK d   1       9.152   1.918  -5.478  0.00  0.00     0.236 C 
ATOM     15  O   UNK d   1       8.165   2.594  -5.675  0.00  0.00    -0.274 OA
ATOM     16  C   UNK d   1       6.576  -1.985  -4.489  0.00  0.00     0.219 C 
ATOM     17  O   UNK d   1       6.577  -3.168  -4.219  0.00  0.00    -0.275 OA
ATOM     18  H   UNK d   1      10.219  -2.169  -4.382  0.00  0.00     0.048 H 
ATOM     19  H   UNK d   1      10.736  -2.194  -6.074  0.00  0.00     0.048 H 
ATOM     20  H   UNK d   1       8.498  -3.334  -5.428  0.00  0.00     0.048 H 
ATOM     21  H   UNK d   1       8.548  -2.310  -6.879  0.00  0.00     0.048 H 
ATOM     22  H   UNK d   1       7.580   0.153  -6.570  0.00  0.00     0.049 H 
ATOM     23  H   UNK d   1       6.818   0.484  -4.994  0.00  0.00     0.049 H 
ENDROOT
BRANCH   1  24
ATOM     24  CB  PHE d   2      12.077   1.854  -4.096  0.00  0.00    -0.023 C 
ATOM     25  HB1 PHE d   2      11.543   1.183  -3.423  0.00  0.00     0.029 H 
ATOM     26  HB2 PHE d   2      13.145   1.636  -4.054  0.00  0.00     0.029 H 
BRANCH  24  27
ATOM     27  CG  PHE d   2      11.837   3.304  -3.667  0.00  0.00    -0.039 A 
ATOM     28  CD1 PHE d   2      10.836   3.334  -2.511  0.00  0.00    -0.050 A 
ATOM     29  CE1 PHE d   2      10.595   4.783  -2.082  0.00  0.00    -0.053 A 
ATOM     30 1HD1 PHE d   2       9.895   2.890  -2.833  0.00  0.00     0.027 H 
ATOM     31 2HD1 PHE d   2      11.235   2.767  -1.669  0.00  0.00     0.027 H 
ATOM     32  CZ  PHE d   2      11.917   5.406  -1.629  0.00  0.00    -0.053 A 
ATOM     33 1HE1 PHE d   2      10.196   5.350  -2.923  0.00  0.00     0.026 H 
ATOM     34 2HE1 PHE d   2       9.882   4.805  -1.258  0.00  0.00     0.026 H 
ATOM     35  CE2 PHE d   2      12.919   5.376  -2.785  0.00  0.00    -0.053 A 
ATOM     36  HZ1 PHE d   2      11.746   6.438  -1.324  0.00  0.00     0.026 H 
ATOM     37  HZ2 PHE d   2      12.317   4.840  -0.788  0.00  0.00     0.026 H 
ATOM     38  CD2 PHE d   2      13.159   3.926  -3.214  0.00  0.00    -0.050 A 
ATOM     39 1HE2 PHE d   2      12.519   5.942  -3.627  0.00  0.00     0.026 H 
ATOM     40 2HE2 PHE d   2      13.860   5.820  -2.464  0.00  0.00     0.026 H 
ATOM     41 1HD2 PHE d   2      13.558   3.361  -2.373  0.00  0.00     0.027 H 
ATOM     42 2HD2 PHE d   2      13.872   3.905  -4.038  0.00  0.00     0.027 H 
ATOM     43  HG  PHE d   2      11.437   3.869  -4.509  0.00  0.00     0.030 H 
ENDBRANCH  24  27
ENDBRANCH   1  24
BRANCH  16  44
ATOM     44  C   UNK d   1       5.459  -1.100  -3.998  0.00  0.00     0.036 C 
ATOM     45  C   UNK d   1       4.239  -1.269  -4.906  0.00  0.00    -0.042 C 
ATOM     46  C   UNK d   1       3.104  -0.371  -4.407  0.00  0.00    -0.052 C 
ATOM     47  H   UNK d   1       4.503  -0.988  -5.925  0.00  0.00     0.027 H 
ATOM     48  H   UNK d   1       3.914  -2.309  -4.887  0.00  0.00     0.027 H 
ATOM     49  C   UNK d   1       2.734  -0.765  -2.976  0.00  0.00    -0.053 C 
ATOM     50  H   UNK d   1       2.236  -0.491  -5.054  0.00  0.00     0.026 H 
ATOM     51  H   UNK d   1       3.430   0.668  -4.425  0.00  0.00     0.026 H 
ATOM     52  C   UNK d   1       3.954  -0.596  -2.067  0.00  0.00    -0.052 C 
ATOM     53  H   UNK d   1       2.409  -1.805  -2.957  0.00  0.00     0.026 H 
ATOM     54  H   UNK d   1       1.926  -0.125  -2.620  0.00  0.00     0.026 H 
ATOM     55  C   UNK d   1       5.088  -1.494  -2.566  0.00  0.00    -0.042 C 
ATOM     56  H   UNK d   1       4.279   0.444  -2.086  0.00  0.00     0.026 H 
ATOM     57  H   UNK d   1       3.690  -0.877  -1.048  0.00  0.00     0.026 H 
ATOM     58  H   UNK d   1       5.958  -1.375  -1.920  0.00  0.00     0.027 H 
ATOM     59  H   UNK d   1       4.763  -2.535  -2.549  0.00  0.00     0.027 H 
ATOM     60  H   UNK d   1       5.784  -0.060  -4.016  0.00  0.00     0.039 H 
ENDBRANCH  16  44
TORSDOF 3
ENDMDL
