MODEL 1
REMARK VINA RESULT:      -6.7      0.000      0.000
REMARK  7 active torsions:
REMARK  status: ('A' for Active; 'I' for Inactive)
REMARK    1  A    between atoms: C_1  and  C_2 
REMARK    2  A    between atoms: C_2  and  O_3 
REMARK    3  A    between atoms: O_3  and  C_4 
REMARK    4  A    between atoms: C_4  and  C_6 
REMARK    5  A    between atoms: C_7  and  C_25 
REMARK    6  A    between atoms: C_11  and  N_15 
REMARK       I    between atoms: N_15  and  C_16 
REMARK    7  A    between atoms: C_16  and  C_18 
ROOT
ATOM      1  C   LIG d   1       5.097  -8.100  -6.238  0.00  0.00     0.215 A 
ATOM      2  C   LIG d   1       6.392  -7.747  -6.027  0.00  0.00     0.010 A 
ATOM      3  C   LIG d   1       6.391  -6.380  -5.651  0.00  0.00     0.024 A 
ATOM      4  C   LIG d   1       7.398  -5.468  -5.313  0.00  0.00    -0.049 A 
ATOM      5  C   LIG d   1       7.074  -4.183  -4.994  0.00  0.00    -0.040 A 
ATOM      6  C   LIG d   1       5.741  -3.771  -4.992  0.00  0.00     0.037 A 
ATOM      7  C   LIG d   1       4.729  -4.659  -5.326  0.00  0.00     0.003 A 
ATOM      8  C   LIG d   1       5.043  -5.969  -5.657  0.00  0.00     0.138 A 
ATOM      9  O   LIG d   1       4.297  -7.033  -6.015  0.00  0.00    -0.448 OA
ATOM     10  H   LIG d   1       8.432  -5.783  -5.307  0.00  0.00     0.062 H 
ATOM     11  H   LIG d   1       7.852  -3.481  -4.737  0.00  0.00     0.064 H 
ATOM     12  H   LIG d   1       3.700  -4.331  -5.327  0.00  0.00     0.067 H 
ENDROOT
BRANCH   6  13
ATOM     13  N   LIG d   1       5.423  -2.453  -4.659  0.00  0.00    -0.281 N 
ATOM     14  C   LIG d   1       4.559  -2.201  -3.656  0.00  0.00     0.250 C 
ATOM     15  O   LIG d   1       3.993  -3.119  -3.097  0.00  0.00    -0.270 OA
ATOM     16  H   LIG d   1       5.825  -1.719  -5.149  0.00  0.00     0.155 HD
BRANCH  14  17
ATOM     17  C   LIG d   1       4.301  -0.808  -3.237  0.00  0.00     0.055 A 
ATOM     18  C   LIG d   1       3.659   0.078  -4.106  0.00  0.00     0.053 A 
ATOM     19  C   LIG d   1       3.426   1.381  -3.709  0.00  0.00    -0.043 A 
ATOM     20 CL   LIG d   1       3.163  -0.453  -5.682  0.00  0.00    -0.083 Cl
ATOM     21  C   LIG d   1       3.817   1.804  -2.452  0.00  0.00    -0.060 A 
ATOM     22  H   LIG d   1       2.934   2.069  -4.381  0.00  0.00     0.063 H 
ATOM     23  C   LIG d   1       4.453   0.930  -1.587  0.00  0.00    -0.061 A 
ATOM     24  H   LIG d   1       3.629   2.822  -2.145  0.00  0.00     0.062 H 
ATOM     25  C   LIG d   1       4.697  -0.371  -1.971  0.00  0.00    -0.048 A 
ATOM     26  H   LIG d   1       4.759   1.269  -0.608  0.00  0.00     0.062 H 
ATOM     27  H   LIG d   1       5.194  -1.051  -1.295  0.00  0.00     0.062 H 
ENDBRANCH  14  17
ENDBRANCH   6  13
BRANCH   2  28
ATOM     28  C   LIG d   1       7.599  -8.638  -6.165  0.00  0.00    -0.035 C 
ATOM     29  H   LIG d   1       7.816  -9.107  -5.205  0.00  0.00     0.028 H 
ATOM     30  H   LIG d   1       7.397  -9.409  -6.909  0.00  0.00     0.028 H 
ATOM     31  H   LIG d   1       8.455  -8.043  -6.481  0.00  0.00     0.028 H 
ENDBRANCH   2  28
BRANCH   1  32
ATOM     32  C   LIG d   1       4.638  -9.432  -6.644  0.00  0.00     0.375 C 
ATOM     33  O   LIG d   1       4.631  -9.741  -7.820  0.00  0.00    -0.241 OA
BRANCH  32  34
ATOM     34  O   LIG d   1       4.222 -10.314  -5.712  0.00  0.00    -0.459 OA
BRANCH  34  35
ATOM     35  C   LIG d   1       4.225  -9.865  -4.331  0.00  0.00     0.090 C 
ATOM     36  H   LIG d   1       5.244  -9.884  -3.946  0.00  0.00     0.070 H 
ATOM     37  H   LIG d   1       3.835  -8.849  -4.279  0.00  0.00     0.070 H 
BRANCH  35  38
ATOM     38  C   LIG d   1       3.345 -10.793  -3.491  0.00  0.00    -0.031 C 
ATOM     39  H   LIG d   1       2.317 -10.742  -3.850  0.00  0.00     0.026 H 
ATOM     40  H   LIG d   1       3.710 -11.817  -3.578  0.00  0.00     0.026 H 
ATOM     41  H   LIG d   1       3.382 -10.482  -2.447  0.00  0.00     0.026 H 
ENDBRANCH  35  38
ENDBRANCH  34  35
ENDBRANCH  32  34
ENDBRANCH   1  32
TORSDOF 7
ENDMDL
MODEL 2
REMARK VINA RESULT:      -6.6     15.564     19.322
REMARK  7 active torsions:
REMARK  status: ('A' for Active; 'I' for Inactive)
REMARK    1  A    between atoms: C_1  and  C_2 
REMARK    2  A    between atoms: C_2  and  O_3 
REMARK    3  A    between atoms: O_3  and  C_4 
REMARK    4  A    between atoms: C_4  and  C_6 
REMARK    5  A    between atoms: C_7  and  C_25 
REMARK    6  A    between atoms: C_11  and  N_15 
REMARK       I    between atoms: N_15  and  C_16 
REMARK    7  A    between atoms: C_16  and  C_18 
ROOT
ATOM      1  C   LIG d   1       0.812  10.314 -16.378  0.00  0.00     0.215 A 
ATOM      2  C   LIG d   1      -0.422  10.881 -16.420  0.00  0.00     0.010 A 
ATOM      3  C   LIG d   1      -1.317   9.966 -15.809  0.00  0.00     0.024 A 
ATOM      4  C   LIG d   1      -2.694   9.981 -15.558  0.00  0.00    -0.049 A 
ATOM      5  C   LIG d   1      -3.284   8.920 -14.939  0.00  0.00    -0.040 A 
ATOM      6  C   LIG d   1      -2.522   7.820 -14.543  0.00  0.00     0.037 A 
ATOM      7  C   LIG d   1      -1.157   7.787 -14.783  0.00  0.00     0.003 A 
ATOM      8  C   LIG d   1      -0.542   8.857 -15.417  0.00  0.00     0.138 A 
ATOM      9  O   LIG d   1       0.733   9.106 -15.777  0.00  0.00    -0.448 OA
ATOM     10  H   LIG d   1      -3.289  10.832 -15.858  0.00  0.00     0.062 H 
ATOM     11  H   LIG d   1      -4.347   8.931 -14.750  0.00  0.00     0.064 H 
ATOM     12  H   LIG d   1      -0.574   6.930 -14.478  0.00  0.00     0.067 H 
ENDROOT
BRANCH   6  13
ATOM     13  N   LIG d   1      -3.139   6.742 -13.906  0.00  0.00    -0.281 N 
ATOM     14  C   LIG d   1      -3.629   5.719 -14.634  0.00  0.00     0.250 C 
ATOM     15  O   LIG d   1      -3.609   5.774 -15.848  0.00  0.00    -0.270 OA
ATOM     16  H   LIG d   1      -3.214   6.729 -12.939  0.00  0.00     0.155 HD
BRANCH  14  17
ATOM     17  C   LIG d   1      -4.190   4.533 -13.957  0.00  0.00     0.055 A 
ATOM     18  C   LIG d   1      -5.508   4.548 -13.492  0.00  0.00     0.053 A 
ATOM     19  C   LIG d   1      -6.024   3.436 -12.854  0.00  0.00    -0.043 A 
ATOM     20 CL   LIG d   1      -6.491   5.962 -13.708  0.00  0.00    -0.083 Cl
ATOM     21  C   LIG d   1      -5.243   2.308 -12.685  0.00  0.00    -0.060 A 
ATOM     22  H   LIG d   1      -7.041   3.448 -12.489  0.00  0.00     0.063 H 
ATOM     23  C   LIG d   1      -3.937   2.287 -13.143  0.00  0.00    -0.061 A 
ATOM     24  H   LIG d   1      -5.652   1.441 -12.189  0.00  0.00     0.062 H 
ATOM     25  C   LIG d   1      -3.407   3.391 -13.777  0.00  0.00    -0.048 A 
ATOM     26  H   LIG d   1      -3.331   1.404 -13.004  0.00  0.00     0.062 H 
ATOM     27  H   LIG d   1      -2.387   3.373 -14.134  0.00  0.00     0.062 H 
ENDBRANCH  14  17
ENDBRANCH   6  13
BRANCH   2  28
ATOM     28  C   LIG d   1      -0.773  12.224 -17.005  0.00  0.00    -0.035 C 
ATOM     29  H   LIG d   1      -1.857  12.340 -17.023  0.00  0.00     0.028 H 
ATOM     30  H   LIG d   1      -0.334  13.012 -16.395  0.00  0.00     0.028 H 
ATOM     31  H   LIG d   1      -0.384  12.290 -18.021  0.00  0.00     0.028 H 
ENDBRANCH   2  28
BRANCH   1  32
ATOM     32  C   LIG d   1       2.040  10.921 -16.901  0.00  0.00     0.375 C 
ATOM     33  O   LIG d   1       2.319  10.809 -18.080  0.00  0.00    -0.241 OA
BRANCH  32  34
ATOM     34  O   LIG d   1       2.862  11.600 -16.075  0.00  0.00    -0.459 OA
BRANCH  34  35
ATOM     35  C   LIG d   1       3.689  12.634 -16.672  0.00  0.00     0.090 C 
ATOM     36  H   LIG d   1       3.936  12.355 -17.696  0.00  0.00     0.070 H 
ATOM     37  H   LIG d   1       3.144  13.578 -16.674  0.00  0.00     0.070 H 
BRANCH  35  38
ATOM     38  C   LIG d   1       4.976  12.789 -15.861  0.00  0.00    -0.031 C 
ATOM     39  H   LIG d   1       5.837  12.638 -16.512  0.00  0.00     0.026 H 
ATOM     40  H   LIG d   1       5.017  13.790 -15.431  0.00  0.00     0.026 H 
ATOM     41  H   LIG d   1       4.993  12.049 -15.060  0.00  0.00     0.026 H 
ENDBRANCH  35  38
ENDBRANCH  34  35
ENDBRANCH  32  34
ENDBRANCH   1  32
TORSDOF 7
ENDMDL
MODEL 3
REMARK VINA RESULT:      -6.5      6.243      7.627
REMARK  7 active torsions:
REMARK  status: ('A' for Active; 'I' for Inactive)
REMARK    1  A    between atoms: C_1  and  C_2 
REMARK    2  A    between atoms: C_2  and  O_3 
REMARK    3  A    between atoms: O_3  and  C_4 
REMARK    4  A    between atoms: C_4  and  C_6 
REMARK    5  A    between atoms: C_7  and  C_25 
REMARK    6  A    between atoms: C_11  and  N_15 
REMARK       I    between atoms: N_15  and  C_16 
REMARK    7  A    between atoms: C_16  and  C_18 
ROOT
ATOM      1  C   LIG d   1       1.683  -1.861 -11.868  0.00  0.00     0.215 A 
ATOM      2  C   LIG d   1       2.836  -1.169 -12.063  0.00  0.00     0.010 A 
ATOM      3  C   LIG d   1       3.217  -0.640 -10.805  0.00  0.00     0.024 A 
ATOM      4  C   LIG d   1       4.292   0.146 -10.371  0.00  0.00    -0.049 A 
ATOM      5  C   LIG d   1       4.383   0.509  -9.060  0.00  0.00    -0.040 A 
ATOM      6  C   LIG d   1       3.417   0.095  -8.143  0.00  0.00     0.037 A 
ATOM      7  C   LIG d   1       2.345  -0.682  -8.554  0.00  0.00     0.003 A 
ATOM      8  C   LIG d   1       2.235  -1.057  -9.886  0.00  0.00     0.138 A 
ATOM      9  O   LIG d   1       1.330  -1.790 -10.565  0.00  0.00    -0.448 OA
ATOM     10  H   LIG d   1       5.047   0.466 -11.075  0.00  0.00     0.062 H 
ATOM     11  H   LIG d   1       5.210   1.119  -8.728  0.00  0.00     0.064 H 
ATOM     12  H   LIG d   1       1.598  -0.995  -7.839  0.00  0.00     0.067 H 
ENDROOT
BRANCH   6  13
ATOM     13  N   LIG d   1       3.525   0.471  -6.804  0.00  0.00    -0.281 N 
ATOM     14  C   LIG d   1       4.003  -0.402  -5.895  0.00  0.00     0.250 C 
ATOM     15  O   LIG d   1       4.260  -1.543  -6.225  0.00  0.00    -0.270 OA
ATOM     16  H   LIG d   1       3.258   1.362  -6.527  0.00  0.00     0.155 HD
BRANCH  14  17
ATOM     17  C   LIG d   1       4.213   0.028  -4.497  0.00  0.00     0.055 A 
ATOM     18  C   LIG d   1       5.507   0.262  -4.023  0.00  0.00     0.053 A 
ATOM     19  C   LIG d   1       5.696   0.660  -2.713  0.00  0.00    -0.043 A 
ATOM     20 CL   LIG d   1       6.872   0.049  -5.074  0.00  0.00    -0.083 Cl
ATOM     21  C   LIG d   1       4.610   0.834  -1.876  0.00  0.00    -0.060 A 
ATOM     22  H   LIG d   1       6.696   0.837  -2.343  0.00  0.00     0.063 H 
ATOM     23  C   LIG d   1       3.326   0.603  -2.341  0.00  0.00    -0.061 A 
ATOM     24  H   LIG d   1       4.763   1.148  -0.855  0.00  0.00     0.062 H 
ATOM     25  C   LIG d   1       3.122   0.202  -3.644  0.00  0.00    -0.048 A 
ATOM     26  H   LIG d   1       2.482   0.737  -1.681  0.00  0.00     0.062 H 
ATOM     27  H   LIG d   1       2.120   0.022  -4.004  0.00  0.00     0.062 H 
ENDBRANCH  14  17
ENDBRANCH   6  13
BRANCH   2  28
ATOM     28  C   LIG d   1       3.570  -0.999 -13.368  0.00  0.00    -0.035 C 
ATOM     29  H   LIG d   1       2.979  -1.431 -14.176  0.00  0.00     0.028 H 
ATOM     30  H   LIG d   1       3.728   0.062 -13.560  0.00  0.00     0.028 H 
ATOM     31  H   LIG d   1       4.534  -1.506 -13.311  0.00  0.00     0.028 H 
ENDBRANCH   2  28
BRANCH   1  32
ATOM     32  C   LIG d   1       0.937  -2.575 -12.909  0.00  0.00     0.375 C 
ATOM     33  O   LIG d   1       1.081  -3.776 -13.044  0.00  0.00    -0.241 OA
BRANCH  32  34
ATOM     34  O   LIG d   1       0.094  -1.901 -13.718  0.00  0.00    -0.459 OA
BRANCH  34  35
ATOM     35  C   LIG d   1      -1.328  -2.067 -13.473  0.00  0.00     0.090 C 
ATOM     36  H   LIG d   1      -1.791  -2.550 -14.333  0.00  0.00     0.070 H 
ATOM     37  H   LIG d   1      -1.473  -2.686 -12.587  0.00  0.00     0.070 H 
BRANCH  35  38
ATOM     38  C   LIG d   1      -1.970  -0.697 -13.249  0.00  0.00    -0.031 C 
ATOM     39  H   LIG d   1      -1.235  -0.017 -12.817  0.00  0.00     0.026 H 
ATOM     40  H   LIG d   1      -2.318  -0.299 -14.202  0.00  0.00     0.026 H 
ATOM     41  H   LIG d   1      -2.816  -0.799 -12.568  0.00  0.00     0.026 H 
ENDBRANCH  35  38
ENDBRANCH  34  35
ENDBRANCH  32  34
ENDBRANCH   1  32
TORSDOF 7
ENDMDL
MODEL 4
REMARK VINA RESULT:      -6.4      1.815      2.198
REMARK  7 active torsions:
REMARK  status: ('A' for Active; 'I' for Inactive)
REMARK    1  A    between atoms: C_1  and  C_2 
REMARK    2  A    between atoms: C_2  and  O_3 
REMARK    3  A    between atoms: O_3  and  C_4 
REMARK    4  A    between atoms: C_4  and  C_6 
REMARK    5  A    between atoms: C_7  and  C_25 
REMARK    6  A    between atoms: C_11  and  N_15 
REMARK       I    between atoms: N_15  and  C_16 
REMARK    7  A    between atoms: C_16  and  C_18 
ROOT
ATOM      1  C   LIG d   1       4.735  -8.662  -6.624  0.00  0.00     0.215 A 
ATOM      2  C   LIG d   1       4.742  -7.864  -7.724  0.00  0.00     0.010 A 
ATOM      3  C   LIG d   1       4.660  -6.526  -7.263  0.00  0.00     0.024 A 
ATOM      4  C   LIG d   1       4.626  -5.282  -7.904  0.00  0.00    -0.049 A 
ATOM      5  C   LIG d   1       4.537  -4.139  -7.167  0.00  0.00    -0.040 A 
ATOM      6  C   LIG d   1       4.489  -4.199  -5.774  0.00  0.00     0.037 A 
ATOM      7  C   LIG d   1       4.520  -5.422  -5.121  0.00  0.00     0.003 A 
ATOM      8  C   LIG d   1       4.606  -6.595  -5.857  0.00  0.00     0.138 A 
ATOM      9  O   LIG d   1       4.654  -7.898  -5.513  0.00  0.00    -0.448 OA
ATOM     10  H   LIG d   1       4.667  -5.228  -8.983  0.00  0.00     0.062 H 
ATOM     11  H   LIG d   1       4.507  -3.181  -7.663  0.00  0.00     0.064 H 
ATOM     12  H   LIG d   1       4.478  -5.460  -4.042  0.00  0.00     0.067 H 
ENDROOT
BRANCH   6  13
ATOM     13  N   LIG d   1       4.402  -3.020  -5.032  0.00  0.00    -0.281 N 
ATOM     14  C   LIG d   1       5.481  -2.561  -4.367  0.00  0.00     0.250 C 
ATOM     15  O   LIG d   1       6.505  -3.215  -4.345  0.00  0.00    -0.270 OA
ATOM     16  H   LIG d   1       3.565  -2.531  -4.995  0.00  0.00     0.155 HD
BRANCH  14  17
ATOM     17  C   LIG d   1       5.418  -1.262  -3.666  0.00  0.00     0.055 A 
ATOM     18  C   LIG d   1       4.570  -1.099  -2.567  0.00  0.00     0.053 A 
ATOM     19  C   LIG d   1       4.513   0.121  -1.920  0.00  0.00    -0.043 A 
ATOM     20 CL   LIG d   1       3.586  -2.420  -2.022  0.00  0.00    -0.083 Cl
ATOM     21  C   LIG d   1       5.300   1.173  -2.350  0.00  0.00    -0.060 A 
ATOM     22  H   LIG d   1       3.854   0.251  -1.073  0.00  0.00     0.063 H 
ATOM     23  C   LIG d   1       6.142   1.017  -3.438  0.00  0.00    -0.061 A 
ATOM     24  H   LIG d   1       5.254   2.123  -1.839  0.00  0.00     0.062 H 
ATOM     25  C   LIG d   1       6.206  -0.193  -4.097  0.00  0.00    -0.048 A 
ATOM     26  H   LIG d   1       6.750   1.844  -3.771  0.00  0.00     0.062 H 
ATOM     27  H   LIG d   1       6.863  -0.313  -4.946  0.00  0.00     0.062 H 
ENDBRANCH  14  17
ENDBRANCH   6  13
BRANCH   2  28
ATOM     28  C   LIG d   1       4.821  -8.315  -9.159  0.00  0.00    -0.035 C 
ATOM     29  H   LIG d   1       5.785  -8.027  -9.578  0.00  0.00     0.028 H 
ATOM     30  H   LIG d   1       4.714  -9.399  -9.206  0.00  0.00     0.028 H 
ATOM     31  H   LIG d   1       4.021  -7.846  -9.732  0.00  0.00     0.028 H 
ENDBRANCH   2  28
BRANCH   1  32
ATOM     32  C   LIG d   1       4.806 -10.127  -6.640  0.00  0.00     0.375 C 
ATOM     33  O   LIG d   1       5.676 -10.686  -7.281  0.00  0.00    -0.241 OA
BRANCH  32  34
ATOM     34  O   LIG d   1       3.907 -10.853  -5.946  0.00  0.00    -0.459 OA
BRANCH  34  35
ATOM     35  C   LIG d   1       4.319 -11.341  -4.642  0.00  0.00     0.090 C 
ATOM     36  H   LIG d   1       4.437 -12.423  -4.679  0.00  0.00     0.070 H 
ATOM     37  H   LIG d   1       5.268 -10.881  -4.366  0.00  0.00     0.070 H 
BRANCH  35  38
ATOM     38  C   LIG d   1       3.256 -10.979  -3.603  0.00  0.00    -0.031 C 
ATOM     39  H   LIG d   1       3.703 -10.982  -2.609  0.00  0.00     0.026 H 
ATOM     40  H   LIG d   1       2.859  -9.987  -3.820  0.00  0.00     0.026 H 
ATOM     41  H   LIG d   1       2.447 -11.710  -3.641  0.00  0.00     0.026 H 
ENDBRANCH  35  38
ENDBRANCH  34  35
ENDBRANCH  32  34
ENDBRANCH   1  32
TORSDOF 7
ENDMDL
MODEL 5
REMARK VINA RESULT:      -6.4      6.665      8.246
REMARK  7 active torsions:
REMARK  status: ('A' for Active; 'I' for Inactive)
REMARK    1  A    between atoms: C_1  and  C_2 
REMARK    2  A    between atoms: C_2  and  O_3 
REMARK    3  A    between atoms: O_3  and  C_4 
REMARK    4  A    between atoms: C_4  and  C_6 
REMARK    5  A    between atoms: C_7  and  C_25 
REMARK    6  A    between atoms: C_11  and  N_15 
REMARK       I    between atoms: N_15  and  C_16 
REMARK    7  A    between atoms: C_16  and  C_18 
ROOT
ATOM      1  C   LIG d   1       4.288  -0.640 -12.495  0.00  0.00     0.215 A 
ATOM      2  C   LIG d   1       3.038  -1.021 -12.123  0.00  0.00     0.010 A 
ATOM      3  C   LIG d   1       2.911  -0.725 -10.742  0.00  0.00     0.024 A 
ATOM      4  C   LIG d   1       1.879  -0.884  -9.809  0.00  0.00    -0.049 A 
ATOM      5  C   LIG d   1       2.067  -0.497  -8.516  0.00  0.00    -0.040 A 
ATOM      6  C   LIG d   1       3.278   0.068  -8.116  0.00  0.00     0.037 A 
ATOM      7  C   LIG d   1       4.312   0.232  -9.025  0.00  0.00     0.003 A 
ATOM      8  C   LIG d   1       4.139  -0.161 -10.344  0.00  0.00     0.138 A 
ATOM      9  O   LIG d   1       4.940  -0.127 -11.428  0.00  0.00    -0.448 OA
ATOM     10  H   LIG d   1       0.937  -1.316 -10.114  0.00  0.00     0.062 H 
ATOM     11  H   LIG d   1       1.271  -0.624  -7.797  0.00  0.00     0.064 H 
ATOM     12  H   LIG d   1       5.249   0.666  -8.706  0.00  0.00     0.067 H 
ENDROOT
BRANCH   6  13
ATOM     13  N   LIG d   1       3.454   0.463  -6.789  0.00  0.00    -0.281 N 
ATOM     14  C   LIG d   1       3.924  -0.414  -5.880  0.00  0.00     0.250 C 
ATOM     15  O   LIG d   1       4.115  -1.572  -6.196  0.00  0.00    -0.270 OA
ATOM     16  H   LIG d   1       3.239   1.370  -6.521  0.00  0.00     0.155 HD
BRANCH  14  17
ATOM     17  C   LIG d   1       4.206   0.031  -4.501  0.00  0.00     0.055 A 
ATOM     18  C   LIG d   1       5.525   0.222  -4.081  0.00  0.00     0.053 A 
ATOM     19  C   LIG d   1       5.782   0.634  -2.787  0.00  0.00    -0.043 A 
ATOM     20 CL   LIG d   1       6.838  -0.063  -5.180  0.00  0.00    -0.083 Cl
ATOM     21  C   LIG d   1       4.737   0.866  -1.913  0.00  0.00    -0.060 A 
ATOM     22  H   LIG d   1       6.801   0.778  -2.460  0.00  0.00     0.063 H 
ATOM     23  C   LIG d   1       3.428   0.678  -2.322  0.00  0.00    -0.061 A 
ATOM     24  H   LIG d   1       4.942   1.191  -0.904  0.00  0.00     0.062 H 
ATOM     25  C   LIG d   1       3.157   0.263  -3.609  0.00  0.00    -0.048 A 
ATOM     26  H   LIG d   1       2.616   0.857  -1.632  0.00  0.00     0.062 H 
ATOM     27  H   LIG d   1       2.135   0.116  -3.927  0.00  0.00     0.062 H 
ENDBRANCH  14  17
ENDBRANCH   6  13
BRANCH   2  28
ATOM     28  C   LIG d   1       1.988  -1.639 -13.008  0.00  0.00    -0.035 C 
ATOM     29  H   LIG d   1       1.337  -0.857 -13.400  0.00  0.00     0.028 H 
ATOM     30  H   LIG d   1       2.470  -2.159 -13.836  0.00  0.00     0.028 H 
ATOM     31  H   LIG d   1       1.396  -2.348 -12.429  0.00  0.00     0.028 H 
ENDBRANCH   2  28
BRANCH   1  32
ATOM     32  C   LIG d   1       4.844  -0.765 -13.847  0.00  0.00     0.375 C 
ATOM     33  O   LIG d   1       5.748  -1.550 -14.062  0.00  0.00    -0.241 OA
BRANCH  32  34
ATOM     34  O   LIG d   1       4.353  -0.009 -14.850  0.00  0.00    -0.459 OA
BRANCH  34  35
ATOM     35  C   LIG d   1       4.404  -0.574 -16.187  0.00  0.00     0.090 C 
ATOM     36  H   LIG d   1       4.683   0.202 -16.899  0.00  0.00     0.070 H 
ATOM     37  H   LIG d   1       5.144  -1.374 -16.215  0.00  0.00     0.070 H 
BRANCH  35  38
ATOM     38  C   LIG d   1       3.030  -1.135 -16.556  0.00  0.00    -0.031 C 
ATOM     39  H   LIG d   1       3.138  -2.164 -16.900  0.00  0.00     0.026 H 
ATOM     40  H   LIG d   1       2.381  -1.111 -15.680  0.00  0.00     0.026 H 
ATOM     41  H   LIG d   1       2.591  -0.530 -17.350  0.00  0.00     0.026 H 
ENDBRANCH  35  38
ENDBRANCH  34  35
ENDBRANCH  32  34
ENDBRANCH   1  32
TORSDOF 7
ENDMDL
MODEL 6
REMARK VINA RESULT:      -6.4      7.034     11.472
REMARK  7 active torsions:
REMARK  status: ('A' for Active; 'I' for Inactive)
REMARK    1  A    between atoms: C_1  and  C_2 
REMARK    2  A    between atoms: C_2  and  O_3 
REMARK    3  A    between atoms: O_3  and  C_4 
REMARK    4  A    between atoms: C_4  and  C_6 
REMARK    5  A    between atoms: C_7  and  C_25 
REMARK    6  A    between atoms: C_11  and  N_15 
REMARK       I    between atoms: N_15  and  C_16 
REMARK    7  A    between atoms: C_16  and  C_18 
ROOT
ATOM      1  C   LIG d   1      11.189   5.520  -3.680  0.00  0.00     0.215 A 
ATOM      2  C   LIG d   1      10.864   5.284  -4.978  0.00  0.00     0.010 A 
ATOM      3  C   LIG d   1      10.071   4.109  -4.997  0.00  0.00     0.024 A 
ATOM      4  C   LIG d   1       9.449   3.377  -6.016  0.00  0.00    -0.049 A 
ATOM      5  C   LIG d   1       8.739   2.254  -5.710  0.00  0.00    -0.040 A 
ATOM      6  C   LIG d   1       8.618   1.833  -4.386  0.00  0.00     0.037 A 
ATOM      7  C   LIG d   1       9.228   2.544  -3.363  0.00  0.00     0.003 A 
ATOM      8  C   LIG d   1       9.958   3.686  -3.658  0.00  0.00     0.138 A 
ATOM      9  O   LIG d   1      10.645   4.563  -2.897  0.00  0.00    -0.448 OA
ATOM     10  H   LIG d   1       9.535   3.701  -7.043  0.00  0.00     0.062 H 
ATOM     11  H   LIG d   1       8.264   1.689  -6.498  0.00  0.00     0.064 H 
ATOM     12  H   LIG d   1       9.133   2.209  -2.341  0.00  0.00     0.067 H 
ENDROOT
BRANCH   6  13
ATOM     13  N   LIG d   1       7.885   0.684  -4.088  0.00  0.00    -0.281 N 
ATOM     14  C   LIG d   1       6.622   0.790  -3.628  0.00  0.00     0.250 C 
ATOM     15  O   LIG d   1       6.151   1.886  -3.394  0.00  0.00    -0.270 OA
ATOM     16  H   LIG d   1       8.283  -0.192  -4.212  0.00  0.00     0.155 HD
BRANCH  14  17
ATOM     17  C   LIG d   1       5.811  -0.425  -3.410  0.00  0.00     0.055 A 
ATOM     18  C   LIG d   1       4.839  -0.448  -2.405  0.00  0.00     0.053 A 
ATOM     19  C   LIG d   1       4.088  -1.590  -2.203  0.00  0.00    -0.043 A 
ATOM     20 CL   LIG d   1       4.582   0.950  -1.410  0.00  0.00    -0.083 Cl
ATOM     21  C   LIG d   1       4.289  -2.703  -2.998  0.00  0.00    -0.060 A 
ATOM     22  H   LIG d   1       3.340  -1.612  -1.424  0.00  0.00     0.063 H 
ATOM     23  C   LIG d   1       5.250  -2.686  -3.995  0.00  0.00    -0.061 A 
ATOM     24  H   LIG d   1       3.697  -3.592  -2.839  0.00  0.00     0.062 H 
ATOM     25  C   LIG d   1       6.011  -1.555  -4.205  0.00  0.00    -0.048 A 
ATOM     26  H   LIG d   1       5.405  -3.560  -4.609  0.00  0.00     0.062 H 
ATOM     27  H   LIG d   1       6.760  -1.543  -4.982  0.00  0.00     0.062 H 
ENDBRANCH  14  17
ENDBRANCH   6  13
BRANCH   2  28
ATOM     28  C   LIG d   1      11.269   6.112  -6.170  0.00  0.00    -0.035 C 
ATOM     29  H   LIG d   1      10.381   6.382  -6.743  0.00  0.00     0.028 H 
ATOM     30  H   LIG d   1      11.770   7.017  -5.829  0.00  0.00     0.028 H 
ATOM     31  H   LIG d   1      11.946   5.535  -6.799  0.00  0.00     0.028 H 
ENDBRANCH   2  28
BRANCH   1  32
ATOM     32  C   LIG d   1      12.004   6.642  -3.203  0.00  0.00     0.375 C 
ATOM     33  O   LIG d   1      13.218   6.577  -3.253  0.00  0.00    -0.241 OA
BRANCH  32  34
ATOM     34  O   LIG d   1      11.407   7.745  -2.706  0.00  0.00    -0.459 OA
BRANCH  34  35
ATOM     35  C   LIG d   1      10.921   7.673  -1.339  0.00  0.00     0.090 C 
ATOM     36  H   LIG d   1      11.261   6.744  -0.881  0.00  0.00     0.070 H 
ATOM     37  H   LIG d   1      11.307   8.520  -0.772  0.00  0.00     0.070 H 
BRANCH  35  38
ATOM     38  C   LIG d   1       9.392   7.712  -1.339  0.00  0.00    -0.031 C 
ATOM     39  H   LIG d   1       9.008   6.931  -1.996  0.00  0.00     0.026 H 
ATOM     40  H   LIG d   1       9.025   7.549  -0.326  0.00  0.00     0.026 H 
ATOM     41  H   LIG d   1       9.053   8.686  -1.695  0.00  0.00     0.026 H 
ENDBRANCH  35  38
ENDBRANCH  34  35
ENDBRANCH  32  34
ENDBRANCH   1  32
TORSDOF 7
ENDMDL
MODEL 7
REMARK VINA RESULT:      -6.3      7.241     11.437
REMARK  7 active torsions:
REMARK  status: ('A' for Active; 'I' for Inactive)
REMARK    1  A    between atoms: C_1  and  C_2 
REMARK    2  A    between atoms: C_2  and  O_3 
REMARK    3  A    between atoms: O_3  and  C_4 
REMARK    4  A    between atoms: C_4  and  C_6 
REMARK    5  A    between atoms: C_7  and  C_25 
REMARK    6  A    between atoms: C_11  and  N_15 
REMARK       I    between atoms: N_15  and  C_16 
REMARK    7  A    between atoms: C_16  and  C_18 
ROOT
ATOM      1  C   LIG d   1      10.422   5.474  -6.466  0.00  0.00     0.215 A 
ATOM      2  C   LIG d   1      10.854   5.373  -5.182  0.00  0.00     0.010 A 
ATOM      3  C   LIG d   1      10.233   4.225  -4.628  0.00  0.00     0.024 A 
ATOM      4  C   LIG d   1      10.279   3.612  -3.369  0.00  0.00    -0.049 A 
ATOM      5  C   LIG d   1       9.544   2.488  -3.133  0.00  0.00    -0.040 A 
ATOM      6  C   LIG d   1       8.752   1.938  -4.141  0.00  0.00     0.037 A 
ATOM      7  C   LIG d   1       8.692   2.531  -5.393  0.00  0.00     0.003 A 
ATOM      8  C   LIG d   1       9.431   3.677  -5.648  0.00  0.00     0.138 A 
ATOM      9  O   LIG d   1       9.573   4.458  -6.738  0.00  0.00    -0.448 OA
ATOM     10  H   LIG d   1      10.894   4.031  -2.586  0.00  0.00     0.062 H 
ATOM     11  H   LIG d   1       9.577   2.020  -2.161  0.00  0.00     0.064 H 
ATOM     12  H   LIG d   1       8.073   2.101  -6.167  0.00  0.00     0.067 H 
ENDROOT
BRANCH   6  13
ATOM     13  N   LIG d   1       8.008   0.785  -3.886  0.00  0.00    -0.281 N 
ATOM     14  C   LIG d   1       6.708   0.883  -3.542  0.00  0.00     0.250 C 
ATOM     15  O   LIG d   1       6.206   1.977  -3.372  0.00  0.00    -0.270 OA
ATOM     16  H   LIG d   1       8.426  -0.088  -3.957  0.00  0.00     0.155 HD
BRANCH  14  17
ATOM     17  C   LIG d   1       5.895  -0.338  -3.371  0.00  0.00     0.055 A 
ATOM     18  C   LIG d   1       4.880  -0.376  -2.411  0.00  0.00     0.053 A 
ATOM     19  C   LIG d   1       4.127  -1.524  -2.254  0.00  0.00    -0.043 A 
ATOM     20 CL   LIG d   1       4.571   1.011  -1.415  0.00  0.00    -0.083 Cl
ATOM     21  C   LIG d   1       4.369  -2.628  -3.050  0.00  0.00    -0.060 A 
ATOM     22  H   LIG d   1       3.345  -1.557  -1.509  0.00  0.00     0.063 H 
ATOM     23  C   LIG d   1       5.373  -2.596  -4.002  0.00  0.00    -0.061 A 
ATOM     24  H   LIG d   1       3.775  -3.521  -2.925  0.00  0.00     0.062 H 
ATOM     25  C   LIG d   1       6.136  -1.459  -4.168  0.00  0.00    -0.048 A 
ATOM     26  H   LIG d   1       5.560  -3.463  -4.618  0.00  0.00     0.062 H 
ATOM     27  H   LIG d   1       6.919  -1.436  -4.911  0.00  0.00     0.062 H 
ENDBRANCH  14  17
ENDBRANCH   6  13
BRANCH   2  28
ATOM     28  C   LIG d   1      11.809   6.302  -4.480  0.00  0.00    -0.035 C 
ATOM     29  H   LIG d   1      12.078   5.883  -3.510  0.00  0.00     0.028 H 
ATOM     30  H   LIG d   1      12.708   6.424  -5.085  0.00  0.00     0.028 H 
ATOM     31  H   LIG d   1      11.333   7.272  -4.337  0.00  0.00     0.028 H 
ENDBRANCH   2  28
BRANCH   1  32
ATOM     32  C   LIG d   1      10.818   6.522  -7.412  0.00  0.00     0.375 C 
ATOM     33  O   LIG d   1      11.849   6.409  -8.049  0.00  0.00    -0.241 OA
BRANCH  32  34
ATOM     34  O   LIG d   1      10.041   7.612  -7.574  0.00  0.00    -0.459 OA
BRANCH  34  35
ATOM     35  C   LIG d   1      10.504   8.849  -6.969  0.00  0.00     0.090 C 
ATOM     36  H   LIG d   1      11.449   8.670  -6.457  0.00  0.00     0.070 H 
ATOM     37  H   LIG d   1      10.648   9.601  -7.745  0.00  0.00     0.070 H 
BRANCH  35  38
ATOM     38  C   LIG d   1       9.464   9.345  -5.964  0.00  0.00    -0.031 C 
ATOM     39  H   LIG d   1       9.451   8.684  -5.097  0.00  0.00     0.026 H 
ATOM     40  H   LIG d   1       9.721  10.356  -5.646  0.00  0.00     0.026 H 
ATOM     41  H   LIG d   1       8.480   9.351  -6.432  0.00  0.00     0.026 H 
ENDBRANCH  35  38
ENDBRANCH  34  35
ENDBRANCH  32  34
ENDBRANCH   1  32
TORSDOF 7
ENDMDL
MODEL 8
REMARK VINA RESULT:      -6.3      8.217     11.097
REMARK  7 active torsions:
REMARK  status: ('A' for Active; 'I' for Inactive)
REMARK    1  A    between atoms: C_1  and  C_2 
REMARK    2  A    between atoms: C_2  and  O_3 
REMARK    3  A    between atoms: O_3  and  C_4 
REMARK    4  A    between atoms: C_4  and  C_6 
REMARK    5  A    between atoms: C_7  and  C_25 
REMARK    6  A    between atoms: C_11  and  N_15 
REMARK       I    between atoms: N_15  and  C_16 
REMARK    7  A    between atoms: C_16  and  C_18 
ROOT
ATOM      1  C   LIG d   1       8.652   1.640  -4.503  0.00  0.00     0.215 A 
ATOM      2  C   LIG d   1       8.825   2.575  -5.474  0.00  0.00     0.010 A 
ATOM      3  C   LIG d   1       9.373   3.723  -4.848  0.00  0.00     0.024 A 
ATOM      4  C   LIG d   1       9.762   4.986  -5.312  0.00  0.00    -0.049 A 
ATOM      5  C   LIG d   1      10.264   5.905  -4.440  0.00  0.00    -0.040 A 
ATOM      6  C   LIG d   1      10.403   5.594  -3.087  0.00  0.00     0.037 A 
ATOM      7  C   LIG d   1      10.022   4.350  -2.608  0.00  0.00     0.003 A 
ATOM      8  C   LIG d   1       9.506   3.404  -3.482  0.00  0.00     0.138 A 
ATOM      9  O   LIG d   1       9.061   2.142  -3.316  0.00  0.00    -0.448 OA
ATOM     10  H   LIG d   1       9.662   5.231  -6.359  0.00  0.00     0.062 H 
ATOM     11  H   LIG d   1      10.560   6.880  -4.799  0.00  0.00     0.064 H 
ATOM     12  H   LIG d   1      10.128   4.118  -1.559  0.00  0.00     0.067 H 
ENDROOT
BRANCH   6  13
ATOM     13  N   LIG d   1      10.922   6.545  -2.206  0.00  0.00    -0.281 N 
ATOM     14  C   LIG d   1      10.095   7.238  -1.398  0.00  0.00     0.250 C 
ATOM     15  O   LIG d   1       8.892   7.096  -1.495  0.00  0.00    -0.270 OA
ATOM     16  H   LIG d   1      11.878   6.706  -2.175  0.00  0.00     0.155 HD
BRANCH  14  17
ATOM     17  C   LIG d   1      10.652   8.169  -0.396  0.00  0.00     0.055 A 
ATOM     18  C   LIG d   1      11.102   7.687   0.836  0.00  0.00     0.053 A 
ATOM     19  C   LIG d   1      11.617   8.565   1.770  0.00  0.00    -0.043 A 
ATOM     20 CL   LIG d   1      11.009   5.991   1.194  0.00  0.00    -0.083 Cl
ATOM     21  C   LIG d   1      11.696   9.916   1.485  0.00  0.00    -0.060 A 
ATOM     22  H   LIG d   1      11.961   8.195   2.725  0.00  0.00     0.063 H 
ATOM     23  C   LIG d   1      11.251  10.399   0.266  0.00  0.00    -0.061 A 
ATOM     24  H   LIG d   1      12.102  10.597   2.217  0.00  0.00     0.062 H 
ATOM     25  C   LIG d   1      10.731   9.535  -0.674  0.00  0.00    -0.048 A 
ATOM     26  H   LIG d   1      11.312  11.456   0.051  0.00  0.00     0.062 H 
ATOM     27  H   LIG d   1      10.384   9.914  -1.625  0.00  0.00     0.062 H 
ENDBRANCH  14  17
ENDBRANCH   6  13
BRANCH   2  28
ATOM     28  C   LIG d   1       8.498   2.421  -6.936  0.00  0.00    -0.035 C 
ATOM     29  H   LIG d   1       7.428   2.571  -7.086  0.00  0.00     0.028 H 
ATOM     30  H   LIG d   1       9.052   3.161  -7.512  0.00  0.00     0.028 H 
ATOM     31  H   LIG d   1       8.774   1.420  -7.267  0.00  0.00     0.028 H 
ENDBRANCH   2  28
BRANCH   1  32
ATOM     32  C   LIG d   1       8.108   0.295  -4.711  0.00  0.00     0.375 C 
ATOM     33  O   LIG d   1       8.847  -0.616  -5.034  0.00  0.00    -0.241 OA
BRANCH  32  34
ATOM     34  O   LIG d   1       6.789   0.068  -4.546  0.00  0.00    -0.459 OA
BRANCH  34  35
ATOM     35  C   LIG d   1       6.326  -0.170  -3.190  0.00  0.00     0.090 C 
ATOM     36  H   LIG d   1       5.740  -1.088  -3.162  0.00  0.00     0.070 H 
ATOM     37  H   LIG d   1       7.184  -0.266  -2.525  0.00  0.00     0.070 H 
BRANCH  35  38
ATOM     38  C   LIG d   1       5.457   1.004  -2.735  0.00  0.00    -0.031 C 
ATOM     39  H   LIG d   1       5.467   1.064  -1.647  0.00  0.00     0.026 H 
ATOM     40  H   LIG d   1       5.851   1.931  -3.154  0.00  0.00     0.026 H 
ATOM     41  H   LIG d   1       4.434   0.855  -3.082  0.00  0.00     0.026 H 
ENDBRANCH  35  38
ENDBRANCH  34  35
ENDBRANCH  32  34
ENDBRANCH   1  32
TORSDOF 7
ENDMDL
MODEL 9
REMARK VINA RESULT:      -6.2      3.597      4.383
REMARK  7 active torsions:
REMARK  status: ('A' for Active; 'I' for Inactive)
REMARK    1  A    between atoms: C_1  and  C_2 
REMARK    2  A    between atoms: C_2  and  O_3 
REMARK    3  A    between atoms: O_3  and  C_4 
REMARK    4  A    between atoms: C_4  and  C_6 
REMARK    5  A    between atoms: C_7  and  C_25 
REMARK    6  A    between atoms: C_11  and  N_15 
REMARK       I    between atoms: N_15  and  C_16 
REMARK    7  A    between atoms: C_16  and  C_18 
ROOT
ATOM      1  C   LIG d   1       4.666  -7.690  -5.849  0.00  0.00     0.215 A 
ATOM      2  C   LIG d   1       4.631  -7.872  -7.195  0.00  0.00     0.010 A 
ATOM      3  C   LIG d   1       4.313  -6.617  -7.773  0.00  0.00     0.024 A 
ATOM      4  C   LIG d   1       4.137  -6.175  -9.090  0.00  0.00    -0.049 A 
ATOM      5  C   LIG d   1       3.822  -4.871  -9.333  0.00  0.00    -0.040 A 
ATOM      6  C   LIG d   1       3.682  -3.970  -8.277  0.00  0.00     0.037 A 
ATOM      7  C   LIG d   1       3.851  -4.389  -6.967  0.00  0.00     0.003 A 
ATOM      8  C   LIG d   1       4.168  -5.714  -6.702  0.00  0.00     0.138 A 
ATOM      9  O   LIG d   1       4.389  -6.399  -5.562  0.00  0.00    -0.448 OA
ATOM     10  H   LIG d   1       4.249  -6.868  -9.912  0.00  0.00     0.062 H 
ATOM     11  H   LIG d   1       3.682  -4.534 -10.349  0.00  0.00     0.064 H 
ATOM     12  H   LIG d   1       3.737  -3.686  -6.155  0.00  0.00     0.067 H 
ENDROOT
BRANCH   6  13
ATOM     13  N   LIG d   1       3.363  -2.637  -8.542  0.00  0.00    -0.281 N 
ATOM     14  C   LIG d   1       4.341  -1.713  -8.620  0.00  0.00     0.250 C 
ATOM     15  O   LIG d   1       5.491  -2.022  -8.377  0.00  0.00    -0.270 OA
ATOM     16  H   LIG d   1       2.438  -2.377  -8.670  0.00  0.00     0.155 HD
BRANCH  14  17
ATOM     17  C   LIG d   1       4.014  -0.323  -9.000  0.00  0.00     0.055 A 
ATOM     18  C   LIG d   1       3.478   0.555  -8.054  0.00  0.00     0.053 A 
ATOM     19  C   LIG d   1       3.170   1.852  -8.418  0.00  0.00    -0.043 A 
ATOM     20 CL   LIG d   1       3.193   0.016  -6.428  0.00  0.00    -0.083 Cl
ATOM     21  C   LIG d   1       3.400   2.283  -9.711  0.00  0.00    -0.060 A 
ATOM     22  H   LIG d   1       2.751   2.531  -7.690  0.00  0.00     0.063 H 
ATOM     23  C   LIG d   1       3.931   1.418 -10.652  0.00  0.00    -0.061 A 
ATOM     24  H   LIG d   1       3.162   3.299  -9.990  0.00  0.00     0.062 H 
ATOM     25  C   LIG d   1       4.239   0.120 -10.305  0.00  0.00    -0.048 A 
ATOM     26  H   LIG d   1       4.105   1.760 -11.661  0.00  0.00     0.062 H 
ATOM     27  H   LIG d   1       4.653  -0.554 -11.040  0.00  0.00     0.062 H 
ENDBRANCH  14  17
ENDBRANCH   6  13
BRANCH   2  28
ATOM     28  C   LIG d   1       4.882  -9.162  -7.932  0.00  0.00    -0.035 C 
ATOM     29  H   LIG d   1       4.581 -10.003  -7.307  0.00  0.00     0.028 H 
ATOM     30  H   LIG d   1       4.304  -9.171  -8.856  0.00  0.00     0.028 H 
ATOM     31  H   LIG d   1       5.944  -9.245  -8.166  0.00  0.00     0.028 H 
ENDBRANCH   2  28
BRANCH   1  32
ATOM     32  C   LIG d   1       4.960  -8.733  -4.861  0.00  0.00     0.375 C 
ATOM     33  O   LIG d   1       6.112  -8.967  -4.549  0.00  0.00    -0.241 OA
BRANCH  32  34
ATOM     34  O   LIG d   1       3.953  -9.432  -4.299  0.00  0.00    -0.459 OA
BRANCH  34  35
ATOM     35  C   LIG d   1       4.182 -10.848  -4.069  0.00  0.00     0.090 C 
ATOM     36  H   LIG d   1       5.241 -11.018  -3.880  0.00  0.00     0.070 H 
ATOM     37  H   LIG d   1       3.602 -11.174  -3.205  0.00  0.00     0.070 H 
BRANCH  35  38
ATOM     38  C   LIG d   1       3.749 -11.641  -5.303  0.00  0.00    -0.031 C 
ATOM     39  H   LIG d   1       2.749 -11.329  -5.604  0.00  0.00     0.026 H 
ATOM     40  H   LIG d   1       4.449 -11.456  -6.118  0.00  0.00     0.026 H 
ATOM     41  H   LIG d   1       3.741 -12.706  -5.066  0.00  0.00     0.026 H 
ENDBRANCH  35  38
ENDBRANCH  34  35
ENDBRANCH  32  34
ENDBRANCH   1  32
TORSDOF 7
ENDMDL
