MODEL 1
REMARK VINA RESULT:      -5.4      0.000      0.000
REMARK  4 active torsions:
REMARK  status: ('A' for Active; 'I' for Inactive)
REMARK    1  A    between atoms: C_5  and  C_7 
REMARK    2  A    between atoms: C_7  and  C_8 
REMARK    3  A    between atoms: C_9  and  N_15 
REMARK    4  A    between atoms: C_13  and  N_14 
ROOT
ATOM      1  C   LIG d   1       5.686  -2.034  -4.496  0.00  0.00     0.005 C 
ATOM      2  H   LIG d   1       6.739  -1.777  -4.606  0.00  0.00     0.036 H 
ATOM      3  H   LIG d   1       5.597  -2.992  -3.983  0.00  0.00     0.036 H 
ENDROOT
BRANCH   1   4
ATOM      4  C   LIG d   1       4.990  -0.967  -3.690  0.00  0.00    -0.025 A 
ATOM      5  C   LIG d   1       5.694   0.142  -3.256  0.00  0.00     0.044 A 
ATOM      6  C   LIG d   1       5.055   1.121  -2.517  0.00  0.00    -0.043 A 
ATOM      7 CL   LIG d   1       7.379   0.306  -3.639  0.00  0.00    -0.083 Cl
ATOM      8  C   LIG d   1       3.713   0.991  -2.213  0.00  0.00    -0.060 A 
ATOM      9  H   LIG d   1       5.604   1.988  -2.178  0.00  0.00     0.063 H 
ATOM     10  C   LIG d   1       3.009  -0.117  -2.647  0.00  0.00    -0.061 A 
ATOM     11  H   LIG d   1       3.214   1.756  -1.636  0.00  0.00     0.062 H 
ATOM     12  C   LIG d   1       3.648  -1.096  -3.385  0.00  0.00    -0.057 A 
ATOM     13  H   LIG d   1       1.962  -0.220  -2.404  0.00  0.00     0.062 H 
ATOM     14  H   LIG d   1       3.098  -1.961  -3.724  0.00  0.00     0.062 H 
ENDBRANCH   1   4
BRANCH   1  15
ATOM     15  C   LIG d   1       5.047  -2.131  -5.857  0.00  0.00     0.037 A 
ATOM     16  C   LIG d   1       5.095  -1.157  -6.865  0.00  0.00     0.143 A 
ATOM     17  N   LIG d   1       4.427  -1.603  -7.903  0.00  0.00    -0.157 NA
ATOM     18  N   LIG d   1       3.921  -2.872  -7.589  0.00  0.00    -0.262 N 
ATOM     19  C   LIG d   1       4.313  -3.178  -6.326  0.00  0.00     0.117 A 
ATOM     20  H   LIG d   1       3.384  -3.431  -8.172  0.00  0.00     0.190 HD
BRANCH  16  21
ATOM     21  N   LIG d   1       5.748   0.078  -6.781  0.00  0.00    -0.342 N 
ATOM     22  H   LIG d   1       6.469   0.203  -6.144  0.00  0.00     0.144 HD
ATOM     23  H   LIG d   1       5.479   0.809  -7.358  0.00  0.00     0.144 HD
ENDBRANCH  16  21
BRANCH  19  24
ATOM     24  N   LIG d   1       4.020  -4.350  -5.635  0.00  0.00    -0.343 N 
ATOM     25  H   LIG d   1       3.124  -4.503  -5.297  0.00  0.00     0.144 HD
ATOM     26  H   LIG d   1       4.713  -5.014  -5.491  0.00  0.00     0.144 HD
ENDBRANCH  19  24
ENDBRANCH   1  15
TORSDOF 4
ENDMDL
MODEL 2
REMARK VINA RESULT:      -5.3      2.356      3.966
REMARK  4 active torsions:
REMARK  status: ('A' for Active; 'I' for Inactive)
REMARK    1  A    between atoms: C_5  and  C_7 
REMARK    2  A    between atoms: C_7  and  C_8 
REMARK    3  A    between atoms: C_9  and  N_15 
REMARK    4  A    between atoms: C_13  and  N_14 
ROOT
ATOM      1  C   LIG d   1       7.129  -0.650  -3.736  0.00  0.00     0.005 C 
ATOM      2  H   LIG d   1       7.829  -0.545  -2.907  0.00  0.00     0.036 H 
ATOM      3  H   LIG d   1       7.189  -1.662  -4.136  0.00  0.00     0.036 H 
ENDROOT
BRANCH   1   4
ATOM      4  C   LIG d   1       5.728  -0.386  -3.247  0.00  0.00    -0.025 A 
ATOM      5  C   LIG d   1       4.757  -1.364  -3.368  0.00  0.00     0.044 A 
ATOM      6  C   LIG d   1       3.471  -1.121  -2.920  0.00  0.00    -0.043 A 
ATOM      7 CL   LIG d   1       5.152  -2.896  -4.082  0.00  0.00    -0.083 Cl
ATOM      8  C   LIG d   1       3.157   0.099  -2.350  0.00  0.00    -0.060 A 
ATOM      9  H   LIG d   1       2.712  -1.884  -3.013  0.00  0.00     0.063 H 
ATOM     10  C   LIG d   1       4.128   1.076  -2.229  0.00  0.00    -0.061 A 
ATOM     11  H   LIG d   1       2.154   0.289  -2.000  0.00  0.00     0.062 H 
ATOM     12  C   LIG d   1       5.413   0.834  -2.678  0.00  0.00    -0.057 A 
ATOM     13  H   LIG d   1       3.881   2.031  -1.789  0.00  0.00     0.062 H 
ATOM     14  H   LIG d   1       6.171   1.598  -2.584  0.00  0.00     0.062 H 
ENDBRANCH   1   4
BRANCH   1  15
ATOM     15  C   LIG d   1       7.479   0.339  -4.817  0.00  0.00     0.037 A 
ATOM     16  C   LIG d   1       6.983   0.339  -6.130  0.00  0.00     0.143 A 
ATOM     17  N   LIG d   1       7.514   1.354  -6.771  0.00  0.00    -0.157 NA
ATOM     18  N   LIG d   1       8.373   2.030  -5.894  0.00  0.00    -0.262 N 
ATOM     19  C   LIG d   1       8.337   1.389  -4.697  0.00  0.00     0.117 A 
ATOM     20  H   LIG d   1       8.901   2.815  -6.106  0.00  0.00     0.190 HD
BRANCH  16  21
ATOM     21  N   LIG d   1       6.075  -0.582  -6.663  0.00  0.00    -0.342 N 
ATOM     22  H   LIG d   1       5.791  -0.505  -7.587  0.00  0.00     0.144 HD
ATOM     23  H   LIG d   1       5.727  -1.297  -6.108  0.00  0.00     0.144 HD
ENDBRANCH  16  21
BRANCH  19  24
ATOM     24  N   LIG d   1       9.049   1.741  -3.554  0.00  0.00    -0.343 N 
ATOM     25  H   LIG d   1       9.283   1.064  -2.900  0.00  0.00     0.144 HD
ATOM     26  H   LIG d   1       9.310   2.665  -3.412  0.00  0.00     0.144 HD
ENDBRANCH  19  24
ENDBRANCH   1  15
TORSDOF 4
ENDMDL
MODEL 3
REMARK VINA RESULT:      -5.3      2.079      2.641
REMARK  4 active torsions:
REMARK  status: ('A' for Active; 'I' for Inactive)
REMARK    1  A    between atoms: C_5  and  C_7 
REMARK    2  A    between atoms: C_7  and  C_8 
REMARK    3  A    between atoms: C_9  and  N_15 
REMARK    4  A    between atoms: C_13  and  N_14 
ROOT
ATOM      1  C   LIG d   1       4.860  -0.451  -6.468  0.00  0.00     0.005 C 
ATOM      2  H   LIG d   1       5.194   0.585  -6.435  0.00  0.00     0.036 H 
ATOM      3  H   LIG d   1       5.705  -1.099  -6.701  0.00  0.00     0.036 H 
ENDROOT
BRANCH   1   4
ATOM      4  C   LIG d   1       4.286  -0.836  -5.128  0.00  0.00    -0.025 A 
ATOM      5  C   LIG d   1       4.816  -1.907  -4.430  0.00  0.00     0.044 A 
ATOM      6  C   LIG d   1       4.290  -2.260  -3.201  0.00  0.00    -0.043 A 
ATOM      7 CL   LIG d   1       6.143  -2.807  -5.096  0.00  0.00    -0.083 Cl
ATOM      8  C   LIG d   1       3.234  -1.542  -2.670  0.00  0.00    -0.060 A 
ATOM      9  H   LIG d   1       4.703  -3.095  -2.654  0.00  0.00     0.063 H 
ATOM     10  C   LIG d   1       2.704  -0.473  -3.367  0.00  0.00    -0.061 A 
ATOM     11  H   LIG d   1       2.822  -1.817  -1.710  0.00  0.00     0.062 H 
ATOM     12  C   LIG d   1       3.230  -0.120  -4.597  0.00  0.00    -0.057 A 
ATOM     13  H   LIG d   1       1.876   0.084  -2.955  0.00  0.00     0.062 H 
ATOM     14  H   LIG d   1       2.816   0.716  -5.141  0.00  0.00     0.062 H 
ENDBRANCH   1   4
BRANCH   1  15
ATOM     15  C   LIG d   1       3.802  -0.605  -7.529  0.00  0.00     0.037 A 
ATOM     16  C   LIG d   1       3.037   0.429  -8.092  0.00  0.00     0.143 A 
ATOM     17  N   LIG d   1       2.227  -0.094  -8.981  0.00  0.00    -0.157 NA
ATOM     18  N   LIG d   1       2.438  -1.478  -9.011  0.00  0.00    -0.262 N 
ATOM     19  C   LIG d   1       3.411  -1.772  -8.110  0.00  0.00     0.117 A 
ATOM     20  H   LIG d   1       1.971  -2.115  -9.574  0.00  0.00     0.190 HD
BRANCH  16  21
ATOM     21  N   LIG d   1       3.128   1.787  -7.763  0.00  0.00    -0.342 N 
ATOM     22  H   LIG d   1       2.325   2.290  -7.557  0.00  0.00     0.144 HD
ATOM     23  H   LIG d   1       3.993   2.224  -7.743  0.00  0.00     0.144 HD
ENDBRANCH  16  21
BRANCH  19  24
ATOM     24  N   LIG d   1       3.917  -3.038  -7.830  0.00  0.00    -0.343 N 
ATOM     25  H   LIG d   1       4.040  -3.319  -6.909  0.00  0.00     0.144 HD
ATOM     26  H   LIG d   1       4.148  -3.639  -8.556  0.00  0.00     0.144 HD
ENDBRANCH  19  24
ENDBRANCH   1  15
TORSDOF 4
ENDMDL
MODEL 4
REMARK VINA RESULT:      -5.3      2.084      3.249
REMARK  4 active torsions:
REMARK  status: ('A' for Active; 'I' for Inactive)
REMARK    1  A    between atoms: C_5  and  C_7 
REMARK    2  A    between atoms: C_7  and  C_8 
REMARK    3  A    between atoms: C_9  and  N_15 
REMARK    4  A    between atoms: C_13  and  N_14 
ROOT
ATOM      1  C   LIG d   1       4.824  -0.378  -6.494  0.00  0.00     0.005 C 
ATOM      2  H   LIG d   1       5.140   0.663  -6.449  0.00  0.00     0.036 H 
ATOM      3  H   LIG d   1       5.680  -1.007  -6.740  0.00  0.00     0.036 H 
ENDROOT
BRANCH   1   4
ATOM      4  C   LIG d   1       4.265  -0.792  -5.157  0.00  0.00    -0.025 A 
ATOM      5  C   LIG d   1       4.815  -1.866  -4.479  0.00  0.00     0.044 A 
ATOM      6  C   LIG d   1       4.301  -2.246  -3.253  0.00  0.00    -0.043 A 
ATOM      7 CL   LIG d   1       6.150  -2.737  -5.168  0.00  0.00    -0.083 Cl
ATOM      8  C   LIG d   1       3.239  -1.552  -2.704  0.00  0.00    -0.060 A 
ATOM      9  H   LIG d   1       4.730  -3.084  -2.722  0.00  0.00     0.063 H 
ATOM     10  C   LIG d   1       2.690  -0.479  -3.381  0.00  0.00    -0.061 A 
ATOM     11  H   LIG d   1       2.838  -1.848  -1.746  0.00  0.00     0.062 H 
ATOM     12  C   LIG d   1       3.202  -0.100  -4.608  0.00  0.00    -0.057 A 
ATOM     13  H   LIG d   1       1.856   0.059  -2.955  0.00  0.00     0.062 H 
ATOM     14  H   LIG d   1       2.773   0.739  -5.136  0.00  0.00     0.062 H 
ENDBRANCH   1   4
BRANCH   1  15
ATOM     15  C   LIG d   1       3.764  -0.536  -7.552  0.00  0.00     0.037 A 
ATOM     16  C   LIG d   1       3.367  -1.741  -8.153  0.00  0.00     0.143 A 
ATOM     17  N   LIG d   1       2.420  -1.476  -9.021  0.00  0.00    -0.157 NA
ATOM     18  N   LIG d   1       2.186  -0.095  -9.013  0.00  0.00    -0.262 N 
ATOM     19  C   LIG d   1       3.023   0.465  -8.103  0.00  0.00     0.117 A 
ATOM     20  H   LIG d   1       1.541   0.378  -9.562  0.00  0.00     0.190 HD
BRANCH  16  21
ATOM     21  N   LIG d   1       3.890  -3.008  -7.871  0.00  0.00    -0.342 N 
ATOM     22  H   LIG d   1       4.636  -3.099  -7.257  0.00  0.00     0.144 HD
ATOM     23  H   LIG d   1       3.507  -3.794  -8.290  0.00  0.00     0.144 HD
ENDBRANCH  16  21
BRANCH  19  24
ATOM     24  N   LIG d   1       3.110   1.818  -7.787  0.00  0.00    -0.343 N 
ATOM     25  H   LIG d   1       2.442   2.227  -7.214  0.00  0.00     0.144 HD
ATOM     26  H   LIG d   1       3.838   2.353  -8.142  0.00  0.00     0.144 HD
ENDBRANCH  19  24
ENDBRANCH   1  15
TORSDOF 4
ENDMDL
MODEL 5
REMARK VINA RESULT:      -5.3      2.372      3.710
REMARK  4 active torsions:
REMARK  status: ('A' for Active; 'I' for Inactive)
REMARK    1  A    between atoms: C_5  and  C_7 
REMARK    2  A    between atoms: C_7  and  C_8 
REMARK    3  A    between atoms: C_9  and  N_15 
REMARK    4  A    between atoms: C_13  and  N_14 
ROOT
ATOM      1  C   LIG d   1       7.126  -0.679  -3.767  0.00  0.00     0.005 C 
ATOM      2  H   LIG d   1       7.835  -0.589  -2.945  0.00  0.00     0.036 H 
ATOM      3  H   LIG d   1       7.172  -1.687  -4.178  0.00  0.00     0.036 H 
ENDROOT
BRANCH   1   4
ATOM      4  C   LIG d   1       5.733  -0.405  -3.262  0.00  0.00    -0.025 A 
ATOM      5  C   LIG d   1       4.754  -1.377  -3.369  0.00  0.00     0.044 A 
ATOM      6  C   LIG d   1       3.476  -1.126  -2.905  0.00  0.00    -0.043 A 
ATOM      7 CL   LIG d   1       5.131  -2.913  -4.085  0.00  0.00    -0.083 Cl
ATOM      8  C   LIG d   1       3.177   0.098  -2.334  0.00  0.00    -0.060 A 
ATOM      9  H   LIG d   1       2.711  -1.884  -2.987  0.00  0.00     0.063 H 
ATOM     10  C   LIG d   1       4.154   1.069  -2.227  0.00  0.00    -0.061 A 
ATOM     11  H   LIG d   1       2.179   0.294  -1.971  0.00  0.00     0.062 H 
ATOM     12  C   LIG d   1       5.433   0.818  -2.691  0.00  0.00    -0.057 A 
ATOM     13  H   LIG d   1       3.919   2.026  -1.786  0.00  0.00     0.062 H 
ATOM     14  H   LIG d   1       6.196   1.577  -2.607  0.00  0.00     0.062 H 
ENDBRANCH   1   4
BRANCH   1  15
ATOM     15  C   LIG d   1       7.475   0.318  -4.842  0.00  0.00     0.037 A 
ATOM     16  C   LIG d   1       8.351   1.406  -4.709  0.00  0.00     0.143 A 
ATOM     17  N   LIG d   1       8.400   2.039  -5.858  0.00  0.00    -0.157 NA
ATOM     18  N   LIG d   1       7.550   1.383  -6.759  0.00  0.00    -0.262 N 
ATOM     19  C   LIG d   1       6.990   0.328  -6.115  0.00  0.00     0.117 A 
ATOM     20  H   LIG d   1       7.389   1.641  -7.681  0.00  0.00     0.190 HD
BRANCH  16  21
ATOM     21  N   LIG d   1       9.055   1.754  -3.551  0.00  0.00    -0.342 N 
ATOM     22  H   LIG d   1       8.576   2.069  -2.769  0.00  0.00     0.144 HD
ATOM     23  H   LIG d   1      10.022   1.681  -3.532  0.00  0.00     0.144 HD
ENDBRANCH  16  21
BRANCH  19  24
ATOM     24  N   LIG d   1       6.086  -0.581  -6.656  0.00  0.00    -0.343 N 
ATOM     25  H   LIG d   1       6.277  -1.010  -7.505  0.00  0.00     0.144 HD
ATOM     26  H   LIG d   1       5.263  -0.785  -6.184  0.00  0.00     0.144 HD
ENDBRANCH  19  24
ENDBRANCH   1  15
TORSDOF 4
ENDMDL
MODEL 6
REMARK VINA RESULT:      -5.2      2.573      3.292
REMARK  4 active torsions:
REMARK  status: ('A' for Active; 'I' for Inactive)
REMARK    1  A    between atoms: C_5  and  C_7 
REMARK    2  A    between atoms: C_7  and  C_8 
REMARK    3  A    between atoms: C_9  and  N_15 
REMARK    4  A    between atoms: C_13  and  N_14 
ROOT
ATOM      1  C   LIG d   1       5.544  -1.566  -4.760  0.00  0.00     0.005 C 
ATOM      2  H   LIG d   1       5.525  -2.548  -4.289  0.00  0.00     0.036 H 
ATOM      3  H   LIG d   1       5.028  -1.612  -5.719  0.00  0.00     0.036 H 
ENDROOT
BRANCH   1   4
ATOM      4  C   LIG d   1       4.857  -0.566  -3.867  0.00  0.00    -0.025 A 
ATOM      5  C   LIG d   1       3.793   0.177  -4.348  0.00  0.00     0.044 A 
ATOM      6  C   LIG d   1       3.162   1.094  -3.528  0.00  0.00    -0.043 A 
ATOM      7 CL   LIG d   1       3.250  -0.044  -5.982  0.00  0.00    -0.083 Cl
ATOM      8  C   LIG d   1       3.594   1.268  -2.226  0.00  0.00    -0.060 A 
ATOM      9  H   LIG d   1       2.331   1.674  -3.903  0.00  0.00     0.063 H 
ATOM     10  C   LIG d   1       4.657   0.527  -1.745  0.00  0.00    -0.061 A 
ATOM     11  H   LIG d   1       3.102   1.984  -1.585  0.00  0.00     0.062 H 
ATOM     12  C   LIG d   1       5.288  -0.390  -2.565  0.00  0.00    -0.057 A 
ATOM     13  H   LIG d   1       4.998   0.667  -0.730  0.00  0.00     0.062 H 
ATOM     14  H   LIG d   1       6.118  -0.969  -2.189  0.00  0.00     0.062 H 
ENDBRANCH   1   4
BRANCH   1  15
ATOM     15  C   LIG d   1       6.973  -1.142  -4.980  0.00  0.00     0.037 A 
ATOM     16  C   LIG d   1       7.414  -0.143  -5.861  0.00  0.00     0.143 A 
ATOM     17  N   LIG d   1       8.721  -0.061  -5.772  0.00  0.00    -0.157 NA
ATOM     18  N   LIG d   1       9.160  -1.010  -4.840  0.00  0.00    -0.262 N 
ATOM     19  C   LIG d   1       8.070  -1.666  -4.365  0.00  0.00     0.117 A 
ATOM     20  H   LIG d   1      10.081  -1.173  -4.582  0.00  0.00     0.190 HD
BRANCH  16  21
ATOM     21  N   LIG d   1       6.599   0.637  -6.690  0.00  0.00    -0.342 N 
ATOM     22  H   LIG d   1       6.526   0.428  -7.634  0.00  0.00     0.144 HD
ATOM     23  H   LIG d   1       6.108   1.387  -6.320  0.00  0.00     0.144 HD
ENDBRANCH  16  21
BRANCH  19  24
ATOM     24  N   LIG d   1       8.071  -2.687  -3.419  0.00  0.00    -0.343 N 
ATOM     25  H   LIG d   1       7.244  -3.144  -3.197  0.00  0.00     0.144 HD
ATOM     26  H   LIG d   1       8.899  -2.941  -2.982  0.00  0.00     0.144 HD
ENDBRANCH  19  24
ENDBRANCH   1  15
TORSDOF 4
ENDMDL
MODEL 7
REMARK VINA RESULT:      -5.1      2.010      2.595
REMARK  4 active torsions:
REMARK  status: ('A' for Active; 'I' for Inactive)
REMARK    1  A    between atoms: C_5  and  C_7 
REMARK    2  A    between atoms: C_7  and  C_8 
REMARK    3  A    between atoms: C_9  and  N_15 
REMARK    4  A    between atoms: C_13  and  N_14 
ROOT
ATOM      1  C   LIG d   1       4.427  -1.349  -5.451  0.00  0.00     0.005 C 
ATOM      2  H   LIG d   1       5.223  -2.084  -5.340  0.00  0.00     0.036 H 
ATOM      3  H   LIG d   1       3.480  -1.861  -5.623  0.00  0.00     0.036 H 
ENDROOT
BRANCH   1   4
ATOM      4  C   LIG d   1       4.329  -0.521  -4.195  0.00  0.00    -0.025 A 
ATOM      5  C   LIG d   1       5.215  -0.733  -3.154  0.00  0.00     0.044 A 
ATOM      6  C   LIG d   1       5.125   0.026  -2.002  0.00  0.00    -0.043 A 
ATOM      7 CL   LIG d   1       6.441  -1.954  -3.295  0.00  0.00    -0.083 Cl
ATOM      8  C   LIG d   1       4.149   1.000  -1.892  0.00  0.00    -0.060 A 
ATOM      9  H   LIG d   1       5.817  -0.138  -1.190  0.00  0.00     0.063 H 
ATOM     10  C   LIG d   1       3.263   1.212  -2.932  0.00  0.00    -0.061 A 
ATOM     11  H   LIG d   1       4.078   1.593  -0.993  0.00  0.00     0.062 H 
ATOM     12  C   LIG d   1       3.353   0.452  -4.083  0.00  0.00    -0.057 A 
ATOM     13  H   LIG d   1       2.497   1.969  -2.843  0.00  0.00     0.062 H 
ATOM     14  H   LIG d   1       2.661   0.619  -4.895  0.00  0.00     0.062 H 
ENDBRANCH   1   4
BRANCH   1  15
ATOM     15  C   LIG d   1       4.732  -0.450  -6.621  0.00  0.00     0.037 A 
ATOM     16  C   LIG d   1       3.813  -0.002  -7.582  0.00  0.00     0.143 A 
ATOM     17  N   LIG d   1       4.450   0.761  -8.438  0.00  0.00    -0.157 NA
ATOM     18  N   LIG d   1       5.798   0.819  -8.060  0.00  0.00    -0.262 N 
ATOM     19  C   LIG d   1       5.951   0.066  -6.941  0.00  0.00     0.117 A 
ATOM     20  H   LIG d   1       6.499   1.308  -8.519  0.00  0.00     0.190 HD
BRANCH  16  21
ATOM     21  N   LIG d   1       2.449  -0.312  -7.618  0.00  0.00    -0.342 N 
ATOM     22  H   LIG d   1       2.152  -1.151  -8.004  0.00  0.00     0.144 HD
ATOM     23  H   LIG d   1       1.800   0.313  -7.258  0.00  0.00     0.144 HD
ENDBRANCH  16  21
BRANCH  19  24
ATOM     24  N   LIG d   1       7.138  -0.141  -6.244  0.00  0.00    -0.343 N 
ATOM     25  H   LIG d   1       7.874  -0.609  -6.667  0.00  0.00     0.144 HD
ATOM     26  H   LIG d   1       7.228   0.184  -5.333  0.00  0.00     0.144 HD
ENDBRANCH  19  24
ENDBRANCH   1  15
TORSDOF 4
ENDMDL
MODEL 8
REMARK VINA RESULT:      -5.1      2.100      2.559
REMARK  4 active torsions:
REMARK  status: ('A' for Active; 'I' for Inactive)
REMARK    1  A    between atoms: C_5  and  C_7 
REMARK    2  A    between atoms: C_7  and  C_8 
REMARK    3  A    between atoms: C_9  and  N_15 
REMARK    4  A    between atoms: C_13  and  N_14 
ROOT
ATOM      1  C   LIG d   1       4.480  -1.829  -5.961  0.00  0.00     0.005 C 
ATOM      2  H   LIG d   1       5.306  -2.531  -6.070  0.00  0.00     0.036 H 
ATOM      3  H   LIG d   1       3.551  -2.311  -6.263  0.00  0.00     0.036 H 
ENDROOT
BRANCH   1   4
ATOM      4  C   LIG d   1       4.377  -1.395  -4.521  0.00  0.00    -0.025 A 
ATOM      5  C   LIG d   1       5.315  -1.823  -3.599  0.00  0.00     0.044 A 
ATOM      6  C   LIG d   1       5.220  -1.425  -2.278  0.00  0.00    -0.043 A 
ATOM      7 CL   LIG d   1       6.614  -2.861  -4.101  0.00  0.00    -0.083 Cl
ATOM      8  C   LIG d   1       4.186  -0.597  -1.880  0.00  0.00    -0.060 A 
ATOM      9  H   LIG d   1       5.953  -1.758  -1.558  0.00  0.00     0.063 H 
ATOM     10  C   LIG d   1       3.249  -0.169  -2.801  0.00  0.00    -0.061 A 
ATOM     11  H   LIG d   1       4.112  -0.286  -0.849  0.00  0.00     0.062 H 
ATOM     12  C   LIG d   1       3.343  -0.568  -4.121  0.00  0.00    -0.057 A 
ATOM     13  H   LIG d   1       2.438   0.473  -2.488  0.00  0.00     0.062 H 
ATOM     14  H   LIG d   1       2.610  -0.233  -4.840  0.00  0.00     0.062 H 
ENDBRANCH   1   4
BRANCH   1  15
ATOM     15  C   LIG d   1       4.727  -0.624  -6.831  0.00  0.00     0.037 A 
ATOM     16  C   LIG d   1       5.959   0.018  -7.026  0.00  0.00     0.143 A 
ATOM     17  N   LIG d   1       5.776   1.022  -7.851  0.00  0.00    -0.157 NA
ATOM     18  N   LIG d   1       4.420   1.062  -8.203  0.00  0.00    -0.262 N 
ATOM     19  C   LIG d   1       3.792   0.041  -7.564  0.00  0.00     0.117 A 
ATOM     20  H   LIG d   1       4.004   1.707  -8.796  0.00  0.00     0.190 HD
BRANCH  16  21
ATOM     21  N   LIG d   1       7.177  -0.353  -6.444  0.00  0.00    -0.342 N 
ATOM     22  H   LIG d   1       7.262  -1.212  -6.002  0.00  0.00     0.144 HD
ATOM     23  H   LIG d   1       7.936   0.250  -6.482  0.00  0.00     0.144 HD
ENDBRANCH  16  21
BRANCH  19  24
ATOM     24  N   LIG d   1       2.438  -0.270  -7.645  0.00  0.00    -0.343 N 
ATOM     25  H   LIG d   1       1.852   0.254  -8.213  0.00  0.00     0.144 HD
ATOM     26  H   LIG d   1       2.080  -1.012  -7.131  0.00  0.00     0.144 HD
ENDBRANCH  19  24
ENDBRANCH   1  15
TORSDOF 4
ENDMDL
MODEL 9
REMARK VINA RESULT:      -5.0      3.386      5.119
REMARK  4 active torsions:
REMARK  status: ('A' for Active; 'I' for Inactive)
REMARK    1  A    between atoms: C_5  and  C_7 
REMARK    2  A    between atoms: C_7  and  C_8 
REMARK    3  A    between atoms: C_9  and  N_15 
REMARK    4  A    between atoms: C_13  and  N_14 
ROOT
ATOM      1  C   LIG d   1       4.514  -0.159  -6.881  0.00  0.00     0.005 C 
ATOM      2  H   LIG d   1       5.503  -0.587  -7.039  0.00  0.00     0.036 H 
ATOM      3  H   LIG d   1       4.584   0.928  -6.871  0.00  0.00     0.036 H 
ENDROOT
BRANCH   1   4
ATOM      4  C   LIG d   1       3.595  -0.593  -7.994  0.00  0.00    -0.025 A 
ATOM      5  C   LIG d   1       2.825   0.344  -8.661  0.00  0.00     0.044 A 
ATOM      6  C   LIG d   1       1.983  -0.053  -9.683  0.00  0.00    -0.043 A 
ATOM      7 CL   LIG d   1       2.918   2.020  -8.215  0.00  0.00    -0.083 Cl
ATOM      8  C   LIG d   1       1.910  -1.387 -10.039  0.00  0.00    -0.060 A 
ATOM      9  H   LIG d   1       1.382   0.678 -10.205  0.00  0.00     0.063 H 
ATOM     10  C   LIG d   1       2.679  -2.323  -9.373  0.00  0.00    -0.061 A 
ATOM     11  H   LIG d   1       1.252  -1.698 -10.836  0.00  0.00     0.062 H 
ATOM     12  C   LIG d   1       3.521  -1.926  -8.350  0.00  0.00    -0.057 A 
ATOM     13  H   LIG d   1       2.618  -3.366  -9.647  0.00  0.00     0.062 H 
ATOM     14  H   LIG d   1       4.121  -2.658  -7.831  0.00  0.00     0.062 H 
ENDBRANCH   1   4
BRANCH   1  15
ATOM     15  C   LIG d   1       3.964  -0.639  -5.562  0.00  0.00     0.037 A 
ATOM     16  C   LIG d   1       3.074   0.060  -4.733  0.00  0.00     0.143 A 
ATOM     17  N   LIG d   1       2.825  -0.680  -3.679  0.00  0.00    -0.157 NA
ATOM     18  N   LIG d   1       3.554  -1.871  -3.793  0.00  0.00    -0.262 N 
ATOM     19  C   LIG d   1       4.249  -1.826  -4.958  0.00  0.00     0.117 A 
ATOM     20  H   LIG d   1       3.562  -2.598  -3.151  0.00  0.00     0.190 HD
BRANCH  16  21
ATOM     21  N   LIG d   1       2.539   1.327  -4.990  0.00  0.00    -0.342 N 
ATOM     22  H   LIG d   1       2.510   1.667  -5.898  0.00  0.00     0.144 HD
ATOM     23  H   LIG d   1       2.200   1.868  -4.260  0.00  0.00     0.144 HD
ENDBRANCH  16  21
BRANCH  19  24
ATOM     24  N   LIG d   1       5.099  -2.813  -5.448  0.00  0.00    -0.343 N 
ATOM     25  H   LIG d   1       4.864  -3.749  -5.349  0.00  0.00     0.144 HD
ATOM     26  H   LIG d   1       5.927  -2.565  -5.889  0.00  0.00     0.144 HD
ENDBRANCH  19  24
ENDBRANCH   1  15
TORSDOF 4
ENDMDL
