MODEL 1
REMARK VINA RESULT:      -5.9      0.000      0.000
REMARK  7 active torsions:
REMARK  status: ('A' for Active; 'I' for Inactive)
REMARK    1  A    between atoms: C_1  and  C_2 
REMARK    2  A    between atoms: C_2  and  O_3 
REMARK    3  A    between atoms: O_3  and  P_4 
REMARK    4  A    between atoms: P_4  and  N_6 
REMARK    5  A    between atoms: P_4  and  O_22 
REMARK    6  A    between atoms: O_22  and  C_23 
REMARK    7  A    between atoms: C_23  and  C_24 
ROOT
ATOM      1  N   LIG d   1       3.868  -0.829  -4.775  0.00  0.00    -0.234 N 
ATOM      2  C   LIG d   1       3.286   0.206  -3.913  0.00  0.00     0.011 C 
ATOM      3  C   LIG d   1       4.149   0.405  -2.674  0.00  0.00    -0.009 C 
ATOM      4  H   LIG d   1       3.591   1.021  -1.968  0.00  0.00     0.033 H 
ATOM      5  C   LIG d   1       4.456  -0.930  -1.998  0.00  0.00    -0.038 C 
ATOM      6  C   LIG d   1       5.191  -1.823  -3.001  0.00  0.00     0.013 C 
ATOM      7  H   LIG d   1       5.499  -2.753  -2.523  0.00  0.00     0.038 H 
ATOM      8  C   LIG d   1       4.233  -2.122  -4.173  0.00  0.00     0.015 C 
ATOM      9  C   LIG d   1       6.398  -1.093  -3.543  0.00  0.00     0.026 C 
ATOM     10  C   LIG d   1       7.446  -1.847  -3.970  0.00  0.00    -0.042 C 
ATOM     11  C   LIG d   1       8.570  -1.243  -4.545  0.00  0.00    -0.055 C 
ATOM     12  C   LIG d   1       8.586   0.113  -4.693  0.00  0.00     0.003 C 
ATOM     13  C   LIG d   1       7.487   0.860  -4.246  0.00  0.00     0.252 C 
ATOM     14  O   LIG d   1       7.462   2.067  -4.432  0.00  0.00    -0.268 OA
ATOM     15  N   LIG d   1       6.454   0.257  -3.609  0.00  0.00    -0.312 N 
ATOM     16  C   LIG d   1       5.451   1.118  -2.994  0.00  0.00     0.030 C 
ATOM     17  H   LIG d   1       3.227   1.144  -4.465  0.00  0.00     0.043 H 
ATOM     18  H   LIG d   1       2.284  -0.097  -3.610  0.00  0.00     0.043 H 
ATOM     19  H   LIG d   1       5.087  -0.764  -1.124  0.00  0.00     0.028 H 
ATOM     20  H   LIG d   1       3.526  -1.410  -1.692  0.00  0.00     0.028 H 
ATOM     21  H   LIG d   1       3.338  -2.625  -3.804  0.00  0.00     0.044 H 
ATOM     22  H   LIG d   1       4.732  -2.747  -4.912  0.00  0.00     0.044 H 
ATOM     23  H   LIG d   1       7.412  -2.921  -3.865  0.00  0.00     0.064 H 
ATOM     24  H   LIG d   1       9.411  -1.841  -4.865  0.00  0.00     0.062 H 
ATOM     25  H   LIG d   1       9.433   0.603  -5.150  0.00  0.00     0.067 H 
ATOM     26  H   LIG d   1       5.241   1.952  -3.664  0.00  0.00     0.050 H 
ATOM     27  H   LIG d   1       5.875   1.508  -2.070  0.00  0.00     0.050 H 
ENDROOT
BRANCH   1  28
ATOM     28  P   LIG d   1       4.099  -0.555  -6.375  0.00  0.00     0.246 P 
ATOM     29  S   LIG d   1       4.343  -2.179  -7.255  0.00  0.00     0.009 SA
BRANCH  28  30
ATOM     30  O   LIG d   1       5.402   0.367  -6.579  0.00  0.00    -0.320 OA
BRANCH  30  31
ATOM     31  C   LIG d   1       6.357   0.145  -7.619  0.00  0.00     0.053 C 
ATOM     32  H   LIG d   1       5.852  -0.256  -8.497  0.00  0.00     0.056 H 
ATOM     33  H   LIG d   1       7.109  -0.565  -7.277  0.00  0.00     0.056 H 
BRANCH  31  34
ATOM     34  C   LIG d   1       7.034   1.469  -7.981  0.00  0.00    -0.041 C 
ATOM     35  H   LIG d   1       6.608   1.853  -8.909  0.00  0.00     0.025 H 
ATOM     36  H   LIG d   1       6.872   2.191  -7.181  0.00  0.00     0.025 H 
ATOM     37  H   LIG d   1       8.103   1.306  -8.113  0.00  0.00     0.025 H 
ENDBRANCH  31  34
ENDBRANCH  30  31
ENDBRANCH  28  30
BRANCH  28  38
ATOM     38  O   LIG d   1       2.811   0.196  -6.982  0.00  0.00    -0.320 OA
BRANCH  38  39
ATOM     39  C   LIG d   1       2.692   0.546  -8.363  0.00  0.00     0.053 C 
ATOM     40  H   LIG d   1       3.445   0.008  -8.939  0.00  0.00     0.056 H 
ATOM     41  H   LIG d   1       1.698   0.277  -8.722  0.00  0.00     0.056 H 
BRANCH  39  42
ATOM     42  C   LIG d   1       2.904   2.052  -8.528  0.00  0.00    -0.041 C 
ATOM     43  H   LIG d   1       3.739   2.229  -9.206  0.00  0.00     0.025 H 
ATOM     44  H   LIG d   1       2.000   2.503  -8.939  0.00  0.00     0.025 H 
ATOM     45  H   LIG d   1       3.121   2.497  -7.557  0.00  0.00     0.025 H 
ENDBRANCH  39  42
ENDBRANCH  38  39
ENDBRANCH  28  38
ENDBRANCH   1  28
TORSDOF 7
ENDMDL
MODEL 2
REMARK VINA RESULT:      -5.8      1.823      3.741
REMARK  7 active torsions:
REMARK  status: ('A' for Active; 'I' for Inactive)
REMARK    1  A    between atoms: C_1  and  C_2 
REMARK    2  A    between atoms: C_2  and  O_3 
REMARK    3  A    between atoms: O_3  and  P_4 
REMARK    4  A    between atoms: P_4  and  N_6 
REMARK    5  A    between atoms: P_4  and  O_22 
REMARK    6  A    between atoms: O_22  and  C_23 
REMARK    7  A    between atoms: C_23  and  C_24 
ROOT
ATOM      1  N   LIG d   1       6.224  -0.833  -6.425  0.00  0.00    -0.234 N 
ATOM      2  C   LIG d   1       6.760  -2.188  -6.595  0.00  0.00     0.011 C 
ATOM      3  C   LIG d   1       7.386  -2.674  -5.295  0.00  0.00    -0.009 C 
ATOM      4  H   LIG d   1       7.947  -3.584  -5.509  0.00  0.00     0.033 H 
ATOM      5  C   LIG d   1       8.358  -1.639  -4.732  0.00  0.00    -0.038 C 
ATOM      6  C   LIG d   1       7.589  -0.339  -4.481  0.00  0.00     0.013 C 
ATOM      7  H   LIG d   1       8.237   0.395  -4.002  0.00  0.00     0.038 H 
ATOM      8  C   LIG d   1       7.096   0.200  -5.840  0.00  0.00     0.015 C 
ATOM      9  C   LIG d   1       6.387  -0.618  -3.611  0.00  0.00     0.026 C 
ATOM     10  C   LIG d   1       5.925   0.398  -2.835  0.00  0.00    -0.042 C 
ATOM     11  C   LIG d   1       4.776   0.232  -2.054  0.00  0.00    -0.055 C 
ATOM     12  C   LIG d   1       4.112  -0.958  -2.103  0.00  0.00     0.003 C 
ATOM     13  C   LIG d   1       4.613  -1.984  -2.916  0.00  0.00     0.252 C 
ATOM     14  O   LIG d   1       3.992  -3.032  -3.018  0.00  0.00    -0.268 OA
ATOM     15  N   LIG d   1       5.778  -1.827  -3.589  0.00  0.00    -0.312 N 
ATOM     16  C   LIG d   1       6.339  -3.002  -4.246  0.00  0.00     0.030 C 
ATOM     17  H   LIG d   1       5.952  -2.862  -6.881  0.00  0.00     0.043 H 
ATOM     18  H   LIG d   1       7.516  -2.182  -7.380  0.00  0.00     0.043 H 
ATOM     19  H   LIG d   1       8.781  -2.002  -3.795  0.00  0.00     0.028 H 
ATOM     20  H   LIG d   1       9.159  -1.459  -5.450  0.00  0.00     0.028 H 
ATOM     21  H   LIG d   1       7.945   0.384  -6.500  0.00  0.00     0.044 H 
ATOM     22  H   LIG d   1       6.533   1.121  -5.694  0.00  0.00     0.044 H 
ATOM     23  H   LIG d   1       6.449   1.342  -2.822  0.00  0.00     0.064 H 
ATOM     24  H   LIG d   1       4.421   1.034  -1.422  0.00  0.00     0.062 H 
ATOM     25  H   LIG d   1       3.213  -1.107  -1.523  0.00  0.00     0.067 H 
ATOM     26  H   LIG d   1       5.531  -3.563  -4.717  0.00  0.00     0.050 H 
ATOM     27  H   LIG d   1       6.794  -3.623  -3.475  0.00  0.00     0.050 H 
ENDROOT
BRANCH   1  28
ATOM     28  P   LIG d   1       4.691  -0.474  -6.882  0.00  0.00     0.246 P 
ATOM     29  S   LIG d   1       4.056  -1.802  -8.025  0.00  0.00     0.009 SA
BRANCH  28  30
ATOM     30  O   LIG d   1       4.675   0.944  -7.645  0.00  0.00    -0.320 OA
BRANCH  30  31
ATOM     31  C   LIG d   1       4.035   1.140  -8.907  0.00  0.00     0.053 C 
ATOM     32  H   LIG d   1       3.654   0.187  -9.274  0.00  0.00     0.056 H 
ATOM     33  H   LIG d   1       4.754   1.542  -9.621  0.00  0.00     0.056 H 
BRANCH  31  34
ATOM     34  C   LIG d   1       2.875   2.125  -8.743  0.00  0.00    -0.041 C 
ATOM     35  H   LIG d   1       3.199   3.121  -9.044  0.00  0.00     0.025 H 
ATOM     36  H   LIG d   1       2.039   1.810  -9.368  0.00  0.00     0.025 H 
ATOM     37  H   LIG d   1       2.562   2.145  -7.699  0.00  0.00     0.025 H 
ENDBRANCH  31  34
ENDBRANCH  30  31
ENDBRANCH  28  30
BRANCH  28  38
ATOM     38  O   LIG d   1       3.748  -0.391  -5.579  0.00  0.00    -0.320 OA
BRANCH  38  39
ATOM     39  C   LIG d   1       2.471   0.251  -5.581  0.00  0.00     0.053 C 
ATOM     40  H   LIG d   1       2.226   0.566  -6.595  0.00  0.00     0.056 H 
ATOM     41  H   LIG d   1       1.713  -0.446  -5.223  0.00  0.00     0.056 H 
BRANCH  39  42
ATOM     42  C   LIG d   1       2.514   1.474  -4.665  0.00  0.00    -0.041 C 
ATOM     43  H   LIG d   1       3.480   1.970  -4.763  0.00  0.00     0.025 H 
ATOM     44  H   LIG d   1       1.720   2.168  -4.945  0.00  0.00     0.025 H 
ATOM     45  H   LIG d   1       2.370   1.159  -3.631  0.00  0.00     0.025 H 
ENDBRANCH  39  42
ENDBRANCH  38  39
ENDBRANCH  28  38
ENDBRANCH   1  28
TORSDOF 7
ENDMDL
MODEL 3
REMARK VINA RESULT:      -5.5      2.619      5.720
REMARK  7 active torsions:
REMARK  status: ('A' for Active; 'I' for Inactive)
REMARK    1  A    between atoms: C_1  and  C_2 
REMARK    2  A    between atoms: C_2  and  O_3 
REMARK    3  A    between atoms: O_3  and  P_4 
REMARK    4  A    between atoms: P_4  and  N_6 
REMARK    5  A    between atoms: P_4  and  O_22 
REMARK    6  A    between atoms: O_22  and  C_23 
REMARK    7  A    between atoms: C_23  and  C_24 
ROOT
ATOM      1  N   LIG d   1       5.080  -1.800  -7.616  0.00  0.00    -0.234 N 
ATOM      2  C   LIG d   1       6.342  -2.083  -8.308  0.00  0.00     0.011 C 
ATOM      3  C   LIG d   1       6.266  -1.613  -9.754  0.00  0.00    -0.009 C 
ATOM      4  H   LIG d   1       7.128  -2.017 -10.287  0.00  0.00     0.033 H 
ATOM      5  C   LIG d   1       5.001  -2.132 -10.436  0.00  0.00    -0.038 C 
ATOM      6  C   LIG d   1       3.787  -1.614  -9.660  0.00  0.00     0.013 C 
ATOM      7  H   LIG d   1       2.866  -1.899 -10.169  0.00  0.00     0.038 H 
ATOM      8  C   LIG d   1       3.820  -2.230  -8.245  0.00  0.00     0.015 C 
ATOM      9  C   LIG d   1       3.867  -0.112  -9.531  0.00  0.00     0.026 C 
ATOM     10  C   LIG d   1       2.698   0.570  -9.404  0.00  0.00    -0.042 C 
ATOM     11  C   LIG d   1       2.698   1.956  -9.214  0.00  0.00    -0.055 C 
ATOM     12  C   LIG d   1       3.893   2.609  -9.133  0.00  0.00     0.003 C 
ATOM     13  C   LIG d   1       5.081   1.877  -9.264  0.00  0.00     0.252 C 
ATOM     14  O   LIG d   1       6.156   2.440  -9.129  0.00  0.00    -0.268 OA
ATOM     15  N   LIG d   1       5.048   0.550  -9.540  0.00  0.00    -0.312 N 
ATOM     16  C   LIG d   1       6.312  -0.100  -9.865  0.00  0.00     0.030 C 
ATOM     17  H   LIG d   1       7.156  -1.564  -7.802  0.00  0.00     0.043 H 
ATOM     18  H   LIG d   1       6.533  -3.157  -8.287  0.00  0.00     0.043 H 
ATOM     19  H   LIG d   1       4.961  -1.770 -11.463  0.00  0.00     0.028 H 
ATOM     20  H   LIG d   1       5.002  -3.222 -10.431  0.00  0.00     0.028 H 
ATOM     21  H   LIG d   1       3.792  -3.318  -8.310  0.00  0.00     0.044 H 
ATOM     22  H   LIG d   1       2.973  -1.870  -7.662  0.00  0.00     0.044 H 
ATOM     23  H   LIG d   1       1.760   0.037  -9.450  0.00  0.00     0.064 H 
ATOM     24  H   LIG d   1       1.768   2.500  -9.134  0.00  0.00     0.062 H 
ATOM     25  H   LIG d   1       3.923   3.677  -8.969  0.00  0.00     0.067 H 
ATOM     26  H   LIG d   1       7.087   0.280  -9.197  0.00  0.00     0.050 H 
ATOM     27  H   LIG d   1       6.567   0.172 -10.889  0.00  0.00     0.050 H 
ENDROOT
BRANCH   1  28
ATOM     28  P   LIG d   1       5.073  -1.028  -6.169  0.00  0.00     0.246 P 
ATOM     29  S   LIG d   1       6.798  -0.453  -5.762  0.00  0.00     0.009 SA
BRANCH  28  30
ATOM     30  O   LIG d   1       4.559  -2.037  -5.024  0.00  0.00    -0.320 OA
BRANCH  30  31
ATOM     31  C   LIG d   1       5.144  -2.097  -3.721  0.00  0.00     0.053 C 
ATOM     32  H   LIG d   1       5.727  -1.194  -3.542  0.00  0.00     0.056 H 
ATOM     33  H   LIG d   1       5.794  -2.968  -3.655  0.00  0.00     0.056 H 
BRANCH  31  34
ATOM     34  C   LIG d   1       4.037  -2.206  -2.670  0.00  0.00    -0.041 C 
ATOM     35  H   LIG d   1       4.049  -3.205  -2.233  0.00  0.00     0.025 H 
ATOM     36  H   LIG d   1       4.202  -1.465  -1.889  0.00  0.00     0.025 H 
ATOM     37  H   LIG d   1       3.070  -2.029  -3.142  0.00  0.00     0.025 H 
ENDBRANCH  31  34
ENDBRANCH  30  31
ENDBRANCH  28  30
BRANCH  28  38
ATOM     38  O   LIG d   1       4.087   0.243  -6.244  0.00  0.00    -0.320 OA
BRANCH  38  39
ATOM     39  C   LIG d   1       2.773   0.244  -5.682  0.00  0.00     0.053 C 
ATOM     40  H   LIG d   1       2.103   0.811  -6.328  0.00  0.00     0.056 H 
ATOM     41  H   LIG d   1       2.414  -0.782  -5.595  0.00  0.00     0.056 H 
BRANCH  39  42
ATOM     42  C   LIG d   1       2.811   0.890  -4.296  0.00  0.00    -0.041 C 
ATOM     43  H   LIG d   1       3.112   1.934  -4.389  0.00  0.00     0.025 H 
ATOM     44  H   LIG d   1       1.821   0.837  -3.842  0.00  0.00     0.025 H 
ATOM     45  H   LIG d   1       3.526   0.360  -3.667  0.00  0.00     0.025 H 
ENDBRANCH  39  42
ENDBRANCH  38  39
ENDBRANCH  28  38
ENDBRANCH   1  28
TORSDOF 7
ENDMDL
MODEL 4
REMARK VINA RESULT:      -5.3      2.040      4.154
REMARK  7 active torsions:
REMARK  status: ('A' for Active; 'I' for Inactive)
REMARK    1  A    between atoms: C_1  and  C_2 
REMARK    2  A    between atoms: C_2  and  O_3 
REMARK    3  A    between atoms: O_3  and  P_4 
REMARK    4  A    between atoms: P_4  and  N_6 
REMARK    5  A    between atoms: P_4  and  O_22 
REMARK    6  A    between atoms: O_22  and  C_23 
REMARK    7  A    between atoms: C_23  and  C_24 
ROOT
ATOM      1  N   LIG d   1       6.098  -0.241  -3.608  0.00  0.00    -0.234 N 
ATOM      2  C   LIG d   1       6.182  -1.553  -2.955  0.00  0.00     0.011 C 
ATOM      3  C   LIG d   1       4.873  -2.310  -3.124  0.00  0.00    -0.009 C 
ATOM      4  H   LIG d   1       4.896  -3.178  -2.464  0.00  0.00     0.033 H 
ATOM      5  C   LIG d   1       3.680  -1.442  -2.725  0.00  0.00    -0.038 C 
ATOM      6  C   LIG d   1       3.673  -0.193  -3.611  0.00  0.00     0.013 C 
ATOM      7  H   LIG d   1       2.786   0.407  -3.408  0.00  0.00     0.038 H 
ATOM      8  C   LIG d   1       4.946   0.623  -3.304  0.00  0.00     0.015 C 
ATOM      9  C   LIG d   1       3.703  -0.600  -5.065  0.00  0.00     0.026 C 
ATOM     10  C   LIG d   1       3.152   0.256  -5.967  0.00  0.00    -0.042 C 
ATOM     11  C   LIG d   1       3.203  -0.024  -7.337  0.00  0.00    -0.055 C 
ATOM     12  C   LIG d   1       3.837  -1.157  -7.755  0.00  0.00     0.003 C 
ATOM     13  C   LIG d   1       4.397  -2.016  -6.800  0.00  0.00     0.252 C 
ATOM     14  O   LIG d   1       5.023  -3.000  -7.165  0.00  0.00    -0.268 OA
ATOM     15  N   LIG d   1       4.252  -1.767  -5.476  0.00  0.00    -0.312 N 
ATOM     16  C   LIG d   1       4.680  -2.805  -4.546  0.00  0.00     0.030 C 
ATOM     17  H   LIG d   1       6.993  -2.127  -3.404  0.00  0.00     0.043 H 
ATOM     18  H   LIG d   1       6.386  -1.415  -1.893  0.00  0.00     0.043 H 
ATOM     19  H   LIG d   1       2.754  -2.000  -2.870  0.00  0.00     0.028 H 
ATOM     20  H   LIG d   1       3.772  -1.150  -1.679  0.00  0.00     0.028 H 
ATOM     21  H   LIG d   1       4.963   0.907  -2.251  0.00  0.00     0.044 H 
ATOM     22  H   LIG d   1       4.976   1.515  -3.929  0.00  0.00     0.044 H 
ATOM     23  H   LIG d   1       2.671   1.159  -5.623  0.00  0.00     0.064 H 
ATOM     24  H   LIG d   1       2.747   0.647  -8.051  0.00  0.00     0.062 H 
ATOM     25  H   LIG d   1       3.905  -1.388  -8.808  0.00  0.00     0.067 H 
ATOM     26  H   LIG d   1       5.619  -3.233  -4.901  0.00  0.00     0.050 H 
ATOM     27  H   LIG d   1       3.917  -3.583  -4.549  0.00  0.00     0.050 H 
ENDROOT
BRANCH   1  28
ATOM     28  P   LIG d   1       7.265   0.254  -4.647  0.00  0.00     0.246 P 
ATOM     29  S   LIG d   1       8.384  -1.179  -5.055  0.00  0.00     0.009 SA
BRANCH  28  30
ATOM     30  O   LIG d   1       8.127   1.431  -3.966  0.00  0.00    -0.320 OA
BRANCH  30  31
ATOM     31  C   LIG d   1       8.375   2.685  -4.607  0.00  0.00     0.053 C 
ATOM     32  H   LIG d   1       8.540   3.453  -3.852  0.00  0.00     0.056 H 
ATOM     33  H   LIG d   1       7.516   2.956  -5.219  0.00  0.00     0.056 H 
BRANCH  31  34
ATOM     34  C   LIG d   1       9.616   2.567  -5.494  0.00  0.00    -0.041 C 
ATOM     35  H   LIG d   1       9.421   1.858  -6.299  0.00  0.00     0.025 H 
ATOM     36  H   LIG d   1       9.854   3.542  -5.918  0.00  0.00     0.025 H 
ATOM     37  H   LIG d   1      10.457   2.215  -4.897  0.00  0.00     0.025 H 
ENDBRANCH  31  34
ENDBRANCH  30  31
ENDBRANCH  28  30
BRANCH  28  38
ATOM     38  O   LIG d   1       6.583   0.804  -5.999  0.00  0.00    -0.320 OA
BRANCH  38  39
ATOM     39  C   LIG d   1       7.066   0.477  -7.303  0.00  0.00     0.053 C 
ATOM     40  H   LIG d   1       8.156   0.481  -7.298  0.00  0.00     0.056 H 
ATOM     41  H   LIG d   1       6.708  -0.513  -7.586  0.00  0.00     0.056 H 
BRANCH  39  42
ATOM     42  C   LIG d   1       6.558   1.511  -8.309  0.00  0.00    -0.041 C 
ATOM     43  H   LIG d   1       5.713   2.050  -7.882  0.00  0.00     0.025 H 
ATOM     44  H   LIG d   1       7.358   2.215  -8.543  0.00  0.00     0.025 H 
ATOM     45  H   LIG d   1       6.244   1.005  -9.223  0.00  0.00     0.025 H 
ENDBRANCH  39  42
ENDBRANCH  38  39
ENDBRANCH  28  38
ENDBRANCH   1  28
TORSDOF 7
ENDMDL
MODEL 5
REMARK VINA RESULT:      -5.3      1.345      1.946
REMARK  7 active torsions:
REMARK  status: ('A' for Active; 'I' for Inactive)
REMARK    1  A    between atoms: C_1  and  C_2 
REMARK    2  A    between atoms: C_2  and  O_3 
REMARK    3  A    between atoms: O_3  and  P_4 
REMARK    4  A    between atoms: P_4  and  N_6 
REMARK    5  A    between atoms: P_4  and  O_22 
REMARK    6  A    between atoms: O_22  and  C_23 
REMARK    7  A    between atoms: C_23  and  C_24 
ROOT
ATOM      1  N   LIG d   1       3.908  -0.827  -4.808  0.00  0.00    -0.234 N 
ATOM      2  C   LIG d   1       3.317   0.198  -3.939  0.00  0.00     0.011 C 
ATOM      3  C   LIG d   1       4.166   0.382  -2.689  0.00  0.00    -0.009 C 
ATOM      4  H   LIG d   1       3.600   0.989  -1.982  0.00  0.00     0.033 H 
ATOM      5  C   LIG d   1       4.468  -0.962  -2.026  0.00  0.00    -0.038 C 
ATOM      6  C   LIG d   1       5.214  -1.841  -3.033  0.00  0.00     0.013 C 
ATOM      7  H   LIG d   1       5.517  -2.776  -2.563  0.00  0.00     0.038 H 
ATOM      8  C   LIG d   1       4.269  -2.127  -4.218  0.00  0.00     0.015 C 
ATOM      9  C   LIG d   1       6.426  -1.104  -3.553  0.00  0.00     0.026 C 
ATOM     10  C   LIG d   1       7.479  -1.851  -3.978  0.00  0.00    -0.042 C 
ATOM     11  C   LIG d   1       8.609  -1.239  -4.533  0.00  0.00    -0.055 C 
ATOM     12  C   LIG d   1       8.624   0.118  -4.665  0.00  0.00     0.003 C 
ATOM     13  C   LIG d   1       7.521   0.859  -4.220  0.00  0.00     0.252 C 
ATOM     14  O   LIG d   1       7.496   2.069  -4.391  0.00  0.00    -0.268 OA
ATOM     15  N   LIG d   1       6.481   0.247  -3.602  0.00  0.00    -0.312 N 
ATOM     16  C   LIG d   1       5.470   1.099  -2.986  0.00  0.00     0.030 C 
ATOM     17  H   LIG d   1       3.262   1.142  -4.481  0.00  0.00     0.043 H 
ATOM     18  H   LIG d   1       2.311  -0.110  -3.651  0.00  0.00     0.043 H 
ATOM     19  H   LIG d   1       5.089  -0.805  -1.144  0.00  0.00     0.028 H 
ATOM     20  H   LIG d   1       3.535  -1.446  -1.737  0.00  0.00     0.028 H 
ATOM     21  H   LIG d   1       3.371  -2.635  -3.865  0.00  0.00     0.044 H 
ATOM     22  H   LIG d   1       4.777  -2.742  -4.960  0.00  0.00     0.044 H 
ATOM     23  H   LIG d   1       7.445  -2.926  -3.886  0.00  0.00     0.064 H 
ATOM     24  H   LIG d   1       9.453  -1.832  -4.851  0.00  0.00     0.062 H 
ATOM     25  H   LIG d   1       9.476   0.615  -5.106  0.00  0.00     0.067 H 
ATOM     26  H   LIG d   1       5.266   1.942  -3.649  0.00  0.00     0.050 H 
ATOM     27  H   LIG d   1       5.885   1.479  -2.053  0.00  0.00     0.050 H 
ENDROOT
BRANCH   1  28
ATOM     28  P   LIG d   1       4.156  -0.533  -6.402  0.00  0.00     0.246 P 
ATOM     29  S   LIG d   1       2.645   0.284  -7.126  0.00  0.00     0.009 SA
BRANCH  28  30
ATOM     30  O   LIG d   1       4.435  -1.921  -7.168  0.00  0.00    -0.320 OA
BRANCH  30  31
ATOM     31  C   LIG d   1       3.730  -2.314  -8.348  0.00  0.00     0.053 C 
ATOM     32  H   LIG d   1       3.013  -1.539  -8.617  0.00  0.00     0.056 H 
ATOM     33  H   LIG d   1       3.203  -3.248  -8.161  0.00  0.00     0.056 H 
BRANCH  31  34
ATOM     34  C   LIG d   1       4.725  -2.510  -9.494  0.00  0.00    -0.041 C 
ATOM     35  H   LIG d   1       4.304  -2.103 -10.413  0.00  0.00     0.025 H 
ATOM     36  H   LIG d   1       5.656  -1.994  -9.260  0.00  0.00     0.025 H 
ATOM     37  H   LIG d   1       4.922  -3.574  -9.625  0.00  0.00     0.025 H 
ENDBRANCH  31  34
ENDBRANCH  30  31
ENDBRANCH  28  30
BRANCH  28  38
ATOM     38  O   LIG d   1       5.427   0.440  -6.577  0.00  0.00    -0.320 OA
BRANCH  38  39
ATOM     39  C   LIG d   1       6.342   0.338  -7.671  0.00  0.00     0.053 C 
ATOM     40  H   LIG d   1       7.353   0.536  -7.318  0.00  0.00     0.056 H 
ATOM     41  H   LIG d   1       6.293  -0.667  -8.092  0.00  0.00     0.056 H 
BRANCH  39  42
ATOM     42  C   LIG d   1       5.968   1.360  -8.746  0.00  0.00    -0.041 C 
ATOM     43  H   LIG d   1       4.902   1.289  -8.961  0.00  0.00     0.025 H 
ATOM     44  H   LIG d   1       6.201   2.364  -8.389  0.00  0.00     0.025 H 
ATOM     45  H   LIG d   1       6.538   1.158  -9.653  0.00  0.00     0.025 H 
ENDBRANCH  39  42
ENDBRANCH  38  39
ENDBRANCH  28  38
ENDBRANCH   1  28
TORSDOF 7
ENDMDL
MODEL 6
REMARK VINA RESULT:      -5.2      2.308      4.219
REMARK  7 active torsions:
REMARK  status: ('A' for Active; 'I' for Inactive)
REMARK    1  A    between atoms: C_1  and  C_2 
REMARK    2  A    between atoms: C_2  and  O_3 
REMARK    3  A    between atoms: O_3  and  P_4 
REMARK    4  A    between atoms: P_4  and  N_6 
REMARK    5  A    between atoms: P_4  and  O_22 
REMARK    6  A    between atoms: O_22  and  C_23 
REMARK    7  A    between atoms: C_23  and  C_24 
ROOT
ATOM      1  N   LIG d   1       6.714  -1.385  -5.060  0.00  0.00    -0.234 N 
ATOM      2  C   LIG d   1       5.887  -2.169  -5.986  0.00  0.00     0.011 C 
ATOM      3  C   LIG d   1       4.564  -2.535  -5.328  0.00  0.00    -0.009 C 
ATOM      4  H   LIG d   1       4.069  -3.277  -5.954  0.00  0.00     0.033 H 
ATOM      5  C   LIG d   1       4.788  -3.152  -3.948  0.00  0.00    -0.038 C 
ATOM      6  C   LIG d   1       5.533  -2.135  -3.079  0.00  0.00     0.013 C 
ATOM      7  H   LIG d   1       5.635  -2.513  -2.062  0.00  0.00     0.038 H 
ATOM      8  C   LIG d   1       6.927  -1.901  -3.698  0.00  0.00     0.015 C 
ATOM      9  C   LIG d   1       4.784  -0.824  -3.073  0.00  0.00     0.026 C 
ATOM     10  C   LIG d   1       4.932  -0.022  -1.985  0.00  0.00    -0.042 C 
ATOM     11  C   LIG d   1       4.321   1.236  -1.939  0.00  0.00    -0.055 C 
ATOM     12  C   LIG d   1       3.595   1.656  -3.015  0.00  0.00     0.003 C 
ATOM     13  C   LIG d   1       3.465   0.806  -4.122  0.00  0.00     0.252 C 
ATOM     14  O   LIG d   1       2.872   1.196  -5.117  0.00  0.00    -0.268 OA
ATOM     15  N   LIG d   1       3.990  -0.443  -4.101  0.00  0.00    -0.312 N 
ATOM     16  C   LIG d   1       3.640  -1.337  -5.198  0.00  0.00     0.030 C 
ATOM     17  H   LIG d   1       5.693  -1.580  -6.883  0.00  0.00     0.043 H 
ATOM     18  H   LIG d   1       6.418  -3.080  -6.261  0.00  0.00     0.043 H 
ATOM     19  H   LIG d   1       3.827  -3.391  -3.491  0.00  0.00     0.028 H 
ATOM     20  H   LIG d   1       5.384  -4.060  -4.044  0.00  0.00     0.028 H 
ATOM     21  H   LIG d   1       7.480  -2.840  -3.740  0.00  0.00     0.044 H 
ATOM     22  H   LIG d   1       7.479  -1.170  -3.107  0.00  0.00     0.044 H 
ATOM     23  H   LIG d   1       5.526  -0.359  -1.149  0.00  0.00     0.064 H 
ATOM     24  H   LIG d   1       4.423   1.864  -1.066  0.00  0.00     0.062 H 
ATOM     25  H   LIG d   1       3.128   2.630  -3.013  0.00  0.00     0.067 H 
ATOM     26  H   LIG d   1       3.659  -0.775  -6.133  0.00  0.00     0.050 H 
ATOM     27  H   LIG d   1       2.625  -1.692  -5.023  0.00  0.00     0.050 H 
ENDROOT
BRANCH   1  28
ATOM     28  P   LIG d   1       7.391   0.031  -5.536  0.00  0.00     0.246 P 
ATOM     29  S   LIG d   1       6.739   0.499  -7.218  0.00  0.00     0.009 SA
BRANCH  28  30
ATOM     30  O   LIG d   1       8.991  -0.137  -5.608  0.00  0.00    -0.320 OA
BRANCH  30  31
ATOM     31  C   LIG d   1       9.694  -0.376  -6.830  0.00  0.00     0.053 C 
ATOM     32  H   LIG d   1      10.691   0.059  -6.766  0.00  0.00     0.056 H 
ATOM     33  H   LIG d   1       9.151   0.080  -7.656  0.00  0.00     0.056 H 
BRANCH  31  34
ATOM     34  C   LIG d   1       9.808  -1.884  -7.065  0.00  0.00    -0.041 C 
ATOM     35  H   LIG d   1       8.950  -2.227  -7.644  0.00  0.00     0.025 H 
ATOM     36  H   LIG d   1      10.726  -2.097  -7.613  0.00  0.00     0.025 H 
ATOM     37  H   LIG d   1       9.829  -2.400  -6.106  0.00  0.00     0.025 H 
ENDBRANCH  31  34
ENDBRANCH  30  31
ENDBRANCH  28  30
BRANCH  28  38
ATOM     38  O   LIG d   1       7.021   1.185  -4.476  0.00  0.00    -0.320 OA
BRANCH  38  39
ATOM     39  C   LIG d   1       8.004   1.871  -3.697  0.00  0.00     0.053 C 
ATOM     40  H   LIG d   1       7.536   2.278  -2.801  0.00  0.00     0.056 H 
ATOM     41  H   LIG d   1       8.792   1.174  -3.411  0.00  0.00     0.056 H 
BRANCH  39  42
ATOM     42  C   LIG d   1       8.604   3.011  -4.521  0.00  0.00    -0.041 C 
ATOM     43  H   LIG d   1       8.702   3.899  -3.897  0.00  0.00     0.025 H 
ATOM     44  H   LIG d   1       9.588   2.715  -4.889  0.00  0.00     0.025 H 
ATOM     45  H   LIG d   1       7.952   3.231  -5.367  0.00  0.00     0.025 H 
ENDBRANCH  39  42
ENDBRANCH  38  39
ENDBRANCH  28  38
ENDBRANCH   1  28
TORSDOF 7
ENDMDL
MODEL 7
REMARK VINA RESULT:      -5.0      2.490      3.635
REMARK  7 active torsions:
REMARK  status: ('A' for Active; 'I' for Inactive)
REMARK    1  A    between atoms: C_1  and  C_2 
REMARK    2  A    between atoms: C_2  and  O_3 
REMARK    3  A    between atoms: O_3  and  P_4 
REMARK    4  A    between atoms: P_4  and  N_6 
REMARK    5  A    between atoms: P_4  and  O_22 
REMARK    6  A    between atoms: O_22  and  C_23 
REMARK    7  A    between atoms: C_23  and  C_24 
ROOT
ATOM      1  N   LIG d   1       5.170  -0.523  -5.242  0.00  0.00    -0.234 N 
ATOM      2  C   LIG d   1       6.045   0.078  -4.229  0.00  0.00     0.011 C 
ATOM      3  C   LIG d   1       6.319  -0.920  -3.113  0.00  0.00    -0.009 C 
ATOM      4  H   LIG d   1       6.794  -0.385  -2.290  0.00  0.00     0.033 H 
ATOM      5  C   LIG d   1       5.020  -1.535  -2.593  0.00  0.00    -0.038 C 
ATOM      6  C   LIG d   1       4.319  -2.241  -3.756  0.00  0.00     0.013 C 
ATOM      7  H   LIG d   1       3.430  -2.760  -3.400  0.00  0.00     0.038 H 
ATOM      8  C   LIG d   1       3.926  -1.175  -4.801  0.00  0.00     0.015 C 
ATOM      9  C   LIG d   1       5.269  -3.220  -4.404  0.00  0.00     0.026 C 
ATOM     10  C   LIG d   1       4.726  -4.297  -5.032  0.00  0.00    -0.042 C 
ATOM     11  C   LIG d   1       5.541  -5.211  -5.711  0.00  0.00    -0.055 C 
ATOM     12  C   LIG d   1       6.886  -4.989  -5.754  0.00  0.00     0.003 C 
ATOM     13  C   LIG d   1       7.413  -3.867  -5.100  0.00  0.00     0.252 C 
ATOM     14  O   LIG d   1       8.607  -3.622  -5.186  0.00  0.00    -0.268 OA
ATOM     15  N   LIG d   1       6.611  -3.051  -4.372  0.00  0.00    -0.312 N 
ATOM     16  C   LIG d   1       7.257  -2.029  -3.557  0.00  0.00     0.030 C 
ATOM     17  H   LIG d   1       6.988   0.368  -4.693  0.00  0.00     0.043 H 
ATOM     18  H   LIG d   1       5.562   0.962  -3.813  0.00  0.00     0.043 H 
ATOM     19  H   LIG d   1       5.243  -2.256  -1.807  0.00  0.00     0.028 H 
ATOM     20  H   LIG d   1       4.375  -0.749  -2.198  0.00  0.00     0.028 H 
ATOM     21  H   LIG d   1       3.261  -0.438  -4.350  0.00  0.00     0.044 H 
ATOM     22  H   LIG d   1       3.434  -1.649  -5.649  0.00  0.00     0.044 H 
ATOM     23  H   LIG d   1       3.658  -4.450  -5.006  0.00  0.00     0.064 H 
ATOM     24  H   LIG d   1       5.111  -6.078  -6.191  0.00  0.00     0.062 H 
ATOM     25  H   LIG d   1       7.535  -5.669  -6.286  0.00  0.00     0.067 H 
ATOM     26  H   LIG d   1       8.078  -1.590  -4.123  0.00  0.00     0.050 H 
ATOM     27  H   LIG d   1       7.663  -2.522  -2.674  0.00  0.00     0.050 H 
ENDROOT
BRANCH   1  28
ATOM     28  P   LIG d   1       5.564  -0.462  -6.833  0.00  0.00     0.246 P 
ATOM     29  S   LIG d   1       7.407  -0.247  -7.009  0.00  0.00     0.009 SA
BRANCH  28  30
ATOM     30  O   LIG d   1       4.811   0.781  -7.526  0.00  0.00    -0.320 OA
BRANCH  30  31
ATOM     31  C   LIG d   1       3.595   0.639  -8.265  0.00  0.00     0.053 C 
ATOM     32  H   LIG d   1       2.899   0.016  -7.704  0.00  0.00     0.056 H 
ATOM     33  H   LIG d   1       3.806   0.173  -9.227  0.00  0.00     0.056 H 
BRANCH  31  34
ATOM     34  C   LIG d   1       2.974   2.019  -8.493  0.00  0.00    -0.041 C 
ATOM     35  H   LIG d   1       2.441   2.330  -7.595  0.00  0.00     0.025 H 
ATOM     36  H   LIG d   1       3.760   2.739  -8.718  0.00  0.00     0.025 H 
ATOM     37  H   LIG d   1       2.277   1.969  -9.330  0.00  0.00     0.025 H 
ENDBRANCH  31  34
ENDBRANCH  30  31
ENDBRANCH  28  30
BRANCH  28  38
ATOM     38  O   LIG d   1       5.113  -1.830  -7.551  0.00  0.00    -0.320 OA
BRANCH  38  39
ATOM     39  C   LIG d   1       5.965  -2.567  -8.430  0.00  0.00     0.053 C 
ATOM     40  H   LIG d   1       6.379  -1.895  -9.182  0.00  0.00     0.056 H 
ATOM     41  H   LIG d   1       6.777  -3.015  -7.857  0.00  0.00     0.056 H 
BRANCH  39  42
ATOM     42  C   LIG d   1       5.159  -3.668  -9.120  0.00  0.00    -0.041 C 
ATOM     43  H   LIG d   1       4.095  -3.497  -8.956  0.00  0.00     0.025 H 
ATOM     44  H   LIG d   1       5.368  -3.656 -10.190  0.00  0.00     0.025 H 
ATOM     45  H   LIG d   1       5.440  -4.638  -8.707  0.00  0.00     0.025 H 
ENDBRANCH  39  42
ENDBRANCH  38  39
ENDBRANCH  28  38
ENDBRANCH   1  28
TORSDOF 7
ENDMDL
MODEL 8
REMARK VINA RESULT:      -4.9      2.418      5.751
REMARK  7 active torsions:
REMARK  status: ('A' for Active; 'I' for Inactive)
REMARK    1  A    between atoms: C_1  and  C_2 
REMARK    2  A    between atoms: C_2  and  O_3 
REMARK    3  A    between atoms: O_3  and  P_4 
REMARK    4  A    between atoms: P_4  and  N_6 
REMARK    5  A    between atoms: P_4  and  O_22 
REMARK    6  A    between atoms: O_22  and  C_23 
REMARK    7  A    between atoms: C_23  and  C_24 
ROOT
ATOM      1  N   LIG d   1       5.625  -1.424  -7.225  0.00  0.00    -0.234 N 
ATOM      2  C   LIG d   1       6.779  -1.712  -8.085  0.00  0.00     0.011 C 
ATOM      3  C   LIG d   1       6.428  -1.444  -9.542  0.00  0.00    -0.009 C 
ATOM      4  H   LIG d   1       7.224  -1.856 -10.163  0.00  0.00     0.033 H 
ATOM      5  C   LIG d   1       5.120  -2.133  -9.929  0.00  0.00    -0.038 C 
ATOM      6  C   LIG d   1       4.007  -1.599  -9.023  0.00  0.00     0.013 C 
ATOM      7  H   LIG d   1       3.045  -2.010  -9.329  0.00  0.00     0.038 H 
ATOM      8  C   LIG d   1       4.324  -2.017  -7.572  0.00  0.00     0.015 C 
ATOM      9  C   LIG d   1       3.974  -0.091  -9.091  0.00  0.00     0.026 C 
ATOM     10  C   LIG d   1       2.785   0.522  -8.847  0.00  0.00    -0.042 C 
ATOM     11  C   LIG d   1       2.694   1.918  -8.828  0.00  0.00    -0.055 C 
ATOM     12  C   LIG d   1       3.823   2.655  -9.032  0.00  0.00     0.003 C 
ATOM     13  C   LIG d   1       5.034   1.993  -9.277  0.00  0.00     0.252 C 
ATOM     14  O   LIG d   1       6.063   2.640  -9.397  0.00  0.00    -0.268 OA
ATOM     15  N   LIG d   1       5.074   0.642  -9.382  0.00  0.00    -0.312 N 
ATOM     16  C   LIG d   1       6.321   0.041  -9.840  0.00  0.00     0.030 C 
ATOM     17  H   LIG d   1       7.615  -1.076  -7.792  0.00  0.00     0.043 H 
ATOM     18  H   LIG d   1       7.065  -2.757  -7.969  0.00  0.00     0.043 H 
ATOM     19  H   LIG d   1       4.883  -1.913 -10.970  0.00  0.00     0.028 H 
ATOM     20  H   LIG d   1       5.218  -3.210  -9.794  0.00  0.00     0.028 H 
ATOM     21  H   LIG d   1       4.381  -3.104  -7.501  0.00  0.00     0.044 H 
ATOM     22  H   LIG d   1       3.553  -1.641  -6.900  0.00  0.00     0.044 H 
ATOM     23  H   LIG d   1       1.903  -0.074  -8.667  0.00  0.00     0.064 H 
ATOM     24  H   LIG d   1       1.744   2.403  -8.655  0.00  0.00     0.062 H 
ATOM     25  H   LIG d   1       3.784   3.734  -9.005  0.00  0.00     0.067 H 
ATOM     26  H   LIG d   1       7.157   0.556  -9.366  0.00  0.00     0.050 H 
ATOM     27  H   LIG d   1       6.382   0.191 -10.917  0.00  0.00     0.050 H 
ENDROOT
BRANCH   1  28
ATOM     28  P   LIG d   1       5.784  -0.469  -5.902  0.00  0.00     0.246 P 
ATOM     29  S   LIG d   1       6.330  -1.503  -4.450  0.00  0.00     0.009 SA
BRANCH  28  30
ATOM     30  O   LIG d   1       4.370   0.223  -5.566  0.00  0.00    -0.320 OA
BRANCH  30  31
ATOM     31  C   LIG d   1       3.571  -0.146  -4.440  0.00  0.00     0.053 C 
ATOM     32  H   LIG d   1       3.921   0.386  -3.555  0.00  0.00     0.056 H 
ATOM     33  H   LIG d   1       3.652  -1.220  -4.273  0.00  0.00     0.056 H 
BRANCH  31  34
ATOM     34  C   LIG d   1       2.110   0.219  -4.710  0.00  0.00    -0.041 C 
ATOM     35  H   LIG d   1       1.615  -0.613  -5.211  0.00  0.00     0.025 H 
ATOM     36  H   LIG d   1       1.606   0.426  -3.766  0.00  0.00     0.025 H 
ATOM     37  H   LIG d   1       2.068   1.103  -5.346  0.00  0.00     0.025 H 
ENDBRANCH  31  34
ENDBRANCH  30  31
ENDBRANCH  28  30
BRANCH  28  38
ATOM     38  O   LIG d   1       6.884   0.671  -6.192  0.00  0.00    -0.320 OA
BRANCH  38  39
ATOM     39  C   LIG d   1       8.160   0.704  -5.549  0.00  0.00     0.053 C 
ATOM     40  H   LIG d   1       8.120   1.385  -4.699  0.00  0.00     0.056 H 
ATOM     41  H   LIG d   1       8.418  -0.296  -5.202  0.00  0.00     0.056 H 
BRANCH  39  42
ATOM     42  C   LIG d   1       9.218   1.190  -6.540  0.00  0.00    -0.041 C 
ATOM     43  H   LIG d   1       8.846   2.067  -7.069  0.00  0.00     0.025 H 
ATOM     44  H   LIG d   1      10.130   1.451  -6.001  0.00  0.00     0.025 H 
ATOM     45  H   LIG d   1       9.436   0.398  -7.257  0.00  0.00     0.025 H 
ENDBRANCH  39  42
ENDBRANCH  38  39
ENDBRANCH  28  38
ENDBRANCH   1  28
TORSDOF 7
ENDMDL
MODEL 9
REMARK VINA RESULT:      -4.9      2.269      4.676
REMARK  7 active torsions:
REMARK  status: ('A' for Active; 'I' for Inactive)
REMARK    1  A    between atoms: C_1  and  C_2 
REMARK    2  A    between atoms: C_2  and  O_3 
REMARK    3  A    between atoms: O_3  and  P_4 
REMARK    4  A    between atoms: P_4  and  N_6 
REMARK    5  A    between atoms: P_4  and  O_22 
REMARK    6  A    between atoms: O_22  and  C_23 
REMARK    7  A    between atoms: C_23  and  C_24 
ROOT
ATOM      1  N   LIG d   1       6.157  -0.215  -3.674  0.00  0.00    -0.234 N 
ATOM      2  C   LIG d   1       6.279  -1.517  -3.009  0.00  0.00     0.011 C 
ATOM      3  C   LIG d   1       4.985  -2.305  -3.152  0.00  0.00    -0.009 C 
ATOM      4  H   LIG d   1       5.036  -3.165  -2.484  0.00  0.00     0.033 H 
ATOM      5  C   LIG d   1       3.778  -1.459  -2.745  0.00  0.00    -0.038 C 
ATOM      6  C   LIG d   1       3.731  -0.220  -3.643  0.00  0.00     0.013 C 
ATOM      7  H   LIG d   1       2.835   0.362  -3.434  0.00  0.00     0.038 H 
ATOM      8  C   LIG d   1       4.990   0.627  -3.363  0.00  0.00     0.015 C 
ATOM      9  C   LIG d   1       3.750  -0.641  -5.093  0.00  0.00     0.026 C 
ATOM     10  C   LIG d   1       3.169   0.193  -5.996  0.00  0.00    -0.042 C 
ATOM     11  C   LIG d   1       3.206  -0.100  -7.364  0.00  0.00    -0.055 C 
ATOM     12  C   LIG d   1       3.859  -1.223  -7.779  0.00  0.00     0.003 C 
ATOM     13  C   LIG d   1       4.451  -2.060  -6.824  0.00  0.00     0.252 C 
ATOM     14  O   LIG d   1       5.093  -3.034  -7.188  0.00  0.00    -0.268 OA
ATOM     15  N   LIG d   1       4.319  -1.800  -5.500  0.00  0.00    -0.312 N 
ATOM     16  C   LIG d   1       4.783  -2.819  -4.566  0.00  0.00     0.030 C 
ATOM     17  H   LIG d   1       7.096  -2.079  -3.464  0.00  0.00     0.043 H 
ATOM     18  H   LIG d   1       6.494  -1.364  -1.952  0.00  0.00     0.043 H 
ATOM     19  H   LIG d   1       2.863  -2.038  -2.871  0.00  0.00     0.028 H 
ATOM     20  H   LIG d   1       3.879  -1.154  -1.704  0.00  0.00     0.028 H 
ATOM     21  H   LIG d   1       5.016   0.922  -2.313  0.00  0.00     0.044 H 
ATOM     22  H   LIG d   1       4.992   1.513  -3.997  0.00  0.00     0.044 H 
ATOM     23  H   LIG d   1       2.673   1.089  -5.654  0.00  0.00     0.064 H 
ATOM     24  H   LIG d   1       2.726   0.553  -8.078  0.00  0.00     0.062 H 
ATOM     25  H   LIG d   1       3.918  -1.464  -8.831  0.00  0.00     0.067 H 
ATOM     26  H   LIG d   1       5.725  -3.230  -4.930  0.00  0.00     0.050 H 
ATOM     27  H   LIG d   1       4.037  -3.614  -4.550  0.00  0.00     0.050 H 
ENDROOT
BRANCH   1  28
ATOM     28  P   LIG d   1       7.299   0.295  -4.735  0.00  0.00     0.246 P 
ATOM     29  S   LIG d   1       8.187   1.774  -4.029  0.00  0.00     0.009 SA
BRANCH  28  30
ATOM     30  O   LIG d   1       6.596   0.704  -6.125  0.00  0.00    -0.320 OA
BRANCH  30  31
ATOM     31  C   LIG d   1       7.333   1.130  -7.273  0.00  0.00     0.053 C 
ATOM     32  H   LIG d   1       8.028   0.345  -7.571  0.00  0.00     0.056 H 
ATOM     33  H   LIG d   1       7.889   2.035  -7.033  0.00  0.00     0.056 H 
BRANCH  31  34
ATOM     34  C   LIG d   1       6.365   1.417  -8.423  0.00  0.00    -0.041 C 
ATOM     35  H   LIG d   1       6.431   0.618  -9.162  0.00  0.00     0.025 H 
ATOM     36  H   LIG d   1       5.347   1.471  -8.036  0.00  0.00     0.025 H 
ATOM     37  H   LIG d   1       6.627   2.366  -8.890  0.00  0.00     0.025 H 
ENDBRANCH  31  34
ENDBRANCH  30  31
ENDBRANCH  28  30
BRANCH  28  38
ATOM     38  O   LIG d   1       8.355  -0.891  -4.998  0.00  0.00    -0.320 OA
BRANCH  38  39
ATOM     39  C   LIG d   1       9.740  -0.656  -5.260  0.00  0.00     0.053 C 
ATOM     40  H   LIG d   1       9.839   0.095  -6.043  0.00  0.00     0.056 H 
ATOM     41  H   LIG d   1      10.227  -0.301  -4.351  0.00  0.00     0.056 H 
BRANCH  39  42
ATOM     42  C   LIG d   1      10.401  -1.958  -5.717  0.00  0.00    -0.041 C 
ATOM     43  H   LIG d   1      10.213  -2.107  -6.780  0.00  0.00     0.025 H 
ATOM     44  H   LIG d   1      11.476  -1.901  -5.543  0.00  0.00     0.025 H 
ATOM     45  H   LIG d   1       9.987  -2.794  -5.153  0.00  0.00     0.025 H 
ENDBRANCH  39  42
ENDBRANCH  38  39
ENDBRANCH  28  38
ENDBRANCH   1  28
TORSDOF 7
ENDMDL
