MODEL 1
REMARK VINA RESULT:      -5.8      0.000      0.000
REMARK  7 active torsions:
REMARK  status: ('A' for Active; 'I' for Inactive)
REMARK    1  A    between atoms: C_1  and  C_2 
REMARK    2  A    between atoms: C_2  and  C_4 
REMARK    3  A    between atoms: C_2  and  O_28 
REMARK    4  A    between atoms: C_4  and  C_27 
REMARK    5  A    between atoms: C_17  and  C_26 
REMARK    6  A    between atoms: C_18  and  C_25 
REMARK    7  A    between atoms: C_21  and  O_24 
ROOT
ATOM      1  C   LIG d   1       3.991  -0.183  -3.708  0.00  0.00     0.015 C 
ATOM      2  C   LIG d   1       3.620  -1.228  -2.634  0.00  0.00    -0.038 C 
ATOM      3  C   LIG d   1       4.082  -2.547  -3.288  0.00  0.00    -0.030 C 
ATOM      4  C   LIG d   1       5.084  -2.139  -4.341  0.00  0.00    -0.066 C 
ATOM      5  C   LIG d   1       5.021  -0.853  -4.590  0.00  0.00    -0.062 C 
ATOM      6  C   LIG d   1       5.858  -0.149  -5.628  0.00  0.00    -0.031 C 
ATOM      7  C   LIG d   1       6.822  -1.070  -6.349  0.00  0.00    -0.045 C 
ATOM      8  C   LIG d   1       6.428  -2.538  -6.409  0.00  0.00    -0.028 C 
ATOM      9  H   LIG d   1       7.369  -3.084  -6.697  0.00  0.00     0.031 H 
ATOM     10  C   LIG d   1       6.035  -3.072  -5.046  0.00  0.00    -0.016 C 
ATOM     11  H   LIG d   1       6.960  -3.093  -4.429  0.00  0.00     0.035 H 
ATOM     12  C   LIG d   1       5.504  -4.492  -5.067  0.00  0.00    -0.046 C 
ATOM     13  C   LIG d   1       4.476  -4.717  -6.168  0.00  0.00    -0.046 C 
ATOM     14  C   LIG d   1       5.054  -4.311  -7.528  0.00  0.00    -0.024 C 
ATOM     15  C   LIG d   1       5.409  -2.824  -7.503  0.00  0.00    -0.023 C 
ATOM     16  C   LIG d   1       5.992  -2.432  -8.866  0.00  0.00    -0.044 C 
ATOM     17  C   LIG d   1       4.981  -2.681  -9.978  0.00  0.00    -0.026 C 
ATOM     18  C   LIG d   1       4.457  -4.108  -9.985  0.00  0.00     0.056 C 
ATOM     19  H   LIG d   1       3.569  -4.135 -10.649  0.00  0.00     0.059 H 
ATOM     20  C   LIG d   1       4.018  -4.593  -8.613  0.00  0.00    -0.021 C 
ATOM     21  H   LIG d   1       4.158  -1.043  -1.703  0.00  0.00     0.028 H 
ATOM     22  H   LIG d   1       2.542  -1.237  -2.456  0.00  0.00     0.028 H 
ATOM     23  H   LIG d   1       3.237  -3.060  -3.749  0.00  0.00     0.031 H 
ATOM     24  H   LIG d   1       4.553  -3.195  -2.548  0.00  0.00     0.031 H 
ATOM     25  H   LIG d   1       6.439   0.644  -5.128  0.00  0.00     0.031 H 
ATOM     26  H   LIG d   1       5.204   0.352  -6.349  0.00  0.00     0.031 H 
ATOM     27  H   LIG d   1       7.810  -0.995  -5.856  0.00  0.00     0.027 H 
ATOM     28  H   LIG d   1       6.981  -0.690  -7.371  0.00  0.00     0.027 H 
ATOM     29  H   LIG d   1       6.332  -5.194  -5.167  0.00  0.00     0.027 H 
ATOM     30  H   LIG d   1       5.026  -4.700  -4.097  0.00  0.00     0.027 H 
ATOM     31  H   LIG d   1       4.225  -5.786  -6.205  0.00  0.00     0.027 H 
ATOM     32  H   LIG d   1       3.563  -4.168  -5.955  0.00  0.00     0.027 H 
ATOM     33  H   LIG d   1       6.913  -2.974  -9.060  0.00  0.00     0.027 H 
ATOM     34  H   LIG d   1       6.227  -1.360  -8.847  0.00  0.00     0.027 H 
ATOM     35  H   LIG d   1       5.478  -2.489 -10.943  0.00  0.00     0.029 H 
ATOM     36  H   LIG d   1       4.150  -1.976  -9.909  0.00  0.00     0.029 H 
ATOM     37  H   LIG d   1       3.862  -5.683  -8.662  0.00  0.00     0.029 H 
ATOM     38  H   LIG d   1       3.058  -4.150  -8.347  0.00  0.00     0.029 H 
ENDROOT
BRANCH   1  39
ATOM     39  C   LIG d   1       4.589   1.060  -3.042  0.00  0.00     0.061 C 
ATOM     40  H   LIG d   1       5.602   1.218  -3.410  0.00  0.00     0.060 H 
BRANCH  39  41
ATOM     41  C   LIG d   1       4.623   0.860  -1.525  0.00  0.00    -0.038 C 
ATOM     42  H   LIG d   1       4.187   1.730  -1.034  0.00  0.00     0.025 H 
ATOM     43  H   LIG d   1       4.051  -0.030  -1.263  0.00  0.00     0.025 H 
ATOM     44  H   LIG d   1       5.655   0.737  -1.197  0.00  0.00     0.025 H 
ENDBRANCH  39  41
BRANCH  39  45
ATOM     45  O   LIG d   1       3.785   2.200  -3.353  0.00  0.00    -0.391 OA
ATOM     46  H   LIG d   1       4.169   2.782  -4.023  0.00  0.00     0.210 HD
ENDBRANCH  39  45
ENDBRANCH   1  39
BRANCH   1  47
ATOM     47  C   LIG d   1       2.756   0.202  -4.524  0.00  0.00    -0.053 C 
ATOM     48  H   LIG d   1       2.230  -0.700  -4.837  0.00  0.00     0.024 H 
ATOM     49  H   LIG d   1       2.093   0.814  -3.912  0.00  0.00     0.024 H 
ATOM     50  H   LIG d   1       3.063   0.768  -5.404  0.00  0.00     0.024 H 
ENDBRANCH   1  47
BRANCH  15  51
ATOM     51  C   LIG d   1       4.130  -2.008  -7.285  0.00  0.00    -0.059 C 
ATOM     52  H   LIG d   1       3.885  -1.465  -8.198  0.00  0.00     0.024 H 
ATOM     53  H   LIG d   1       3.310  -2.678  -7.030  0.00  0.00     0.024 H 
ATOM     54  H   LIG d   1       4.285  -1.298  -6.472  0.00  0.00     0.024 H 
ENDBRANCH  15  51
BRANCH  14  55
ATOM     55  C   LIG d   1       6.301  -5.161  -7.795  0.00  0.00    -0.059 C 
ATOM     56  H   LIG d   1       7.178  -4.658  -7.390  0.00  0.00     0.024 H 
ATOM     57  H   LIG d   1       6.188  -6.135  -7.318  0.00  0.00     0.024 H 
ATOM     58  H   LIG d   1       6.425  -5.297  -8.870  0.00  0.00     0.024 H 
ENDBRANCH  14  55
BRANCH  18  59
ATOM     59  O   LIG d   1       5.426  -4.989 -10.556  0.00  0.00    -0.392 OA
ATOM     60  H   LIG d   1       5.189  -5.925 -10.498  0.00  0.00     0.210 HD
ENDBRANCH  18  59
TORSDOF 7
ENDMDL
MODEL 2
REMARK VINA RESULT:      -5.6      2.561      6.111
REMARK  7 active torsions:
REMARK  status: ('A' for Active; 'I' for Inactive)
REMARK    1  A    between atoms: C_1  and  C_2 
REMARK    2  A    between atoms: C_2  and  C_4 
REMARK    3  A    between atoms: C_2  and  O_28 
REMARK    4  A    between atoms: C_4  and  C_27 
REMARK    5  A    between atoms: C_17  and  C_26 
REMARK    6  A    between atoms: C_18  and  C_25 
REMARK    7  A    between atoms: C_21  and  O_24 
ROOT
ATOM      1  C   LIG d   1       4.797   0.798  -9.279  0.00  0.00     0.015 C 
ATOM      2  C   LIG d   1       6.106   1.609  -9.391  0.00  0.00    -0.038 C 
ATOM      3  C   LIG d   1       6.837   1.228  -8.086  0.00  0.00    -0.030 C 
ATOM      4  C   LIG d   1       6.203  -0.066  -7.637  0.00  0.00    -0.066 C 
ATOM      5  C   LIG d   1       5.077  -0.293  -8.270  0.00  0.00    -0.062 C 
ATOM      6  C   LIG d   1       4.182  -1.477  -8.008  0.00  0.00    -0.031 C 
ATOM      7  C   LIG d   1       4.725  -2.421  -6.953  0.00  0.00    -0.045 C 
ATOM      8  C   LIG d   1       5.668  -1.808  -5.928  0.00  0.00    -0.028 C 
ATOM      9  H   LIG d   1       6.183  -2.682  -5.442  0.00  0.00     0.031 H 
ATOM     10  C   LIG d   1       6.762  -0.991  -6.586  0.00  0.00    -0.016 C 
ATOM     11  H   LIG d   1       7.420  -1.707  -7.124  0.00  0.00     0.035 H 
ATOM     12  C   LIG d   1       7.651  -0.246  -5.609  0.00  0.00    -0.046 C 
ATOM     13  C   LIG d   1       6.857   0.486  -4.535  0.00  0.00    -0.046 C 
ATOM     14  C   LIG d   1       5.916  -0.484  -3.814  0.00  0.00    -0.024 C 
ATOM     15  C   LIG d   1       4.926  -1.071  -4.821  0.00  0.00    -0.023 C 
ATOM     16  C   LIG d   1       3.995  -2.045  -4.088  0.00  0.00    -0.044 C 
ATOM     17  C   LIG d   1       3.218  -1.327  -2.992  0.00  0.00    -0.026 C 
ATOM     18  C   LIG d   1       4.122  -0.585  -2.022  0.00  0.00     0.056 C 
ATOM     19  H   LIG d   1       3.483   0.093  -1.421  0.00  0.00     0.059 H 
ATOM     20  C   LIG d   1       5.171   0.270  -2.715  0.00  0.00    -0.021 C 
ATOM     21  H   LIG d   1       6.682   1.305 -10.265  0.00  0.00     0.028 H 
ATOM     22  H   LIG d   1       5.898   2.680  -9.424  0.00  0.00     0.028 H 
ATOM     23  H   LIG d   1       6.695   2.002  -7.330  0.00  0.00     0.031 H 
ATOM     24  H   LIG d   1       7.902   1.083  -8.274  0.00  0.00     0.031 H 
ATOM     25  H   LIG d   1       4.060  -2.037  -8.949  0.00  0.00     0.031 H 
ATOM     26  H   LIG d   1       3.184  -1.128  -7.722  0.00  0.00     0.031 H 
ATOM     27  H   LIG d   1       5.257  -3.246  -7.465  0.00  0.00     0.027 H 
ATOM     28  H   LIG d   1       3.880  -2.901  -6.434  0.00  0.00     0.027 H 
ATOM     29  H   LIG d   1       8.361  -0.938  -5.155  0.00  0.00     0.027 H 
ATOM     30  H   LIG d   1       8.242   0.494  -6.170  0.00  0.00     0.027 H 
ATOM     31  H   LIG d   1       7.558   0.900  -3.797  0.00  0.00     0.027 H 
ATOM     32  H   LIG d   1       6.304   1.314  -4.969  0.00  0.00     0.027 H 
ATOM     33  H   LIG d   1       4.557  -2.877  -3.675  0.00  0.00     0.027 H 
ATOM     34  H   LIG d   1       3.276  -2.449  -4.813  0.00  0.00     0.027 H 
ATOM     35  H   LIG d   1       2.647  -2.082  -2.426  0.00  0.00     0.029 H 
ATOM     36  H   LIG d   1       2.486  -0.642  -3.424  0.00  0.00     0.029 H 
ATOM     37  H   LIG d   1       5.909   0.594  -1.963  0.00  0.00     0.029 H 
ATOM     38  H   LIG d   1       4.714   1.175  -3.116  0.00  0.00     0.029 H 
ENDROOT
BRANCH   1  39
ATOM     39  C   LIG d   1       4.444   0.187 -10.638  0.00  0.00     0.061 C 
ATOM     40  H   LIG d   1       3.672  -0.571 -10.507  0.00  0.00     0.060 H 
BRANCH  39  41
ATOM     41  C   LIG d   1       5.692  -0.456 -11.248  0.00  0.00    -0.038 C 
ATOM     42  H   LIG d   1       6.493   0.281 -11.297  0.00  0.00     0.025 H 
ATOM     43  H   LIG d   1       6.006  -1.296 -10.629  0.00  0.00     0.025 H 
ATOM     44  H   LIG d   1       5.463  -0.811 -12.253  0.00  0.00     0.025 H 
ENDBRANCH  39  41
BRANCH  39  45
ATOM     45  O   LIG d   1       3.962   1.211 -11.511  0.00  0.00    -0.391 OA
ATOM     46  H   LIG d   1       4.604   1.912 -11.688  0.00  0.00     0.210 HD
ENDBRANCH  39  45
ENDBRANCH   1  39
BRANCH   1  47
ATOM     47  C   LIG d   1       3.656   1.696  -8.796  0.00  0.00    -0.053 C 
ATOM     48  H   LIG d   1       3.624   1.689  -7.707  0.00  0.00     0.024 H 
ATOM     49  H   LIG d   1       3.821   2.714  -9.147  0.00  0.00     0.024 H 
ATOM     50  H   LIG d   1       2.710   1.325  -9.191  0.00  0.00     0.024 H 
ENDBRANCH   1  47
BRANCH  15  51
ATOM     51  C   LIG d   1       4.067   0.059  -5.397  0.00  0.00    -0.059 C 
ATOM     52  H   LIG d   1       3.516  -0.308  -6.262  0.00  0.00     0.024 H 
ATOM     53  H   LIG d   1       3.365   0.406  -4.639  0.00  0.00     0.024 H 
ATOM     54  H   LIG d   1       4.710   0.886  -5.701  0.00  0.00     0.024 H 
ENDBRANCH  15  51
BRANCH  14  55
ATOM     55  C   LIG d   1       6.761  -1.592  -3.175  0.00  0.00    -0.059 C 
ATOM     56  H   LIG d   1       6.838  -2.433  -3.864  0.00  0.00     0.024 H 
ATOM     57  H   LIG d   1       7.758  -1.208  -2.956  0.00  0.00     0.024 H 
ATOM     58  H   LIG d   1       6.288  -1.922  -2.250  0.00  0.00     0.024 H 
ENDBRANCH  14  55
BRANCH  18  59
ATOM     59  O   LIG d   1       4.727  -1.501  -1.108  0.00  0.00    -0.392 OA
ATOM     60  H   LIG d   1       5.222  -2.214  -1.535  0.00  0.00     0.210 HD
ENDBRANCH  18  59
TORSDOF 7
ENDMDL
MODEL 3
REMARK VINA RESULT:      -5.6      2.819      6.375
REMARK  7 active torsions:
REMARK  status: ('A' for Active; 'I' for Inactive)
REMARK    1  A    between atoms: C_1  and  C_2 
REMARK    2  A    between atoms: C_2  and  C_4 
REMARK    3  A    between atoms: C_2  and  O_28 
REMARK    4  A    between atoms: C_4  and  C_27 
REMARK    5  A    between atoms: C_17  and  C_26 
REMARK    6  A    between atoms: C_18  and  C_25 
REMARK    7  A    between atoms: C_21  and  O_24 
ROOT
ATOM      1  C   LIG d   1       9.388  -4.252  -4.700  0.00  0.00     0.015 C 
ATOM      2  C   LIG d   1       8.631  -5.580  -4.917  0.00  0.00    -0.038 C 
ATOM      3  C   LIG d   1       7.161  -5.115  -4.960  0.00  0.00    -0.030 C 
ATOM      4  C   LIG d   1       7.218  -3.642  -5.287  0.00  0.00    -0.066 C 
ATOM      5  C   LIG d   1       8.429  -3.162  -5.123  0.00  0.00    -0.062 C 
ATOM      6  C   LIG d   1       8.799  -1.714  -5.320  0.00  0.00    -0.031 C 
ATOM      7  C   LIG d   1       7.635  -0.850  -5.766  0.00  0.00    -0.045 C 
ATOM      8  C   LIG d   1       6.249  -1.342  -5.377  0.00  0.00    -0.028 C 
ATOM      9  H   LIG d   1       5.538  -0.763  -6.029  0.00  0.00     0.031 H 
ATOM     10  C   LIG d   1       6.049  -2.802  -5.730  0.00  0.00    -0.016 C 
ATOM     11  H   LIG d   1       6.026  -2.865  -6.840  0.00  0.00     0.035 H 
ATOM     12  C   LIG d   1       4.735  -3.382  -5.243  0.00  0.00    -0.046 C 
ATOM     13  C   LIG d   1       4.437  -3.023  -3.793  0.00  0.00    -0.046 C 
ATOM     14  C   LIG d   1       4.489  -1.503  -3.599  0.00  0.00    -0.024 C 
ATOM     15  C   LIG d   1       5.892  -0.998  -3.936  0.00  0.00    -0.023 C 
ATOM     16  C   LIG d   1       5.929   0.522  -3.745  0.00  0.00    -0.044 C 
ATOM     17  C   LIG d   1       5.604   0.893  -2.303  0.00  0.00    -0.026 C 
ATOM     18  C   LIG d   1       4.285   0.304  -1.831  0.00  0.00     0.056 C 
ATOM     19  H   LIG d   1       4.246   0.413  -0.728  0.00  0.00     0.059 H 
ATOM     20  C   LIG d   1       4.140  -1.175  -2.150  0.00  0.00    -0.021 C 
ATOM     21  H   LIG d   1       8.922  -6.048  -5.858  0.00  0.00     0.028 H 
ATOM     22  H   LIG d   1       8.800  -6.264  -4.082  0.00  0.00     0.028 H 
ATOM     23  H   LIG d   1       6.684  -5.269  -3.991  0.00  0.00     0.031 H 
ATOM     24  H   LIG d   1       6.614  -5.654  -5.735  0.00  0.00     0.031 H 
ATOM     25  H   LIG d   1       9.590  -1.658  -6.085  0.00  0.00     0.031 H 
ATOM     26  H   LIG d   1       9.231  -1.317  -4.395  0.00  0.00     0.031 H 
ATOM     27  H   LIG d   1       7.674  -0.756  -6.868  0.00  0.00     0.027 H 
ATOM     28  H   LIG d   1       7.783   0.172  -5.384  0.00  0.00     0.027 H 
ATOM     29  H   LIG d   1       3.923  -3.053  -5.893  0.00  0.00     0.027 H 
ATOM     30  H   LIG d   1       4.785  -4.478  -5.327  0.00  0.00     0.027 H 
ATOM     31  H   LIG d   1       3.424  -3.368  -3.544  0.00  0.00     0.027 H 
ATOM     32  H   LIG d   1       5.133  -3.524  -3.127  0.00  0.00     0.027 H 
ATOM     33  H   LIG d   1       5.243   1.013  -4.429  0.00  0.00     0.027 H 
ATOM     34  H   LIG d   1       6.944   0.876  -3.971  0.00  0.00     0.027 H 
ATOM     35  H   LIG d   1       5.536   1.992  -2.239  0.00  0.00     0.029 H 
ATOM     36  H   LIG d   1       6.412   0.590  -1.635  0.00  0.00     0.029 H 
ATOM     37  H   LIG d   1       3.092  -1.469  -1.975  0.00  0.00     0.029 H 
ATOM     38  H   LIG d   1       4.749  -1.769  -1.467  0.00  0.00     0.029 H 
ENDROOT
BRANCH   1  39
ATOM     39  C   LIG d   1      10.647  -4.220  -5.571  0.00  0.00     0.061 C 
ATOM     40  H   LIG d   1      10.943  -3.186  -5.745  0.00  0.00     0.060 H 
BRANCH  39  41
ATOM     41  C   LIG d   1      10.357  -4.899  -6.912  0.00  0.00    -0.038 C 
ATOM     42  H   LIG d   1       9.495  -4.425  -7.381  0.00  0.00     0.025 H 
ATOM     43  H   LIG d   1      11.225  -4.801  -7.564  0.00  0.00     0.025 H 
ATOM     44  H   LIG d   1      10.145  -5.955  -6.746  0.00  0.00     0.025 H 
ENDBRANCH  39  41
BRANCH  39  45
ATOM     45  O   LIG d   1      11.705  -4.914  -4.906  0.00  0.00    -0.391 OA
ATOM     46  H   LIG d   1      12.516  -4.988  -5.426  0.00  0.00     0.210 HD
ENDBRANCH  39  45
ENDBRANCH   1  39
BRANCH   1  47
ATOM     47  C   LIG d   1       9.766  -4.091  -3.226  0.00  0.00    -0.053 C 
ATOM     48  H   LIG d   1       8.869  -3.896  -2.639  0.00  0.00     0.024 H 
ATOM     49  H   LIG d   1      10.241  -5.005  -2.871  0.00  0.00     0.024 H 
ATOM     50  H   LIG d   1      10.459  -3.256  -3.118  0.00  0.00     0.024 H 
ENDBRANCH   1  47
BRANCH  15  51
ATOM     51  C   LIG d   1       6.897  -1.621  -2.961  0.00  0.00    -0.059 C 
ATOM     52  H   LIG d   1       6.776  -1.171  -1.977  0.00  0.00     0.024 H 
ATOM     53  H   LIG d   1       6.720  -2.695  -2.894  0.00  0.00     0.024 H 
ATOM     54  H   LIG d   1       7.911  -1.443  -3.320  0.00  0.00     0.024 H 
ENDBRANCH  15  51
BRANCH  14  55
ATOM     55  C   LIG d   1       3.446  -0.863  -4.521  0.00  0.00    -0.059 C 
ATOM     56  H   LIG d   1       3.143  -1.582  -5.282  0.00  0.00     0.024 H 
ATOM     57  H   LIG d   1       2.575  -0.565  -3.935  0.00  0.00     0.024 H 
ATOM     58  H   LIG d   1       3.877   0.016  -5.003  0.00  0.00     0.024 H 
ENDBRANCH  14  55
BRANCH  18  59
ATOM     59  O   LIG d   1       3.189   1.053  -2.358  0.00  0.00    -0.392 OA
ATOM     60  H   LIG d   1       3.376   1.482  -3.204  0.00  0.00     0.210 HD
ENDBRANCH  18  59
TORSDOF 7
ENDMDL
MODEL 4
REMARK VINA RESULT:      -5.3      2.528      4.096
REMARK  7 active torsions:
REMARK  status: ('A' for Active; 'I' for Inactive)
REMARK    1  A    between atoms: C_1  and  C_2 
REMARK    2  A    between atoms: C_2  and  C_4 
REMARK    3  A    between atoms: C_2  and  O_28 
REMARK    4  A    between atoms: C_4  and  C_27 
REMARK    5  A    between atoms: C_17  and  C_26 
REMARK    6  A    between atoms: C_18  and  C_25 
REMARK    7  A    between atoms: C_21  and  O_24 
ROOT
ATOM      1  C   LIG d   1       5.237  -1.280  -4.756  0.00  0.00     0.015 C 
ATOM      2  C   LIG d   1       6.761  -1.158  -4.972  0.00  0.00    -0.038 C 
ATOM      3  C   LIG d   1       6.846  -0.716  -6.448  0.00  0.00    -0.030 C 
ATOM      4  C   LIG d   1       5.489  -0.140  -6.771  0.00  0.00    -0.066 C 
ATOM      5  C   LIG d   1       4.601  -0.465  -5.861  0.00  0.00    -0.062 C 
ATOM      6  C   LIG d   1       3.144  -0.085  -5.925  0.00  0.00    -0.031 C 
ATOM      7  C   LIG d   1       2.793   0.752  -7.139  0.00  0.00    -0.045 C 
ATOM      8  C   LIG d   1       3.696   0.583  -8.352  0.00  0.00    -0.028 C 
ATOM      9  H   LIG d   1       3.473   1.469  -9.010  0.00  0.00     0.031 H 
ATOM     10  C   LIG d   1       5.162   0.692  -7.984  0.00  0.00    -0.016 C 
ATOM     11  H   LIG d   1       5.343   1.749  -7.692  0.00  0.00     0.035 H 
ATOM     12  C   LIG d   1       6.111   0.397  -9.129  0.00  0.00    -0.046 C 
ATOM     13  C   LIG d   1       5.731  -0.862  -9.897  0.00  0.00    -0.046 C 
ATOM     14  C   LIG d   1       4.278  -0.776 -10.377  0.00  0.00    -0.024 C 
ATOM     15  C   LIG d   1       3.352  -0.658  -9.166  0.00  0.00    -0.023 C 
ATOM     16  C   LIG d   1       1.904  -0.565  -9.660  0.00  0.00    -0.044 C 
ATOM     17  C   LIG d   1       1.523  -1.809 -10.454  0.00  0.00    -0.026 C 
ATOM     18  C   LIG d   1       2.484  -2.090 -11.597  0.00  0.00     0.056 C 
ATOM     19  H   LIG d   1       2.282  -3.119 -11.958  0.00  0.00     0.059 H 
ATOM     20  C   LIG d   1       3.945  -2.030 -11.181  0.00  0.00    -0.021 C 
ATOM     21  H   LIG d   1       7.192  -0.406  -4.312  0.00  0.00     0.028 H 
ATOM     22  H   LIG d   1       7.252  -2.123  -4.824  0.00  0.00     0.028 H 
ATOM     23  H   LIG d   1       7.057  -1.572  -7.091  0.00  0.00     0.031 H 
ATOM     24  H   LIG d   1       7.619   0.043  -6.574  0.00  0.00     0.031 H 
ATOM     25  H   LIG d   1       2.894   0.490  -5.019  0.00  0.00     0.031 H 
ATOM     26  H   LIG d   1       2.527  -0.990  -5.900  0.00  0.00     0.031 H 
ATOM     27  H   LIG d   1       2.806   1.818  -6.842  0.00  0.00     0.027 H 
ATOM     28  H   LIG d   1       1.750   0.545  -7.425  0.00  0.00     0.027 H 
ATOM     29  H   LIG d   1       6.157   1.255  -9.801  0.00  0.00     0.027 H 
ATOM     30  H   LIG d   1       7.123   0.262  -8.717  0.00  0.00     0.027 H 
ATOM     31  H   LIG d   1       6.381  -0.949 -10.778  0.00  0.00     0.027 H 
ATOM     32  H   LIG d   1       5.885  -1.744  -9.281  0.00  0.00     0.027 H 
ATOM     33  H   LIG d   1       1.757   0.329 -10.259  0.00  0.00     0.027 H 
ATOM     34  H   LIG d   1       1.242  -0.499  -8.785  0.00  0.00     0.027 H 
ATOM     35  H   LIG d   1       0.517  -1.651 -10.877  0.00  0.00     0.029 H 
ATOM     36  H   LIG d   1       1.453  -2.678  -9.798  0.00  0.00     0.029 H 
ATOM     37  H   LIG d   1       4.567  -2.028 -12.091  0.00  0.00     0.029 H 
ATOM     38  H   LIG d   1       4.214  -2.925 -10.619  0.00  0.00     0.029 H 
ENDROOT
BRANCH   1  39
ATOM     39  C   LIG d   1       4.856  -0.708  -3.387  0.00  0.00     0.061 C 
ATOM     40  H   LIG d   1       3.818  -0.378  -3.406  0.00  0.00     0.060 H 
BRANCH  39  41
ATOM     41  C   LIG d   1       5.762   0.483  -3.062  0.00  0.00    -0.038 C 
ATOM     42  H   LIG d   1       5.401   1.368  -3.587  0.00  0.00     0.025 H 
ATOM     43  H   LIG d   1       5.750   0.666  -1.988  0.00  0.00     0.025 H 
ATOM     44  H   LIG d   1       6.781   0.262  -3.381  0.00  0.00     0.025 H 
ENDBRANCH  39  41
BRANCH  39  45
ATOM     45  O   LIG d   1       5.019  -1.716  -2.387  0.00  0.00    -0.391 OA
ATOM     46  H   LIG d   1       5.931  -2.013  -2.272  0.00  0.00     0.210 HD
ENDBRANCH  39  45
ENDBRANCH   1  39
BRANCH   1  47
ATOM     47  C   LIG d   1       4.802  -2.744  -4.851  0.00  0.00    -0.053 C 
ATOM     48  H   LIG d   1       4.558  -3.116  -3.856  0.00  0.00     0.024 H 
ATOM     49  H   LIG d   1       3.924  -2.821  -5.492  0.00  0.00     0.024 H 
ATOM     50  H   LIG d   1       5.613  -3.337  -5.273  0.00  0.00     0.024 H 
ENDBRANCH   1  47
BRANCH  15  51
ATOM     51  C   LIG d   1       3.479  -1.924  -8.312  0.00  0.00    -0.059 C 
ATOM     52  H   LIG d   1       3.607  -2.789  -8.961  0.00  0.00     0.024 H 
ATOM     53  H   LIG d   1       4.343  -1.832  -7.654  0.00  0.00     0.024 H 
ATOM     54  H   LIG d   1       2.578  -2.050  -7.712  0.00  0.00     0.024 H 
ENDBRANCH  15  51
BRANCH  14  55
ATOM     55  C   LIG d   1       4.142   0.451 -11.286  0.00  0.00    -0.059 C 
ATOM     56  H   LIG d   1       4.454   0.190 -12.297  0.00  0.00     0.024 H 
ATOM     57  H   LIG d   1       3.103   0.781 -11.299  0.00  0.00     0.024 H 
ATOM     58  H   LIG d   1       4.774   1.255 -10.907  0.00  0.00     0.024 H 
ENDBRANCH  14  55
BRANCH  18  59
ATOM     59  O   LIG d   1       2.225  -1.211 -12.692  0.00  0.00    -0.392 OA
ATOM     60  H   LIG d   1       1.945  -1.662 -13.501  0.00  0.00     0.210 HD
ENDBRANCH  18  59
TORSDOF 7
ENDMDL
MODEL 5
REMARK VINA RESULT:      -5.2      9.905     12.574
REMARK  7 active torsions:
REMARK  status: ('A' for Active; 'I' for Inactive)
REMARK    1  A    between atoms: C_1  and  C_2 
REMARK    2  A    between atoms: C_2  and  C_4 
REMARK    3  A    between atoms: C_2  and  O_28 
REMARK    4  A    between atoms: C_4  and  C_27 
REMARK    5  A    between atoms: C_17  and  C_26 
REMARK    6  A    between atoms: C_18  and  C_25 
REMARK    7  A    between atoms: C_21  and  O_24 
ROOT
ATOM      1  C   LIG d   1       9.919   8.414  -7.005  0.00  0.00     0.015 C 
ATOM      2  C   LIG d   1      11.274   8.448  -7.744  0.00  0.00    -0.038 C 
ATOM      3  C   LIG d   1      12.205   7.721  -6.751  0.00  0.00    -0.030 C 
ATOM      4  C   LIG d   1      11.288   6.919  -5.859  0.00  0.00    -0.066 C 
ATOM      5  C   LIG d   1      10.041   7.310  -5.978  0.00  0.00    -0.062 C 
ATOM      6  C   LIG d   1       8.895   6.739  -5.182  0.00  0.00    -0.031 C 
ATOM      7  C   LIG d   1       9.312   5.628  -4.239  0.00  0.00    -0.045 C 
ATOM      8  C   LIG d   1      10.759   5.654  -3.772  0.00  0.00    -0.028 C 
ATOM      9  H   LIG d   1      10.950   4.628  -3.349  0.00  0.00     0.031 H 
ATOM     10  C   LIG d   1      11.723   5.816  -4.930  0.00  0.00    -0.016 C 
ATOM     11  H   LIG d   1      11.676   4.876  -5.522  0.00  0.00     0.035 H 
ATOM     12  C   LIG d   1      13.171   5.983  -4.511  0.00  0.00    -0.046 C 
ATOM     13  C   LIG d   1      13.342   6.993  -3.385  0.00  0.00    -0.046 C 
ATOM     14  C   LIG d   1      12.451   6.620  -2.195  0.00  0.00    -0.024 C 
ATOM     15  C   LIG d   1      10.987   6.640  -2.634  0.00  0.00    -0.023 C 
ATOM     16  C   LIG d   1      10.107   6.259  -1.438  0.00  0.00    -0.044 C 
ATOM     17  C   LIG d   1      10.293   7.248  -0.294  0.00  0.00    -0.026 C 
ATOM     18  C   LIG d   1      11.749   7.406   0.113  0.00  0.00     0.056 C 
ATOM     19  H   LIG d   1      11.819   8.301   0.764  0.00  0.00     0.059 H 
ATOM     20  C   LIG d   1      12.681   7.624  -1.067  0.00  0.00    -0.021 C 
ATOM     21  H   LIG d   1      11.217   7.913  -8.692  0.00  0.00     0.028 H 
ATOM     22  H   LIG d   1      11.603   9.478  -7.905  0.00  0.00     0.028 H 
ATOM     23  H   LIG d   1      12.771   8.442  -6.161  0.00  0.00     0.031 H 
ATOM     24  H   LIG d   1      12.888   7.059  -7.285  0.00  0.00     0.031 H 
ATOM     25  H   LIG d   1       8.147   6.340  -5.886  0.00  0.00     0.031 H 
ATOM     26  H   LIG d   1       8.401   7.542  -4.624  0.00  0.00     0.031 H 
ATOM     27  H   LIG d   1       9.125   4.659  -4.741  0.00  0.00     0.027 H 
ATOM     28  H   LIG d   1       8.643   5.633  -3.365  0.00  0.00     0.027 H 
ATOM     29  H   LIG d   1      13.587   5.017  -4.225  0.00  0.00     0.027 H 
ATOM     30  H   LIG d   1      13.748   6.332  -5.382  0.00  0.00     0.027 H 
ATOM     31  H   LIG d   1      14.389   6.977  -3.050  0.00  0.00     0.027 H 
ATOM     32  H   LIG d   1      13.121   7.997  -3.736  0.00  0.00     0.027 H 
ATOM     33  H   LIG d   1      10.324   5.248  -1.107  0.00  0.00     0.027 H 
ATOM     34  H   LIG d   1       9.056   6.293  -1.755  0.00  0.00     0.027 H 
ATOM     35  H   LIG d   1       9.727   6.876   0.576  0.00  0.00     0.029 H 
ATOM     36  H   LIG d   1       9.867   8.220  -0.551  0.00  0.00     0.029 H 
ATOM     37  H   LIG d   1      13.720   7.511  -0.717  0.00  0.00     0.029 H 
ATOM     38  H   LIG d   1      12.585   8.644  -1.440  0.00  0.00     0.029 H 
ENDROOT
BRANCH   1  39
ATOM     39  C   LIG d   1       8.793   8.098  -7.994  0.00  0.00     0.061 C 
ATOM     40  H   LIG d   1       7.932   7.706  -7.452  0.00  0.00     0.060 H 
BRANCH  39  41
ATOM     41  C   LIG d   1       9.278   7.053  -9.002  0.00  0.00    -0.038 C 
ATOM     42  H   LIG d   1       9.529   7.545  -9.942  0.00  0.00     0.025 H 
ATOM     43  H   LIG d   1      10.161   6.550  -8.607  0.00  0.00     0.025 H 
ATOM     44  H   LIG d   1       8.490   6.321  -9.174  0.00  0.00     0.025 H 
ENDBRANCH  39  41
BRANCH  39  45
ATOM     45  O   LIG d   1       8.418   9.290  -8.687  0.00  0.00    -0.391 OA
ATOM     46  H   LIG d   1       7.540   9.619  -8.456  0.00  0.00     0.210 HD
ENDBRANCH  39  45
ENDBRANCH   1  39
BRANCH   1  47
ATOM     47  C   LIG d   1       9.653   9.756  -6.320  0.00  0.00    -0.053 C 
ATOM     48  H   LIG d   1      10.587  10.310  -6.229  0.00  0.00     0.024 H 
ATOM     49  H   LIG d   1       8.946  10.334  -6.915  0.00  0.00     0.024 H 
ATOM     50  H   LIG d   1       9.235   9.582  -5.328  0.00  0.00     0.024 H 
ENDBRANCH   1  47
BRANCH  15  51
ATOM     51  C   LIG d   1      10.611   8.063  -3.062  0.00  0.00    -0.059 C 
ATOM     52  H   LIG d   1      11.343   8.767  -2.666  0.00  0.00     0.024 H 
ATOM     53  H   LIG d   1      10.599   8.124  -4.150  0.00  0.00     0.024 H 
ATOM     54  H   LIG d   1       9.623   8.311  -2.675  0.00  0.00     0.024 H 
ENDBRANCH  15  51
BRANCH  14  55
ATOM     55  C   LIG d   1      12.853   5.223  -1.710  0.00  0.00    -0.059 C 
ATOM     56  H   LIG d   1      12.387   4.470  -2.344  0.00  0.00     0.024 H 
ATOM     57  H   LIG d   1      13.937   5.119  -1.758  0.00  0.00     0.024 H 
ATOM     58  H   LIG d   1      12.521   5.087  -0.680  0.00  0.00     0.024 H 
ENDBRANCH  14  55
BRANCH  18  59
ATOM     59  O   LIG d   1      12.168   6.290   0.900  0.00  0.00    -0.392 OA
ATOM     60  H   LIG d   1      11.821   5.440   0.595  0.00  0.00     0.210 HD
ENDBRANCH  18  59
TORSDOF 7
ENDMDL
MODEL 6
REMARK VINA RESULT:      -5.1     11.832     14.959
REMARK  7 active torsions:
REMARK  status: ('A' for Active; 'I' for Inactive)
REMARK    1  A    between atoms: C_1  and  C_2 
REMARK    2  A    between atoms: C_2  and  C_4 
REMARK    3  A    between atoms: C_2  and  O_28 
REMARK    4  A    between atoms: C_4  and  C_27 
REMARK    5  A    between atoms: C_17  and  C_26 
REMARK    6  A    between atoms: C_18  and  C_25 
REMARK    7  A    between atoms: C_21  and  O_24 
ROOT
ATOM      1  C   LIG d   1      11.595   6.818  -0.785  0.00  0.00     0.015 C 
ATOM      2  C   LIG d   1      12.934   7.123  -0.080  0.00  0.00    -0.038 C 
ATOM      3  C   LIG d   1      12.963   8.666  -0.089  0.00  0.00    -0.030 C 
ATOM      4  C   LIG d   1      11.527   9.090  -0.282  0.00  0.00    -0.066 C 
ATOM      5  C   LIG d   1      10.781   8.089  -0.685  0.00  0.00    -0.062 C 
ATOM      6  C   LIG d   1       9.315   8.204  -1.014  0.00  0.00    -0.031 C 
ATOM      7  C   LIG d   1       8.758   9.598  -0.802  0.00  0.00    -0.045 C 
ATOM      8  C   LIG d   1       9.757  10.740  -0.901  0.00  0.00    -0.028 C 
ATOM      9  H   LIG d   1       9.242  11.623  -0.431  0.00  0.00     0.031 H 
ATOM     10  C   LIG d   1      10.994  10.482  -0.064  0.00  0.00    -0.016 C 
ATOM     11  H   LIG d   1      10.677  10.529   1.001  0.00  0.00     0.035 H 
ATOM     12  C   LIG d   1      12.082  11.525  -0.230  0.00  0.00    -0.046 C 
ATOM     13  C   LIG d   1      12.352  11.863  -1.691  0.00  0.00    -0.046 C 
ATOM     14  C   LIG d   1      11.055  12.286  -2.388  0.00  0.00    -0.024 C 
ATOM     15  C   LIG d   1      10.056  11.130  -2.343  0.00  0.00    -0.023 C 
ATOM     16  C   LIG d   1       8.761  11.568  -3.037  0.00  0.00    -0.044 C 
ATOM     17  C   LIG d   1       9.026  11.936  -4.492  0.00  0.00    -0.026 C 
ATOM     18  C   LIG d   1      10.120  12.981  -4.642  0.00  0.00     0.056 C 
ATOM     19  H   LIG d   1      10.412  13.008  -5.711  0.00  0.00     0.059 H 
ATOM     20  C   LIG d   1      11.367  12.663  -3.834  0.00  0.00    -0.021 C 
ATOM     21  H   LIG d   1      12.937   6.737   0.940  0.00  0.00     0.028 H 
ATOM     22  H   LIG d   1      13.774   6.713  -0.646  0.00  0.00     0.028 H 
ATOM     23  H   LIG d   1      13.579   9.031  -0.912  0.00  0.00     0.031 H 
ATOM     24  H   LIG d   1      13.346   9.045   0.859  0.00  0.00     0.031 H 
ATOM     25  H   LIG d   1       8.758   7.502  -0.372  0.00  0.00     0.031 H 
ATOM     26  H   LIG d   1       9.145   7.883  -2.047  0.00  0.00     0.031 H 
ATOM     27  H   LIG d   1       8.285   9.634   0.198  0.00  0.00     0.027 H 
ATOM     28  H   LIG d   1       7.935   9.765  -1.515  0.00  0.00     0.027 H 
ATOM     29  H   LIG d   1      11.821  12.424   0.328  0.00  0.00     0.027 H 
ATOM     30  H   LIG d   1      13.011  11.134   0.214  0.00  0.00     0.027 H 
ATOM     31  H   LIG d   1      13.058  12.704  -1.735  0.00  0.00     0.027 H 
ATOM     32  H   LIG d   1      12.808  11.018  -2.198  0.00  0.00     0.027 H 
ATOM     33  H   LIG d   1       8.305  12.401  -2.511  0.00  0.00     0.027 H 
ATOM     34  H   LIG d   1       8.055  10.727  -3.017  0.00  0.00     0.027 H 
ATOM     35  H   LIG d   1       8.094  12.345  -4.917  0.00  0.00     0.029 H 
ATOM     36  H   LIG d   1       9.272  11.047  -5.076  0.00  0.00     0.029 H 
ATOM     37  H   LIG d   1      12.013  13.556  -3.823  0.00  0.00     0.029 H 
ATOM     38  H   LIG d   1      11.938  11.870  -4.319  0.00  0.00     0.029 H 
ENDROOT
BRANCH   1  39
ATOM     39  C   LIG d   1      10.878   5.669  -0.070  0.00  0.00     0.061 C 
ATOM     40  H   LIG d   1       9.816   5.697  -0.311  0.00  0.00     0.060 H 
BRANCH  39  41
ATOM     41  C   LIG d   1      11.060   5.818   1.443  0.00  0.00    -0.038 C 
ATOM     42  H   LIG d   1      10.339   5.185   1.960  0.00  0.00     0.025 H 
ATOM     43  H   LIG d   1      12.071   5.517   1.718  0.00  0.00     0.025 H 
ATOM     44  H   LIG d   1      10.901   6.858   1.728  0.00  0.00     0.025 H 
ENDBRANCH  39  41
BRANCH  39  45
ATOM     45  O   LIG d   1      11.432   4.422  -0.495  0.00  0.00    -0.391 OA
ATOM     46  H   LIG d   1      10.873   3.934  -1.114  0.00  0.00     0.210 HD
ENDBRANCH  39  45
ENDBRANCH   1  39
BRANCH   1  47
ATOM     47  C   LIG d   1      11.839   6.451  -2.251  0.00  0.00    -0.053 C 
ATOM     48  H   LIG d   1      12.910   6.409  -2.442  0.00  0.00     0.024 H 
ATOM     49  H   LIG d   1      11.394   5.478  -2.460  0.00  0.00     0.024 H 
ATOM     50  H   LIG d   1      11.383   7.205  -2.894  0.00  0.00     0.024 H 
ENDBRANCH   1  47
BRANCH  15  51
ATOM     51  C   LIG d   1      10.630   9.941  -3.122  0.00  0.00    -0.059 C 
ATOM     52  H   LIG d   1      11.054   9.220  -2.423  0.00  0.00     0.024 H 
ATOM     53  H   LIG d   1       9.835   9.466  -3.697  0.00  0.00     0.024 H 
ATOM     54  H   LIG d   1      11.409  10.291  -3.799  0.00  0.00     0.024 H 
ENDBRANCH  15  51
BRANCH  14  55
ATOM     55  C   LIG d   1      10.495  13.515  -1.662  0.00  0.00    -0.059 C 
ATOM     56  H   LIG d   1      10.401  13.296  -0.599  0.00  0.00     0.024 H 
ATOM     57  H   LIG d   1      11.171  14.359  -1.801  0.00  0.00     0.024 H 
ATOM     58  H   LIG d   1       9.515  13.763  -2.071  0.00  0.00     0.024 H 
ENDBRANCH  14  55
BRANCH  18  59
ATOM     59  O   LIG d   1       9.615  14.278  -4.320  0.00  0.00    -0.392 OA
ATOM     60  H   LIG d   1       8.716  14.272  -3.963  0.00  0.00     0.210 HD
ENDBRANCH  18  59
TORSDOF 7
ENDMDL
MODEL 7
REMARK VINA RESULT:      -4.9      2.194      3.651
REMARK  7 active torsions:
REMARK  status: ('A' for Active; 'I' for Inactive)
REMARK    1  A    between atoms: C_1  and  C_2 
REMARK    2  A    between atoms: C_2  and  C_4 
REMARK    3  A    between atoms: C_2  and  O_28 
REMARK    4  A    between atoms: C_4  and  C_27 
REMARK    5  A    between atoms: C_17  and  C_26 
REMARK    6  A    between atoms: C_18  and  C_25 
REMARK    7  A    between atoms: C_21  and  O_24 
ROOT
ATOM      1  C   LIG d   1       4.722  -0.185  -3.588  0.00  0.00     0.015 C 
ATOM      2  C   LIG d   1       3.285   0.316  -3.847  0.00  0.00    -0.038 C 
ATOM      3  C   LIG d   1       3.150   0.140  -5.375  0.00  0.00    -0.030 C 
ATOM      4  C   LIG d   1       4.212  -0.863  -5.756  0.00  0.00    -0.066 C 
ATOM      5  C   LIG d   1       5.086  -1.026  -4.791  0.00  0.00    -0.062 C 
ATOM      6  C   LIG d   1       6.294  -1.923  -4.885  0.00  0.00    -0.031 C 
ATOM      7  C   LIG d   1       6.394  -2.662  -6.205  0.00  0.00    -0.045 C 
ATOM      8  C   LIG d   1       5.714  -2.001  -7.395  0.00  0.00    -0.028 C 
ATOM      9  H   LIG d   1       5.635  -2.809  -8.174  0.00  0.00     0.031 H 
ATOM     10  C   LIG d   1       4.292  -1.588  -7.074  0.00  0.00    -0.016 C 
ATOM     11  H   LIG d   1       3.705  -2.524  -6.948  0.00  0.00     0.035 H 
ATOM     12  C   LIG d   1       3.611  -0.804  -8.179  0.00  0.00    -0.046 C 
ATOM     13  C   LIG d   1       4.492   0.304  -8.741  0.00  0.00    -0.046 C 
ATOM     14  C   LIG d   1       5.838  -0.267  -9.201  0.00  0.00    -0.024 C 
ATOM     15  C   LIG d   1       6.559  -0.890  -8.006  0.00  0.00    -0.023 C 
ATOM     16  C   LIG d   1       7.898  -1.464  -8.481  0.00  0.00    -0.044 C 
ATOM     17  C   LIG d   1       8.776  -0.367  -9.071  0.00  0.00    -0.026 C 
ATOM     18  C   LIG d   1       8.080   0.410 -10.176  0.00  0.00     0.056 C 
ATOM     19  H   LIG d   1       8.680   1.321 -10.373  0.00  0.00     0.059 H 
ATOM     20  C   LIG d   1       6.677   0.858  -9.800  0.00  0.00    -0.021 C 
ATOM     21  H   LIG d   1       2.555  -0.295  -3.316  0.00  0.00     0.028 H 
ATOM     22  H   LIG d   1       3.183   1.366  -3.565  0.00  0.00     0.028 H 
ATOM     23  H   LIG d   1       3.325   1.088  -5.885  0.00  0.00     0.031 H 
ATOM     24  H   LIG d   1       2.160  -0.241  -5.628  0.00  0.00     0.031 H 
ATOM     25  H   LIG d   1       6.241  -2.665  -4.072  0.00  0.00     0.031 H 
ATOM     26  H   LIG d   1       7.201  -1.335  -4.712  0.00  0.00     0.031 H 
ATOM     27  H   LIG d   1       5.959  -3.671  -6.072  0.00  0.00     0.027 H 
ATOM     28  H   LIG d   1       7.456  -2.834  -6.437  0.00  0.00     0.027 H 
ATOM     29  H   LIG d   1       3.296  -1.482  -8.973  0.00  0.00     0.027 H 
ATOM     30  H   LIG d   1       2.696  -0.347  -7.770  0.00  0.00     0.027 H 
ATOM     31  H   LIG d   1       3.991   0.750  -9.611  0.00  0.00     0.027 H 
ATOM     32  H   LIG d   1       4.635   1.087  -8.002  0.00  0.00     0.027 H 
ATOM     33  H   LIG d   1       7.743  -2.258  -9.205  0.00  0.00     0.027 H 
ATOM     34  H   LIG d   1       8.419  -1.894  -7.615  0.00  0.00     0.027 H 
ATOM     35  H   LIG d   1       9.678  -0.841  -9.494  0.00  0.00     0.029 H 
ATOM     36  H   LIG d   1       9.119   0.314  -8.290  0.00  0.00     0.029 H 
ATOM     37  H   LIG d   1       6.170   1.215 -10.711  0.00  0.00     0.029 H 
ATOM     38  H   LIG d   1       6.723   1.706  -9.115  0.00  0.00     0.029 H 
ENDROOT
BRANCH   1  39
ATOM     39  C   LIG d   1       4.756  -1.035  -2.314  0.00  0.00     0.061 C 
ATOM     40  H   LIG d   1       5.737  -1.500  -2.213  0.00  0.00     0.060 H 
BRANCH  39  41
ATOM     41  C   LIG d   1       3.683  -2.124  -2.399  0.00  0.00    -0.038 C 
ATOM     42  H   LIG d   1       3.344  -2.220  -3.430  0.00  0.00     0.025 H 
ATOM     43  H   LIG d   1       4.101  -3.072  -2.062  0.00  0.00     0.025 H 
ATOM     44  H   LIG d   1       2.840  -1.852  -1.763  0.00  0.00     0.025 H 
ENDBRANCH  39  41
BRANCH  39  45
ATOM     45  O   LIG d   1       4.503  -0.205  -1.179  0.00  0.00    -0.391 OA
ATOM     46  H   LIG d   1       4.073  -0.662  -0.445  0.00  0.00     0.210 HD
ENDBRANCH  39  45
ENDBRANCH   1  39
BRANCH   1  47
ATOM     47  C   LIG d   1       5.682   0.999  -3.452  0.00  0.00    -0.053 C 
ATOM     48  H   LIG d   1       6.474   0.913  -4.195  0.00  0.00     0.024 H 
ATOM     49  H   LIG d   1       5.136   1.929  -3.612  0.00  0.00     0.024 H 
ATOM     50  H   LIG d   1       6.118   1.001  -2.453  0.00  0.00     0.024 H 
ENDBRANCH   1  47
BRANCH  15  51
ATOM     51  C   LIG d   1       6.853   0.203  -6.972  0.00  0.00    -0.059 C 
ATOM     52  H   LIG d   1       5.926   0.498  -6.482  0.00  0.00     0.024 H 
ATOM     53  H   LIG d   1       7.552  -0.179  -6.228  0.00  0.00     0.024 H 
ATOM     54  H   LIG d   1       7.291   1.067  -7.471  0.00  0.00     0.024 H 
ENDBRANCH  15  51
BRANCH  14  55
ATOM     55  C   LIG d   1       5.570  -1.320 -10.282  0.00  0.00    -0.059 C 
ATOM     56  H   LIG d   1       6.455  -1.944 -10.409  0.00  0.00     0.024 H 
ATOM     57  H   LIG d   1       4.726  -1.943  -9.983  0.00  0.00     0.024 H 
ATOM     58  H   LIG d   1       5.338  -0.823 -11.225  0.00  0.00     0.024 H 
ENDBRANCH  14  55
BRANCH  18  59
ATOM     59  O   LIG d   1       8.071  -0.348 -11.386  0.00  0.00    -0.392 OA
ATOM     60  H   LIG d   1       8.302   0.165 -12.174  0.00  0.00     0.210 HD
ENDBRANCH  18  59
TORSDOF 7
ENDMDL
MODEL 8
REMARK VINA RESULT:      -4.9      2.652      6.197
REMARK  7 active torsions:
REMARK  status: ('A' for Active; 'I' for Inactive)
REMARK    1  A    between atoms: C_1  and  C_2 
REMARK    2  A    between atoms: C_2  and  C_4 
REMARK    3  A    between atoms: C_2  and  O_28 
REMARK    4  A    between atoms: C_4  and  C_27 
REMARK    5  A    between atoms: C_17  and  C_26 
REMARK    6  A    between atoms: C_18  and  C_25 
REMARK    7  A    between atoms: C_21  and  O_24 
ROOT
ATOM      1  C   LIG d   1       2.955  -0.469 -10.174  0.00  0.00     0.015 C 
ATOM      2  C   LIG d   1       3.815   0.495 -11.019  0.00  0.00    -0.038 C 
ATOM      3  C   LIG d   1       5.173   0.446 -10.287  0.00  0.00    -0.030 C 
ATOM      4  C   LIG d   1       5.150  -0.835  -9.488  0.00  0.00    -0.066 C 
ATOM      5  C   LIG d   1       3.935  -1.325  -9.405  0.00  0.00    -0.062 C 
ATOM      6  C   LIG d   1       3.576  -2.568  -8.632  0.00  0.00    -0.031 C 
ATOM      7  C   LIG d   1       4.768  -3.235  -7.975  0.00  0.00    -0.045 C 
ATOM      8  C   LIG d   1       5.948  -2.330  -7.654  0.00  0.00    -0.028 C 
ATOM      9  H   LIG d   1       6.811  -3.028  -7.465  0.00  0.00     0.031 H 
ATOM     10  C   LIG d   1       6.348  -1.482  -8.845  0.00  0.00    -0.016 C 
ATOM     11  H   LIG d   1       6.772  -2.173  -9.605  0.00  0.00     0.035 H 
ATOM     12  C   LIG d   1       7.431  -0.464  -8.543  0.00  0.00    -0.046 C 
ATOM     13  C   LIG d   1       7.167   0.311  -7.260  0.00  0.00    -0.046 C 
ATOM     14  C   LIG d   1       6.958  -0.654  -6.087  0.00  0.00    -0.024 C 
ATOM     15  C   LIG d   1       5.743  -1.538  -6.370  0.00  0.00    -0.023 C 
ATOM     16  C   LIG d   1       5.550  -2.502  -5.194  0.00  0.00    -0.044 C 
ATOM     17  C   LIG d   1       5.313  -1.735  -3.900  0.00  0.00    -0.026 C 
ATOM     18  C   LIG d   1       6.406  -0.719  -3.612  0.00  0.00     0.056 C 
ATOM     19  H   LIG d   1       6.039  -0.052  -2.806  0.00  0.00     0.059 H 
ATOM     20  C   LIG d   1       6.743   0.154  -4.810  0.00  0.00    -0.021 C 
ATOM     21  H   LIG d   1       3.910   0.138 -12.045  0.00  0.00     0.028 H 
ATOM     22  H   LIG d   1       3.399   1.504 -11.002  0.00  0.00     0.028 H 
ATOM     23  H   LIG d   1       5.278   1.305  -9.622  0.00  0.00     0.031 H 
ATOM     24  H   LIG d   1       5.993   0.429 -11.006  0.00  0.00     0.031 H 
ATOM     25  H   LIG d   1       3.110  -3.288  -9.325  0.00  0.00     0.031 H 
ATOM     26  H   LIG d   1       2.817  -2.326  -7.879  0.00  0.00     0.031 H 
ATOM     27  H   LIG d   1       5.122  -4.047  -8.639  0.00  0.00     0.027 H 
ATOM     28  H   LIG d   1       4.433  -3.741  -7.056  0.00  0.00     0.027 H 
ATOM     29  H   LIG d   1       8.401  -0.960  -8.498  0.00  0.00     0.027 H 
ATOM     30  H   LIG d   1       7.479   0.251  -9.379  0.00  0.00     0.027 H 
ATOM     31  H   LIG d   1       8.041   0.939  -7.038  0.00  0.00     0.027 H 
ATOM     32  H   LIG d   1       6.309   0.966  -7.381  0.00  0.00     0.027 H 
ATOM     33  H   LIG d   1       6.405  -3.164  -5.094  0.00  0.00     0.027 H 
ATOM     34  H   LIG d   1       4.665  -3.121  -5.395  0.00  0.00     0.027 H 
ATOM     35  H   LIG d   1       5.288  -2.462  -3.070  0.00  0.00     0.029 H 
ATOM     36  H   LIG d   1       4.338  -1.245  -3.915  0.00  0.00     0.029 H 
ATOM     37  H   LIG d   1       7.674   0.702  -4.592  0.00  0.00     0.029 H 
ATOM     38  H   LIG d   1       5.965   0.904  -4.960  0.00  0.00     0.029 H 
ENDROOT
BRANCH   1  39
ATOM     39  C   LIG d   1       2.093  -1.341 -11.092  0.00  0.00     0.061 C 
ATOM     40  H   LIG d   1       2.132  -2.375 -10.754  0.00  0.00     0.060 H 
BRANCH  39  41
ATOM     41  C   LIG d   1       2.624  -1.253 -12.525  0.00  0.00    -0.038 C 
ATOM     42  H   LIG d   1       3.707  -1.380 -12.520  0.00  0.00     0.025 H 
ATOM     43  H   LIG d   1       2.168  -2.037 -13.130  0.00  0.00     0.025 H 
ATOM     44  H   LIG d   1       2.375  -0.279 -12.946  0.00  0.00     0.025 H 
ENDBRANCH  39  41
BRANCH  39  45
ATOM     45  O   LIG d   1       0.741  -0.879 -11.057  0.00  0.00    -0.391 OA
ATOM     46  H   LIG d   1       0.142  -1.371 -11.634  0.00  0.00     0.210 HD
ENDBRANCH  39  45
ENDBRANCH   1  39
BRANCH   1  47
ATOM     47  C   LIG d   1       2.063   0.320  -9.213  0.00  0.00    -0.053 C 
ATOM     48  H   LIG d   1       2.634   0.590  -8.325  0.00  0.00     0.024 H 
ATOM     49  H   LIG d   1       1.709   1.225  -9.706  0.00  0.00     0.024 H 
ATOM     50  H   LIG d   1       1.209  -0.294  -8.923  0.00  0.00     0.024 H 
ENDBRANCH   1  47
BRANCH  15  51
ATOM     51  C   LIG d   1       4.494  -0.656  -6.467  0.00  0.00    -0.059 C 
ATOM     52  H   LIG d   1       4.156  -0.616  -7.502  0.00  0.00     0.024 H 
ATOM     53  H   LIG d   1       3.704  -1.074  -5.842  0.00  0.00     0.024 H 
ATOM     54  H   LIG d   1       4.731   0.352  -6.125  0.00  0.00     0.024 H 
ENDBRANCH  15  51
BRANCH  14  55
ATOM     55  C   LIG d   1       8.223  -1.505  -5.933  0.00  0.00    -0.059 C 
ATOM     56  H   LIG d   1       7.954  -2.561  -5.935  0.00  0.00     0.024 H 
ATOM     57  H   LIG d   1       8.903  -1.301  -6.760  0.00  0.00     0.024 H 
ATOM     58  H   LIG d   1       8.715  -1.258  -4.990  0.00  0.00     0.024 H 
ENDBRANCH  14  55
BRANCH  18  59
ATOM     59  O   LIG d   1       7.572  -1.373  -3.108  0.00  0.00    -0.392 OA
ATOM     60  H   LIG d   1       8.301  -1.421  -3.742  0.00  0.00     0.210 HD
ENDBRANCH  18  59
TORSDOF 7
ENDMDL
MODEL 9
REMARK VINA RESULT:      -4.7     10.292     14.236
REMARK  7 active torsions:
REMARK  status: ('A' for Active; 'I' for Inactive)
REMARK    1  A    between atoms: C_1  and  C_2 
REMARK    2  A    between atoms: C_2  and  C_4 
REMARK    3  A    between atoms: C_2  and  O_28 
REMARK    4  A    between atoms: C_4  and  C_27 
REMARK    5  A    between atoms: C_17  and  C_26 
REMARK    6  A    between atoms: C_18  and  C_25 
REMARK    7  A    between atoms: C_21  and  O_24 
ROOT
ATOM      1  C   LIG d   1      12.428   5.462  -2.469  0.00  0.00     0.015 C 
ATOM      2  C   LIG d   1      13.563   5.299  -1.434  0.00  0.00    -0.038 C 
ATOM      3  C   LIG d   1      13.311   6.489  -0.484  0.00  0.00    -0.030 C 
ATOM      4  C   LIG d   1      11.869   6.878  -0.707  0.00  0.00    -0.066 C 
ATOM      5  C   LIG d   1      11.390   6.337  -1.802  0.00  0.00    -0.062 C 
ATOM      6  C   LIG d   1       9.997   6.576  -2.325  0.00  0.00    -0.031 C 
ATOM      7  C   LIG d   1       9.169   7.485  -1.439  0.00  0.00    -0.045 C 
ATOM      8  C   LIG d   1       9.946   8.466  -0.574  0.00  0.00    -0.028 C 
ATOM      9  H   LIG d   1       9.211   8.820   0.202  0.00  0.00     0.031 H 
ATOM     10  C   LIG d   1      11.063   7.783   0.189  0.00  0.00    -0.016 C 
ATOM     11  H   LIG d   1      10.582   7.122   0.943  0.00  0.00     0.035 H 
ATOM     12  C   LIG d   1      11.956   8.734   0.962  0.00  0.00    -0.046 C 
ATOM     13  C   LIG d   1      12.383   9.940   0.137  0.00  0.00    -0.046 C 
ATOM     14  C   LIG d   1      11.154  10.657  -0.433  0.00  0.00    -0.024 C 
ATOM     15  C   LIG d   1      10.388   9.701  -1.347  0.00  0.00    -0.023 C 
ATOM     16  C   LIG d   1       9.159  10.428  -1.904  0.00  0.00    -0.044 C 
ATOM     17  C   LIG d   1       9.575  11.653  -2.708  0.00  0.00    -0.026 C 
ATOM     18  C   LIG d   1      10.470  12.596  -1.919  0.00  0.00     0.056 C 
ATOM     19  H   LIG d   1      10.915  13.314  -2.638  0.00  0.00     0.059 H 
ATOM     20  C   LIG d   1      11.613  11.886  -1.214  0.00  0.00    -0.021 C 
ATOM     21  H   LIG d   1      13.478   4.349  -0.905  0.00  0.00     0.028 H 
ATOM     22  H   LIG d   1      14.540   5.382  -1.914  0.00  0.00     0.028 H 
ATOM     23  H   LIG d   1      13.970   7.321  -0.733  0.00  0.00     0.031 H 
ATOM     24  H   LIG d   1      13.466   6.187   0.552  0.00  0.00     0.031 H 
ATOM     25  H   LIG d   1       9.484   5.604  -2.406  0.00  0.00     0.031 H 
ATOM     26  H   LIG d   1      10.050   6.985  -3.340  0.00  0.00     0.031 H 
ATOM     27  H   LIG d   1       8.548   6.852  -0.775  0.00  0.00     0.027 H 
ATOM     28  H   LIG d   1       8.450   8.036  -2.065  0.00  0.00     0.027 H 
ATOM     29  H   LIG d   1      11.451   9.053   1.875  0.00  0.00     0.027 H 
ATOM     30  H   LIG d   1      12.860   8.187   1.274  0.00  0.00     0.027 H 
ATOM     31  H   LIG d   1      12.921  10.642   0.788  0.00  0.00     0.027 H 
ATOM     32  H   LIG d   1      13.059   9.637  -0.657  0.00  0.00     0.027 H 
ATOM     33  H   LIG d   1       8.482  10.710  -1.103  0.00  0.00     0.027 H 
ATOM     34  H   LIG d   1       8.624   9.742  -2.574  0.00  0.00     0.027 H 
ATOM     35  H   LIG d   1       8.662  12.201  -2.996  0.00  0.00     0.029 H 
ATOM     36  H   LIG d   1      10.067  11.357  -3.637  0.00  0.00     0.029 H 
ATOM     37  H   LIG d   1      12.075  12.590  -0.503  0.00  0.00     0.029 H 
ATOM     38  H   LIG d   1      12.388  11.613  -1.932  0.00  0.00     0.029 H 
ENDROOT
BRANCH   1  39
ATOM     39  C   LIG d   1      11.830   4.093  -2.807  0.00  0.00     0.061 C 
ATOM     40  H   LIG d   1      12.633   3.370  -2.951  0.00  0.00     0.060 H 
BRANCH  39  41
ATOM     41  C   LIG d   1      11.006   4.201  -4.093  0.00  0.00    -0.038 C 
ATOM     42  H   LIG d   1      11.411   3.520  -4.842  0.00  0.00     0.025 H 
ATOM     43  H   LIG d   1       9.969   3.936  -3.882  0.00  0.00     0.025 H 
ATOM     44  H   LIG d   1      11.050   5.223  -4.468  0.00  0.00     0.025 H 
ENDBRANCH  39  41
BRANCH  39  45
ATOM     45  O   LIG d   1      10.987   3.662  -1.737  0.00  0.00    -0.391 OA
ATOM     46  H   LIG d   1      10.099   4.041  -1.758  0.00  0.00     0.210 HD
ENDBRANCH  39  45
ENDBRANCH   1  39
BRANCH   1  47
ATOM     47  C   LIG d   1      12.959   6.130  -3.739  0.00  0.00    -0.053 C 
ATOM     48  H   LIG d   1      13.070   7.200  -3.567  0.00  0.00     0.024 H 
ATOM     49  H   LIG d   1      13.926   5.701  -3.998  0.00  0.00     0.024 H 
ATOM     50  H   LIG d   1      12.257   5.964  -4.557  0.00  0.00     0.024 H 
ENDBRANCH   1  47
BRANCH  15  51
ATOM     51  C   LIG d   1      11.283   9.313  -2.529  0.00  0.00    -0.059 C 
ATOM     52  H   LIG d   1      12.124   8.720  -2.169  0.00  0.00     0.024 H 
ATOM     53  H   LIG d   1      10.706   8.728  -3.245  0.00  0.00     0.024 H 
ATOM     54  H   LIG d   1      11.657  10.215  -3.015  0.00  0.00     0.024 H 
ENDBRANCH  15  51
BRANCH  14  55
ATOM     55  C   LIG d   1      10.274  11.110   0.738  0.00  0.00    -0.059 C 
ATOM     56  H   LIG d   1      10.895  11.588   1.496  0.00  0.00     0.024 H 
ATOM     57  H   LIG d   1       9.528  11.820   0.379  0.00  0.00     0.024 H 
ATOM     58  H   LIG d   1       9.773  10.244   1.171  0.00  0.00     0.024 H 
ENDBRANCH  14  55
BRANCH  18  59
ATOM     59  O   LIG d   1       9.693  13.362  -0.998  0.00  0.00    -0.392 OA
ATOM     60  H   LIG d   1       9.000  12.856  -0.552  0.00  0.00     0.210 HD
ENDBRANCH  18  59
TORSDOF 7
ENDMDL
MODEL 10
REMARK VINA RESULT:      -4.7      8.937     11.632
REMARK  7 active torsions:
REMARK  status: ('A' for Active; 'I' for Inactive)
REMARK    1  A    between atoms: C_1  and  C_2 
REMARK    2  A    between atoms: C_2  and  C_4 
REMARK    3  A    between atoms: C_2  and  O_28 
REMARK    4  A    between atoms: C_4  and  C_27 
REMARK    5  A    between atoms: C_17  and  C_26 
REMARK    6  A    between atoms: C_18  and  C_25 
REMARK    7  A    between atoms: C_21  and  O_24 
ROOT
ATOM      1  C   LIG d   1      11.060   7.625  -8.156  0.00  0.00     0.015 C 
ATOM      2  C   LIG d   1      11.538   6.429  -9.007  0.00  0.00    -0.038 C 
ATOM      3  C   LIG d   1      11.450   5.260  -8.004  0.00  0.00    -0.030 C 
ATOM      4  C   LIG d   1      10.499   5.727  -6.930  0.00  0.00    -0.066 C 
ATOM      5  C   LIG d   1      10.301   7.023  -6.995  0.00  0.00    -0.062 C 
ATOM      6  C   LIG d   1       9.443   7.798  -6.028  0.00  0.00    -0.031 C 
ATOM      7  C   LIG d   1       8.787   6.928  -4.974  0.00  0.00    -0.045 C 
ATOM      8  C   LIG d   1       9.500   5.626  -4.642  0.00  0.00    -0.028 C 
ATOM      9  H   LIG d   1       8.738   5.005  -4.094  0.00  0.00     0.031 H 
ATOM     10  C   LIG d   1       9.856   4.844  -5.891  0.00  0.00    -0.016 C 
ATOM     11  H   LIG d   1       8.899   4.492  -6.335  0.00  0.00     0.035 H 
ATOM     12  C   LIG d   1      10.687   3.604  -5.629  0.00  0.00    -0.046 C 
ATOM     13  C   LIG d   1      11.849   3.865  -4.680  0.00  0.00    -0.046 C 
ATOM     14  C   LIG d   1      11.340   4.490  -3.375  0.00  0.00    -0.024 C 
ATOM     15  C   LIG d   1      10.666   5.827  -3.684  0.00  0.00    -0.023 C 
ATOM     16  C   LIG d   1      10.157   6.437  -2.373  0.00  0.00    -0.044 C 
ATOM     17  C   LIG d   1      11.308   6.677  -1.406  0.00  0.00    -0.026 C 
ATOM     18  C   LIG d   1      12.132   5.424  -1.154  0.00  0.00     0.056 C 
ATOM     19  H   LIG d   1      13.068   5.735  -0.648  0.00  0.00     0.059 H 
ATOM     20  C   LIG d   1      12.521   4.696  -2.430  0.00  0.00    -0.021 C 
ATOM     21  H   LIG d   1      10.878   6.266  -9.860  0.00  0.00     0.028 H 
ATOM     22  H   LIG d   1      12.566   6.579  -9.344  0.00  0.00     0.028 H 
ATOM     23  H   LIG d   1      12.431   5.050  -7.576  0.00  0.00     0.031 H 
ATOM     24  H   LIG d   1      11.059   4.367  -8.494  0.00  0.00     0.031 H 
ATOM     25  H   LIG d   1       8.653   8.313  -6.599  0.00  0.00     0.031 H 
ATOM     26  H   LIG d   1      10.042   8.581  -5.551  0.00  0.00     0.031 H 
ATOM     27  H   LIG d   1       7.761   6.687  -5.311  0.00  0.00     0.027 H 
ATOM     28  H   LIG d   1       8.656   7.520  -4.054  0.00  0.00     0.027 H 
ATOM     29  H   LIG d   1      10.049   2.807  -5.243  0.00  0.00     0.027 H 
ATOM     30  H   LIG d   1      11.094   3.248  -6.588  0.00  0.00     0.027 H 
ATOM     31  H   LIG d   1      12.332   2.909  -4.439  0.00  0.00     0.027 H 
ATOM     32  H   LIG d   1      12.590   4.503  -5.152  0.00  0.00     0.027 H 
ATOM     33  H   LIG d   1       9.403   5.801  -1.919  0.00  0.00     0.027 H 
ATOM     34  H   LIG d   1       9.689   7.405  -2.600  0.00  0.00     0.027 H 
ATOM     35  H   LIG d   1      10.884   7.012  -0.444  0.00  0.00     0.029 H 
ATOM     36  H   LIG d   1      11.951   7.484  -1.762  0.00  0.00     0.029 H 
ATOM     37  H   LIG d   1      12.918   3.704  -2.158  0.00  0.00     0.029 H 
ATOM     38  H   LIG d   1      13.327   5.228  -2.936  0.00  0.00     0.029 H 
ENDROOT
BRANCH   1  39
ATOM     39  C   LIG d   1      10.136   8.521  -8.987  0.00  0.00     0.061 C 
ATOM     40  H   LIG d   1       9.120   8.455  -8.599  0.00  0.00     0.060 H 
BRANCH  39  41
ATOM     41  C   LIG d   1      10.156   8.060 -10.447  0.00  0.00    -0.038 C 
ATOM     42  H   LIG d   1       9.134   7.990 -10.819  0.00  0.00     0.025 H 
ATOM     43  H   LIG d   1      10.713   8.779 -11.047  0.00  0.00     0.025 H 
ATOM     44  H   LIG d   1      10.634   7.083 -10.512  0.00  0.00     0.025 H 
ENDBRANCH  39  41
BRANCH  39  45
ATOM     45  O   LIG d   1      10.589   9.875  -8.910  0.00  0.00    -0.391 OA
ATOM     46  H   LIG d   1       9.877  10.528  -8.898  0.00  0.00     0.210 HD
ENDBRANCH  39  45
ENDBRANCH   1  39
BRANCH   1  47
ATOM     47  C   LIG d   1      12.258   8.432  -7.653  0.00  0.00    -0.053 C 
ATOM     48  H   LIG d   1      12.420   8.223  -6.596  0.00  0.00     0.024 H 
ATOM     49  H   LIG d   1      13.147   8.153  -8.218  0.00  0.00     0.024 H 
ATOM     50  H   LIG d   1      12.062   9.497  -7.787  0.00  0.00     0.024 H 
ENDBRANCH   1  47
BRANCH  15  51
ATOM     51  C   LIG d   1      11.703   6.786  -4.280  0.00  0.00    -0.059 C 
ATOM     52  H   LIG d   1      11.253   7.341  -5.103  0.00  0.00     0.024 H 
ATOM     53  H   LIG d   1      12.037   7.482  -3.511  0.00  0.00     0.024 H 
ATOM     54  H   LIG d   1      12.556   6.216  -4.649  0.00  0.00     0.024 H 
ENDBRANCH  15  51
BRANCH  14  55
ATOM     55  C   LIG d   1      10.347   3.518  -2.730  0.00  0.00    -0.059 C 
ATOM     56  H   LIG d   1      10.319   3.687  -1.654  0.00  0.00     0.024 H 
ATOM     57  H   LIG d   1       9.354   3.680  -3.149  0.00  0.00     0.024 H 
ATOM     58  H   LIG d   1      10.661   2.492  -2.928  0.00  0.00     0.024 H 
ENDBRANCH  14  55
BRANCH  18  59
ATOM     59  O   LIG d   1      11.447   4.552  -0.252  0.00  0.00    -0.392 OA
ATOM     60  H   LIG d   1      11.542   4.797   0.679  0.00  0.00     0.210 HD
ENDBRANCH  18  59
TORSDOF 7
ENDMDL
