MODEL 1
REMARK VINA RESULT:      -5.8      0.000      0.000
REMARK  6 active torsions:
REMARK  status: ('A' for Active; 'I' for Inactive)
REMARK    1  A    between atoms: C_1  and  O_2 
REMARK    2  A    between atoms: O_2  and  C_3 
REMARK    3  A    between atoms: C_6  and  C_9 
REMARK       I    between atoms: C_9  and  N_11 
REMARK    4  A    between atoms: N_11  and  C_12 
REMARK    5  A    between atoms: C_23  and  O_30 
REMARK    6  A    between atoms: O_30  and  C_31 
ROOT
ATOM      1  C   LIG d   1       8.573   2.402  -4.346  0.00  0.00     0.052 C 
ATOM      2  H   LIG d   1       7.694   3.047  -4.330  0.00  0.00     0.052 H 
ATOM      3  C   LIG d   1       9.117   2.269  -5.791  0.00  0.00    -0.016 C 
ATOM      4  C   LIG d   1       9.555   0.780  -5.851  0.00  0.00     0.017 C 
ATOM      5  N   LIG d   1       8.498   0.100  -5.081  0.00  0.00    -0.286 N 
ATOM      6  CA  LIG d   1       8.196   0.970  -3.931  0.00  0.00     0.121 C 
ATOM      7  HA  LIG d   1       8.771   0.656  -3.060  0.00  0.00     0.061 H 
ATOM      8  C   LIG d   1       6.719   0.884  -3.639  0.00  0.00     0.239 C 
ATOM      9  O   LIG d   1       6.152   1.779  -3.046  0.00  0.00    -0.274 OA
ATOM     10  N   LIG d   1       6.041  -0.209  -4.046  0.00  0.00    -0.286 N 
ATOM     11  C   LIG d   1       4.582  -0.366  -4.089  0.00  0.00     0.042 C 
ATOM     12  C   LIG d   1       4.295  -1.755  -4.704  0.00  0.00     0.076 C 
ATOM     13  H   LIG d   1       3.432  -1.713  -5.368  0.00  0.00     0.061 H 
ATOM     14  C   LIG d   1       5.593  -2.051  -5.505  0.00  0.00     0.002 C 
ATOM     15  CA  LIG d   1       6.663  -1.441  -4.569  0.00  0.00     0.105 C 
ATOM     16  HA  LIG d   1       6.921  -2.133  -3.768  0.00  0.00     0.060 H 
ATOM     17  C   LIG d   1       7.887  -1.062  -5.369  0.00  0.00     0.237 C 
ATOM     18  O   LIG d   1       8.306  -1.786  -6.245  0.00  0.00    -0.274 OA
ATOM     19  H   LIG d   1       9.969   2.929  -5.946  0.00  0.00     0.030 H 
ATOM     20  H   LIG d   1       8.334   2.470  -6.521  0.00  0.00     0.030 H 
ATOM     21  H   LIG d   1      10.528   0.644  -5.377  0.00  0.00     0.046 H 
ATOM     22  H   LIG d   1       9.574   0.424  -6.882  0.00  0.00     0.046 H 
ATOM     23  H   LIG d   1       4.144   0.413  -4.712  0.00  0.00     0.049 H 
ATOM     24  H   LIG d   1       4.172  -0.314  -3.081  0.00  0.00     0.049 H 
ATOM     25  H   LIG d   1       5.582  -1.544  -6.470  0.00  0.00     0.031 H 
ATOM     26  H   LIG d   1       5.744  -3.122  -5.627  0.00  0.00     0.031 H 
ENDROOT
BRANCH   1  27
ATOM     27  N   LIG d   1       9.612   2.933  -3.459  0.00  0.00    -0.306 N 
ATOM     28  C   LIG d   1       9.866   4.257  -3.435  0.00  0.00     0.244 C 
ATOM     29  O   LIG d   1       9.234   5.010  -4.151  0.00  0.00    -0.270 OA
ATOM     30  H   LIG d   1      10.116   2.332  -2.888  0.00  0.00     0.149 HD
BRANCH  28  31
ATOM     31  C   LIG d   1      10.912   4.791  -2.542  0.00  0.00     0.037 A 
ATOM     32  C   LIG d   1      12.262   4.620  -2.863  0.00  0.00    -0.046 A 
ATOM     33  C   LIG d   1      13.235   5.120  -2.027  0.00  0.00    -0.019 A 
ATOM     34  H   LIG d   1      12.541   4.095  -3.764  0.00  0.00     0.063 H 
ATOM     35  C   LIG d   1      12.877   5.795  -0.866  0.00  0.00     0.120 A 
ATOM     36  H   LIG d   1      14.278   4.987  -2.273  0.00  0.00     0.065 H 
ATOM     37  C   LIG d   1      11.536   5.969  -0.544  0.00  0.00    -0.019 A 
ATOM     38  C   LIG d   1      10.556   5.476  -1.377  0.00  0.00    -0.046 A 
ATOM     39  H   LIG d   1      11.261   6.494   0.359  0.00  0.00     0.065 H 
ATOM     40  H   LIG d   1       9.514   5.615  -1.128  0.00  0.00     0.063 H 
BRANCH  35  41
ATOM     41  O   LIG d   1      13.839   6.288  -0.045  0.00  0.00    -0.495 OA
BRANCH  41  42
ATOM     42  C   LIG d   1      15.195   6.129  -0.465  0.00  0.00     0.079 C 
ATOM     43  H   LIG d   1      15.361   6.698  -1.380  0.00  0.00     0.066 H 
ATOM     44  H   LIG d   1      15.862   6.495   0.316  0.00  0.00     0.066 H 
ATOM     45  H   LIG d   1      15.396   5.074  -0.652  0.00  0.00     0.066 H 
ENDBRANCH  41  42
ENDBRANCH  35  41
ENDBRANCH  28  31
ENDBRANCH   1  27
BRANCH  12  46
ATOM     46  O   LIG d   1       4.097  -2.734  -3.682  0.00  0.00    -0.378 OA
BRANCH  46  47
ATOM     47  C   LIG d   1       3.751  -2.184  -2.409  0.00  0.00     0.037 C 
ATOM     48  H   LIG d   1       3.363  -1.174  -2.542  0.00  0.00     0.052 H 
ATOM     49  H   LIG d   1       2.990  -2.807  -1.939  0.00  0.00     0.052 H 
ATOM     50  H   LIG d   1       4.636  -2.153  -1.774  0.00  0.00     0.052 H 
ENDBRANCH  46  47
ENDBRANCH  12  46
TORSDOF 6
ENDMDL
MODEL 2
REMARK VINA RESULT:      -5.7      1.736      2.340
REMARK  6 active torsions:
REMARK  status: ('A' for Active; 'I' for Inactive)
REMARK    1  A    between atoms: C_1  and  O_2 
REMARK    2  A    between atoms: O_2  and  C_3 
REMARK    3  A    between atoms: C_6  and  C_9 
REMARK       I    between atoms: C_9  and  N_11 
REMARK    4  A    between atoms: N_11  and  C_12 
REMARK    5  A    between atoms: C_23  and  O_30 
REMARK    6  A    between atoms: O_30  and  C_31 
ROOT
ATOM      1  C   LIG d   1       9.281   3.287  -4.060  0.00  0.00     0.052 C 
ATOM      2  H   LIG d   1       8.306   3.703  -4.316  0.00  0.00     0.052 H 
ATOM      3  C   LIG d   1      10.257   3.425  -5.255  0.00  0.00    -0.016 C 
ATOM      4  C   LIG d   1      11.055   2.093  -5.196  0.00  0.00     0.017 C 
ATOM      5  N   LIG d   1      10.020   1.113  -4.819  0.00  0.00    -0.286 N 
ATOM      6  CA  LIG d   1       9.170   1.773  -3.812  0.00  0.00     0.121 C 
ATOM      7  HA  LIG d   1       9.509   1.520  -2.808  0.00  0.00     0.061 H 
ATOM      8  C   LIG d   1       7.746   1.316  -4.012  0.00  0.00     0.239 C 
ATOM      9  O   LIG d   1       6.818   1.991  -3.619  0.00  0.00    -0.274 OA
ATOM     10  N   LIG d   1       7.526   0.139  -4.634  0.00  0.00    -0.286 N 
ATOM     11  C   LIG d   1       6.240  -0.351  -5.147  0.00  0.00     0.042 C 
ATOM     12  C   LIG d   1       6.517  -1.702  -5.845  0.00  0.00     0.076 C 
ATOM     13  H   LIG d   1       5.918  -1.799  -6.751  0.00  0.00     0.061 H 
ATOM     14  C   LIG d   1       8.029  -1.606  -6.191  0.00  0.00     0.002 C 
ATOM     15  CA  LIG d   1       8.569  -0.856  -4.951  0.00  0.00     0.105 C 
ATOM     16  HA  LIG d   1       8.735  -1.543  -4.121  0.00  0.00     0.060 H 
ATOM     17  C   LIG d   1       9.841  -0.126  -5.308  0.00  0.00     0.237 C 
ATOM     18  O   LIG d   1      10.678  -0.643  -6.015  0.00  0.00    -0.274 OA
ATOM     19  H   LIG d   1      10.920   4.279  -5.116  0.00  0.00     0.030 H 
ATOM     20  H   LIG d   1       9.712   3.507  -6.194  0.00  0.00     0.030 H 
ATOM     21  H   LIG d   1      11.835   2.144  -4.436  0.00  0.00     0.046 H 
ATOM     22  H   LIG d   1      11.478   1.854  -6.172  0.00  0.00     0.046 H 
ATOM     23  H   LIG d   1       5.832   0.361  -5.865  0.00  0.00     0.049 H 
ATOM     24  H   LIG d   1       5.542  -0.494  -4.324  0.00  0.00     0.049 H 
ATOM     25  H   LIG d   1       8.188  -1.025  -7.100  0.00  0.00     0.031 H 
ATOM     26  H   LIG d   1       8.476  -2.596  -6.277  0.00  0.00     0.031 H 
ENDROOT
BRANCH   1  27
ATOM     27  N   LIG d   1       9.827   3.958  -2.877  0.00  0.00    -0.306 N 
ATOM     28  C   LIG d   1       9.766   5.301  -2.775  0.00  0.00     0.244 C 
ATOM     29  O   LIG d   1       9.259   5.955  -3.665  0.00  0.00    -0.270 OA
ATOM     30  H   LIG d   1      10.232   3.436  -2.167  0.00  0.00     0.149 HD
BRANCH  28  31
ATOM     31  C   LIG d   1      10.316   5.976  -1.584  0.00  0.00     0.037 A 
ATOM     32  C   LIG d   1       9.887   7.263  -1.248  0.00  0.00    -0.046 A 
ATOM     33  C   LIG d   1      10.402   7.890  -0.135  0.00  0.00    -0.019 A 
ATOM     34  H   LIG d   1       9.153   7.766  -1.860  0.00  0.00     0.063 H 
ATOM     35  C   LIG d   1      11.346   7.244   0.654  0.00  0.00     0.120 A 
ATOM     36  H   LIG d   1      10.072   8.885   0.125  0.00  0.00     0.065 H 
ATOM     37  C   LIG d   1      11.775   5.964   0.324  0.00  0.00    -0.019 A 
ATOM     38  C   LIG d   1      11.261   5.327  -0.784  0.00  0.00    -0.046 A 
ATOM     39  H   LIG d   1      12.509   5.465   0.939  0.00  0.00     0.065 H 
ATOM     40  H   LIG d   1      11.591   4.331  -1.038  0.00  0.00     0.063 H 
BRANCH  35  41
ATOM     41  O   LIG d   1      11.851   7.864   1.750  0.00  0.00    -0.495 OA
BRANCH  41  42
ATOM     42  C   LIG d   1      11.869   9.293   1.738  0.00  0.00     0.079 C 
ATOM     43  H   LIG d   1      11.042   9.672   2.339  0.00  0.00     0.066 H 
ATOM     44  H   LIG d   1      12.813   9.648   2.153  0.00  0.00     0.066 H 
ATOM     45  H   LIG d   1      11.765   9.649   0.713  0.00  0.00     0.066 H 
ENDBRANCH  41  42
ENDBRANCH  35  41
ENDBRANCH  28  31
ENDBRANCH   1  27
BRANCH  12  46
ATOM     46  O   LIG d   1       6.269  -2.795  -4.958  0.00  0.00    -0.378 OA
BRANCH  46  47
ATOM     47  C   LIG d   1       5.115  -2.623  -4.133  0.00  0.00     0.037 C 
ATOM     48  H   LIG d   1       5.300  -1.829  -3.409  0.00  0.00     0.052 H 
ATOM     49  H   LIG d   1       4.260  -2.356  -4.755  0.00  0.00     0.052 H 
ATOM     50  H   LIG d   1       4.903  -3.553  -3.606  0.00  0.00     0.052 H 
ENDBRANCH  46  47
ENDBRANCH  12  46
TORSDOF 6
ENDMDL
MODEL 3
REMARK VINA RESULT:      -5.7      2.378      9.115
REMARK  6 active torsions:
REMARK  status: ('A' for Active; 'I' for Inactive)
REMARK    1  A    between atoms: C_1  and  O_2 
REMARK    2  A    between atoms: O_2  and  C_3 
REMARK    3  A    between atoms: C_6  and  C_9 
REMARK       I    between atoms: C_9  and  N_11 
REMARK    4  A    between atoms: N_11  and  C_12 
REMARK    5  A    between atoms: C_23  and  O_30 
REMARK    6  A    between atoms: O_30  and  C_31 
ROOT
ATOM      1  C   LIG d   1       9.970   4.462  -4.253  0.00  0.00     0.052 C 
ATOM      2  H   LIG d   1      10.886   3.885  -4.116  0.00  0.00     0.052 H 
ATOM      3  C   LIG d   1      10.127   5.450  -5.435  0.00  0.00    -0.016 C 
ATOM      4  C   LIG d   1       9.374   6.709  -4.927  0.00  0.00     0.017 C 
ATOM      5  N   LIG d   1       9.734   6.747  -3.498  0.00  0.00    -0.286 N 
ATOM      6  CA  LIG d   1       9.708   5.351  -3.026  0.00  0.00     0.121 C 
ATOM      7  HA  LIG d   1       8.739   5.121  -2.582  0.00  0.00     0.061 H 
ATOM      8  C   LIG d   1      10.804   5.169  -2.006  0.00  0.00     0.239 C 
ATOM      9  O   LIG d   1      11.263   4.068  -1.780  0.00  0.00    -0.274 OA
ATOM     10  N   LIG d   1      11.263   6.254  -1.348  0.00  0.00    -0.286 N 
ATOM     11  C   LIG d   1      12.477   6.328  -0.525  0.00  0.00     0.042 C 
ATOM     12  C   LIG d   1      12.617   7.794  -0.056  0.00  0.00     0.076 C 
ATOM     13  H   LIG d   1      13.661   8.105  -0.068  0.00  0.00     0.061 H 
ATOM     14  C   LIG d   1      11.797   8.574  -1.122  0.00  0.00     0.002 C 
ATOM     15  CA  LIG d   1      10.634   7.589  -1.381  0.00  0.00     0.105 C 
ATOM     16  HA  LIG d   1       9.862   7.688  -0.618  0.00  0.00     0.060 H 
ATOM     17  C   LIG d   1      10.063   7.820  -2.759  0.00  0.00     0.237 C 
ATOM     18  O   LIG d   1       9.906   8.943  -3.187  0.00  0.00    -0.274 OA
ATOM     19  H   LIG d   1       9.657   5.055  -6.335  0.00  0.00     0.030 H 
ATOM     20  H   LIG d   1      11.178   5.676  -5.616  0.00  0.00     0.030 H 
ATOM     21  H   LIG d   1       8.297   6.591  -5.052  0.00  0.00     0.046 H 
ATOM     22  H   LIG d   1       9.727   7.604  -5.440  0.00  0.00     0.046 H 
ATOM     23  H   LIG d   1      13.345   6.043  -1.119  0.00  0.00     0.049 H 
ATOM     24  H   LIG d   1      12.381   5.670   0.338  0.00  0.00     0.049 H 
ATOM     25  H   LIG d   1      12.384   8.735  -2.028  0.00  0.00     0.031 H 
ATOM     26  H   LIG d   1      11.430   9.518  -0.722  0.00  0.00     0.031 H 
ENDROOT
BRANCH   1  27
ATOM     27  N   LIG d   1       8.834   3.567  -4.486  0.00  0.00    -0.306 N 
ATOM     28  C   LIG d   1       8.927   2.261  -4.166  0.00  0.00     0.244 C 
ATOM     29  O   LIG d   1       9.954   1.825  -3.684  0.00  0.00    -0.270 OA
ATOM     30  H   LIG d   1       8.013   3.915  -4.870  0.00  0.00     0.149 HD
BRANCH  28  31
ATOM     31  C   LIG d   1       7.782   1.360  -4.401  0.00  0.00     0.037 A 
ATOM     32  C   LIG d   1       7.666   0.676  -5.615  0.00  0.00    -0.046 A 
ATOM     33  C   LIG d   1       6.596  -0.163  -5.830  0.00  0.00    -0.019 A 
ATOM     34  H   LIG d   1       8.414   0.807  -6.382  0.00  0.00     0.063 H 
ATOM     35  C   LIG d   1       5.633  -0.333  -4.843  0.00  0.00     0.120 A 
ATOM     36  H   LIG d   1       6.505  -0.691  -6.767  0.00  0.00     0.065 H 
ATOM     37  C   LIG d   1       5.745   0.345  -3.634  0.00  0.00    -0.019 A 
ATOM     38  C   LIG d   1       6.815   1.183  -3.408  0.00  0.00    -0.046 A 
ATOM     39  H   LIG d   1       4.994   0.211  -2.869  0.00  0.00     0.065 H 
ATOM     40  H   LIG d   1       6.902   1.706  -2.468  0.00  0.00     0.063 H 
BRANCH  35  41
ATOM     41  O   LIG d   1       4.581  -1.162  -5.058  0.00  0.00    -0.495 OA
BRANCH  41  42
ATOM     42  C   LIG d   1       4.059  -1.857  -3.924  0.00  0.00     0.079 C 
ATOM     43  H   LIG d   1       3.015  -1.582  -3.778  0.00  0.00     0.066 H 
ATOM     44  H   LIG d   1       4.132  -2.932  -4.092  0.00  0.00     0.066 H 
ATOM     45  H   LIG d   1       4.633  -1.588  -3.037  0.00  0.00     0.066 H 
ENDBRANCH  41  42
ENDBRANCH  35  41
ENDBRANCH  28  31
ENDBRANCH   1  27
BRANCH  12  46
ATOM     46  O   LIG d   1      12.052   7.970   1.245  0.00  0.00    -0.378 OA
BRANCH  46  47
ATOM     47  C   LIG d   1      11.903   9.337   1.633  0.00  0.00     0.037 C 
ATOM     48  H   LIG d   1      12.427   9.977   0.923  0.00  0.00     0.052 H 
ATOM     49  H   LIG d   1      10.845   9.598   1.645  0.00  0.00     0.052 H 
ATOM     50  H   LIG d   1      12.322   9.479   2.629  0.00  0.00     0.052 H 
ENDBRANCH  46  47
ENDBRANCH  12  46
TORSDOF 6
ENDMDL
MODEL 4
REMARK VINA RESULT:      -5.7      8.523     11.306
REMARK  6 active torsions:
REMARK  status: ('A' for Active; 'I' for Inactive)
REMARK    1  A    between atoms: C_1  and  O_2 
REMARK    2  A    between atoms: O_2  and  C_3 
REMARK    3  A    between atoms: C_6  and  C_9 
REMARK       I    between atoms: C_9  and  N_11 
REMARK    4  A    between atoms: N_11  and  C_12 
REMARK    5  A    between atoms: C_23  and  O_30 
REMARK    6  A    between atoms: O_30  and  C_31 
ROOT
ATOM      1  C   LIG d   1      11.963   9.370   1.316  0.00  0.00     0.052 C 
ATOM      2  H   LIG d   1      12.546  10.276   1.487  0.00  0.00     0.052 H 
ATOM      3  C   LIG d   1      12.742   8.395   0.398  0.00  0.00    -0.016 C 
ATOM      4  C   LIG d   1      11.619   7.799  -0.494  0.00  0.00     0.017 C 
ATOM      5  N   LIG d   1      10.745   8.962  -0.733  0.00  0.00    -0.286 N 
ATOM      6  CA  LIG d   1      10.676   9.699   0.542  0.00  0.00     0.121 C 
ATOM      7  HA  LIG d   1       9.796   9.391   1.107  0.00  0.00     0.061 H 
ATOM      8  C   LIG d   1      10.611  11.175   0.240  0.00  0.00     0.239 C 
ATOM      9  O   LIG d   1      10.961  11.991   1.067  0.00  0.00    -0.274 OA
ATOM     10  N   LIG d   1      10.154  11.570  -0.966  0.00  0.00    -0.286 N 
ATOM     11  C   LIG d   1      10.255  12.917  -1.541  0.00  0.00     0.042 C 
ATOM     12  C   LIG d   1       9.663  12.846  -2.967  0.00  0.00     0.076 C 
ATOM     13  H   LIG d   1      10.243  13.460  -3.657  0.00  0.00     0.061 H 
ATOM     14  C   LIG d   1       9.801  11.339  -3.321  0.00  0.00     0.002 C 
ATOM     15  CA  LIG d   1       9.502  10.685  -1.952  0.00  0.00     0.105 C 
ATOM     16  HA  LIG d   1       8.428  10.614  -1.780  0.00  0.00     0.060 H 
ATOM     17  C   LIG d   1      10.150   9.323  -1.882  0.00  0.00     0.237 C 
ATOM     18  O   LIG d   1      10.133   8.577  -2.837  0.00  0.00    -0.274 OA
ATOM     19  H   LIG d   1      13.225   7.614   0.985  0.00  0.00     0.030 H 
ATOM     20  H   LIG d   1      13.473   8.930  -0.207  0.00  0.00     0.030 H 
ATOM     21  H   LIG d   1      11.081   7.013   0.036  0.00  0.00     0.046 H 
ATOM     22  H   LIG d   1      12.029   7.423  -1.432  0.00  0.00     0.046 H 
ATOM     23  H   LIG d   1      11.300  13.223  -1.587  0.00  0.00     0.049 H 
ATOM     24  H   LIG d   1       9.684  13.622  -0.937  0.00  0.00     0.049 H 
ATOM     25  H   LIG d   1      10.813  11.106  -3.654  0.00  0.00     0.031 H 
ATOM     26  H   LIG d   1       9.066  11.042  -4.068  0.00  0.00     0.031 H 
ENDROOT
BRANCH   1  27
ATOM     27  N   LIG d   1      11.642   8.722   2.590  0.00  0.00    -0.306 N 
ATOM     28  C   LIG d   1      12.178   9.184   3.737  0.00  0.00     0.244 C 
ATOM     29  O   LIG d   1      12.931  10.138   3.713  0.00  0.00    -0.270 OA
ATOM     30  H   LIG d   1      11.041   7.960   2.608  0.00  0.00     0.149 HD
BRANCH  28  31
ATOM     31  C   LIG d   1      11.853   8.531   5.019  0.00  0.00     0.037 A 
ATOM     32  C   LIG d   1      12.083   9.201   6.224  0.00  0.00    -0.046 A 
ATOM     33  C   LIG d   1      11.779   8.589   7.419  0.00  0.00    -0.019 A 
ATOM     34  H   LIG d   1      12.500  10.197   6.218  0.00  0.00     0.063 H 
ATOM     35  C   LIG d   1      11.242   7.306   7.429  0.00  0.00     0.120 A 
ATOM     36  H   LIG d   1      11.957   9.105   8.351  0.00  0.00     0.065 H 
ATOM     37  C   LIG d   1      11.012   6.637   6.232  0.00  0.00    -0.019 A 
ATOM     38  C   LIG d   1      11.308   7.244   5.032  0.00  0.00    -0.046 A 
ATOM     39  H   LIG d   1      10.595   5.641   6.243  0.00  0.00     0.065 H 
ATOM     40  H   LIG d   1      11.126   6.725   4.103  0.00  0.00     0.063 H 
BRANCH  35  41
ATOM     41  O   LIG d   1      10.942   6.707   8.608  0.00  0.00    -0.495 OA
BRANCH  41  42
ATOM     42  C   LIG d   1      10.313   5.425   8.543  0.00  0.00     0.079 C 
ATOM     43  H   LIG d   1       9.947   5.251   7.531  0.00  0.00     0.066 H 
ATOM     44  H   LIG d   1      11.036   4.652   8.805  0.00  0.00     0.066 H 
ATOM     45  H   LIG d   1       9.478   5.395   9.242  0.00  0.00     0.066 H 
ENDBRANCH  41  42
ENDBRANCH  35  41
ENDBRANCH  28  31
ENDBRANCH   1  27
BRANCH  12  46
ATOM     46  O   LIG d   1       8.290  13.243  -2.971  0.00  0.00    -0.378 OA
BRANCH  46  47
ATOM     47  C   LIG d   1       8.094  14.658  -2.955  0.00  0.00     0.037 C 
ATOM     48  H   LIG d   1       8.136  15.021  -1.927  0.00  0.00     0.052 H 
ATOM     49  H   LIG d   1       8.877  15.140  -3.542  0.00  0.00     0.052 H 
ATOM     50  H   LIG d   1       7.121  14.895  -3.385  0.00  0.00     0.052 H 
ENDBRANCH  46  47
ENDBRANCH  12  46
TORSDOF 6
ENDMDL
MODEL 5
REMARK VINA RESULT:      -5.6      3.115      8.847
REMARK  6 active torsions:
REMARK  status: ('A' for Active; 'I' for Inactive)
REMARK    1  A    between atoms: C_1  and  O_2 
REMARK    2  A    between atoms: O_2  and  C_3 
REMARK    3  A    between atoms: C_6  and  C_9 
REMARK       I    between atoms: C_9  and  N_11 
REMARK    4  A    between atoms: N_11  and  C_12 
REMARK    5  A    between atoms: C_23  and  O_30 
REMARK    6  A    between atoms: O_30  and  C_31 
ROOT
ATOM      1  C   LIG d   1       9.801   3.974  -4.999  0.00  0.00     0.052 C 
ATOM      2  H   LIG d   1      10.475   3.835  -4.153  0.00  0.00     0.052 H 
ATOM      3  C   LIG d   1      10.589   3.924  -6.331  0.00  0.00    -0.016 C 
ATOM      4  C   LIG d   1       9.886   5.016  -7.183  0.00  0.00     0.017 C 
ATOM      5  N   LIG d   1       9.605   6.069  -6.191  0.00  0.00    -0.286 N 
ATOM      6  CA  LIG d   1       9.175   5.379  -4.961  0.00  0.00     0.121 C 
ATOM      7  HA  LIG d   1       8.088   5.317  -4.924  0.00  0.00     0.061 H 
ATOM      8  C   LIG d   1       9.694   6.148  -3.772  0.00  0.00     0.239 C 
ATOM      9  O   LIG d   1       9.845   5.602  -2.699  0.00  0.00    -0.274 OA
ATOM     10  N   LIG d   1       9.983   7.457  -3.925  0.00  0.00    -0.286 N 
ATOM     11  C   LIG d   1      10.728   8.303  -2.983  0.00  0.00     0.042 C 
ATOM     12  C   LIG d   1      10.870   9.695  -3.639  0.00  0.00     0.076 C 
ATOM     13  H   LIG d   1      11.853  10.119  -3.437  0.00  0.00     0.061 H 
ATOM     14  C   LIG d   1      10.706   9.378  -5.152  0.00  0.00     0.002 C 
ATOM     15  CA  LIG d   1       9.632   8.267  -5.108  0.00  0.00     0.105 C 
ATOM     16  HA  LIG d   1       8.633   8.693  -5.021  0.00  0.00     0.060 H 
ATOM     17  C   LIG d   1       9.743   7.398  -6.338  0.00  0.00     0.237 C 
ATOM     18  O   LIG d   1       9.950   7.886  -7.427  0.00  0.00    -0.274 OA
ATOM     19  H   LIG d   1      10.494   2.946  -6.801  0.00  0.00     0.030 H 
ATOM     20  H   LIG d   1      11.638   4.175  -6.172  0.00  0.00     0.030 H 
ATOM     21  H   LIG d   1       8.959   4.633  -7.613  0.00  0.00     0.046 H 
ATOM     22  H   LIG d   1      10.551   5.386  -7.963  0.00  0.00     0.046 H 
ATOM     23  H   LIG d   1      11.714   7.876  -2.801  0.00  0.00     0.049 H 
ATOM     24  H   LIG d   1      10.179   8.388  -2.046  0.00  0.00     0.049 H 
ATOM     25  H   LIG d   1      11.638   9.006  -5.578  0.00  0.00     0.031 H 
ATOM     26  H   LIG d   1      10.347  10.249  -5.699  0.00  0.00     0.031 H 
ENDROOT
BRANCH   1  27
ATOM     27  N   LIG d   1       8.753   2.949  -4.990  0.00  0.00    -0.306 N 
ATOM     28  C   LIG d   1       8.581   2.170  -3.903  0.00  0.00     0.244 C 
ATOM     29  O   LIG d   1       9.296   2.317  -2.931  0.00  0.00    -0.270 OA
ATOM     30  H   LIG d   1       8.182   2.832  -5.766  0.00  0.00     0.149 HD
BRANCH  28  31
ATOM     31  C   LIG d   1       7.526   1.139  -3.895  0.00  0.00     0.037 A 
ATOM     32  C   LIG d   1       7.719  -0.067  -4.576  0.00  0.00    -0.046 A 
ATOM     33  C   LIG d   1       6.733  -1.027  -4.565  0.00  0.00    -0.019 A 
ATOM     34  H   LIG d   1       8.641  -0.244  -5.110  0.00  0.00     0.063 H 
ATOM     35  C   LIG d   1       5.546  -0.800  -3.878  0.00  0.00     0.120 A 
ATOM     36  H   LIG d   1       6.880  -1.958  -5.092  0.00  0.00     0.065 H 
ATOM     37  C   LIG d   1       5.350   0.398  -3.199  0.00  0.00    -0.019 A 
ATOM     38  C   LIG d   1       6.334   1.361  -3.200  0.00  0.00    -0.046 A 
ATOM     39  H   LIG d   1       4.427   0.571  -2.666  0.00  0.00     0.065 H 
ATOM     40  H   LIG d   1       6.183   2.289  -2.669  0.00  0.00     0.063 H 
BRANCH  35  41
ATOM     41  O   LIG d   1       4.576  -1.749  -3.869  0.00  0.00    -0.495 OA
BRANCH  41  42
ATOM     42  C   LIG d   1       3.955  -2.030  -2.613  0.00  0.00     0.079 C 
ATOM     43  H   LIG d   1       4.563  -1.620  -1.807  0.00  0.00     0.066 H 
ATOM     44  H   LIG d   1       2.964  -1.576  -2.588  0.00  0.00     0.066 H 
ATOM     45  H   LIG d   1       3.865  -3.109  -2.487  0.00  0.00     0.066 H 
ENDBRANCH  41  42
ENDBRANCH  35  41
ENDBRANCH  28  31
ENDBRANCH   1  27
BRANCH  12  46
ATOM     46  O   LIG d   1       9.838  10.577  -3.193  0.00  0.00    -0.378 OA
BRANCH  46  47
ATOM     47  C   LIG d   1       9.463  10.389  -1.827  0.00  0.00     0.037 C 
ATOM     48  H   LIG d   1       8.514  10.891  -1.637  0.00  0.00     0.052 H 
ATOM     49  H   LIG d   1       9.357   9.323  -1.623  0.00  0.00     0.052 H 
ATOM     50  H   LIG d   1      10.232  10.807  -1.178  0.00  0.00     0.052 H 
ENDBRANCH  46  47
ENDBRANCH  12  46
TORSDOF 6
ENDMDL
MODEL 6
REMARK VINA RESULT:      -5.5      6.247     10.123
REMARK  6 active torsions:
REMARK  status: ('A' for Active; 'I' for Inactive)
REMARK    1  A    between atoms: C_1  and  O_2 
REMARK    2  A    between atoms: O_2  and  C_3 
REMARK    3  A    between atoms: C_6  and  C_9 
REMARK       I    between atoms: C_9  and  N_11 
REMARK    4  A    between atoms: N_11  and  C_12 
REMARK    5  A    between atoms: C_23  and  O_30 
REMARK    6  A    between atoms: O_30  and  C_31 
ROOT
ATOM      1  C   LIG d   1       3.641  -2.146  -8.754  0.00  0.00     0.052 C 
ATOM      2  H   LIG d   1       2.635  -1.737  -8.856  0.00  0.00     0.052 H 
ATOM      3  C   LIG d   1       3.576  -3.641  -8.353  0.00  0.00    -0.016 C 
ATOM      4  C   LIG d   1       4.758  -3.775  -7.355  0.00  0.00     0.017 C 
ATOM      5  N   LIG d   1       4.698  -2.506  -6.609  0.00  0.00    -0.286 N 
ATOM      6  CA  LIG d   1       4.384  -1.457  -7.596  0.00  0.00     0.121 C 
ATOM      7  HA  LIG d   1       5.301  -0.987  -7.951  0.00  0.00     0.061 H 
ATOM      8  C   LIG d   1       3.493  -0.432  -6.941  0.00  0.00     0.239 C 
ATOM      9  O   LIG d   1       2.771   0.278  -7.610  0.00  0.00    -0.274 OA
ATOM     10  N   LIG d   1       3.517  -0.317  -5.597  0.00  0.00    -0.286 N 
ATOM     11  C   LIG d   1       2.558   0.421  -4.766  0.00  0.00     0.042 C 
ATOM     12  C   LIG d   1       2.960   0.185  -3.293  0.00  0.00     0.076 C 
ATOM     13  H   LIG d   1       2.077   0.067  -2.665  0.00  0.00     0.061 H 
ATOM     14  C   LIG d   1       3.766  -1.142  -3.366  0.00  0.00     0.002 C 
ATOM     15  CA  LIG d   1       4.505  -0.965  -4.713  0.00  0.00     0.105 C 
ATOM     16  HA  LIG d   1       5.398  -0.352  -4.591  0.00  0.00     0.060 H 
ATOM     17  C   LIG d   1       4.854  -2.318  -5.287  0.00  0.00     0.237 C 
ATOM     18  O   LIG d   1       5.264  -3.208  -4.575  0.00  0.00    -0.274 OA
ATOM     19  H   LIG d   1       3.729  -4.281  -9.221  0.00  0.00     0.030 H 
ATOM     20  H   LIG d   1       2.630  -3.872  -7.864  0.00  0.00     0.030 H 
ATOM     21  H   LIG d   1       5.705  -3.866  -7.888  0.00  0.00     0.046 H 
ATOM     22  H   LIG d   1       4.606  -4.624  -6.688  0.00  0.00     0.046 H 
ATOM     23  H   LIG d   1       1.550   0.045  -4.940  0.00  0.00     0.049 H 
ATOM     24  H   LIG d   1       2.606   1.484  -4.999  0.00  0.00     0.049 H 
ATOM     25  H   LIG d   1       3.100  -2.005  -3.395  0.00  0.00     0.031 H 
ATOM     26  H   LIG d   1       4.471  -1.220  -2.539  0.00  0.00     0.031 H 
ENDROOT
BRANCH   1  27
ATOM     27  N   LIG d   1       4.386  -1.987 -10.005  0.00  0.00    -0.306 N 
ATOM     28  C   LIG d   1       3.900  -1.198 -10.984  0.00  0.00     0.244 C 
ATOM     29  O   LIG d   1       2.842  -0.620 -10.830  0.00  0.00    -0.270 OA
ATOM     30  H   LIG d   1       5.231  -2.448 -10.128  0.00  0.00     0.149 HD
BRANCH  28  31
ATOM     31  C   LIG d   1       4.652  -1.038 -12.244  0.00  0.00     0.037 A 
ATOM     32  C   LIG d   1       6.047  -1.133 -12.244  0.00  0.00    -0.046 A 
ATOM     33  C   LIG d   1       6.745  -0.983 -13.422  0.00  0.00    -0.019 A 
ATOM     34  H   LIG d   1       6.576  -1.323 -11.322  0.00  0.00     0.063 H 
ATOM     35  C   LIG d   1       6.065  -0.739 -14.609  0.00  0.00     0.120 A 
ATOM     36  H   LIG d   1       7.822  -1.056 -13.423  0.00  0.00     0.065 H 
ATOM     37  C   LIG d   1       4.678  -0.644 -14.613  0.00  0.00    -0.019 A 
ATOM     38  C   LIG d   1       3.972  -0.798 -13.441  0.00  0.00    -0.046 A 
ATOM     39  H   LIG d   1       4.153  -0.454 -15.537  0.00  0.00     0.065 H 
ATOM     40  H   LIG d   1       2.894  -0.728 -13.445  0.00  0.00     0.063 H 
BRANCH  35  41
ATOM     41  O   LIG d   1       6.756  -0.593 -15.767  0.00  0.00    -0.495 OA
BRANCH  41  42
ATOM     42  C   LIG d   1       6.353   0.468 -16.635  0.00  0.00     0.079 C 
ATOM     43  H   LIG d   1       5.276   0.421 -16.791  0.00  0.00     0.066 H 
ATOM     44  H   LIG d   1       6.613   1.426 -16.182  0.00  0.00     0.066 H 
ATOM     45  H   LIG d   1       6.864   0.368 -17.593  0.00  0.00     0.066 H 
ENDBRANCH  41  42
ENDBRANCH  35  41
ENDBRANCH  28  31
ENDBRANCH   1  27
BRANCH  12  46
ATOM     46  O   LIG d   1       3.782   1.250  -2.811  0.00  0.00    -0.378 OA
BRANCH  46  47
ATOM     47  C   LIG d   1       4.574   0.906  -1.673  0.00  0.00     0.037 C 
ATOM     48  H   LIG d   1       5.625   1.102  -1.887  0.00  0.00     0.052 H 
ATOM     49  H   LIG d   1       4.259   1.503  -0.817  0.00  0.00     0.052 H 
ATOM     50  H   LIG d   1       4.441  -0.152  -1.445  0.00  0.00     0.052 H 
ENDBRANCH  46  47
ENDBRANCH  12  46
TORSDOF 6
ENDMDL
MODEL 7
REMARK VINA RESULT:      -5.5      2.106      8.933
REMARK  6 active torsions:
REMARK  status: ('A' for Active; 'I' for Inactive)
REMARK    1  A    between atoms: C_1  and  O_2 
REMARK    2  A    between atoms: O_2  and  C_3 
REMARK    3  A    between atoms: C_6  and  C_9 
REMARK       I    between atoms: C_9  and  N_11 
REMARK    4  A    between atoms: N_11  and  C_12 
REMARK    5  A    between atoms: C_23  and  O_30 
REMARK    6  A    between atoms: O_30  and  C_31 
ROOT
ATOM      1  C   LIG d   1       9.699   3.561  -4.350  0.00  0.00     0.052 C 
ATOM      2  H   LIG d   1      10.339   2.922  -4.960  0.00  0.00     0.052 H 
ATOM      3  C   LIG d   1       9.311   4.840  -5.132  0.00  0.00    -0.016 C 
ATOM      4  C   LIG d   1       9.350   5.935  -4.031  0.00  0.00     0.017 C 
ATOM      5  N   LIG d   1      10.514   5.537  -3.219  0.00  0.00    -0.286 N 
ATOM      6  CA  LIG d   1      10.467   4.067  -3.117  0.00  0.00     0.121 C 
ATOM      7  HA  LIG d   1       9.962   3.769  -2.198  0.00  0.00     0.061 H 
ATOM      8  C   LIG d   1      11.880   3.540  -3.130  0.00  0.00     0.239 C 
ATOM      9  O   LIG d   1      12.111   2.398  -3.471  0.00  0.00    -0.274 OA
ATOM     10  N   LIG d   1      12.881   4.361  -2.750  0.00  0.00    -0.286 N 
ATOM     11  C   LIG d   1      14.319   4.129  -2.936  0.00  0.00     0.042 C 
ATOM     12  C   LIG d   1      15.051   5.387  -2.414  0.00  0.00     0.076 C 
ATOM     13  H   LIG d   1      15.899   5.633  -3.053  0.00  0.00     0.061 H 
ATOM     14  C   LIG d   1      13.954   6.484  -2.507  0.00  0.00     0.002 C 
ATOM     15  CA  LIG d   1      12.695   5.679  -2.112  0.00  0.00     0.105 C 
ATOM     16  HA  LIG d   1      12.611   5.592  -1.029  0.00  0.00     0.060 H 
ATOM     17  C   LIG d   1      11.465   6.330  -2.698  0.00  0.00     0.237 C 
ATOM     18  O   LIG d   1      11.340   7.535  -2.698  0.00  0.00    -0.274 OA
ATOM     19  H   LIG d   1       8.310   4.749  -5.551  0.00  0.00     0.030 H 
ATOM     20  H   LIG d   1      10.040   5.054  -5.914  0.00  0.00     0.030 H 
ATOM     21  H   LIG d   1       8.437   5.914  -3.434  0.00  0.00     0.046 H 
ATOM     22  H   LIG d   1       9.503   6.921  -4.471  0.00  0.00     0.046 H 
ATOM     23  H   LIG d   1      14.537   3.984  -3.994  0.00  0.00     0.049 H 
ATOM     24  H   LIG d   1      14.631   3.255  -2.366  0.00  0.00     0.049 H 
ATOM     25  H   LIG d   1      13.870   6.870  -3.523  0.00  0.00     0.031 H 
ATOM     26  H   LIG d   1      14.144   7.289  -1.798  0.00  0.00     0.031 H 
ENDROOT
BRANCH   1  27
ATOM     27  N   LIG d   1       8.496   2.833  -3.938  0.00  0.00    -0.306 N 
ATOM     28  C   LIG d   1       8.446   1.491  -4.056  0.00  0.00     0.244 C 
ATOM     29  O   LIG d   1       9.399   0.884  -4.505  0.00  0.00    -0.270 OA
ATOM     30  H   LIG d   1       7.736   3.316  -3.578  0.00  0.00     0.149 HD
BRANCH  28  31
ATOM     31  C   LIG d   1       7.234   0.758  -3.640  0.00  0.00     0.037 A 
ATOM     32  C   LIG d   1       7.193  -0.636  -3.732  0.00  0.00    -0.046 A 
ATOM     33  C   LIG d   1       6.060  -1.316  -3.343  0.00  0.00    -0.019 A 
ATOM     34  H   LIG d   1       8.047  -1.179  -4.109  0.00  0.00     0.063 H 
ATOM     35  C   LIG d   1       4.960  -0.619  -2.858  0.00  0.00     0.120 A 
ATOM     36  H   LIG d   1       6.027  -2.393  -3.415  0.00  0.00     0.065 H 
ATOM     37  C   LIG d   1       4.998   0.768  -2.764  0.00  0.00    -0.019 A 
ATOM     38  C   LIG d   1       6.129   1.456  -3.146  0.00  0.00    -0.046 A 
ATOM     39  H   LIG d   1       4.142   1.307  -2.387  0.00  0.00     0.065 H 
ATOM     40  H   LIG d   1       6.159   2.532  -3.069  0.00  0.00     0.063 H 
BRANCH  35  41
ATOM     41  O   LIG d   1       3.847  -1.292  -2.475  0.00  0.00    -0.495 OA
BRANCH  41  42
ATOM     42  C   LIG d   1       2.610  -0.897  -3.072  0.00  0.00     0.079 C 
ATOM     43  H   LIG d   1       2.512   0.187  -3.019  0.00  0.00     0.066 H 
ATOM     44  H   LIG d   1       2.594  -1.212  -4.116  0.00  0.00     0.066 H 
ATOM     45  H   LIG d   1       1.783  -1.364  -2.538  0.00  0.00     0.066 H 
ENDBRANCH  41  42
ENDBRANCH  35  41
ENDBRANCH  28  31
ENDBRANCH   1  27
BRANCH  12  46
ATOM     46  O   LIG d   1      15.474   5.206  -1.061  0.00  0.00    -0.378 OA
BRANCH  46  47
ATOM     47  C   LIG d   1      16.321   4.073  -0.863  0.00  0.00     0.037 C 
ATOM     48  H   LIG d   1      17.362   4.398  -0.835  0.00  0.00     0.052 H 
ATOM     49  H   LIG d   1      16.066   3.589   0.079  0.00  0.00     0.052 H 
ATOM     50  H   LIG d   1      16.183   3.368  -1.682  0.00  0.00     0.052 H 
ENDBRANCH  46  47
ENDBRANCH  12  46
TORSDOF 6
ENDMDL
MODEL 8
REMARK VINA RESULT:      -5.5      3.182      9.316
REMARK  6 active torsions:
REMARK  status: ('A' for Active; 'I' for Inactive)
REMARK    1  A    between atoms: C_1  and  O_2 
REMARK    2  A    between atoms: O_2  and  C_3 
REMARK    3  A    between atoms: C_6  and  C_9 
REMARK       I    between atoms: C_9  and  N_11 
REMARK    4  A    between atoms: N_11  and  C_12 
REMARK    5  A    between atoms: C_23  and  O_30 
REMARK    6  A    between atoms: O_30  and  C_31 
ROOT
ATOM      1  C   LIG d   1       6.998  -0.860  -4.986  0.00  0.00     0.052 C 
ATOM      2  H   LIG d   1       6.427  -0.393  -4.183  0.00  0.00     0.052 H 
ATOM      3  C   LIG d   1       7.733  -2.120  -4.464  0.00  0.00    -0.016 C 
ATOM      4  C   LIG d   1       9.093  -2.053  -5.212  0.00  0.00     0.017 C 
ATOM      5  N   LIG d   1       9.393  -0.610  -5.209  0.00  0.00    -0.286 N 
ATOM      6  CA  LIG d   1       8.117   0.081  -5.465  0.00  0.00     0.121 C 
ATOM      7  HA  LIG d   1       8.011   0.297  -6.528  0.00  0.00     0.061 H 
ATOM      8  C   LIG d   1       8.096   1.362  -4.669  0.00  0.00     0.239 C 
ATOM      9  O   LIG d   1       7.045   1.890  -4.373  0.00  0.00    -0.274 OA
ATOM     10  N   LIG d   1       9.271   1.912  -4.297  0.00  0.00    -0.286 N 
ATOM     11  C   LIG d   1       9.460   2.990  -3.319  0.00  0.00     0.042 C 
ATOM     12  C   LIG d   1      10.983   3.210  -3.176  0.00  0.00     0.076 C 
ATOM     13  H   LIG d   1      11.249   3.410  -2.138  0.00  0.00     0.061 H 
ATOM     14  C   LIG d   1      11.571   1.849  -3.643  0.00  0.00     0.002 C 
ATOM     15  CA  LIG d   1      10.596   1.482  -4.786  0.00  0.00     0.105 C 
ATOM     16  HA  LIG d   1      10.868   1.992  -5.710  0.00  0.00     0.060 H 
ATOM     17  C   LIG d   1      10.576  -0.015  -4.982  0.00  0.00     0.237 C 
ATOM     18  O   LIG d   1      11.600  -0.661  -4.937  0.00  0.00    -0.274 OA
ATOM     19  H   LIG d   1       7.188  -3.024  -4.732  0.00  0.00     0.030 H 
ATOM     20  H   LIG d   1       7.882  -2.064  -3.386  0.00  0.00     0.030 H 
ATOM     21  H   LIG d   1       8.991  -2.425  -6.232  0.00  0.00     0.046 H 
ATOM     22  H   LIG d   1       9.859  -2.610  -4.671  0.00  0.00     0.046 H 
ATOM     23  H   LIG d   1       9.035   2.698  -2.358  0.00  0.00     0.049 H 
ATOM     24  H   LIG d   1       8.985   3.903  -3.676  0.00  0.00     0.049 H 
ATOM     25  H   LIG d   1      11.532   1.110  -2.842  0.00  0.00     0.031 H 
ATOM     26  H   LIG d   1      12.587   1.967  -4.017  0.00  0.00     0.031 H 
ENDROOT
BRANCH   1  27
ATOM     27  N   LIG d   1       6.116  -1.212  -6.102  0.00  0.00    -0.306 N 
ATOM     28  C   LIG d   1       4.874  -0.691  -6.170  0.00  0.00     0.244 C 
ATOM     29  O   LIG d   1       4.486   0.070  -5.305  0.00  0.00    -0.270 OA
ATOM     30  H   LIG d   1       6.425  -1.819  -6.792  0.00  0.00     0.149 HD
BRANCH  28  31
ATOM     31  C   LIG d   1       3.986  -1.046  -7.294  0.00  0.00     0.037 A 
ATOM     32  C   LIG d   1       4.059  -2.318  -7.870  0.00  0.00    -0.046 A 
ATOM     33  C   LIG d   1       3.229  -2.645  -8.918  0.00  0.00    -0.019 A 
ATOM     34  H   LIG d   1       4.767  -3.042  -7.494  0.00  0.00     0.063 H 
ATOM     35  C   LIG d   1       2.318  -1.714  -9.403  0.00  0.00     0.120 A 
ATOM     36  H   LIG d   1       3.285  -3.627  -9.365  0.00  0.00     0.065 H 
ATOM     37  C   LIG d   1       2.242  -0.449  -8.833  0.00  0.00    -0.019 A 
ATOM     38  C   LIG d   1       3.065  -0.115  -7.780  0.00  0.00    -0.046 A 
ATOM     39  H   LIG d   1       1.533   0.272  -9.212  0.00  0.00     0.065 H 
ATOM     40  H   LIG d   1       3.002   0.867  -7.335  0.00  0.00     0.063 H 
BRANCH  35  41
ATOM     41  O   LIG d   1       1.500  -2.041 -10.436  0.00  0.00    -0.495 OA
BRANCH  41  42
ATOM     42  C   LIG d   1       1.233  -1.021 -11.400  0.00  0.00     0.079 C 
ATOM     43  H   LIG d   1       1.078  -1.477 -12.377  0.00  0.00     0.066 H 
ATOM     44  H   LIG d   1       0.336  -0.472 -11.109  0.00  0.00     0.066 H 
ATOM     45  H   LIG d   1       2.079  -0.336 -11.449  0.00  0.00     0.066 H 
ENDBRANCH  41  42
ENDBRANCH  35  41
ENDBRANCH  28  31
ENDBRANCH   1  27
BRANCH  12  46
ATOM     46  O   LIG d   1      11.427   4.271  -4.024  0.00  0.00    -0.378 OA
BRANCH  46  47
ATOM     47  C   LIG d   1      10.569   5.413  -4.024  0.00  0.00     0.037 C 
ATOM     48  H   LIG d   1      11.159   6.312  -3.843  0.00  0.00     0.052 H 
ATOM     49  H   LIG d   1      10.071   5.493  -4.991  0.00  0.00     0.052 H 
ATOM     50  H   LIG d   1       9.820   5.305  -3.239  0.00  0.00     0.052 H 
ENDBRANCH  46  47
ENDBRANCH  12  46
TORSDOF 6
ENDMDL
MODEL 9
REMARK VINA RESULT:      -5.4      4.421     10.886
REMARK  6 active torsions:
REMARK  status: ('A' for Active; 'I' for Inactive)
REMARK    1  A    between atoms: C_1  and  O_2 
REMARK    2  A    between atoms: O_2  and  C_3 
REMARK    3  A    between atoms: C_6  and  C_9 
REMARK       I    between atoms: C_9  and  N_11 
REMARK    4  A    between atoms: N_11  and  C_12 
REMARK    5  A    between atoms: C_23  and  O_30 
REMARK    6  A    between atoms: O_30  and  C_31 
ROOT
ATOM      1  C   LIG d   1       3.961  -0.300  -6.953  0.00  0.00     0.052 C 
ATOM      2  H   LIG d   1       4.157   0.448  -7.722  0.00  0.00     0.052 H 
ATOM      3  C   LIG d   1       3.022   0.279  -5.866  0.00  0.00    -0.016 C 
ATOM      4  C   LIG d   1       3.600  -0.329  -4.559  0.00  0.00     0.017 C 
ATOM      5  N   LIG d   1       5.054  -0.282  -4.796  0.00  0.00    -0.286 N 
ATOM      6  CA  LIG d   1       5.258  -0.656  -6.207  0.00  0.00     0.121 C 
ATOM      7  HA  LIG d   1       5.470  -1.722  -6.288  0.00  0.00     0.061 H 
ATOM      8  C   LIG d   1       6.411   0.147  -6.755  0.00  0.00     0.239 C 
ATOM      9  O   LIG d   1       6.517   0.343  -7.948  0.00  0.00    -0.274 OA
ATOM     10  N   LIG d   1       7.324   0.639  -5.893  0.00  0.00    -0.286 N 
ATOM     11  C   LIG d   1       8.354   1.643  -6.190  0.00  0.00     0.042 C 
ATOM     12  C   LIG d   1       9.094   1.938  -4.865  0.00  0.00     0.076 C 
ATOM     13  H   LIG d   1       9.328   2.999  -4.781  0.00  0.00     0.061 H 
ATOM     14  C   LIG d   1       8.053   1.517  -3.790  0.00  0.00     0.002 C 
ATOM     15  CA  LIG d   1       7.415   0.280  -4.464  0.00  0.00     0.105 C 
ATOM     16  HA  LIG d   1       8.030  -0.607  -4.312  0.00  0.00     0.060 H 
ATOM     17  C   LIG d   1       6.019   0.067  -3.929  0.00  0.00     0.237 C 
ATOM     18  O   LIG d   1       5.777   0.207  -2.750  0.00  0.00    -0.274 OA
ATOM     19  H   LIG d   1       1.996  -0.051  -6.025  0.00  0.00     0.030 H 
ATOM     20  H   LIG d   1       3.078   1.367  -5.843  0.00  0.00     0.030 H 
ATOM     21  H   LIG d   1       3.262  -1.358  -4.431  0.00  0.00     0.046 H 
ATOM     22  H   LIG d   1       3.327   0.279  -3.696  0.00  0.00     0.046 H 
ATOM     23  H   LIG d   1       7.888   2.553  -6.565  0.00  0.00     0.049 H 
ATOM     24  H   LIG d   1       9.054   1.250  -6.926  0.00  0.00     0.049 H 
ATOM     25  H   LIG d   1       7.312   2.303  -3.633  0.00  0.00     0.031 H 
ATOM     26  H   LIG d   1       8.541   1.247  -2.855  0.00  0.00     0.031 H 
ENDROOT
BRANCH   1  27
ATOM     27  N   LIG d   1       3.369  -1.501  -7.549  0.00  0.00    -0.306 N 
ATOM     28  C   LIG d   1       3.163  -1.563  -8.880  0.00  0.00     0.244 C 
ATOM     29  O   LIG d   1       3.468  -0.622  -9.586  0.00  0.00    -0.270 OA
ATOM     30  H   LIG d   1       3.126  -2.252  -6.985  0.00  0.00     0.149 HD
BRANCH  28  31
ATOM     31  C   LIG d   1       2.568  -2.773  -9.479  0.00  0.00     0.037 A 
ATOM     32  C   LIG d   1       1.406  -2.673 -10.250  0.00  0.00    -0.046 A 
ATOM     33  C   LIG d   1       0.853  -3.804 -10.807  0.00  0.00    -0.019 A 
ATOM     34  H   LIG d   1       0.942  -1.711 -10.407  0.00  0.00     0.063 H 
ATOM     35  C   LIG d   1       1.449  -5.044 -10.605  0.00  0.00     0.120 A 
ATOM     36  H   LIG d   1      -0.045  -3.729 -11.402  0.00  0.00     0.065 H 
ATOM     37  C   LIG d   1       2.605  -5.147  -9.839  0.00  0.00    -0.019 A 
ATOM     38  C   LIG d   1       3.167  -4.020  -9.283  0.00  0.00    -0.046 A 
ATOM     39  H   LIG d   1       3.065  -6.111  -9.685  0.00  0.00     0.065 H 
ATOM     40  H   LIG d   1       4.067  -4.100  -8.692  0.00  0.00     0.063 H 
BRANCH  35  41
ATOM     41  O   LIG d   1       0.902  -6.156 -11.157  0.00  0.00    -0.495 OA
BRANCH  41  42
ATOM     42  C   LIG d   1       0.108  -6.982 -10.303  0.00  0.00     0.079 C 
ATOM     43  H   LIG d   1       0.194  -6.629  -9.275  0.00  0.00     0.066 H 
ATOM     44  H   LIG d   1      -0.934  -6.935 -10.618  0.00  0.00     0.066 H 
ATOM     45  H   LIG d   1       0.461  -8.012 -10.364  0.00  0.00     0.066 H 
ENDBRANCH  41  42
ENDBRANCH  35  41
ENDBRANCH  28  31
ENDBRANCH   1  27
BRANCH  12  46
ATOM     46  O   LIG d   1      10.280   1.149  -4.756  0.00  0.00    -0.378 OA
BRANCH  46  47
ATOM     47  C   LIG d   1      11.287   1.725  -3.921  0.00  0.00     0.037 C 
ATOM     48  H   LIG d   1      10.898   1.840  -2.909  0.00  0.00     0.052 H 
ATOM     49  H   LIG d   1      12.160   1.073  -3.903  0.00  0.00     0.052 H 
ATOM     50  H   LIG d   1      11.571   2.700  -4.314  0.00  0.00     0.052 H 
ENDBRANCH  46  47
ENDBRANCH  12  46
TORSDOF 6
ENDMDL
