MODEL 1
REMARK VINA RESULT:      -6.6      0.000      0.000
REMARK  8 active torsions:
REMARK  status: ('A' for Active; 'I' for Inactive)
REMARK    1  A    between atoms: C_1  and  C_2 
REMARK    2  A    between atoms: C_2  and  C_4 
REMARK    3  A    between atoms: C_2  and  N_15 
REMARK    4  A    between atoms: C_4  and  C_5 
REMARK       I    between atoms: N_15  and  C_16 
REMARK    5  A    between atoms: C_16  and  C_18 
REMARK    6  A    between atoms: C_18  and  N_19 
REMARK    7  A    between atoms: C_26  and  O_28 
REMARK    8  A    between atoms: O_28  and  C_29 
ROOT
ATOM      1  N   LIG d   1       4.411  -0.191  -7.134  0.00  0.00    -0.311 N 
ATOM      2  C   LIG d   1       5.503   0.475  -7.557  0.00  0.00     0.233 C 
ATOM      3  O   LIG d   1       5.380   1.506  -8.184  0.00  0.00    -0.274 OA
ATOM      4  H   LIG d   1       4.522  -1.125  -6.565  0.00  0.00     0.149 HD
ENDROOT
BRANCH   1   5
ATOM      5  C   LIG d   1       3.074   0.331  -7.431  0.00  0.00     0.024 C 
ATOM      6  H   LIG d   1       3.174   1.418  -7.569  0.00  0.00     0.050 H 
BRANCH   5   7
ATOM      7  C   LIG d   1       2.543  -0.327  -8.707  0.00  0.00    -0.046 C 
ATOM      8  H   LIG d   1       2.573  -1.421  -8.596  0.00  0.00     0.025 H 
ATOM      9  H   LIG d   1       3.168  -0.029  -9.562  0.00  0.00     0.025 H 
ATOM     10  H   LIG d   1       1.506  -0.005  -8.881  0.00  0.00     0.025 H 
ENDBRANCH   5   7
BRANCH   5  11
ATOM     11  C   LIG d   1       2.133   0.018  -6.267  0.00  0.00    -0.007 C 
ATOM     12  H   LIG d   1       1.153   0.478  -6.453  0.00  0.00     0.033 H 
ATOM     13  H   LIG d   1       2.015  -1.072  -6.173  0.00  0.00     0.033 H 
BRANCH  11  14
ATOM     14  C   LIG d   1       2.714   0.571  -4.991  0.00  0.00    -0.021 A 
ATOM     15  C   LIG d   1       3.322  -0.200  -3.904  0.00  0.00     0.003 A 
ATOM     16  C   LIG d   1       3.717   0.740  -2.933  0.00  0.00     0.047 A 
ATOM     17  C   LIG d   1       3.552  -1.560  -3.690  0.00  0.00    -0.052 A 
ATOM     18  N   LIG d   1       3.368   1.984  -3.409  0.00  0.00    -0.360 N 
ATOM     19  C   LIG d   1       4.335   0.297  -1.768  0.00  0.00    -0.038 A 
ATOM     20  C   LIG d   1       2.776   1.865  -4.636  0.00  0.00     0.006 A 
ATOM     21  H   LIG d   1       3.497   2.978  -2.955  0.00  0.00     0.165 HD
ATOM     22  H   LIG d   1       2.412   2.688  -5.232  0.00  0.00     0.081 H 
ATOM     23  C   LIG d   1       4.552  -1.050  -1.579  0.00  0.00    -0.060 A 
ATOM     24  H   LIG d   1       4.642   1.008  -1.016  0.00  0.00     0.064 H 
ATOM     25  C   LIG d   1       4.161  -1.972  -2.538  0.00  0.00    -0.061 A 
ATOM     26  H   LIG d   1       5.032  -1.390  -0.673  0.00  0.00     0.062 H 
ATOM     27  H   LIG d   1       4.338  -3.024  -2.373  0.00  0.00     0.062 H 
ATOM     28  H   LIG d   1       3.251  -2.284  -4.433  0.00  0.00     0.062 H 
ENDBRANCH  11  14
ENDBRANCH   5  11
ENDBRANCH   1   5
BRANCH   2  29
ATOM     29  C   LIG d   1       6.878  -0.061  -7.251  0.00  0.00     0.100 C 
ATOM     30  H   LIG d   1       6.863  -1.160  -7.299  0.00  0.00     0.059 H 
ATOM     31  H   LIG d   1       7.596   0.328  -7.988  0.00  0.00     0.059 H 
BRANCH  29  32
ATOM     32  N   LIG d   1       7.280   0.364  -5.907  0.00  0.00    -0.338 N 
ATOM     33  C   LIG d   1       8.100   1.436  -5.627  0.00  0.00     0.050 A 
ATOM     34  C   LIG d   1       8.236   1.498  -4.229  0.00  0.00     0.003 A 
ATOM     35  C   LIG d   1       8.749   2.374  -6.422  0.00  0.00    -0.034 A 
ATOM     36  C   LIG d   1       7.442   0.389  -3.694  0.00  0.00    -0.036 A 
ATOM     37  C   LIG d   1       9.020   2.497  -3.648  0.00  0.00    -0.011 A 
ATOM     38  C   LIG d   1       6.900  -0.248  -4.744  0.00  0.00     0.006 A 
ATOM     39  H   LIG d   1       7.318   0.132  -2.652  0.00  0.00     0.064 H 
ATOM     40  H   LIG d   1       6.256  -1.113  -4.679  0.00  0.00     0.081 H 
ATOM     41  C   LIG d   1       9.656   3.420  -4.454  0.00  0.00     0.121 A 
ATOM     42  H   LIG d   1       9.128   2.548  -2.574  0.00  0.00     0.066 H 
ATOM     43  C   LIG d   1       9.515   3.360  -5.838  0.00  0.00    -0.018 A 
ATOM     44  H   LIG d   1      10.013   4.089  -6.459  0.00  0.00     0.066 H 
ATOM     45  H   LIG d   1       8.649   2.334  -7.496  0.00  0.00     0.064 H 
BRANCH  41  46
ATOM     46  O   LIG d   1      10.421   4.395  -3.894  0.00  0.00    -0.495 OA
BRANCH  46  47
ATOM     47  C   LIG d   1      10.003   4.895  -2.622  0.00  0.00     0.079 C 
ATOM     48  H   LIG d   1       8.946   5.194  -2.674  0.00  0.00     0.066 H 
ATOM     49  H   LIG d   1      10.617   5.767  -2.351  0.00  0.00     0.066 H 
ATOM     50  H   LIG d   1      10.126   4.111  -1.861  0.00  0.00     0.066 H 
ENDBRANCH  46  47
ENDBRANCH  41  46
ENDBRANCH  29  32
ENDBRANCH   2  29
TORSDOF 8
ENDMDL
MODEL 2
REMARK VINA RESULT:      -6.6      3.333      6.596
REMARK  8 active torsions:
REMARK  status: ('A' for Active; 'I' for Inactive)
REMARK    1  A    between atoms: C_1  and  C_2 
REMARK    2  A    between atoms: C_2  and  C_4 
REMARK    3  A    between atoms: C_2  and  N_15 
REMARK    4  A    between atoms: C_4  and  C_5 
REMARK       I    between atoms: N_15  and  C_16 
REMARK    5  A    between atoms: C_16  and  C_18 
REMARK    6  A    between atoms: C_18  and  N_19 
REMARK    7  A    between atoms: C_26  and  O_28 
REMARK    8  A    between atoms: O_28  and  C_29 
ROOT
ATOM      1  N   LIG d   1       7.427  -1.098  -5.997  0.00  0.00    -0.311 N 
ATOM      2  C   LIG d   1       6.843  -1.233  -7.203  0.00  0.00     0.233 C 
ATOM      3  O   LIG d   1       6.776  -2.325  -7.726  0.00  0.00    -0.274 OA
ATOM      4  H   LIG d   1       7.487  -0.107  -5.522  0.00  0.00     0.149 HD
ENDROOT
BRANCH   1   5
ATOM      5  C   LIG d   1       7.982  -2.271  -5.316  0.00  0.00     0.024 C 
ATOM      6  H   LIG d   1       7.633  -3.158  -5.864  0.00  0.00     0.050 H 
BRANCH   5   7
ATOM      7  C   LIG d   1       9.510  -2.193  -5.333  0.00  0.00    -0.046 C 
ATOM      8  H   LIG d   1       9.929  -3.209  -5.385  0.00  0.00     0.025 H 
ATOM      9  H   LIG d   1       9.863  -1.699  -4.415  0.00  0.00     0.025 H 
ATOM     10  H   LIG d   1       9.839  -1.616  -6.209  0.00  0.00     0.025 H 
ENDBRANCH   5   7
BRANCH   5  11
ATOM     11  C   LIG d   1       7.489  -2.301  -3.868  0.00  0.00    -0.007 C 
ATOM     12  H   LIG d   1       7.769  -3.258  -3.405  0.00  0.00     0.033 H 
ATOM     13  H   LIG d   1       7.948  -1.474  -3.307  0.00  0.00     0.033 H 
BRANCH  11  14
ATOM     14  C   LIG d   1       5.990  -2.152  -3.845  0.00  0.00    -0.021 A 
ATOM     15  C   LIG d   1       5.233  -1.040  -3.266  0.00  0.00     0.003 A 
ATOM     16  C   LIG d   1       3.874  -1.337  -3.484  0.00  0.00     0.047 A 
ATOM     17  C   LIG d   1       5.590   0.138  -2.607  0.00  0.00    -0.052 A 
ATOM     18  N   LIG d   1       3.825  -2.543  -4.147  0.00  0.00    -0.360 N 
ATOM     19  C   LIG d   1       2.902  -0.449  -3.036  0.00  0.00    -0.038 A 
ATOM     20  C   LIG d   1       5.093  -3.011  -4.357  0.00  0.00     0.006 A 
ATOM     21  H   LIG d   1       2.960  -3.125  -4.495  0.00  0.00     0.165 HD
ATOM     22  H   LIG d   1       5.338  -3.935  -4.860  0.00  0.00     0.081 H 
ATOM     23  C   LIG d   1       3.278   0.707  -2.388  0.00  0.00    -0.060 A 
ATOM     24  H   LIG d   1       1.857  -0.666  -3.196  0.00  0.00     0.064 H 
ATOM     25  C   LIG d   1       4.618   0.996  -2.176  0.00  0.00    -0.061 A 
ATOM     26  H   LIG d   1       2.521   1.395  -2.041  0.00  0.00     0.062 H 
ATOM     27  H   LIG d   1       4.896   1.906  -1.665  0.00  0.00     0.062 H 
ATOM     28  H   LIG d   1       6.633   0.369  -2.438  0.00  0.00     0.062 H 
ENDBRANCH  11  14
ENDBRANCH   5  11
ENDBRANCH   1   5
BRANCH   2  29
ATOM     29  C   LIG d   1       6.271  -0.027  -7.903  0.00  0.00     0.100 C 
ATOM     30  H   LIG d   1       6.574   0.886  -7.368  0.00  0.00     0.059 H 
ATOM     31  H   LIG d   1       6.650   0.012  -8.935  0.00  0.00     0.059 H 
BRANCH  29  32
ATOM     32  N   LIG d   1       4.809  -0.119  -7.922  0.00  0.00    -0.338 N 
ATOM     33  C   LIG d   1       4.044  -0.348  -9.046  0.00  0.00     0.050 A 
ATOM     34  C   LIG d   1       2.699  -0.362  -8.635  0.00  0.00     0.003 A 
ATOM     35  C   LIG d   1       4.354  -0.547 -10.386  0.00  0.00    -0.034 A 
ATOM     36  C   LIG d   1       2.714  -0.126  -7.189  0.00  0.00    -0.036 A 
ATOM     37  C   LIG d   1       1.686  -0.576  -9.572  0.00  0.00    -0.011 A 
ATOM     38  C   LIG d   1       3.999   0.011  -6.827  0.00  0.00     0.006 A 
ATOM     39  H   LIG d   1       1.854  -0.071  -6.538  0.00  0.00     0.064 H 
ATOM     40  H   LIG d   1       4.343   0.195  -5.819  0.00  0.00     0.081 H 
ATOM     41  C   LIG d   1       2.013  -0.772 -10.898  0.00  0.00     0.121 A 
ATOM     42  H   LIG d   1       0.651  -0.587  -9.260  0.00  0.00     0.066 H 
ATOM     43  C   LIG d   1       3.346  -0.763 -11.301  0.00  0.00    -0.018 A 
ATOM     44  H   LIG d   1       3.591  -0.923 -12.341  0.00  0.00     0.066 H 
ATOM     45  H   LIG d   1       5.384  -0.538 -10.710  0.00  0.00     0.064 H 
BRANCH  41  46
ATOM     46  O   LIG d   1       1.030  -0.980 -11.814  0.00  0.00    -0.495 OA
BRANCH  46  47
ATOM     47  C   LIG d   1       0.852  -2.320 -12.281  0.00  0.00     0.079 C 
ATOM     48  H   LIG d   1       0.600  -2.305 -13.351  0.00  0.00     0.066 H 
ATOM     49  H   LIG d   1       0.036  -2.798 -11.719  0.00  0.00     0.066 H 
ATOM     50  H   LIG d   1       1.782  -2.887 -12.131  0.00  0.00     0.066 H 
ENDBRANCH  46  47
ENDBRANCH  41  46
ENDBRANCH  29  32
ENDBRANCH   2  29
TORSDOF 8
ENDMDL
MODEL 3
REMARK VINA RESULT:      -6.4      2.699      4.404
REMARK  8 active torsions:
REMARK  status: ('A' for Active; 'I' for Inactive)
REMARK    1  A    between atoms: C_1  and  C_2 
REMARK    2  A    between atoms: C_2  and  C_4 
REMARK    3  A    between atoms: C_2  and  N_15 
REMARK    4  A    between atoms: C_4  and  C_5 
REMARK       I    between atoms: N_15  and  C_16 
REMARK    5  A    between atoms: C_16  and  C_18 
REMARK    6  A    between atoms: C_18  and  N_19 
REMARK    7  A    between atoms: C_26  and  O_28 
REMARK    8  A    between atoms: O_28  and  C_29 
ROOT
ATOM      1  N   LIG d   1       8.920  -0.259  -4.635  0.00  0.00    -0.311 N 
ATOM      2  C   LIG d   1       8.481   1.008  -4.764  0.00  0.00     0.233 C 
ATOM      3  O   LIG d   1       7.395   1.226  -5.257  0.00  0.00    -0.274 OA
ATOM      4  H   LIG d   1       9.905  -0.457  -4.187  0.00  0.00     0.149 HD
ENDROOT
BRANCH   1   5
ATOM      5  C   LIG d   1       8.085  -1.374  -5.090  0.00  0.00     0.024 C 
ATOM      6  H   LIG d   1       7.252  -0.942  -5.662  0.00  0.00     0.050 H 
BRANCH   5   7
ATOM      7  C   LIG d   1       8.919  -2.307  -5.972  0.00  0.00    -0.046 C 
ATOM      8  H   LIG d   1       8.945  -1.914  -6.999  0.00  0.00     0.025 H 
ATOM      9  H   LIG d   1       8.467  -3.310  -5.975  0.00  0.00     0.025 H 
ATOM     10  H   LIG d   1       9.943  -2.367  -5.577  0.00  0.00     0.025 H 
ENDBRANCH   5   7
BRANCH   5  11
ATOM     11  C   LIG d   1       7.565  -2.149  -3.879  0.00  0.00    -0.007 C 
ATOM     12  H   LIG d   1       7.865  -3.203  -3.960  0.00  0.00     0.033 H 
ATOM     13  H   LIG d   1       7.985  -1.718  -2.958  0.00  0.00     0.033 H 
BRANCH  11  14
ATOM     14  C   LIG d   1       6.061  -2.059  -3.834  0.00  0.00    -0.021 A 
ATOM     15  C   LIG d   1       5.270  -0.978  -3.241  0.00  0.00     0.003 A 
ATOM     16  C   LIG d   1       3.921  -1.327  -3.440  0.00  0.00     0.047 A 
ATOM     17  C   LIG d   1       5.591   0.210  -2.583  0.00  0.00    -0.052 A 
ATOM     18  N   LIG d   1       3.909  -2.533  -4.106  0.00  0.00    -0.360 N 
ATOM     19  C   LIG d   1       2.921  -0.479  -2.976  0.00  0.00    -0.038 A 
ATOM     20  C   LIG d   1       5.191  -2.950  -4.336  0.00  0.00     0.006 A 
ATOM     21  H   LIG d   1       3.062  -3.147  -4.444  0.00  0.00     0.165 HD
ATOM     22  H   LIG d   1       5.464  -3.863  -4.845  0.00  0.00     0.081 H 
ATOM     23  C   LIG d   1       3.262   0.689  -2.329  0.00  0.00    -0.060 A 
ATOM     24  H   LIG d   1       1.883  -0.736  -3.122  0.00  0.00     0.064 H 
ATOM     25  C   LIG d   1       4.593   1.029  -2.135  0.00  0.00    -0.061 A 
ATOM     26  H   LIG d   1       2.484   1.346  -1.970  0.00  0.00     0.062 H 
ATOM     27  H   LIG d   1       4.841   1.948  -1.625  0.00  0.00     0.062 H 
ATOM     28  H   LIG d   1       6.625   0.482  -2.428  0.00  0.00     0.062 H 
ENDBRANCH  11  14
ENDBRANCH   5  11
ENDBRANCH   1   5
BRANCH   2  29
ATOM     29  C   LIG d   1       9.339   2.155  -4.295  0.00  0.00     0.100 C 
ATOM     30  H   LIG d   1       8.787   2.745  -3.549  0.00  0.00     0.059 H 
ATOM     31  H   LIG d   1      10.261   1.761  -3.842  0.00  0.00     0.059 H 
BRANCH  29  32
ATOM     32  N   LIG d   1       9.682   3.008  -5.437  0.00  0.00    -0.338 N 
ATOM     33  C   LIG d   1       9.590   4.383  -5.454  0.00  0.00     0.050 A 
ATOM     34  C   LIG d   1      10.009   4.810  -6.727  0.00  0.00     0.003 A 
ATOM     35  C   LIG d   1       9.192   5.325  -4.511  0.00  0.00    -0.034 A 
ATOM     36  C   LIG d   1      10.356   3.595  -7.468  0.00  0.00    -0.036 A 
ATOM     37  C   LIG d   1      10.021   6.171  -7.036  0.00  0.00    -0.011 A 
ATOM     38  C   LIG d   1      10.139   2.557  -6.645  0.00  0.00     0.006 A 
ATOM     39  H   LIG d   1      10.717   3.544  -8.485  0.00  0.00     0.064 H 
ATOM     40  H   LIG d   1      10.303   1.520  -6.899  0.00  0.00     0.081 H 
ATOM     41  C   LIG d   1       9.622   7.091  -6.087  0.00  0.00     0.121 A 
ATOM     42  H   LIG d   1      10.342   6.504  -8.014  0.00  0.00     0.066 H 
ATOM     43  C   LIG d   1       9.214   6.666  -4.826  0.00  0.00    -0.018 A 
ATOM     44  H   LIG d   1       8.909   7.394  -4.089  0.00  0.00     0.066 H 
ATOM     45  H   LIG d   1       8.870   5.005  -3.531  0.00  0.00     0.064 H 
BRANCH  41  46
ATOM     46  O   LIG d   1       9.633   8.418  -6.384  0.00  0.00    -0.495 OA
BRANCH  46  47
ATOM     47  C   LIG d   1       9.580   9.329  -5.283  0.00  0.00     0.079 C 
ATOM     48  H   LIG d   1       8.617   9.219  -4.762  0.00  0.00     0.066 H 
ATOM     49  H   LIG d   1       9.679  10.359  -5.655  0.00  0.00     0.066 H 
ATOM     50  H   LIG d   1      10.402   9.110  -4.586  0.00  0.00     0.066 H 
ENDBRANCH  46  47
ENDBRANCH  41  46
ENDBRANCH  29  32
ENDBRANCH   2  29
TORSDOF 8
ENDMDL
MODEL 4
REMARK VINA RESULT:      -6.4      2.623      4.550
REMARK  8 active torsions:
REMARK  status: ('A' for Active; 'I' for Inactive)
REMARK    1  A    between atoms: C_1  and  C_2 
REMARK    2  A    between atoms: C_2  and  C_4 
REMARK    3  A    between atoms: C_2  and  N_15 
REMARK    4  A    between atoms: C_4  and  C_5 
REMARK       I    between atoms: N_15  and  C_16 
REMARK    5  A    between atoms: C_16  and  C_18 
REMARK    6  A    between atoms: C_18  and  N_19 
REMARK    7  A    between atoms: C_26  and  O_28 
REMARK    8  A    between atoms: O_28  and  C_29 
ROOT
ATOM      1  N   LIG d   1       9.055   0.061  -4.600  0.00  0.00    -0.311 N 
ATOM      2  C   LIG d   1       8.810   1.365  -4.362  0.00  0.00     0.233 C 
ATOM      3  O   LIG d   1       7.738   1.844  -4.664  0.00  0.00    -0.274 OA
ATOM      4  H   LIG d   1      10.027  -0.374  -4.326  0.00  0.00     0.149 HD
ENDROOT
BRANCH   1   5
ATOM      5  C   LIG d   1       8.028  -0.776  -5.224  0.00  0.00     0.024 C 
ATOM      6  H   LIG d   1       7.173  -0.123  -5.454  0.00  0.00     0.050 H 
BRANCH   5   7
ATOM      7  C   LIG d   1       8.588  -1.402  -6.503  0.00  0.00    -0.046 C 
ATOM      8  H   LIG d   1       9.591  -1.807  -6.305  0.00  0.00     0.025 H 
ATOM      9  H   LIG d   1       8.652  -0.635  -7.289  0.00  0.00     0.025 H 
ATOM     10  H   LIG d   1       7.924  -2.213  -6.836  0.00  0.00     0.025 H 
ENDBRANCH   5   7
BRANCH   5  11
ATOM     11  C   LIG d   1       7.614  -1.884  -4.254  0.00  0.00    -0.007 C 
ATOM     12  H   LIG d   1       7.957  -2.855  -4.638  0.00  0.00     0.033 H 
ATOM     13  H   LIG d   1       8.067  -1.699  -3.269  0.00  0.00     0.033 H 
BRANCH  11  14
ATOM     14  C   LIG d   1       6.113  -1.899  -4.121  0.00  0.00    -0.021 A 
ATOM     15  C   LIG d   1       5.291  -0.915  -3.413  0.00  0.00     0.003 A 
ATOM     16  C   LIG d   1       3.958  -1.342  -3.560  0.00  0.00     0.047 A 
ATOM     17  C   LIG d   1       5.573   0.248  -2.695  0.00  0.00    -0.052 A 
ATOM     18  N   LIG d   1       3.983  -2.500  -4.305  0.00  0.00    -0.360 N 
ATOM     19  C   LIG d   1       2.935  -0.594  -2.986  0.00  0.00    -0.038 A 
ATOM     20  C   LIG d   1       5.273  -2.814  -4.633  0.00  0.00     0.006 A 
ATOM     21  H   LIG d   1       3.159  -3.148  -4.636  0.00  0.00     0.165 HD
ATOM     22  H   LIG d   1       5.574  -3.671  -5.217  0.00  0.00     0.081 H 
ATOM     23  C   LIG d   1       3.238   0.551  -2.281  0.00  0.00    -0.060 A 
ATOM     24  H   LIG d   1       1.909  -0.912  -3.091  0.00  0.00     0.064 H 
ATOM     25  C   LIG d   1       4.553   0.967  -2.138  0.00  0.00    -0.061 A 
ATOM     26  H   LIG d   1       2.442   1.129  -1.836  0.00  0.00     0.062 H 
ATOM     27  H   LIG d   1       4.773   1.866  -1.582  0.00  0.00     0.062 H 
ATOM     28  H   LIG d   1       6.596   0.579  -2.579  0.00  0.00     0.062 H 
ENDBRANCH  11  14
ENDBRANCH   5  11
ENDBRANCH   1   5
BRANCH   2  29
ATOM     29  C   LIG d   1       9.866   2.226  -3.719  0.00  0.00     0.100 C 
ATOM     30  H   LIG d   1       9.676   2.294  -2.637  0.00  0.00     0.059 H 
ATOM     31  H   LIG d   1      10.857   1.778  -3.889  0.00  0.00     0.059 H 
BRANCH  29  32
ATOM     32  N   LIG d   1       9.828   3.567  -4.307  0.00  0.00    -0.338 N 
ATOM     33  C   LIG d   1       9.872   4.747  -3.594  0.00  0.00     0.050 A 
ATOM     34  C   LIG d   1       9.811   5.797  -4.527  0.00  0.00     0.003 A 
ATOM     35  C   LIG d   1       9.958   5.038  -2.237  0.00  0.00    -0.034 A 
ATOM     36  C   LIG d   1       9.728   5.163  -5.846  0.00  0.00    -0.036 A 
ATOM     37  C   LIG d   1       9.838   7.122  -4.088  0.00  0.00    -0.011 A 
ATOM     38  C   LIG d   1       9.741   3.836  -5.646  0.00  0.00     0.006 A 
ATOM     39  H   LIG d   1       9.666   5.669  -6.798  0.00  0.00     0.064 H 
ATOM     40  H   LIG d   1       9.694   3.091  -6.426  0.00  0.00     0.081 H 
ATOM     41  C   LIG d   1       9.924   7.392  -2.737  0.00  0.00     0.121 A 
ATOM     42  H   LIG d   1       9.791   7.932  -4.803  0.00  0.00     0.066 H 
ATOM     43  C   LIG d   1       9.989   6.350  -1.816  0.00  0.00    -0.018 A 
ATOM     44  H   LIG d   1      10.062   6.572  -0.762  0.00  0.00     0.066 H 
ATOM     45  H   LIG d   1      10.006   4.238  -1.514  0.00  0.00     0.064 H 
BRANCH  41  46
ATOM     46  O   LIG d   1       9.950   8.681  -2.305  0.00  0.00    -0.495 OA
BRANCH  46  47
ATOM     47  C   LIG d   1       9.337   8.954  -1.043  0.00  0.00     0.079 C 
ATOM     48  H   LIG d   1       8.560   8.201  -0.842  0.00  0.00     0.066 H 
ATOM     49  H   LIG d   1       8.880   9.954  -1.066  0.00  0.00     0.066 H 
ATOM     50  H   LIG d   1      10.098   8.916  -0.250  0.00  0.00     0.066 H 
ENDBRANCH  46  47
ENDBRANCH  41  46
ENDBRANCH  29  32
ENDBRANCH   2  29
TORSDOF 8
ENDMDL
MODEL 5
REMARK VINA RESULT:      -6.3      2.580      3.854
REMARK  8 active torsions:
REMARK  status: ('A' for Active; 'I' for Inactive)
REMARK    1  A    between atoms: C_1  and  C_2 
REMARK    2  A    between atoms: C_2  and  C_4 
REMARK    3  A    between atoms: C_2  and  N_15 
REMARK    4  A    between atoms: C_4  and  C_5 
REMARK       I    between atoms: N_15  and  C_16 
REMARK    5  A    between atoms: C_16  and  C_18 
REMARK    6  A    between atoms: C_18  and  N_19 
REMARK    7  A    between atoms: C_26  and  O_28 
REMARK    8  A    between atoms: O_28  and  C_29 
ROOT
ATOM      1  N   LIG d   1       4.427  -0.228  -7.384  0.00  0.00    -0.311 N 
ATOM      2  C   LIG d   1       5.549   0.422  -7.753  0.00  0.00     0.233 C 
ATOM      3  O   LIG d   1       5.481   1.557  -8.175  0.00  0.00    -0.274 OA
ATOM      4  H   LIG d   1       4.489  -1.257  -7.000  0.00  0.00     0.149 HD
ENDROOT
BRANCH   1   5
ATOM      5  C   LIG d   1       3.126   0.436  -7.493  0.00  0.00     0.024 C 
ATOM      6  H   LIG d   1       3.310   1.519  -7.440  0.00  0.00     0.050 H 
BRANCH   5   7
ATOM      7  C   LIG d   1       2.475   0.065  -8.827  0.00  0.00    -0.046 C 
ATOM      8  H   LIG d   1       3.255  -0.085  -9.587  0.00  0.00     0.025 H 
ATOM      9  H   LIG d   1       1.804   0.876  -9.146  0.00  0.00     0.025 H 
ATOM     10  H   LIG d   1       1.897  -0.864  -8.707  0.00  0.00     0.025 H 
ENDBRANCH   5   7
BRANCH   5  11
ATOM     11  C   LIG d   1       2.224  -0.015  -6.343  0.00  0.00    -0.007 C 
ATOM     12  H   LIG d   1       1.208   0.372  -6.499  0.00  0.00     0.033 H 
ATOM     13  H   LIG d   1       2.197  -1.114  -6.307  0.00  0.00     0.033 H 
BRANCH  11  14
ATOM     14  C   LIG d   1       2.768   0.515  -5.041  0.00  0.00    -0.021 A 
ATOM     15  C   LIG d   1       3.378  -0.272  -3.966  0.00  0.00     0.003 A 
ATOM     16  C   LIG d   1       3.732   0.649  -2.962  0.00  0.00     0.047 A 
ATOM     17  C   LIG d   1       3.640  -1.631  -3.788  0.00  0.00    -0.052 A 
ATOM     18  N   LIG d   1       3.359   1.897  -3.407  0.00  0.00    -0.360 N 
ATOM     19  C   LIG d   1       4.341   0.188  -1.799  0.00  0.00    -0.038 A 
ATOM     20  C   LIG d   1       2.792   1.799  -4.648  0.00  0.00     0.006 A 
ATOM     21  H   LIG d   1       3.455   2.880  -2.923  0.00  0.00     0.165 HD
ATOM     22  H   LIG d   1       2.417   2.630  -5.226  0.00  0.00     0.081 H 
ATOM     23  C   LIG d   1       4.590  -1.159  -1.645  0.00  0.00    -0.060 A 
ATOM     24  H   LIG d   1       4.617   0.884  -1.021  0.00  0.00     0.064 H 
ATOM     25  C   LIG d   1       4.239  -2.062  -2.637  0.00  0.00    -0.061 A 
ATOM     26  H   LIG d   1       5.063  -1.513  -0.741  0.00  0.00     0.062 H 
ATOM     27  H   LIG d   1       4.440  -3.114  -2.499  0.00  0.00     0.062 H 
ATOM     28  H   LIG d   1       3.369  -2.341  -4.557  0.00  0.00     0.062 H 
ENDBRANCH  11  14
ENDBRANCH   5  11
ENDBRANCH   1   5
BRANCH   2  29
ATOM     29  C   LIG d   1       6.887  -0.260  -7.639  0.00  0.00     0.100 C 
ATOM     30  H   LIG d   1       6.891  -1.168  -8.262  0.00  0.00     0.059 H 
ATOM     31  H   LIG d   1       7.678   0.423  -7.984  0.00  0.00     0.059 H 
BRANCH  29  32
ATOM     32  N   LIG d   1       7.133  -0.626  -6.242  0.00  0.00    -0.338 N 
ATOM     33  C   LIG d   1       7.543  -1.869  -5.808  0.00  0.00     0.050 A 
ATOM     34  C   LIG d   1       7.660  -1.801  -4.408  0.00  0.00     0.003 A 
ATOM     35  C   LIG d   1       7.831  -3.061  -6.464  0.00  0.00    -0.034 A 
ATOM     36  C   LIG d   1       7.292  -0.433  -4.037  0.00  0.00    -0.036 A 
ATOM     37  C   LIG d   1       8.063  -2.926  -3.687  0.00  0.00    -0.011 A 
ATOM     38  C   LIG d   1       6.988   0.215  -5.172  0.00  0.00     0.006 A 
ATOM     39  H   LIG d   1       7.268  -0.023  -3.038  0.00  0.00     0.064 H 
ATOM     40  H   LIG d   1       6.678   1.248  -5.233  0.00  0.00     0.081 H 
ATOM     41  C   LIG d   1       8.345  -4.101  -4.355  0.00  0.00     0.121 A 
ATOM     42  H   LIG d   1       8.154  -2.878  -2.611  0.00  0.00     0.066 H 
ATOM     43  C   LIG d   1       8.234  -4.164  -5.741  0.00  0.00    -0.018 A 
ATOM     44  H   LIG d   1       8.462  -5.086  -6.255  0.00  0.00     0.066 H 
ATOM     45  H   LIG d   1       7.744  -3.121  -7.538  0.00  0.00     0.064 H 
BRANCH  41  46
ATOM     46  O   LIG d   1       8.738  -5.199  -3.657  0.00  0.00    -0.495 OA
BRANCH  46  47
ATOM     47  C   LIG d   1      10.106  -5.250  -3.244  0.00  0.00     0.079 C 
ATOM     48  H   LIG d   1      10.738  -5.522  -4.102  0.00  0.00     0.066 H 
ATOM     49  H   LIG d   1      10.221  -6.002  -2.450  0.00  0.00     0.066 H 
ATOM     50  H   LIG d   1      10.410  -4.264  -2.862  0.00  0.00     0.066 H 
ENDBRANCH  46  47
ENDBRANCH  41  46
ENDBRANCH  29  32
ENDBRANCH   2  29
TORSDOF 8
ENDMDL
MODEL 6
REMARK VINA RESULT:      -6.2      4.706      7.323
REMARK  8 active torsions:
REMARK  status: ('A' for Active; 'I' for Inactive)
REMARK    1  A    between atoms: C_1  and  C_2 
REMARK    2  A    between atoms: C_2  and  C_4 
REMARK    3  A    between atoms: C_2  and  N_15 
REMARK    4  A    between atoms: C_4  and  C_5 
REMARK       I    between atoms: N_15  and  C_16 
REMARK    5  A    between atoms: C_16  and  C_18 
REMARK    6  A    between atoms: C_18  and  N_19 
REMARK    7  A    between atoms: C_26  and  O_28 
REMARK    8  A    between atoms: O_28  and  C_29 
ROOT
ATOM      1  N   LIG d   1       2.970  -1.865  -8.335  0.00  0.00    -0.311 N 
ATOM      2  C   LIG d   1       3.864  -2.763  -8.793  0.00  0.00     0.233 C 
ATOM      3  O   LIG d   1       4.923  -2.385  -9.249  0.00  0.00    -0.274 OA
ATOM      4  H   LIG d   1       2.010  -2.208  -7.920  0.00  0.00     0.149 HD
ENDROOT
BRANCH   1   5
ATOM      5  C   LIG d   1       3.276  -0.434  -8.387  0.00  0.00     0.024 C 
ATOM      6  H   LIG d   1       4.323  -0.338  -8.709  0.00  0.00     0.050 H 
BRANCH   5   7
ATOM      7  C   LIG d   1       2.339   0.251  -9.386  0.00  0.00    -0.046 C 
ATOM      8  H   LIG d   1       2.928   0.661 -10.219  0.00  0.00     0.025 H 
ATOM      9  H   LIG d   1       1.799   1.067  -8.883  0.00  0.00     0.025 H 
ATOM     10  H   LIG d   1       1.617  -0.483  -9.773  0.00  0.00     0.025 H 
ENDBRANCH   5   7
BRANCH   5  11
ATOM     11  C   LIG d   1       3.079   0.182  -7.000  0.00  0.00    -0.007 C 
ATOM     12  H   LIG d   1       3.121   1.277  -7.076  0.00  0.00     0.033 H 
ATOM     13  H   LIG d   1       2.100  -0.121  -6.600  0.00  0.00     0.033 H 
BRANCH  11  14
ATOM     14  C   LIG d   1       4.169  -0.301  -6.078  0.00  0.00    -0.021 A 
ATOM     15  C   LIG d   1       4.007  -0.731  -4.687  0.00  0.00     0.003 A 
ATOM     16  C   LIG d   1       5.292  -1.091  -4.239  0.00  0.00     0.047 A 
ATOM     17  C   LIG d   1       2.915  -0.833  -3.824  0.00  0.00    -0.052 A 
ATOM     18  N   LIG d   1       6.159  -0.889  -5.290  0.00  0.00    -0.360 N 
ATOM     19  C   LIG d   1       5.455  -1.546  -2.935  0.00  0.00    -0.038 A 
ATOM     20  C   LIG d   1       5.473  -0.424  -6.377  0.00  0.00     0.006 A 
ATOM     21  H   LIG d   1       7.246  -1.045  -5.351  0.00  0.00     0.165 HD
ATOM     22  H   LIG d   1       5.913  -0.188  -7.335  0.00  0.00     0.081 H 
ATOM     23  C   LIG d   1       4.363  -1.639  -2.101  0.00  0.00    -0.060 A 
ATOM     24  H   LIG d   1       6.436  -1.825  -2.579  0.00  0.00     0.064 H 
ATOM     25  C   LIG d   1       3.099  -1.282  -2.547  0.00  0.00    -0.061 A 
ATOM     26  H   LIG d   1       4.493  -1.993  -1.089  0.00  0.00     0.062 H 
ATOM     27  H   LIG d   1       2.254  -1.360  -1.880  0.00  0.00     0.062 H 
ATOM     28  H   LIG d   1       1.927  -0.557  -4.165  0.00  0.00     0.062 H 
ENDBRANCH  11  14
ENDBRANCH   5  11
ENDBRANCH   1   5
BRANCH   2  29
ATOM     29  C   LIG d   1       3.550  -4.235  -8.738  0.00  0.00     0.100 C 
ATOM     30  H   LIG d   1       2.461  -4.381  -8.798  0.00  0.00     0.059 H 
ATOM     31  H   LIG d   1       4.035  -4.745  -9.584  0.00  0.00     0.059 H 
BRANCH  29  32
ATOM     32  N   LIG d   1       4.050  -4.796  -7.479  0.00  0.00    -0.338 N 
ATOM     33  C   LIG d   1       4.259  -6.137  -7.237  0.00  0.00     0.050 A 
ATOM     34  C   LIG d   1       4.737  -6.249  -5.918  0.00  0.00     0.003 A 
ATOM     35  C   LIG d   1       4.094  -7.283  -8.006  0.00  0.00    -0.034 A 
ATOM     36  C   LIG d   1       4.797  -4.883  -5.392  0.00  0.00    -0.036 A 
ATOM     37  C   LIG d   1       5.040  -7.505  -5.392  0.00  0.00    -0.011 A 
ATOM     38  C   LIG d   1       4.374  -4.066  -6.368  0.00  0.00     0.006 A 
ATOM     39  H   LIG d   1       5.119  -4.589  -4.403  0.00  0.00     0.064 H 
ATOM     40  H   LIG d   1       4.303  -2.991  -6.290  0.00  0.00     0.081 H 
ATOM     41  C   LIG d   1       4.869  -8.632  -6.171  0.00  0.00     0.121 A 
ATOM     42  H   LIG d   1       5.407  -7.596  -4.378  0.00  0.00     0.066 H 
ATOM     43  C   LIG d   1       4.402  -8.517  -7.477  0.00  0.00    -0.018 A 
ATOM     44  H   LIG d   1       4.277  -9.404  -8.080  0.00  0.00     0.066 H 
ATOM     45  H   LIG d   1       3.729  -7.205  -9.019  0.00  0.00     0.064 H 
BRANCH  41  46
ATOM     46  O   LIG d   1       5.163  -9.858  -5.662  0.00  0.00    -0.495 OA
BRANCH  46  47
ATOM     47  C   LIG d   1       4.719 -10.131  -4.331  0.00  0.00     0.079 C 
ATOM     48  H   LIG d   1       5.545 -10.571  -3.752  0.00  0.00     0.066 H 
ATOM     49  H   LIG d   1       3.877 -10.838  -4.364  0.00  0.00     0.066 H 
ATOM     50  H   LIG d   1       4.394  -9.195  -3.854  0.00  0.00     0.066 H 
ENDBRANCH  46  47
ENDBRANCH  41  46
ENDBRANCH  29  32
ENDBRANCH   2  29
TORSDOF 8
ENDMDL
MODEL 7
REMARK VINA RESULT:      -6.1      6.490      8.687
REMARK  8 active torsions:
REMARK  status: ('A' for Active; 'I' for Inactive)
REMARK    1  A    between atoms: C_1  and  C_2 
REMARK    2  A    between atoms: C_2  and  C_4 
REMARK    3  A    between atoms: C_2  and  N_15 
REMARK    4  A    between atoms: C_4  and  C_5 
REMARK       I    between atoms: N_15  and  C_16 
REMARK    5  A    between atoms: C_16  and  C_18 
REMARK    6  A    between atoms: C_18  and  N_19 
REMARK    7  A    between atoms: C_26  and  O_28 
REMARK    8  A    between atoms: O_28  and  C_29 
ROOT
ATOM      1  N   LIG d   1       5.756  -5.408  -6.419  0.00  0.00    -0.311 N 
ATOM      2  C   LIG d   1       6.880  -6.119  -6.196  0.00  0.00     0.233 C 
ATOM      3  O   LIG d   1       7.845  -5.585  -5.692  0.00  0.00    -0.274 OA
ATOM      4  H   LIG d   1       4.881  -5.892  -6.876  0.00  0.00     0.149 HD
ENDROOT
BRANCH   1   5
ATOM      5  C   LIG d   1       5.701  -3.991  -6.051  0.00  0.00     0.024 C 
ATOM      6  H   LIG d   1       6.735  -3.615  -6.053  0.00  0.00     0.050 H 
BRANCH   5   7
ATOM      7  C   LIG d   1       4.850  -3.233  -7.073  0.00  0.00    -0.046 C 
ATOM      8  H   LIG d   1       5.469  -2.971  -7.944  0.00  0.00     0.025 H 
ATOM      9  H   LIG d   1       4.457  -2.314  -6.613  0.00  0.00     0.025 H 
ATOM     10  H   LIG d   1       4.013  -3.869  -7.396  0.00  0.00     0.025 H 
ENDBRANCH   5   7
BRANCH   5  11
ATOM     11  C   LIG d   1       5.077  -3.848  -4.662  0.00  0.00    -0.007 C 
ATOM     12  H   LIG d   1       3.984  -3.782  -4.756  0.00  0.00     0.033 H 
ATOM     13  H   LIG d   1       5.341  -4.721  -4.049  0.00  0.00     0.033 H 
BRANCH  11  14
ATOM     14  C   LIG d   1       5.600  -2.596  -4.004  0.00  0.00    -0.021 A 
ATOM     15  C   LIG d   1       4.798  -1.517  -3.423  0.00  0.00     0.003 A 
ATOM     16  C   LIG d   1       5.716  -0.571  -2.930  0.00  0.00     0.047 A 
ATOM     17  C   LIG d   1       3.427  -1.290  -3.290  0.00  0.00    -0.052 A 
ATOM     18  N   LIG d   1       6.978  -1.054  -3.199  0.00  0.00    -0.360 N 
ATOM     19  C   LIG d   1       5.242   0.582  -2.314  0.00  0.00    -0.038 A 
ATOM     20  C   LIG d   1       6.889  -2.262  -3.834  0.00  0.00     0.006 A 
ATOM     21  H   LIG d   1       7.964  -0.618  -2.982  0.00  0.00     0.165 HD
ATOM     22  H   LIG d   1       7.731  -2.859  -4.153  0.00  0.00     0.081 H 
ATOM     23  C   LIG d   1       3.885   0.784  -2.193  0.00  0.00    -0.060 A 
ATOM     24  H   LIG d   1       5.937   1.315  -1.932  0.00  0.00     0.064 H 
ATOM     25  C   LIG d   1       2.984  -0.151  -2.681  0.00  0.00    -0.061 A 
ATOM     26  H   LIG d   1       3.520   1.681  -1.714  0.00  0.00     0.062 H 
ATOM     27  H   LIG d   1       1.923   0.024  -2.579  0.00  0.00     0.062 H 
ATOM     28  H   LIG d   1       2.719  -2.015  -3.667  0.00  0.00     0.062 H 
ENDBRANCH  11  14
ENDBRANCH   5  11
ENDBRANCH   1   5
BRANCH   2  29
ATOM     29  C   LIG d   1       6.936  -7.577  -6.573  0.00  0.00     0.100 C 
ATOM     30  H   LIG d   1       6.506  -7.713  -7.577  0.00  0.00     0.059 H 
ATOM     31  H   LIG d   1       7.983  -7.915  -6.574  0.00  0.00     0.059 H 
BRANCH  29  32
ATOM     32  N   LIG d   1       6.170  -8.363  -5.603  0.00  0.00    -0.338 N 
ATOM     33  C   LIG d   1       6.643  -8.794  -4.381  0.00  0.00     0.050 A 
ATOM     34  C   LIG d   1       5.603  -9.511  -3.764  0.00  0.00     0.003 A 
ATOM     35  C   LIG d   1       7.860  -8.649  -3.725  0.00  0.00    -0.034 A 
ATOM     36  C   LIG d   1       4.477  -9.478  -4.700  0.00  0.00    -0.036 A 
ATOM     37  C   LIG d   1       5.797 -10.071  -2.500  0.00  0.00    -0.011 A 
ATOM     38  C   LIG d   1       4.879  -8.782  -5.775  0.00  0.00     0.006 A 
ATOM     39  H   LIG d   1       3.507  -9.931  -4.555  0.00  0.00     0.064 H 
ATOM     40  H   LIG d   1       4.272  -8.579  -6.645  0.00  0.00     0.081 H 
ATOM     41  C   LIG d   1       7.012  -9.917  -1.864  0.00  0.00     0.121 A 
ATOM     42  H   LIG d   1       4.999 -10.624  -2.022  0.00  0.00     0.066 H 
ATOM     43  C   LIG d   1       8.038  -9.202  -2.475  0.00  0.00    -0.018 A 
ATOM     44  H   LIG d   1       8.983  -9.083  -1.967  0.00  0.00     0.066 H 
ATOM     45  H   LIG d   1       8.664  -8.100  -4.192  0.00  0.00     0.064 H 
BRANCH  41  46
ATOM     46  O   LIG d   1       7.206 -10.461  -0.633  0.00  0.00    -0.495 OA
BRANCH  46  47
ATOM     47  C   LIG d   1       8.311 -11.356  -0.487  0.00  0.00     0.079 C 
ATOM     48  H   LIG d   1       8.497 -11.869  -1.442  0.00  0.00     0.066 H 
ATOM     49  H   LIG d   1       8.080 -12.100   0.290  0.00  0.00     0.066 H 
ATOM     50  H   LIG d   1       9.207 -10.787  -0.195  0.00  0.00     0.066 H 
ENDBRANCH  46  47
ENDBRANCH  41  46
ENDBRANCH  29  32
ENDBRANCH   2  29
TORSDOF 8
ENDMDL
MODEL 8
REMARK VINA RESULT:      -6.1      2.750      4.618
REMARK  8 active torsions:
REMARK  status: ('A' for Active; 'I' for Inactive)
REMARK    1  A    between atoms: C_1  and  C_2 
REMARK    2  A    between atoms: C_2  and  C_4 
REMARK    3  A    between atoms: C_2  and  N_15 
REMARK    4  A    between atoms: C_4  and  C_5 
REMARK       I    between atoms: N_15  and  C_16 
REMARK    5  A    between atoms: C_16  and  C_18 
REMARK    6  A    between atoms: C_18  and  N_19 
REMARK    7  A    between atoms: C_26  and  O_28 
REMARK    8  A    between atoms: O_28  and  C_29 
ROOT
ATOM      1  N   LIG d   1       9.762   1.229  -5.384  0.00  0.00    -0.311 N 
ATOM      2  C   LIG d   1       9.822   2.454  -5.943  0.00  0.00     0.233 C 
ATOM      3  O   LIG d   1       8.993   2.789  -6.762  0.00  0.00    -0.274 OA
ATOM      4  H   LIG d   1      10.514   0.926  -4.641  0.00  0.00     0.149 HD
ENDROOT
BRANCH   1   5
ATOM      5  C   LIG d   1       8.694   0.302  -5.766  0.00  0.00     0.024 C 
ATOM      6  H   LIG d   1       7.842   0.910  -6.103  0.00  0.00     0.050 H 
BRANCH   5   7
ATOM      7  C   LIG d   1       9.188  -0.606  -6.895  0.00  0.00    -0.046 C 
ATOM      8  H   LIG d   1      10.213  -0.320  -7.174  0.00  0.00     0.025 H 
ATOM      9  H   LIG d   1       8.527  -0.500  -7.767  0.00  0.00     0.025 H 
ATOM     10  H   LIG d   1       9.181  -1.652  -6.554  0.00  0.00     0.025 H 
ENDBRANCH   5   7
BRANCH   5  11
ATOM     11  C   LIG d   1       8.304  -0.553  -4.559  0.00  0.00    -0.007 C 
ATOM     12  H   LIG d   1       8.105  -1.583  -4.887  0.00  0.00     0.033 H 
ATOM     13  H   LIG d   1       9.126  -0.553  -3.828  0.00  0.00     0.033 H 
BRANCH  11  14
ATOM     14  C   LIG d   1       7.064   0.019  -3.920  0.00  0.00    -0.021 A 
ATOM     15  C   LIG d   1       5.871  -0.727  -3.512  0.00  0.00     0.003 A 
ATOM     16  C   LIG d   1       4.986   0.223  -2.968  0.00  0.00     0.047 A 
ATOM     17  C   LIG d   1       5.502  -2.072  -3.566  0.00  0.00    -0.052 A 
ATOM     18  N   LIG d   1       5.608   1.449  -3.046  0.00  0.00    -0.360 N 
ATOM     19  C   LIG d   1       3.749  -0.196  -2.488  0.00  0.00    -0.038 A 
ATOM     20  C   LIG d   1       6.846   1.307  -3.610  0.00  0.00     0.006 A 
ATOM     21  H   LIG d   1       5.256   2.443  -2.735  0.00  0.00     0.165 HD
ATOM     22  H   LIG d   1       7.544   2.112  -3.783  0.00  0.00     0.081 H 
ATOM     23  C   LIG d   1       3.406  -1.529  -2.551  0.00  0.00    -0.060 A 
ATOM     24  H   LIG d   1       3.061   0.523  -2.069  0.00  0.00     0.064 H 
ATOM     25  C   LIG d   1       4.282  -2.460  -3.089  0.00  0.00    -0.061 A 
ATOM     26  H   LIG d   1       2.445  -1.851  -2.178  0.00  0.00     0.062 H 
ATOM     27  H   LIG d   1       3.997  -3.501  -3.131  0.00  0.00     0.062 H 
ATOM     28  H   LIG d   1       6.180  -2.803  -3.983  0.00  0.00     0.062 H 
ENDBRANCH  11  14
ENDBRANCH   5  11
ENDBRANCH   1   5
BRANCH   2  29
ATOM     29  C   LIG d   1      10.920   3.409  -5.549  0.00  0.00     0.100 C 
ATOM     30  H   LIG d   1      11.609   2.909  -4.852  0.00  0.00     0.059 H 
ATOM     31  H   LIG d   1      11.473   3.722  -6.447  0.00  0.00     0.059 H 
BRANCH  29  32
ATOM     32  N   LIG d   1      10.336   4.585  -4.900  0.00  0.00    -0.338 N 
ATOM     33  C   LIG d   1      10.463   4.897  -3.562  0.00  0.00     0.050 A 
ATOM     34  C   LIG d   1       9.758   6.095  -3.348  0.00  0.00     0.003 A 
ATOM     35  C   LIG d   1      11.111   4.283  -2.497  0.00  0.00    -0.034 A 
ATOM     36  C   LIG d   1       9.201   6.475  -4.649  0.00  0.00    -0.036 A 
ATOM     37  C   LIG d   1       9.712   6.658  -2.072  0.00  0.00    -0.011 A 
ATOM     38  C   LIG d   1       9.580   5.536  -5.529  0.00  0.00     0.006 A 
ATOM     39  H   LIG d   1       8.598   7.347  -4.859  0.00  0.00     0.064 H 
ATOM     40  H   LIG d   1       9.328   5.533  -6.579  0.00  0.00     0.081 H 
ATOM     41  C   LIG d   1      10.362   6.034  -1.026  0.00  0.00     0.121 A 
ATOM     42  H   LIG d   1       9.170   7.579  -1.903  0.00  0.00     0.066 H 
ATOM     43  C   LIG d   1      11.064   4.851  -1.242  0.00  0.00    -0.018 A 
ATOM     44  H   LIG d   1      11.573   4.373  -0.419  0.00  0.00     0.066 H 
ATOM     45  H   LIG d   1      11.655   3.363  -2.653  0.00  0.00     0.064 H 
BRANCH  41  46
ATOM     46  O   LIG d   1      10.320   6.579   0.219  0.00  0.00    -0.495 OA
BRANCH  46  47
ATOM     47  C   LIG d   1      11.052   5.905   1.246  0.00  0.00     0.079 C 
ATOM     48  H   LIG d   1      11.409   6.640   1.983  0.00  0.00     0.066 H 
ATOM     49  H   LIG d   1      11.912   5.383   0.802  0.00  0.00     0.066 H 
ATOM     50  H   LIG d   1      10.397   5.175   1.744  0.00  0.00     0.066 H 
ENDBRANCH  46  47
ENDBRANCH  41  46
ENDBRANCH  29  32
ENDBRANCH   2  29
TORSDOF 8
ENDMDL
MODEL 9
REMARK VINA RESULT:      -6.0      2.743      4.746
REMARK  8 active torsions:
REMARK  status: ('A' for Active; 'I' for Inactive)
REMARK    1  A    between atoms: C_1  and  C_2 
REMARK    2  A    between atoms: C_2  and  C_4 
REMARK    3  A    between atoms: C_2  and  N_15 
REMARK    4  A    between atoms: C_4  and  C_5 
REMARK       I    between atoms: N_15  and  C_16 
REMARK    5  A    between atoms: C_16  and  C_18 
REMARK    6  A    between atoms: C_18  and  N_19 
REMARK    7  A    between atoms: C_26  and  O_28 
REMARK    8  A    between atoms: O_28  and  C_29 
ROOT
ATOM      1  N   LIG d   1       9.253   0.629  -4.472  0.00  0.00    -0.311 N 
ATOM      2  C   LIG d   1       9.132   1.777  -3.777  0.00  0.00     0.233 C 
ATOM      3  O   LIG d   1       8.031   2.199  -3.492  0.00  0.00    -0.274 OA
ATOM      4  H   LIG d   1      10.251   0.245  -4.731  0.00  0.00     0.149 HD
ENDROOT
BRANCH   1   5
ATOM      5  C   LIG d   1       8.056  -0.109  -4.883  0.00  0.00     0.024 C 
ATOM      6  H   LIG d   1       7.202   0.576  -4.781  0.00  0.00     0.050 H 
BRANCH   5   7
ATOM      7  C   LIG d   1       8.211  -0.563  -6.337  0.00  0.00    -0.046 C 
ATOM      8  H   LIG d   1       8.939   0.084  -6.847  0.00  0.00     0.025 H 
ATOM      9  H   LIG d   1       7.240  -0.495  -6.848  0.00  0.00     0.025 H 
ATOM     10  H   LIG d   1       8.566  -1.603  -6.360  0.00  0.00     0.025 H 
ENDBRANCH   5   7
BRANCH   5  11
ATOM     11  C   LIG d   1       7.877  -1.334  -3.984  0.00  0.00    -0.007 C 
ATOM     12  H   LIG d   1       8.446  -2.178  -4.397  0.00  0.00     0.033 H 
ATOM     13  H   LIG d   1       8.242  -1.104  -2.973  0.00  0.00     0.033 H 
BRANCH  11  14
ATOM     14  C   LIG d   1       6.415  -1.698  -3.919  0.00  0.00    -0.021 A 
ATOM     15  C   LIG d   1       5.343  -0.893  -3.328  0.00  0.00     0.003 A 
ATOM     16  C   LIG d   1       4.159  -1.635  -3.502  0.00  0.00     0.047 A 
ATOM     17  C   LIG d   1       5.299   0.348  -2.692  0.00  0.00    -0.052 A 
ATOM     18  N   LIG d   1       4.502  -2.800  -4.151  0.00  0.00    -0.360 N 
ATOM     19  C   LIG d   1       2.956  -1.117  -3.035  0.00  0.00    -0.038 A 
ATOM     20  C   LIG d   1       5.848  -2.818  -4.395  0.00  0.00     0.006 A 
ATOM     21  H   LIG d   1       3.875  -3.646  -4.468  0.00  0.00     0.165 HD
ATOM     22  H   LIG d   1       6.377  -3.615  -4.895  0.00  0.00     0.081 H 
ATOM     23  C   LIG d   1       2.936   0.111  -2.409  0.00  0.00    -0.060 A 
ATOM     24  H   LIG d   1       2.041  -1.676  -3.161  0.00  0.00     0.064 H 
ATOM     25  C   LIG d   1       4.106   0.837  -2.240  0.00  0.00    -0.061 A 
ATOM     26  H   LIG d   1       2.001   0.510  -2.047  0.00  0.00     0.062 H 
ATOM     27  H   LIG d   1       4.073   1.797  -1.747  0.00  0.00     0.062 H 
ATOM     28  H   LIG d   1       6.206   0.920  -2.556  0.00  0.00     0.062 H 
ENDBRANCH  11  14
ENDBRANCH   5  11
ENDBRANCH   1   5
BRANCH   2  29
ATOM     29  C   LIG d   1      10.363   2.535  -3.353  0.00  0.00     0.100 C 
ATOM     30  H   LIG d   1      10.608   2.284  -2.310  0.00  0.00     0.059 H 
ATOM     31  H   LIG d   1      11.206   2.257  -4.003  0.00  0.00     0.059 H 
BRANCH  29  32
ATOM     32  N   LIG d   1      10.114   3.974  -3.464  0.00  0.00    -0.338 N 
ATOM     33  C   LIG d   1       9.994   4.669  -4.649  0.00  0.00     0.050 A 
ATOM     34  C   LIG d   1       9.762   6.016  -4.318  0.00  0.00     0.003 A 
ATOM     35  C   LIG d   1      10.058   4.293  -5.986  0.00  0.00    -0.034 A 
ATOM     36  C   LIG d   1       9.752   6.077  -2.854  0.00  0.00    -0.036 A 
ATOM     37  C   LIG d   1       9.598   6.964  -5.328  0.00  0.00    -0.011 A 
ATOM     38  C   LIG d   1       9.968   4.830  -2.407  0.00  0.00     0.006 A 
ATOM     39  H   LIG d   1       9.601   6.959  -2.249  0.00  0.00     0.064 H 
ATOM     40  H   LIG d   1      10.016   4.545  -1.366  0.00  0.00     0.081 H 
ATOM     41  C   LIG d   1       9.664   6.572  -6.651  0.00  0.00     0.121 A 
ATOM     42  H   LIG d   1       9.420   8.001  -5.078  0.00  0.00     0.066 H 
ATOM     43  C   LIG d   1       9.888   5.237  -6.976  0.00  0.00    -0.018 A 
ATOM     44  H   LIG d   1       9.934   4.939  -8.013  0.00  0.00     0.066 H 
ATOM     45  H   LIG d   1      10.235   3.261  -6.249  0.00  0.00     0.064 H 
BRANCH  41  46
ATOM     46  O   LIG d   1       9.505   7.492  -7.639  0.00  0.00    -0.495 OA
BRANCH  46  47
ATOM     47  C   LIG d   1       9.433   6.999  -8.978  0.00  0.00     0.079 C 
ATOM     48  H   LIG d   1       9.747   7.788  -9.677  0.00  0.00     0.066 H 
ATOM     49  H   LIG d   1       8.398   6.700  -9.204  0.00  0.00     0.066 H 
ATOM     50  H   LIG d   1      10.097   6.128  -9.085  0.00  0.00     0.066 H 
ENDBRANCH  46  47
ENDBRANCH  41  46
ENDBRANCH  29  32
ENDBRANCH   2  29
TORSDOF 8
ENDMDL
MODEL 10
REMARK VINA RESULT:      -6.0      2.010      4.640
REMARK  8 active torsions:
REMARK  status: ('A' for Active; 'I' for Inactive)
REMARK    1  A    between atoms: C_1  and  C_2 
REMARK    2  A    between atoms: C_2  and  C_4 
REMARK    3  A    between atoms: C_2  and  N_15 
REMARK    4  A    between atoms: C_4  and  C_5 
REMARK       I    between atoms: N_15  and  C_16 
REMARK    5  A    between atoms: C_16  and  C_18 
REMARK    6  A    between atoms: C_18  and  N_19 
REMARK    7  A    between atoms: C_26  and  O_28 
REMARK    8  A    between atoms: O_28  and  C_29 
ROOT
ATOM      1  N   LIG d   1       4.853   0.437  -4.184  0.00  0.00    -0.311 N 
ATOM      2  C   LIG d   1       6.032  -0.201  -4.048  0.00  0.00     0.233 C 
ATOM      3  O   LIG d   1       6.068  -1.413  -4.040  0.00  0.00    -0.274 OA
ATOM      4  H   LIG d   1       4.821   1.537  -4.192  0.00  0.00     0.149 HD
ENDROOT
BRANCH   1   5
ATOM      5  C   LIG d   1       3.615  -0.333  -4.322  0.00  0.00     0.024 C 
ATOM      6  H   LIG d   1       3.903  -1.378  -4.510  0.00  0.00     0.050 H 
BRANCH   5   7
ATOM      7  C   LIG d   1       2.800  -0.223  -3.030  0.00  0.00    -0.046 C 
ATOM      8  H   LIG d   1       3.133  -0.994  -2.320  0.00  0.00     0.025 H 
ATOM      9  H   LIG d   1       1.734  -0.369  -3.256  0.00  0.00     0.025 H 
ATOM     10  H   LIG d   1       2.949   0.772  -2.587  0.00  0.00     0.025 H 
ENDBRANCH   5   7
BRANCH   5  11
ATOM     11  C   LIG d   1       2.796   0.221  -5.489  0.00  0.00    -0.007 C 
ATOM     12  H   LIG d   1       1.777  -0.190  -5.450  0.00  0.00     0.033 H 
ATOM     13  H   LIG d   1       2.752   1.317  -5.419  0.00  0.00     0.033 H 
BRANCH  11  14
ATOM     14  C   LIG d   1       3.447  -0.173  -6.790  0.00  0.00    -0.021 A 
ATOM     15  C   LIG d   1       3.511   0.632  -8.012  0.00  0.00     0.003 A 
ATOM     16  C   LIG d   1       4.212  -0.143  -8.954  0.00  0.00     0.047 A 
ATOM     17  C   LIG d   1       3.045   1.900  -8.363  0.00  0.00    -0.052 A 
ATOM     18  N   LIG d   1       4.544  -1.329  -8.336  0.00  0.00    -0.360 N 
ATOM     19  C   LIG d   1       4.433   0.368 -10.228  0.00  0.00    -0.038 A 
ATOM     20  C   LIG d   1       4.084  -1.327  -7.048  0.00  0.00     0.006 A 
ATOM     21  H   LIG d   1       5.087  -2.203  -8.725  0.00  0.00     0.165 HD
ATOM     22  H   LIG d   1       4.214  -2.134  -6.342  0.00  0.00     0.081 H 
ATOM     23  C   LIG d   1       3.964   1.622 -10.553  0.00  0.00    -0.060 A 
ATOM     24  H   LIG d   1       4.969  -0.218 -10.960  0.00  0.00     0.064 H 
ATOM     25  C   LIG d   1       3.272   2.382  -9.621  0.00  0.00    -0.061 A 
ATOM     26  H   LIG d   1       4.136   2.016 -11.544  0.00  0.00     0.062 H 
ATOM     27  H   LIG d   1       2.911   3.363  -9.893  0.00  0.00     0.062 H 
ATOM     28  H   LIG d   1       2.506   2.499  -7.642  0.00  0.00     0.062 H 
ENDBRANCH  11  14
ENDBRANCH   5  11
ENDBRANCH   1   5
BRANCH   2  29
ATOM     29  C   LIG d   1       7.306   0.592  -3.907  0.00  0.00     0.100 C 
ATOM     30  H   LIG d   1       7.129   1.459  -3.255  0.00  0.00     0.059 H 
ATOM     31  H   LIG d   1       8.087  -0.045  -3.465  0.00  0.00     0.059 H 
BRANCH  29  32
ATOM     32  N   LIG d   1       7.743   1.054  -5.227  0.00  0.00    -0.338 N 
ATOM     33  C   LIG d   1       8.448   2.215  -5.467  0.00  0.00     0.050 A 
ATOM     34  C   LIG d   1       8.664   2.288  -6.855  0.00  0.00     0.003 A 
ATOM     35  C   LIG d   1       8.932   3.224  -4.643  0.00  0.00    -0.034 A 
ATOM     36  C   LIG d   1       8.040   1.092  -7.426  0.00  0.00    -0.036 A 
ATOM     37  C   LIG d   1       9.362   3.370  -7.395  0.00  0.00    -0.011 A 
ATOM     38  C   LIG d   1       7.509   0.401  -6.406  0.00  0.00     0.006 A 
ATOM     39  H   LIG d   1       8.011   0.820  -8.471  0.00  0.00     0.064 H 
ATOM     40  H   LIG d   1       6.977  -0.535  -6.502  0.00  0.00     0.081 H 
ATOM     41  C   LIG d   1       9.836   4.363  -6.561  0.00  0.00     0.121 A 
ATOM     42  H   LIG d   1       9.530   3.430  -8.461  0.00  0.00     0.066 H 
ATOM     43  C   LIG d   1       9.624   4.285  -5.187  0.00  0.00    -0.018 A 
ATOM     44  H   LIG d   1      10.004   5.064  -4.542  0.00  0.00     0.066 H 
ATOM     45  H   LIG d   1       8.771   3.175  -3.576  0.00  0.00     0.064 H 
BRANCH  41  46
ATOM     46  O   LIG d   1      10.516   5.418  -7.082  0.00  0.00    -0.495 OA
BRANCH  46  47
ATOM     47  C   LIG d   1      10.632   5.474  -8.506  0.00  0.00     0.079 C 
ATOM     48  H   LIG d   1      10.209   4.559  -8.945  0.00  0.00     0.066 H 
ATOM     49  H   LIG d   1      11.693   5.558  -8.784  0.00  0.00     0.066 H 
ATOM     50  H   LIG d   1      10.085   6.350  -8.884  0.00  0.00     0.066 H 
ENDBRANCH  46  47
ENDBRANCH  41  46
ENDBRANCH  29  32
ENDBRANCH   2  29
TORSDOF 8
ENDMDL
