MODEL 1
REMARK VINA RESULT:      -6.8      0.000      0.000
REMARK  1 active torsions:
REMARK  status: ('A' for Active; 'I' for Inactive)
REMARK    1  A    between atoms: CB_1  and  CA_2 
REMARK       I    between atoms: CA_2  and  C_4 
REMARK       I    between atoms: CA_2  and  N_32 
ROOT
ATOM      1  CA  ALA d   1       4.455   0.391  -8.421  0.00  0.00     0.131 C 
ATOM      2  HA  ALA d   1       4.732  -0.595  -8.797  0.00  0.00     0.084 H 
ATOM      3  C   ALA d   1       4.954   1.449  -9.370  0.00  0.00     0.086 C 
ATOM      4  O   ALA d   1       5.732   2.289  -8.983  0.00  0.00    -0.545 OA
ATOM      5  OXT ALA d   1       4.538   1.455 -10.646  0.00  0.00    -0.545 OA
ATOM      6  N   ALA d   1       5.054   0.659  -7.069  0.00  0.00    -0.271 N 
ATOM      7  H   ALA d   1       4.997   1.599  -6.659  0.00  0.00     0.304 HD
ATOM      8  C   UNK d   0       5.658  -0.320  -6.404  0.00  0.00     0.243 C 
ATOM      9  C   UNK d   0       5.612  -1.748  -6.850  0.00  0.00     0.047 C 
ATOM     10  C   UNK d   0       4.952  -2.635  -5.791  0.00  0.00    -0.038 C 
ATOM     11  C   UNK d   0       5.788  -2.640  -4.512  0.00  0.00    -0.023 C 
ATOM     12  C   UNK d   0       5.387  -1.476  -3.636  0.00  0.00    -0.003 A 
ATOM     13  C   UNK d   0       4.718  -1.694  -2.449  0.00  0.00    -0.055 A 
ATOM     14  C   UNK d   0       4.367  -0.622  -1.649  0.00  0.00    -0.061 A 
ATOM     15  C   UNK d   0       4.685   0.669  -2.032  0.00  0.00    -0.058 A 
ATOM     16  C   UNK d   0       5.351   0.894  -3.222  0.00  0.00    -0.017 A 
ATOM     17  C   UNK d   0       5.696  -0.179  -4.029  0.00  0.00     0.121 A 
ATOM     18  N   UNK d   0       6.344   0.023  -5.258  0.00  0.00    -0.207 N 
ATOM     19  H   UNK d   0       5.040  -1.814  -7.777  0.00  0.00     0.038 H 
ATOM     20  H   UNK d   0       6.627  -2.099  -7.031  0.00  0.00     0.038 H 
ATOM     21  H   UNK d   0       3.956  -2.254  -5.570  0.00  0.00     0.027 H 
ATOM     22  H   UNK d   0       4.874  -3.653  -6.172  0.00  0.00     0.027 H 
ATOM     23  H   UNK d   0       5.622  -3.573  -3.975  0.00  0.00     0.032 H 
ATOM     24  H   UNK d   0       6.844  -2.552  -4.769  0.00  0.00     0.032 H 
ATOM     25  H   UNK d   0       4.468  -2.700  -2.146  0.00  0.00     0.062 H 
ATOM     26  H   UNK d   0       3.841  -0.793  -0.721  0.00  0.00     0.062 H 
ATOM     27  H   UNK d   0       4.414   1.501  -1.400  0.00  0.00     0.062 H 
ATOM     28  H   UNK d   0       5.599   1.900  -3.522  0.00  0.00     0.066 H 
ATOM     29  H   UNK d   0       7.241   0.388  -5.302  0.00  0.00     0.298 HD
ENDROOT
BRANCH   1  30
ATOM     30  CB  ALA d   1       2.931   0.483  -8.308  0.00  0.00    -0.019 C 
ATOM     31  HB1 ALA d   1       2.474  -0.010  -9.164  0.00  0.00     0.027 H 
ATOM     32  HB2 ALA d   1       2.605  -0.004  -7.390  0.00  0.00     0.027 H 
ATOM     33  HB3 ALA d   1       2.632   1.531  -8.289  0.00  0.00     0.027 H 
ENDBRANCH   1  30
TORSDOF 3
ENDMDL
MODEL 2
REMARK VINA RESULT:      -6.4      2.296      2.752
REMARK  1 active torsions:
REMARK  status: ('A' for Active; 'I' for Inactive)
REMARK    1  A    between atoms: CB_1  and  CA_2 
REMARK       I    between atoms: CA_2  and  C_4 
REMARK       I    between atoms: CA_2  and  N_32 
ROOT
ATOM      1  CA  ALA d   1       3.515  -1.742  -8.849  0.00  0.00     0.131 C 
ATOM      2  HA  ALA d   1       4.487  -1.416  -9.220  0.00  0.00     0.084 H 
ATOM      3  C   ALA d   1       2.443  -1.345  -9.831  0.00  0.00     0.086 C 
ATOM      4  O   ALA d   1       1.549  -0.609  -9.484  0.00  0.00    -0.545 OA
ATOM      5  OXT ALA d   1       2.486  -1.802 -11.092  0.00  0.00    -0.545 OA
ATOM      6  N   ALA d   1       3.185  -1.116  -7.523  0.00  0.00    -0.271 N 
ATOM      7  H   ALA d   1       2.244  -1.220  -7.126  0.00  0.00     0.304 HD
ATOM      8  C   UNK d   0       4.112  -0.429  -6.865  0.00  0.00     0.243 C 
ATOM      9  C   UNK d   0       5.548  -0.399  -7.287  0.00  0.00     0.047 C 
ATOM     10  C   UNK d   0       6.456  -0.964  -6.193  0.00  0.00    -0.038 C 
ATOM     11  C   UNK d   0       6.386  -0.087  -4.944  0.00  0.00    -0.023 C 
ATOM     12  C   UNK d   0       5.235  -0.532  -4.072  0.00  0.00    -0.003 A 
ATOM     13  C   UNK d   0       5.474  -1.145  -2.859  0.00  0.00    -0.055 A 
ATOM     14  C   UNK d   0       4.413  -1.537  -2.064  0.00  0.00    -0.061 A 
ATOM     15  C   UNK d   0       3.111  -1.316  -2.477  0.00  0.00    -0.058 A 
ATOM     16  C   UNK d   0       2.865  -0.706  -3.693  0.00  0.00    -0.017 A 
ATOM     17  C   UNK d   0       3.928  -0.320  -4.495  0.00  0.00     0.121 A 
ATOM     18  N   UNK d   0       3.707   0.272  -5.748  0.00  0.00    -0.207 N 
ATOM     19  H   UNK d   0       5.666  -0.995  -8.193  0.00  0.00     0.038 H 
ATOM     20  H   UNK d   0       5.837   0.630  -7.498  0.00  0.00     0.038 H 
ATOM     21  H   UNK d   0       6.135  -1.974  -5.943  0.00  0.00     0.027 H 
ATOM     22  H   UNK d   0       7.484  -0.989  -6.555  0.00  0.00     0.027 H 
ATOM     23  H   UNK d   0       7.318  -0.175  -4.387  0.00  0.00     0.032 H 
ATOM     24  H   UNK d   0       6.236   0.952  -5.238  0.00  0.00     0.032 H 
ATOM     25  H   UNK d   0       6.489  -1.319  -2.533  0.00  0.00     0.062 H 
ATOM     26  H   UNK d   0       4.600  -2.019  -1.115  0.00  0.00     0.062 H 
ATOM     27  H   UNK d   0       2.287  -1.619  -1.849  0.00  0.00     0.062 H 
ATOM     28  H   UNK d   0       1.850  -0.533  -4.017  0.00  0.00     0.066 H 
ATOM     29  H   UNK d   0       3.286   1.142  -5.830  0.00  0.00     0.298 HD
ENDROOT
BRANCH   1  30
ATOM     30  CB  ALA d   1       3.517  -3.264  -8.685  0.00  0.00    -0.019 C 
ATOM     31  HB1 ALA d   1       3.049  -3.527  -7.737  0.00  0.00     0.027 H 
ATOM     32  HB2 ALA d   1       2.961  -3.718  -9.504  0.00  0.00     0.027 H 
ATOM     33  HB3 ALA d   1       4.543  -3.629  -8.698  0.00  0.00     0.027 H 
ENDBRANCH   1  30
TORSDOF 3
ENDMDL
MODEL 3
REMARK VINA RESULT:      -6.3      2.622      3.000
REMARK  1 active torsions:
REMARK  status: ('A' for Active; 'I' for Inactive)
REMARK    1  A    between atoms: CB_1  and  CA_2 
REMARK       I    between atoms: CA_2  and  C_4 
REMARK       I    between atoms: CA_2  and  N_32 
ROOT
ATOM      1  CA  ALA d   1       8.197   1.362  -7.059  0.00  0.00     0.131 C 
ATOM      2  HA  ALA d   1       8.782   0.460  -7.242  0.00  0.00     0.084 H 
ATOM      3  C   ALA d   1       9.050   2.576  -7.324  0.00  0.00     0.086 C 
ATOM      4  O   ALA d   1       9.259   3.372  -6.439  0.00  0.00    -0.545 OA
ATOM      5  OXT ALA d   1       9.582   2.769  -8.541  0.00  0.00    -0.545 OA
ATOM      6  N   ALA d   1       7.714   1.435  -5.638  0.00  0.00    -0.271 N 
ATOM      7  H   ALA d   1       7.276   2.295  -5.287  0.00  0.00     0.304 HD
ATOM      8  C   UNK d   0       7.855   0.387  -4.835  0.00  0.00     0.243 C 
ATOM      9  C   UNK d   0       8.306  -0.954  -5.326  0.00  0.00     0.047 C 
ATOM     10  C   UNK d   0       7.239  -2.021  -5.072  0.00  0.00    -0.038 C 
ATOM     11  C   UNK d   0       7.016  -2.198  -3.571  0.00  0.00    -0.023 C 
ATOM     12  C   UNK d   0       5.985  -1.204  -3.088  0.00  0.00    -0.003 A 
ATOM     13  C   UNK d   0       4.738  -1.632  -2.684  0.00  0.00    -0.055 A 
ATOM     14  C   UNK d   0       3.807  -0.714  -2.232  0.00  0.00    -0.061 A 
ATOM     15  C   UNK d   0       4.122   0.632  -2.180  0.00  0.00    -0.058 A 
ATOM     16  C   UNK d   0       5.368   1.067  -2.588  0.00  0.00    -0.017 A 
ATOM     17  C   UNK d   0       6.300   0.150  -3.049  0.00  0.00     0.121 A 
ATOM     18  N   UNK d   0       7.561   0.568  -3.499  0.00  0.00    -0.207 N 
ATOM     19  H   UNK d   0       8.502  -0.893  -6.397  0.00  0.00     0.038 H 
ATOM     20  H   UNK d   0       9.223  -1.233  -4.811  0.00  0.00     0.038 H 
ATOM     21  H   UNK d   0       6.305  -1.717  -5.543  0.00  0.00     0.027 H 
ATOM     22  H   UNK d   0       7.568  -2.968  -5.499  0.00  0.00     0.027 H 
ATOM     23  H   UNK d   0       6.663  -3.210  -3.374  0.00  0.00     0.032 H 
ATOM     24  H   UNK d   0       7.955  -2.031  -3.043  0.00  0.00     0.032 H 
ATOM     25  H   UNK d   0       4.488  -2.682  -2.722  0.00  0.00     0.062 H 
ATOM     26  H   UNK d   0       2.829  -1.050  -1.917  0.00  0.00     0.062 H 
ATOM     27  H   UNK d   0       3.393   1.343  -1.820  0.00  0.00     0.062 H 
ATOM     28  H   UNK d   0       5.616   2.117  -2.548  0.00  0.00     0.066 H 
ATOM     29  H   UNK d   0       8.206   0.970  -2.896  0.00  0.00     0.298 HD
ENDROOT
BRANCH   1  30
ATOM     30  CB  ALA d   1       6.983   1.379  -7.990  0.00  0.00    -0.019 C 
ATOM     31  HB1 ALA d   1       6.330   2.208  -7.720  0.00  0.00     0.027 H 
ATOM     32  HB2 ALA d   1       7.317   1.500  -9.020  0.00  0.00     0.027 H 
ATOM     33  HB3 ALA d   1       6.438   0.441  -7.893  0.00  0.00     0.027 H 
ENDBRANCH   1  30
TORSDOF 3
ENDMDL
MODEL 4
REMARK VINA RESULT:      -6.0      1.821      2.446
REMARK  1 active torsions:
REMARK  status: ('A' for Active; 'I' for Inactive)
REMARK    1  A    between atoms: CB_1  and  CA_2 
REMARK       I    between atoms: CA_2  and  C_4 
REMARK       I    between atoms: CA_2  and  N_32 
ROOT
ATOM      1  CA  ALA d   1       4.056   0.962  -9.079  0.00  0.00     0.131 C 
ATOM      2  HA  ALA d   1       2.988   0.739  -9.088  0.00  0.00     0.084 H 
ATOM      3  C   ALA d   1       4.699   0.389 -10.315  0.00  0.00     0.086 C 
ATOM      4  O   ALA d   1       5.580  -0.432 -10.212  0.00  0.00    -0.545 OA
ATOM      5  OXT ALA d   1       4.289   0.785 -11.530  0.00  0.00    -0.545 OA
ATOM      6  N   ALA d   1       4.740   0.368  -7.880  0.00  0.00    -0.271 N 
ATOM      7  H   ALA d   1       5.765   0.375  -7.818  0.00  0.00     0.304 HD
ATOM      8  C   UNK d   0       4.019  -0.168  -6.902  0.00  0.00     0.243 C 
ATOM      9  C   UNK d   0       2.528  -0.045  -6.836  0.00  0.00     0.047 C 
ATOM     10  C   UNK d   0       2.092   0.680  -5.561  0.00  0.00    -0.038 C 
ATOM     11  C   UNK d   0       2.483  -0.135  -4.330  0.00  0.00    -0.023 C 
ATOM     12  C   UNK d   0       3.895   0.209  -3.916  0.00  0.00    -0.003 A 
ATOM     13  C   UNK d   0       4.131   0.906  -2.749  0.00  0.00    -0.055 A 
ATOM     14  C   UNK d   0       5.428   1.205  -2.375  0.00  0.00    -0.061 A 
ATOM     15  C   UNK d   0       6.492   0.807  -3.164  0.00  0.00    -0.058 A 
ATOM     16  C   UNK d   0       6.262   0.112  -4.336  0.00  0.00    -0.017 A 
ATOM     17  C   UNK d   0       4.962  -0.181  -4.717  0.00  0.00     0.121 A 
ATOM     18  N   UNK d   0       4.698  -0.857  -5.919  0.00  0.00    -0.207 N 
ATOM     19  H   UNK d   0       2.178   0.516  -7.703  0.00  0.00     0.038 H 
ATOM     20  H   UNK d   0       2.086  -1.040  -6.852  0.00  0.00     0.038 H 
ATOM     21  H   UNK d   0       2.575   1.655  -5.516  0.00  0.00     0.027 H 
ATOM     22  H   UNK d   0       1.010   0.813  -5.574  0.00  0.00     0.027 H 
ATOM     23  H   UNK d   0       1.800   0.093  -3.512  0.00  0.00     0.032 H 
ATOM     24  H   UNK d   0       2.424  -1.198  -4.565  0.00  0.00     0.032 H 
ATOM     25  H   UNK d   0       3.302   1.219  -2.130  0.00  0.00     0.062 H 
ATOM     26  H   UNK d   0       5.612   1.753  -1.462  0.00  0.00     0.062 H 
ATOM     27  H   UNK d   0       7.503   1.038  -2.863  0.00  0.00     0.062 H 
ATOM     28  H   UNK d   0       7.091  -0.199  -4.953  0.00  0.00     0.066 H 
ATOM     29  H   UNK d   0       4.981  -1.775  -6.056  0.00  0.00     0.298 HD
ENDROOT
BRANCH   1  30
ATOM     30  CB  ALA d   1       4.258   2.479  -9.056  0.00  0.00    -0.019 C 
ATOM     31  HB1 ALA d   1       3.314   2.974  -9.279  0.00  0.00     0.027 H 
ATOM     32  HB2 ALA d   1       4.604   2.784  -8.069  0.00  0.00     0.027 H 
ATOM     33  HB3 ALA d   1       5.001   2.758  -9.802  0.00  0.00     0.027 H 
ENDBRANCH   1  30
TORSDOF 3
ENDMDL
MODEL 5
REMARK VINA RESULT:      -6.0      3.382      3.816
REMARK  1 active torsions:
REMARK  status: ('A' for Active; 'I' for Inactive)
REMARK    1  A    between atoms: CB_1  and  CA_2 
REMARK       I    between atoms: CA_2  and  C_4 
REMARK       I    between atoms: CA_2  and  N_32 
ROOT
ATOM      1  CA  ALA d   1       8.719  -0.848  -6.182  0.00  0.00     0.131 C 
ATOM      2  HA  ALA d   1       8.638  -1.913  -6.405  0.00  0.00     0.084 H 
ATOM      3  C   ALA d   1      10.173  -0.465  -6.085  0.00  0.00     0.086 C 
ATOM      4  O   ALA d   1      10.608  -0.000  -5.057  0.00  0.00    -0.545 OA
ATOM      5  OXT ALA d   1      10.986  -0.644  -7.137  0.00  0.00    -0.545 OA
ATOM      6  N   ALA d   1       8.058  -0.499  -4.879  0.00  0.00    -0.271 N 
ATOM      7  H   ALA d   1       8.181   0.437  -4.475  0.00  0.00     0.304 HD
ATOM      8  C   UNK d   0       7.315  -1.402  -4.249  0.00  0.00     0.243 C 
ATOM      9  C   UNK d   0       6.937  -2.712  -4.868  0.00  0.00     0.047 C 
ATOM     10  C   UNK d   0       5.418  -2.846  -4.990  0.00  0.00    -0.038 C 
ATOM     11  C   UNK d   0       4.775  -2.856  -3.604  0.00  0.00    -0.023 C 
ATOM     12  C   UNK d   0       4.508  -1.438  -3.155  0.00  0.00    -0.003 A 
ATOM     13  C   UNK d   0       3.215  -0.968  -3.057  0.00  0.00    -0.055 A 
ATOM     14  C   UNK d   0       2.982   0.327  -2.634  0.00  0.00    -0.061 A 
ATOM     15  C   UNK d   0       4.041   1.155  -2.303  0.00  0.00    -0.058 A 
ATOM     16  C   UNK d   0       5.339   0.691  -2.403  0.00  0.00    -0.017 A 
ATOM     17  C   UNK d   0       5.574  -0.605  -2.835  0.00  0.00     0.121 A 
ATOM     18  N   UNK d   0       6.883  -1.091  -2.976  0.00  0.00    -0.207 N 
ATOM     19  H   UNK d   0       7.382  -2.779  -5.861  0.00  0.00     0.038 H 
ATOM     20  H   UNK d   0       7.320  -3.523  -4.249  0.00  0.00     0.038 H 
ATOM     21  H   UNK d   0       5.026  -2.007  -5.563  0.00  0.00     0.027 H 
ATOM     22  H   UNK d   0       5.178  -3.778  -5.502  0.00  0.00     0.027 H 
ATOM     23  H   UNK d   0       3.836  -3.407  -3.644  0.00  0.00     0.032 H 
ATOM     24  H   UNK d   0       5.449  -3.339  -2.896  0.00  0.00     0.032 H 
ATOM     25  H   UNK d   0       2.386  -1.611  -3.314  0.00  0.00     0.062 H 
ATOM     26  H   UNK d   0       1.969   0.696  -2.560  0.00  0.00     0.062 H 
ATOM     27  H   UNK d   0       3.853   2.163  -1.967  0.00  0.00     0.062 H 
ATOM     28  H   UNK d   0       6.166   1.335  -2.146  0.00  0.00     0.066 H 
ATOM     29  H   UNK d   0       7.465  -1.206  -2.209  0.00  0.00     0.298 HD
ENDROOT
BRANCH   1  30
ATOM     30  CB  ALA d   1       8.053  -0.043  -7.300  0.00  0.00    -0.019 C 
ATOM     31  HB1 ALA d   1       8.716   0.763  -7.612  0.00  0.00     0.027 H 
ATOM     32  HB2 ALA d   1       7.851  -0.697  -8.148  0.00  0.00     0.027 H 
ATOM     33  HB3 ALA d   1       7.116   0.378  -6.936  0.00  0.00     0.027 H 
ENDBRANCH   1  30
TORSDOF 3
ENDMDL
MODEL 6
REMARK VINA RESULT:      -5.8      3.750      5.504
REMARK  1 active torsions:
REMARK  status: ('A' for Active; 'I' for Inactive)
REMARK    1  A    between atoms: CB_1  and  CA_2 
REMARK       I    between atoms: CA_2  and  C_4 
REMARK       I    between atoms: CA_2  and  N_32 
ROOT
ATOM      1  CA  ALA d   1       5.329  -0.859  -3.343  0.00  0.00     0.131 C 
ATOM      2  HA  ALA d   1       4.900  -1.026  -4.332  0.00  0.00     0.084 H 
ATOM      3  C   ALA d   1       5.390   0.620  -3.065  0.00  0.00     0.086 C 
ATOM      4  O   ALA d   1       6.455   1.151  -2.849  0.00  0.00    -0.545 OA
ATOM      5  OXT ALA d   1       4.264   1.350  -3.063  0.00  0.00    -0.545 OA
ATOM      6  N   ALA d   1       6.723  -1.410  -3.240  0.00  0.00    -0.271 N 
ATOM      7  H   ALA d   1       7.299  -1.199  -2.417  0.00  0.00     0.304 HD
ATOM      8  C   UNK d   0       7.210  -2.170  -4.214  0.00  0.00     0.243 C 
ATOM      9  C   UNK d   0       6.367  -2.674  -5.344  0.00  0.00     0.047 C 
ATOM     10  C   UNK d   0       6.337  -4.204  -5.369  0.00  0.00    -0.038 C 
ATOM     11  C   UNK d   0       7.737  -4.755  -5.635  0.00  0.00    -0.023 C 
ATOM     12  C   UNK d   0       8.487  -4.896  -4.331  0.00  0.00    -0.003 A 
ATOM     13  C   UNK d   0       8.777  -6.146  -3.824  0.00  0.00    -0.055 A 
ATOM     14  C   UNK d   0       9.474  -6.263  -2.635  0.00  0.00    -0.061 A 
ATOM     15  C   UNK d   0       9.884  -5.132  -1.952  0.00  0.00    -0.058 A 
ATOM     16  C   UNK d   0       9.592  -3.878  -2.452  0.00  0.00    -0.017 A 
ATOM     17  C   UNK d   0       8.887  -3.759  -3.640  0.00  0.00     0.121 A 
ATOM     18  N   UNK d   0       8.548  -2.497  -4.153  0.00  0.00    -0.207 N 
ATOM     19  H   UNK d   0       5.350  -2.300  -5.225  0.00  0.00     0.038 H 
ATOM     20  H   UNK d   0       6.774  -2.308  -6.285  0.00  0.00     0.038 H 
ATOM     21  H   UNK d   0       5.980  -4.574  -4.409  0.00  0.00     0.027 H 
ATOM     22  H   UNK d   0       5.665  -4.539  -6.159  0.00  0.00     0.027 H 
ATOM     23  H   UNK d   0       7.658  -5.730  -6.115  0.00  0.00     0.032 H 
ATOM     24  H   UNK d   0       8.277  -4.072  -6.290  0.00  0.00     0.032 H 
ATOM     25  H   UNK d   0       8.459  -7.032  -4.355  0.00  0.00     0.062 H 
ATOM     26  H   UNK d   0       9.699  -7.242  -2.238  0.00  0.00     0.062 H 
ATOM     27  H   UNK d   0      10.433  -5.230  -1.028  0.00  0.00     0.062 H 
ATOM     28  H   UNK d   0       9.911  -2.994  -1.920  0.00  0.00     0.066 H 
ATOM     29  H   UNK d   0       9.229  -1.876  -4.457  0.00  0.00     0.298 HD
ENDROOT
BRANCH   1  30
ATOM     30  CB  ALA d   1       4.454  -1.541  -2.287  0.00  0.00    -0.019 C 
ATOM     31  HB1 ALA d   1       4.197  -0.822  -1.510  0.00  0.00     0.027 H 
ATOM     32  HB2 ALA d   1       3.543  -1.912  -2.755  0.00  0.00     0.027 H 
ATOM     33  HB3 ALA d   1       5.001  -2.374  -1.846  0.00  0.00     0.027 H 
ENDBRANCH   1  30
TORSDOF 3
ENDMDL
MODEL 7
REMARK VINA RESULT:      -5.7     12.319     14.013
REMARK  1 active torsions:
REMARK  status: ('A' for Active; 'I' for Inactive)
REMARK    1  A    between atoms: CB_1  and  CA_2 
REMARK       I    between atoms: CA_2  and  C_4 
REMARK       I    between atoms: CA_2  and  N_32 
ROOT
ATOM      1  CA  ALA d   1      -2.672   7.921 -15.214  0.00  0.00     0.131 C 
ATOM      2  HA  ALA d   1      -2.995   7.831 -16.252  0.00  0.00     0.084 H 
ATOM      3  C   ALA d   1      -1.255   8.429 -15.171  0.00  0.00     0.086 C 
ATOM      4  O   ALA d   1      -0.390   7.764 -14.651  0.00  0.00    -0.545 OA
ATOM      5  OXT ALA d   1      -0.951   9.618 -15.715  0.00  0.00    -0.545 OA
ATOM      6  N   ALA d   1      -2.715   6.599 -14.500  0.00  0.00    -0.271 N 
ATOM      7  H   ALA d   1      -2.304   6.508 -13.564  0.00  0.00     0.304 HD
ATOM      8  C   UNK d   0      -3.284   5.549 -15.081  0.00  0.00     0.243 C 
ATOM      9  C   UNK d   0      -4.067   5.655 -16.353  0.00  0.00     0.047 C 
ATOM     10  C   UNK d   0      -5.516   5.209 -16.147  0.00  0.00    -0.038 C 
ATOM     11  C   UNK d   0      -5.564   3.730 -15.766  0.00  0.00    -0.023 C 
ATOM     12  C   UNK d   0      -5.416   3.582 -14.270  0.00  0.00    -0.003 A 
ATOM     13  C   UNK d   0      -6.482   3.165 -13.500  0.00  0.00    -0.055 A 
ATOM     14  C   UNK d   0      -6.332   3.022 -12.133  0.00  0.00    -0.061 A 
ATOM     15  C   UNK d   0      -5.115   3.292 -11.533  0.00  0.00    -0.058 A 
ATOM     16  C   UNK d   0      -4.045   3.715 -12.297  0.00  0.00    -0.017 A 
ATOM     17  C   UNK d   0      -4.196   3.867 -13.667  0.00  0.00     0.121 A 
ATOM     18  N   UNK d   0      -3.135   4.326 -14.463  0.00  0.00    -0.207 N 
ATOM     19  H   UNK d   0      -4.058   6.691 -16.693  0.00  0.00     0.038 H 
ATOM     20  H   UNK d   0      -3.602   5.026 -17.112  0.00  0.00     0.038 H 
ATOM     21  H   UNK d   0      -5.966   5.800 -15.351  0.00  0.00     0.027 H 
ATOM     22  H   UNK d   0      -6.075   5.359 -17.070  0.00  0.00     0.027 H 
ATOM     23  H   UNK d   0      -6.517   3.306 -16.080  0.00  0.00     0.032 H 
ATOM     24  H   UNK d   0      -4.751   3.201 -16.264  0.00  0.00     0.032 H 
ATOM     25  H   UNK d   0      -7.434   2.952 -13.966  0.00  0.00     0.062 H 
ATOM     26  H   UNK d   0      -7.168   2.697 -11.531  0.00  0.00     0.062 H 
ATOM     27  H   UNK d   0      -5.002   3.173 -10.466  0.00  0.00     0.062 H 
ATOM     28  H   UNK d   0      -3.095   3.927 -11.830  0.00  0.00     0.066 H 
ATOM     29  H   UNK d   0      -2.326   3.803 -14.577  0.00  0.00     0.298 HD
ENDROOT
BRANCH   1  30
ATOM     30  CB  ALA d   1      -3.589   8.903 -14.480  0.00  0.00    -0.019 C 
ATOM     31  HB1 ALA d   1      -4.585   8.472 -14.390  0.00  0.00     0.027 H 
ATOM     32  HB2 ALA d   1      -3.187   9.101 -13.487  0.00  0.00     0.027 H 
ATOM     33  HB3 ALA d   1      -3.645   9.836 -15.041  0.00  0.00     0.027 H 
ENDBRANCH   1  30
TORSDOF 3
ENDMDL
MODEL 8
REMARK VINA RESULT:      -5.6      9.720     11.440
REMARK  1 active torsions:
REMARK  status: ('A' for Active; 'I' for Inactive)
REMARK    1  A    between atoms: CB_1  and  CA_2 
REMARK       I    between atoms: CA_2  and  C_4 
REMARK       I    between atoms: CA_2  and  N_32 
ROOT
ATOM      1  CA  ALA d   1      10.015  11.235  -2.442  0.00  0.00     0.131 C 
ATOM      2  HA  ALA d   1      10.237  11.565  -1.426  0.00  0.00     0.084 H 
ATOM      3  C   ALA d   1       8.950  12.120  -3.036  0.00  0.00     0.086 C 
ATOM      4  O   ALA d   1       7.900  11.642  -3.398  0.00  0.00    -0.545 OA
ATOM      5  OXT ALA d   1       9.164  13.440  -3.157  0.00  0.00    -0.545 OA
ATOM      6  N   ALA d   1       9.513   9.819  -2.471  0.00  0.00    -0.271 N 
ATOM      7  H   ALA d   1       9.130   9.428  -3.340  0.00  0.00     0.304 HD
ATOM      8  C   UNK d   0       9.564   9.074  -1.373  0.00  0.00     0.243 C 
ATOM      9  C   UNK d   0      10.278   9.511  -0.132  0.00  0.00     0.047 C 
ATOM     10  C   UNK d   0      11.406   8.540   0.225  0.00  0.00    -0.038 C 
ATOM     11  C   UNK d   0      10.832   7.163   0.555  0.00  0.00    -0.023 C 
ATOM     12  C   UNK d   0      10.680   6.356  -0.713  0.00  0.00    -0.003 A 
ATOM     13  C   UNK d   0      11.491   5.264  -0.946  0.00  0.00    -0.055 A 
ATOM     14  C   UNK d   0      11.335   4.525  -2.105  0.00  0.00    -0.061 A 
ATOM     15  C   UNK d   0      10.368   4.874  -3.031  0.00  0.00    -0.058 A 
ATOM     16  C   UNK d   0       9.556   5.968  -2.805  0.00  0.00    -0.017 A 
ATOM     17  C   UNK d   0       9.717   6.715  -1.647  0.00  0.00     0.121 A 
ATOM     18  N   UNK d   0       8.927   7.851  -1.408  0.00  0.00    -0.207 N 
ATOM     19  H   UNK d   0      10.700  10.504  -0.294  0.00  0.00     0.038 H 
ATOM     20  H   UNK d   0       9.568   9.555   0.692  0.00  0.00     0.038 H 
ATOM     21  H   UNK d   0      12.089   8.453  -0.619  0.00  0.00     0.027 H 
ATOM     22  H   UNK d   0      11.947   8.919   1.091  0.00  0.00     0.027 H 
ATOM     23  H   UNK d   0      11.505   6.644   1.237  0.00  0.00     0.032 H 
ATOM     24  H   UNK d   0       9.856   7.281   1.028  0.00  0.00     0.032 H 
ATOM     25  H   UNK d   0      12.247   4.988  -0.226  0.00  0.00     0.062 H 
ATOM     26  H   UNK d   0      11.972   3.671  -2.289  0.00  0.00     0.062 H 
ATOM     27  H   UNK d   0      10.247   4.289  -3.930  0.00  0.00     0.062 H 
ATOM     28  H   UNK d   0       8.801   6.242  -3.526  0.00  0.00     0.066 H 
ATOM     29  H   UNK d   0       7.970   7.781  -1.270  0.00  0.00     0.298 HD
ENDROOT
BRANCH   1  30
ATOM     30  CB  ALA d   1      11.284  11.323  -3.294  0.00  0.00    -0.019 C 
ATOM     31  HB1 ALA d   1      11.013  11.530  -4.328  0.00  0.00     0.027 H 
ATOM     32  HB2 ALA d   1      11.919  12.123  -2.917  0.00  0.00     0.027 H 
ATOM     33  HB3 ALA d   1      11.822  10.377  -3.241  0.00  0.00     0.027 H 
ENDBRANCH   1  30
TORSDOF 3
ENDMDL
MODEL 9
REMARK VINA RESULT:      -5.6      4.264      5.821
REMARK  1 active torsions:
REMARK  status: ('A' for Active; 'I' for Inactive)
REMARK    1  A    between atoms: CB_1  and  CA_2 
REMARK       I    between atoms: CA_2  and  C_4 
REMARK       I    between atoms: CA_2  and  N_32 
ROOT
ATOM      1  CA  ALA d   1       9.092  -4.180  -4.252  0.00  0.00     0.131 C 
ATOM      2  HA  ALA d   1       9.664  -3.600  -4.978  0.00  0.00     0.084 H 
ATOM      3  C   ALA d   1       9.043  -5.622  -4.687  0.00  0.00     0.086 C 
ATOM      4  O   ALA d   1       7.978  -6.151  -4.904  0.00  0.00    -0.545 OA
ATOM      5  OXT ALA d   1      10.182  -6.315  -4.840  0.00  0.00    -0.545 OA
ATOM      6  N   ALA d   1       7.679  -3.683  -4.130  0.00  0.00    -0.271 N 
ATOM      7  H   ALA d   1       6.989  -4.222  -3.593  0.00  0.00     0.304 HD
ATOM      8  C   UNK d   0       7.322  -2.546  -4.718  0.00  0.00     0.243 C 
ATOM      9  C   UNK d   0       8.312  -1.618  -5.351  0.00  0.00     0.047 C 
ATOM     10  C   UNK d   0       8.288  -0.244  -4.677  0.00  0.00    -0.038 C 
ATOM     11  C   UNK d   0       6.927   0.420  -4.879  0.00  0.00    -0.023 C 
ATOM     12  C   UNK d   0       5.979  -0.016  -3.787  0.00  0.00    -0.003 A 
ATOM     13  C   UNK d   0       5.566   0.880  -2.822  0.00  0.00    -0.055 A 
ATOM     14  C   UNK d   0       4.688   0.473  -1.834  0.00  0.00    -0.061 A 
ATOM     15  C   UNK d   0       4.219  -0.828  -1.810  0.00  0.00    -0.058 A 
ATOM     16  C   UNK d   0       4.632  -1.731  -2.771  0.00  0.00    -0.017 A 
ATOM     17  C   UNK d   0       5.518  -1.327  -3.757  0.00  0.00     0.121 A 
ATOM     18  N   UNK d   0       5.979  -2.232  -4.726  0.00  0.00    -0.207 N 
ATOM     19  H   UNK d   0       9.311  -2.044  -5.257  0.00  0.00     0.038 H 
ATOM     20  H   UNK d   0       8.070  -1.504  -6.407  0.00  0.00     0.038 H 
ATOM     21  H   UNK d   0       8.477  -0.362  -3.611  0.00  0.00     0.027 H 
ATOM     22  H   UNK d   0       9.063   0.385  -5.114  0.00  0.00     0.027 H 
ATOM     23  H   UNK d   0       7.044   1.503  -4.847  0.00  0.00     0.032 H 
ATOM     24  H   UNK d   0       6.522   0.127  -5.848  0.00  0.00     0.032 H 
ATOM     25  H   UNK d   0       5.930   1.897  -2.838  0.00  0.00     0.062 H 
ATOM     26  H   UNK d   0       4.367   1.174  -1.077  0.00  0.00     0.062 H 
ATOM     27  H   UNK d   0       3.529  -1.139  -1.040  0.00  0.00     0.062 H 
ATOM     28  H   UNK d   0       4.267  -2.747  -2.753  0.00  0.00     0.066 H 
ATOM     29  H   UNK d   0       5.378  -2.623  -5.380  0.00  0.00     0.298 HD
ENDROOT
BRANCH   1  30
ATOM     30  CB  ALA d   1       9.765  -4.083  -2.881  0.00  0.00    -0.019 C 
ATOM     31  HB1 ALA d   1       9.002  -3.999  -2.108  0.00  0.00     0.027 H 
ATOM     32  HB2 ALA d   1      10.363  -4.977  -2.707  0.00  0.00     0.027 H 
ATOM     33  HB3 ALA d   1      10.409  -3.205  -2.853  0.00  0.00     0.027 H 
ENDBRANCH   1  30
TORSDOF 3
ENDMDL
MODEL 10
REMARK VINA RESULT:      -5.3      2.049      3.461
REMARK  1 active torsions:
REMARK  status: ('A' for Active; 'I' for Inactive)
REMARK    1  A    between atoms: CB_1  and  CA_2 
REMARK       I    between atoms: CA_2  and  C_4 
REMARK       I    between atoms: CA_2  and  N_32 
ROOT
ATOM      1  CA  ALA d   1       3.554   0.016  -7.675  0.00  0.00     0.131 C 
ATOM      2  HA  ALA d   1       3.088   0.696  -6.960  0.00  0.00     0.084 H 
ATOM      3  C   ALA d   1       2.559  -0.344  -8.748  0.00  0.00     0.086 C 
ATOM      4  O   ALA d   1       2.244  -1.499  -8.916  0.00  0.00    -0.545 OA
ATOM      5  OXT ALA d   1       2.020   0.617  -9.513  0.00  0.00    -0.545 OA
ATOM      6  N   ALA d   1       4.009  -1.256  -7.017  0.00  0.00    -0.271 N 
ATOM      7  H   ALA d   1       4.333  -2.044  -7.590  0.00  0.00     0.304 HD
ATOM      8  C   UNK d   0       3.992  -1.362  -5.693  0.00  0.00     0.243 C 
ATOM      9  C   UNK d   0       3.717  -0.198  -4.793  0.00  0.00     0.047 C 
ATOM     10  C   UNK d   0       4.905   0.078  -3.869  0.00  0.00    -0.038 C 
ATOM     11  C   UNK d   0       5.133  -1.109  -2.934  0.00  0.00    -0.023 C 
ATOM     12  C   UNK d   0       6.026  -2.125  -3.606  0.00  0.00    -0.003 A 
ATOM     13  C   UNK d   0       7.313  -2.331  -3.154  0.00  0.00    -0.055 A 
ATOM     14  C   UNK d   0       8.118  -3.272  -3.770  0.00  0.00    -0.061 A 
ATOM     15  C   UNK d   0       7.637  -4.011  -4.837  0.00  0.00    -0.058 A 
ATOM     16  C   UNK d   0       6.351  -3.806  -5.297  0.00  0.00    -0.017 A 
ATOM     17  C   UNK d   0       5.546  -2.857  -4.686  0.00  0.00     0.121 A 
ATOM     18  N   UNK d   0       4.247  -2.605  -5.153  0.00  0.00    -0.207 N 
ATOM     19  H   UNK d   0       3.525   0.687  -5.401  0.00  0.00     0.038 H 
ATOM     20  H   UNK d   0       2.836  -0.413  -4.189  0.00  0.00     0.038 H 
ATOM     21  H   UNK d   0       5.799   0.241  -4.469  0.00  0.00     0.027 H 
ATOM     22  H   UNK d   0       4.701   0.968  -3.274  0.00  0.00     0.027 H 
ATOM     23  H   UNK d   0       5.607  -0.761  -2.016  0.00  0.00     0.032 H 
ATOM     24  H   UNK d   0       4.175  -1.571  -2.695  0.00  0.00     0.032 H 
ATOM     25  H   UNK d   0       7.692  -1.756  -2.322  0.00  0.00     0.062 H 
ATOM     26  H   UNK d   0       9.127  -3.432  -3.417  0.00  0.00     0.062 H 
ATOM     27  H   UNK d   0       8.268  -4.749  -5.309  0.00  0.00     0.062 H 
ATOM     28  H   UNK d   0       5.974  -4.381  -6.129  0.00  0.00     0.066 H 
ATOM     29  H   UNK d   0       3.550  -3.279  -5.099  0.00  0.00     0.298 HD
ENDROOT
BRANCH   1  30
ATOM     30  CB  ALA d   1       4.767   0.699  -8.311  0.00  0.00    -0.019 C 
ATOM     31  HB1 ALA d   1       5.676   0.186  -8.001  0.00  0.00     0.027 H 
ATOM     32  HB2 ALA d   1       4.678   0.658  -9.396  0.00  0.00     0.027 H 
ATOM     33  HB3 ALA d   1       4.808   1.739  -7.990  0.00  0.00     0.027 H 
ENDBRANCH   1  30
TORSDOF 3
ENDMDL
