MODEL 1
REMARK VINA RESULT:      -8.0      0.000      0.000
REMARK  7 active torsions:
REMARK  status: ('A' for Active; 'I' for Inactive)
REMARK    1  A    between atoms: C_1  and  C_2 
REMARK    2  A    between atoms: C_16  and  C_19 
REMARK    3  A    between atoms: C_19  and  C_20 
REMARK    4  A    between atoms: C_20  and  C_21 
REMARK       I    between atoms: C_21  and  N_23 
REMARK    5  A    between atoms: N_26  and  C_29 
REMARK    6  A    between atoms: C_29  and  C_30 
REMARK    7  A    between atoms: C_30  and  C_31 
ROOT
ATOM      1  C   LIG d   1       5.900  -6.228  -7.034  0.00  0.00    -0.027 A 
ATOM      2  C   LIG d   1       4.901  -6.483  -7.950  0.00  0.00    -0.039 A 
ATOM      3  C   LIG d   1       3.901  -5.553  -8.171  0.00  0.00     0.042 A 
ATOM      4  C   LIG d   1       3.905  -4.358  -7.469  0.00  0.00    -0.032 A 
ATOM      5  C   LIG d   1       4.900  -4.100  -6.554  0.00  0.00     0.036 A 
ATOM      6  C   LIG d   1       5.908  -5.032  -6.321  0.00  0.00     0.046 A 
ATOM      7  N   LIG d   1       6.795  -4.552  -5.354  0.00  0.00    -0.280 N 
ATOM      8  C   LIG d   1       6.444  -3.333  -4.902  0.00  0.00     0.274 A 
ATOM      9  O   LIG d   1       7.026  -2.674  -4.066  0.00  0.00    -0.269 OA
ATOM     10  C   LIG d   1       5.196  -2.941  -5.645  0.00  0.00     0.106 A 
ATOM     11  C   LIG d   1       5.385  -1.638  -6.433  0.00  0.00     0.111 A 
ATOM     12  H   LIG d   1       6.427  -1.453  -6.692  0.00  0.00     0.047 H 
ATOM     13  C   LIG d   1       4.785  -0.536  -5.515  0.00  0.00     0.096 A 
ATOM     14  H   LIG d   1       5.495   0.259  -5.291  0.00  0.00     0.046 H 
ATOM     15  C   LIG d   1       4.314  -1.286  -4.251  0.00  0.00    -0.009 C 
ATOM     16  H   LIG d   1       5.081  -1.244  -3.478  0.00  0.00     0.086 H 
ATOM     17  N   LIG d   1       4.084  -2.688  -4.709  0.00  0.00     0.245 N 
ATOM     18  C   LIG d   1       3.588  -0.044  -6.296  0.00  0.00     0.231 A 
ATOM     19  O   LIG d   1       2.823   0.822  -5.933  0.00  0.00    -0.275 OA
ATOM     20  N   LIG d   1       3.505  -0.715  -7.452  0.00  0.00    -0.241 N 
ATOM     21  C   LIG d   1       4.476  -1.639  -7.641  0.00  0.00     0.232 A 
ATOM     22  O   LIG d   1       4.602  -2.353  -8.613  0.00  0.00    -0.275 OA
ATOM     23 CL   LIG d   1       2.647  -5.878  -9.325  0.00  0.00    -0.084 Cl
ATOM     24  H   LIG d   1       4.898  -7.414  -8.498  0.00  0.00     0.064 H 
ATOM     25  H   LIG d   1       3.127  -3.629  -7.640  0.00  0.00     0.064 H 
ATOM     26  H   LIG d   1       7.574  -5.040  -5.043  0.00  0.00     0.155 HD
ATOM     27  H   LIG d   1       3.198  -2.774  -5.183  0.00  0.00     0.203 HD
ATOM     28  H   LIG d   1       4.131  -3.323  -3.927  0.00  0.00     0.203 HD
ENDROOT
BRANCH  15  29
ATOM     29  C   LIG d   1       3.005  -0.688  -3.734  0.00  0.00    -0.001 C 
ATOM     30  H   LIG d   1       2.650   0.069  -4.434  0.00  0.00     0.033 H 
ATOM     31  H   LIG d   1       2.257  -1.475  -3.640  0.00  0.00     0.033 H 
BRANCH  29  32
ATOM     32  C   LIG d   1       3.243  -0.044  -2.367  0.00  0.00     0.029 C 
ATOM     33  H   LIG d   1       2.285   0.215  -1.916  0.00  0.00     0.036 H 
ATOM     34  H   LIG d   1       3.770  -0.746  -1.721  0.00  0.00     0.036 H 
BRANCH  32  35
ATOM     35  C   LIG d   1       4.072   1.203  -2.536  0.00  0.00     0.211 C 
ATOM     36  O   LIG d   1       5.114   1.325  -1.928  0.00  0.00    -0.276 OA
ATOM     37  N   LIG d   1       3.655   2.183  -3.363  0.00  0.00    -0.329 N 
ATOM     38  H   LIG d   1       2.820   2.086  -3.848  0.00  0.00     0.145 HD
ATOM     39  H   LIG d   1       4.187   2.986  -3.471  0.00  0.00     0.145 HD
ENDBRANCH  32  35
ENDBRANCH  29  32
ENDBRANCH  15  29
BRANCH   1  40
ATOM     40  C   LIG d   1       6.984  -7.249  -6.800  0.00  0.00    -0.038 C 
ATOM     41  H   LIG d   1       7.424  -7.537  -7.754  0.00  0.00     0.028 H 
ATOM     42  H   LIG d   1       7.754  -6.821  -6.158  0.00  0.00     0.028 H 
ATOM     43  H   LIG d   1       6.555  -8.128  -6.318  0.00  0.00     0.028 H 
ENDBRANCH   1  40
BRANCH  20  44
ATOM     44  C   LIG d   1       2.451  -0.466  -8.438  0.00  0.00     0.026 C 
ATOM     45  H   LIG d   1       2.222  -1.391  -8.967  0.00  0.00     0.047 H 
ATOM     46  H   LIG d   1       1.555  -0.107  -7.930  0.00  0.00     0.047 H 
BRANCH  44  47
ATOM     47  C   LIG d   1       2.927   0.589  -9.438  0.00  0.00    -0.011 C 
ATOM     48  H   LIG d   1       2.199   1.399  -9.486  0.00  0.00     0.033 H 
ATOM     49  H   LIG d   1       3.891   0.986  -9.117  0.00  0.00     0.033 H 
BRANCH  47  50
ATOM     50  C   LIG d   1       3.071  -0.039 -10.801  0.00  0.00    -0.046 A 
ATOM     51  C   LIG d   1       2.094  -0.895 -11.273  0.00  0.00    -0.059 A 
ATOM     52  C   LIG d   1       2.224  -1.467 -12.525  0.00  0.00    -0.061 A 
ATOM     53  H   LIG d   1       1.228  -1.115 -10.665  0.00  0.00     0.062 H 
ATOM     54  C   LIG d   1       3.334  -1.190 -13.301  0.00  0.00    -0.062 A 
ATOM     55  H   LIG d   1       1.458  -2.134 -12.896  0.00  0.00     0.062 H 
ATOM     56  C   LIG d   1       4.313  -0.337 -12.826  0.00  0.00    -0.061 A 
ATOM     57  H   LIG d   1       3.436  -1.639 -14.277  0.00  0.00     0.062 H 
ATOM     58  C   LIG d   1       4.181   0.239 -11.576  0.00  0.00    -0.059 A 
ATOM     59  H   LIG d   1       5.180  -0.121 -13.431  0.00  0.00     0.062 H 
ATOM     60  H   LIG d   1       4.945   0.905 -11.204  0.00  0.00     0.062 H 
ENDBRANCH  47  50
ENDBRANCH  44  47
ENDBRANCH  20  44
TORSDOF 7
ENDMDL
MODEL 2
REMARK VINA RESULT:      -7.8      3.575      6.290
REMARK  7 active torsions:
REMARK  status: ('A' for Active; 'I' for Inactive)
REMARK    1  A    between atoms: C_1  and  C_2 
REMARK    2  A    between atoms: C_16  and  C_19 
REMARK    3  A    between atoms: C_19  and  C_20 
REMARK    4  A    between atoms: C_20  and  C_21 
REMARK       I    between atoms: C_21  and  N_23 
REMARK    5  A    between atoms: N_26  and  C_29 
REMARK    6  A    between atoms: C_29  and  C_30 
REMARK    7  A    between atoms: C_30  and  C_31 
ROOT
ATOM      1  C   LIG d   1       3.010  -1.402  -9.628  0.00  0.00    -0.027 A 
ATOM      2  C   LIG d   1       3.055  -0.028  -9.742  0.00  0.00    -0.039 A 
ATOM      3  C   LIG d   1       3.603   0.739  -8.730  0.00  0.00     0.042 A 
ATOM      4  C   LIG d   1       4.107   0.124  -7.596  0.00  0.00    -0.032 A 
ATOM      5  C   LIG d   1       4.063  -1.247  -7.478  0.00  0.00     0.036 A 
ATOM      6  C   LIG d   1       3.510  -2.028  -8.489  0.00  0.00     0.046 A 
ATOM      7  N   LIG d   1       3.574  -3.380  -8.144  0.00  0.00    -0.280 N 
ATOM      8  C   LIG d   1       4.139  -3.571  -6.937  0.00  0.00     0.274 A 
ATOM      9  O   LIG d   1       4.325  -4.633  -6.383  0.00  0.00    -0.269 OA
ATOM     10  C   LIG d   1       4.506  -2.208  -6.413  0.00  0.00     0.106 A 
ATOM     11  C   LIG d   1       6.009  -2.090  -6.132  0.00  0.00     0.111 A 
ATOM     12  H   LIG d   1       6.603  -2.780  -6.732  0.00  0.00     0.047 H 
ATOM     13  C   LIG d   1       6.143  -2.348  -4.605  0.00  0.00     0.096 A 
ATOM     14  H   LIG d   1       6.825  -3.165  -4.374  0.00  0.00     0.046 H 
ATOM     15  C   LIG d   1       4.704  -2.620  -4.121  0.00  0.00    -0.009 C 
ATOM     16  H   LIG d   1       4.511  -3.692  -4.091  0.00  0.00     0.086 H 
ATOM     17  N   LIG d   1       3.834  -1.941  -5.127  0.00  0.00     0.245 N 
ATOM     18  C   LIG d   1       6.624  -1.019  -4.068  0.00  0.00     0.231 A 
ATOM     19  O   LIG d   1       6.852  -0.777  -2.903  0.00  0.00    -0.275 OA
ATOM     20  N   LIG d   1       6.758  -0.152  -5.079  0.00  0.00    -0.241 N 
ATOM     21  C   LIG d   1       6.445  -0.652  -6.298  0.00  0.00     0.232 A 
ATOM     22  O   LIG d   1       6.500  -0.053  -7.351  0.00  0.00    -0.275 OA
ATOM     23 CL   LIG d   1       3.659   2.467  -8.880  0.00  0.00    -0.084 Cl
ATOM     24  H   LIG d   1       2.662   0.451 -10.627  0.00  0.00     0.064 H 
ATOM     25  H   LIG d   1       4.536   0.721  -6.804  0.00  0.00     0.064 H 
ATOM     26  H   LIG d   1       3.247  -4.099  -8.708  0.00  0.00     0.155 HD
ATOM     27  H   LIG d   1       3.786  -0.949  -4.954  0.00  0.00     0.203 HD
ATOM     28  H   LIG d   1       2.911  -2.347  -5.120  0.00  0.00     0.203 HD
ENDROOT
BRANCH  15  29
ATOM     29  C   LIG d   1       4.481  -2.001  -2.740  0.00  0.00    -0.001 C 
ATOM     30  H   LIG d   1       4.332  -2.795  -2.006  0.00  0.00     0.033 H 
ATOM     31  H   LIG d   1       5.352  -1.409  -2.462  0.00  0.00     0.033 H 
BRANCH  29  32
ATOM     32  C   LIG d   1       3.243  -1.103  -2.777  0.00  0.00     0.029 C 
ATOM     33  H   LIG d   1       2.653  -1.334  -3.664  0.00  0.00     0.036 H 
ATOM     34  H   LIG d   1       2.641  -1.278  -1.885  0.00  0.00     0.036 H 
BRANCH  32  35
ATOM     35  C   LIG d   1       3.671   0.341  -2.820  0.00  0.00     0.211 C 
ATOM     36  O   LIG d   1       3.460   1.006  -3.812  0.00  0.00    -0.276 OA
ATOM     37  N   LIG d   1       4.287   0.894  -1.756  0.00  0.00    -0.329 N 
ATOM     38  H   LIG d   1       4.456   0.362  -0.963  0.00  0.00     0.145 HD
ATOM     39  H   LIG d   1       4.563   1.823  -1.784  0.00  0.00     0.145 HD
ENDBRANCH  32  35
ENDBRANCH  29  32
ENDBRANCH  15  29
BRANCH   1  40
ATOM     40  C   LIG d   1       2.410  -2.229 -10.737  0.00  0.00    -0.038 C 
ATOM     41  H   LIG d   1       2.729  -1.831 -11.699  0.00  0.00     0.028 H 
ATOM     42  H   LIG d   1       2.743  -3.262 -10.641  0.00  0.00     0.028 H 
ATOM     43  H   LIG d   1       1.322  -2.190 -10.670  0.00  0.00     0.028 H 
ENDBRANCH   1  40
BRANCH  20  44
ATOM     44  C   LIG d   1       7.213   1.226  -4.886  0.00  0.00     0.026 C 
ATOM     45  H   LIG d   1       6.810   1.857  -5.679  0.00  0.00     0.047 H 
ATOM     46  H   LIG d   1       6.866   1.592  -3.919  0.00  0.00     0.047 H 
BRANCH  44  47
ATOM     47  C   LIG d   1       8.742   1.270  -4.928  0.00  0.00    -0.011 C 
ATOM     48  H   LIG d   1       9.145   0.475  -4.299  0.00  0.00     0.033 H 
ATOM     49  H   LIG d   1       9.081   1.127  -5.955  0.00  0.00     0.033 H 
BRANCH  47  50
ATOM     50  C   LIG d   1       9.220   2.605  -4.420  0.00  0.00    -0.046 A 
ATOM     51  C   LIG d   1       9.047   3.739  -5.191  0.00  0.00    -0.059 A 
ATOM     52  C   LIG d   1       9.483   4.965  -4.723  0.00  0.00    -0.061 A 
ATOM     53  H   LIG d   1       8.570   3.669  -6.157  0.00  0.00     0.062 H 
ATOM     54  C   LIG d   1      10.098   5.056  -3.488  0.00  0.00    -0.062 A 
ATOM     55  H   LIG d   1       9.344   5.853  -5.324  0.00  0.00     0.062 H 
ATOM     56  C   LIG d   1      10.275   3.920  -2.720  0.00  0.00    -0.061 A 
ATOM     57  H   LIG d   1      10.440   6.012  -3.125  0.00  0.00     0.062 H 
ATOM     58  C   LIG d   1       9.836   2.695  -3.186  0.00  0.00    -0.059 A 
ATOM     59  H   LIG d   1      10.756   3.990  -1.756  0.00  0.00     0.062 H 
ATOM     60  H   LIG d   1       9.974   1.808  -2.586  0.00  0.00     0.062 H 
ENDBRANCH  47  50
ENDBRANCH  44  47
ENDBRANCH  20  44
TORSDOF 7
ENDMDL
MODEL 3
REMARK VINA RESULT:      -7.7      4.060      7.512
REMARK  7 active torsions:
REMARK  status: ('A' for Active; 'I' for Inactive)
REMARK    1  A    between atoms: C_1  and  C_2 
REMARK    2  A    between atoms: C_16  and  C_19 
REMARK    3  A    between atoms: C_19  and  C_20 
REMARK    4  A    between atoms: C_20  and  C_21 
REMARK       I    between atoms: C_21  and  N_23 
REMARK    5  A    between atoms: N_26  and  C_29 
REMARK    6  A    between atoms: C_29  and  C_30 
REMARK    7  A    between atoms: C_30  and  C_31 
ROOT
ATOM      1  C   LIG d   1       9.457   3.407  -7.217  0.00  0.00    -0.027 A 
ATOM      2  C   LIG d   1       9.689   3.488  -5.859  0.00  0.00    -0.039 A 
ATOM      3  C   LIG d   1       9.094   2.587  -4.994  0.00  0.00     0.042 A 
ATOM      4  C   LIG d   1       8.261   1.600  -5.494  0.00  0.00    -0.032 A 
ATOM      5  C   LIG d   1       8.027   1.517  -6.848  0.00  0.00     0.036 A 
ATOM      6  C   LIG d   1       8.618   2.421  -7.727  0.00  0.00     0.046 A 
ATOM      7  N   LIG d   1       8.231   2.140  -9.040  0.00  0.00    -0.280 N 
ATOM      8  C   LIG d   1       7.394   1.088  -9.110  0.00  0.00     0.274 A 
ATOM      9  O   LIG d   1       6.900   0.620 -10.113  0.00  0.00    -0.269 OA
ATOM     10  C   LIG d   1       7.200   0.597  -7.700  0.00  0.00     0.106 A 
ATOM     11  C   LIG d   1       7.633  -0.866  -7.540  0.00  0.00     0.111 A 
ATOM     12  H   LIG d   1       8.378  -1.165  -8.277  0.00  0.00     0.047 H 
ATOM     13  C   LIG d   1       6.312  -1.679  -7.651  0.00  0.00     0.096 A 
ATOM     14  H   LIG d   1       6.347  -2.434  -8.436  0.00  0.00     0.046 H 
ATOM     15  C   LIG d   1       5.215  -0.621  -7.892  0.00  0.00    -0.009 C 
ATOM     16  H   LIG d   1       5.016  -0.517  -8.959  0.00  0.00     0.086 H 
ATOM     17  N   LIG d   1       5.775   0.639  -7.320  0.00  0.00     0.245 N 
ATOM     18  C   LIG d   1       6.155  -2.279  -6.273  0.00  0.00     0.231 A 
ATOM     19  O   LIG d   1       5.239  -2.989  -5.919  0.00  0.00    -0.275 OA
ATOM     20  N   LIG d   1       7.185  -1.904  -5.504  0.00  0.00    -0.241 N 
ATOM     21  C   LIG d   1       8.090  -1.107  -6.119  0.00  0.00     0.232 A 
ATOM     22  O   LIG d   1       9.100  -0.658  -5.622  0.00  0.00    -0.275 OA
ATOM     23 CL   LIG d   1       9.390   2.693  -3.287  0.00  0.00    -0.084 Cl
ATOM     24  H   LIG d   1      10.339   4.258  -5.469  0.00  0.00     0.064 H 
ATOM     25  H   LIG d   1       7.796   0.895  -4.821  0.00  0.00     0.064 H 
ATOM     26  H   LIG d   1       8.530   2.646  -9.812  0.00  0.00     0.155 HD
ATOM     27  H   LIG d   1       5.678   0.656  -6.316  0.00  0.00     0.203 HD
ATOM     28  H   LIG d   1       5.323   1.440  -7.734  0.00  0.00     0.203 HD
ENDROOT
BRANCH  15  29
ATOM     29  C   LIG d   1       3.934  -1.004  -7.148  0.00  0.00    -0.001 C 
ATOM     30  H   LIG d   1       3.473  -1.863  -7.637  0.00  0.00     0.033 H 
ATOM     31  H   LIG d   1       4.176  -1.261  -6.117  0.00  0.00     0.033 H 
BRANCH  29  32
ATOM     32  C   LIG d   1       2.961   0.175  -7.167  0.00  0.00     0.029 C 
ATOM     33  H   LIG d   1       2.111  -0.046  -6.521  0.00  0.00     0.036 H 
ATOM     34  H   LIG d   1       3.467   1.070  -6.806  0.00  0.00     0.036 H 
BRANCH  32  35
ATOM     35  C   LIG d   1       2.475   0.404  -8.575  0.00  0.00     0.211 C 
ATOM     36  O   LIG d   1       1.915  -0.488  -9.175  0.00  0.00    -0.276 OA
ATOM     37  N   LIG d   1       2.664   1.600  -9.167  0.00  0.00    -0.329 N 
ATOM     38  H   LIG d   1       3.113   2.314  -8.687  0.00  0.00     0.145 HD
ATOM     39  H   LIG d   1       2.352   1.748 -10.073  0.00  0.00     0.145 HD
ENDBRANCH  32  35
ENDBRANCH  29  32
ENDBRANCH  15  29
BRANCH   1  40
ATOM     40  C   LIG d   1      10.110   4.394  -8.150  0.00  0.00    -0.038 C 
ATOM     41  H   LIG d   1      10.838   4.988  -7.599  0.00  0.00     0.028 H 
ATOM     42  H   LIG d   1      10.613   3.856  -8.954  0.00  0.00     0.028 H 
ATOM     43  H   LIG d   1       9.349   5.051  -8.573  0.00  0.00     0.028 H 
ENDBRANCH   1  40
BRANCH  20  44
ATOM     44  C   LIG d   1       7.326  -2.326  -4.109  0.00  0.00     0.026 C 
ATOM     45  H   LIG d   1       6.625  -3.134  -3.900  0.00  0.00     0.047 H 
ATOM     46  H   LIG d   1       8.344  -2.675  -3.936  0.00  0.00     0.047 H 
BRANCH  44  47
ATOM     47  C   LIG d   1       7.030  -1.143  -3.185  0.00  0.00    -0.011 C 
ATOM     48  H   LIG d   1       7.394  -1.365  -2.182  0.00  0.00     0.033 H 
ATOM     49  H   LIG d   1       7.531  -0.251  -3.564  0.00  0.00     0.033 H 
BRANCH  47  50
ATOM     50  C   LIG d   1       5.543  -0.902  -3.139  0.00  0.00    -0.046 A 
ATOM     51  C   LIG d   1       5.022   0.294  -3.598  0.00  0.00    -0.059 A 
ATOM     52  C   LIG d   1       3.658   0.512  -3.559  0.00  0.00    -0.061 A 
ATOM     53  H   LIG d   1       5.681   1.055  -3.989  0.00  0.00     0.062 H 
ATOM     54  C   LIG d   1       2.815  -0.460  -3.053  0.00  0.00    -0.062 A 
ATOM     55  H   LIG d   1       3.250   1.445  -3.921  0.00  0.00     0.062 H 
ATOM     56  C   LIG d   1       3.337  -1.653  -2.590  0.00  0.00    -0.061 A 
ATOM     57  H   LIG d   1       1.750  -0.287  -3.021  0.00  0.00     0.062 H 
ATOM     58  C   LIG d   1       4.701  -1.874  -2.633  0.00  0.00    -0.059 A 
ATOM     59  H   LIG d   1       2.679  -2.412  -2.195  0.00  0.00     0.062 H 
ATOM     60  H   LIG d   1       5.109  -2.806  -2.270  0.00  0.00     0.062 H 
ENDBRANCH  47  50
ENDBRANCH  44  47
ENDBRANCH  20  44
TORSDOF 7
ENDMDL
MODEL 4
REMARK VINA RESULT:      -7.5      2.843      7.144
REMARK  7 active torsions:
REMARK  status: ('A' for Active; 'I' for Inactive)
REMARK    1  A    between atoms: C_1  and  C_2 
REMARK    2  A    between atoms: C_16  and  C_19 
REMARK    3  A    between atoms: C_19  and  C_20 
REMARK    4  A    between atoms: C_20  and  C_21 
REMARK       I    between atoms: C_21  and  N_23 
REMARK    5  A    between atoms: N_26  and  C_29 
REMARK    6  A    between atoms: C_29  and  C_30 
REMARK    7  A    between atoms: C_30  and  C_31 
ROOT
ATOM      1  C   LIG d   1       2.653  -0.832  -9.056  0.00  0.00    -0.027 A 
ATOM      2  C   LIG d   1       2.422  -0.064  -7.934  0.00  0.00    -0.039 A 
ATOM      3  C   LIG d   1       3.147  -0.283  -6.776  0.00  0.00     0.042 A 
ATOM      4  C   LIG d   1       4.108  -1.280  -6.744  0.00  0.00    -0.032 A 
ATOM      5  C   LIG d   1       4.341  -2.049  -7.862  0.00  0.00     0.036 A 
ATOM      6  C   LIG d   1       3.614  -1.839  -9.031  0.00  0.00     0.046 A 
ATOM      7  N   LIG d   1       4.022  -2.737 -10.021  0.00  0.00    -0.280 N 
ATOM      8  C   LIG d   1       4.993  -3.564  -9.589  0.00  0.00     0.274 A 
ATOM      9  O   LIG d   1       5.536  -4.440 -10.227  0.00  0.00    -0.269 OA
ATOM     10  C   LIG d   1       5.281  -3.182  -8.162  0.00  0.00     0.106 A 
ATOM     11  C   LIG d   1       6.745  -2.770  -7.966  0.00  0.00     0.111 A 
ATOM     12  H   LIG d   1       7.203  -2.400  -8.883  0.00  0.00     0.047 H 
ATOM     13  C   LIG d   1       7.440  -4.046  -7.415  0.00  0.00     0.096 A 
ATOM     14  H   LIG d   1       8.288  -4.360  -8.022  0.00  0.00     0.046 H 
ATOM     15  C   LIG d   1       6.324  -5.111  -7.357  0.00  0.00    -0.009 C 
ATOM     16  H   LIG d   1       6.339  -5.724  -8.258  0.00  0.00     0.086 H 
ATOM     17  N   LIG d   1       5.059  -4.325  -7.256  0.00  0.00     0.245 N 
ATOM     18  C   LIG d   1       7.843  -3.647  -6.014  0.00  0.00     0.231 A 
ATOM     19  O   LIG d   1       8.415  -4.363  -5.220  0.00  0.00    -0.275 OA
ATOM     20  N   LIG d   1       7.470  -2.382  -5.787  0.00  0.00    -0.241 N 
ATOM     21  C   LIG d   1       6.846  -1.781  -6.826  0.00  0.00     0.232 A 
ATOM     22  O   LIG d   1       6.432  -0.641  -6.848  0.00  0.00    -0.275 OA
ATOM     23 CL   LIG d   1       2.854   0.687  -5.367  0.00  0.00    -0.084 Cl
ATOM     24  H   LIG d   1       1.673   0.714  -7.959  0.00  0.00     0.064 H 
ATOM     25  H   LIG d   1       4.676  -1.453  -5.842  0.00  0.00     0.064 H 
ATOM     26  H   LIG d   1       3.648  -2.762 -10.916  0.00  0.00     0.155 HD
ATOM     27  H   LIG d   1       4.906  -4.003  -6.313  0.00  0.00     0.203 HD
ATOM     28  H   LIG d   1       4.278  -4.879  -7.573  0.00  0.00     0.203 HD
ENDROOT
BRANCH  15  29
ATOM     29  C   LIG d   1       6.490  -5.988  -6.115  0.00  0.00    -0.001 C 
ATOM     30  H   LIG d   1       7.138  -6.834  -6.351  0.00  0.00     0.033 H 
ATOM     31  H   LIG d   1       6.938  -5.402  -5.313  0.00  0.00     0.033 H 
BRANCH  29  32
ATOM     32  C   LIG d   1       5.122  -6.505  -5.668  0.00  0.00     0.029 C 
ATOM     33  H   LIG d   1       4.769  -5.915  -4.822  0.00  0.00     0.036 H 
ATOM     34  H   LIG d   1       4.414  -6.417  -6.492  0.00  0.00     0.036 H 
BRANCH  32  35
ATOM     35  C   LIG d   1       5.239  -7.950  -5.258  0.00  0.00     0.211 C 
ATOM     36  O   LIG d   1       4.273  -8.681  -5.330  0.00  0.00    -0.276 OA
ATOM     37  N   LIG d   1       6.416  -8.431  -4.812  0.00  0.00    -0.329 N 
ATOM     38  H   LIG d   1       7.188  -7.847  -4.754  0.00  0.00     0.145 HD
ATOM     39  H   LIG d   1       6.492  -9.361  -4.548  0.00  0.00     0.145 HD
ENDBRANCH  32  35
ENDBRANCH  29  32
ENDBRANCH  15  29
BRANCH   1  40
ATOM     40  C   LIG d   1       1.857  -0.585 -10.312  0.00  0.00    -0.038 C 
ATOM     41  H   LIG d   1       2.284   0.259 -10.853  0.00  0.00     0.028 H 
ATOM     42  H   LIG d   1       1.887  -1.473 -10.942  0.00  0.00     0.028 H 
ATOM     43  H   LIG d   1       0.823  -0.361 -10.048  0.00  0.00     0.028 H 
ENDBRANCH   1  40
BRANCH  20  44
ATOM     44  C   LIG d   1       7.723  -1.698  -4.517  0.00  0.00     0.026 C 
ATOM     45  H   LIG d   1       8.738  -1.915  -4.182  0.00  0.00     0.047 H 
ATOM     46  H   LIG d   1       7.609  -0.622  -4.654  0.00  0.00     0.047 H 
BRANCH  44  47
ATOM     47  C   LIG d   1       6.724  -2.186  -3.466  0.00  0.00    -0.011 C 
ATOM     48  H   LIG d   1       6.092  -2.961  -3.899  0.00  0.00     0.033 H 
ATOM     49  H   LIG d   1       7.266  -2.594  -2.612  0.00  0.00     0.033 H 
BRANCH  47  50
ATOM     50  C   LIG d   1       5.867  -1.032  -3.013  0.00  0.00    -0.046 A 
ATOM     51  C   LIG d   1       6.277   0.267  -3.249  0.00  0.00    -0.059 A 
ATOM     52  C   LIG d   1       5.488   1.325  -2.837  0.00  0.00    -0.061 A 
ATOM     53  H   LIG d   1       7.211   0.455  -3.757  0.00  0.00     0.062 H 
ATOM     54  C   LIG d   1       4.294   1.084  -2.182  0.00  0.00    -0.062 A 
ATOM     55  H   LIG d   1       5.806   2.340  -3.024  0.00  0.00     0.062 H 
ATOM     56  C   LIG d   1       3.888  -0.215  -1.942  0.00  0.00    -0.061 A 
ATOM     57  H   LIG d   1       3.680   1.911  -1.859  0.00  0.00     0.062 H 
ATOM     58  C   LIG d   1       4.674  -1.273  -2.358  0.00  0.00    -0.059 A 
ATOM     59  H   LIG d   1       2.956  -0.403  -1.431  0.00  0.00     0.062 H 
ATOM     60  H   LIG d   1       4.357  -2.288  -2.171  0.00  0.00     0.062 H 
ENDBRANCH  47  50
ENDBRANCH  44  47
ENDBRANCH  20  44
TORSDOF 7
ENDMDL
MODEL 5
REMARK VINA RESULT:      -7.1      2.880      6.966
REMARK  7 active torsions:
REMARK  status: ('A' for Active; 'I' for Inactive)
REMARK    1  A    between atoms: C_1  and  C_2 
REMARK    2  A    between atoms: C_16  and  C_19 
REMARK    3  A    between atoms: C_19  and  C_20 
REMARK    4  A    between atoms: C_20  and  C_21 
REMARK       I    between atoms: C_21  and  N_23 
REMARK    5  A    between atoms: N_26  and  C_29 
REMARK    6  A    between atoms: C_29  and  C_30 
REMARK    7  A    between atoms: C_30  and  C_31 
ROOT
ATOM      1  C   LIG d   1       2.855  -0.312  -9.138  0.00  0.00    -0.027 A 
ATOM      2  C   LIG d   1       2.418   0.032  -7.875  0.00  0.00    -0.039 A 
ATOM      3  C   LIG d   1       3.230  -0.173  -6.775  0.00  0.00     0.042 A 
ATOM      4  C   LIG d   1       4.489  -0.728  -6.943  0.00  0.00    -0.032 A 
ATOM      5  C   LIG d   1       4.928  -1.073  -8.201  0.00  0.00     0.036 A 
ATOM      6  C   LIG d   1       4.116  -0.874  -9.314  0.00  0.00     0.046 A 
ATOM      7  N   LIG d   1       4.771  -1.302 -10.471  0.00  0.00    -0.280 N 
ATOM      8  C   LIG d   1       5.997  -1.795 -10.210  0.00  0.00     0.274 A 
ATOM      9  O   LIG d   1       6.788  -2.235 -11.016  0.00  0.00    -0.269 OA
ATOM     10  C   LIG d   1       6.198  -1.680  -8.723  0.00  0.00     0.106 A 
ATOM     11  C   LIG d   1       7.421  -0.821  -8.377  0.00  0.00     0.111 A 
ATOM     12  H   LIG d   1       7.666  -0.105  -9.162  0.00  0.00     0.047 H 
ATOM     13  C   LIG d   1       8.559  -1.847  -8.117  0.00  0.00     0.096 A 
ATOM     14  H   LIG d   1       9.432  -1.678  -8.747  0.00  0.00     0.046 H 
ATOM     15  C   LIG d   1       7.911  -3.227  -8.357  0.00  0.00    -0.009 C 
ATOM     16  H   LIG d   1       8.102  -3.563  -9.376  0.00  0.00     0.086 H 
ATOM     17  N   LIG d   1       6.454  -3.004  -8.123  0.00  0.00     0.245 N 
ATOM     18  C   LIG d   1       8.861  -1.669  -6.647  0.00  0.00     0.231 A 
ATOM     19  O   LIG d   1       9.693  -2.291  -6.023  0.00  0.00    -0.275 OA
ATOM     20  N   LIG d   1       8.065  -0.718  -6.141  0.00  0.00    -0.241 N 
ATOM     21  C   LIG d   1       7.213  -0.161  -7.032  0.00  0.00     0.232 A 
ATOM     22  O   LIG d   1       6.413   0.720  -6.800  0.00  0.00    -0.275 OA
ATOM     23 CL   LIG d   1       2.677   0.263  -5.189  0.00  0.00    -0.084 Cl
ATOM     24  H   LIG d   1       1.437   0.465  -7.745  0.00  0.00     0.064 H 
ATOM     25  H   LIG d   1       5.126  -0.888  -6.085  0.00  0.00     0.064 H 
ATOM     26  H   LIG d   1       4.387  -1.252 -11.362  0.00  0.00     0.155 HD
ATOM     27  H   LIG d   1       6.243  -2.991  -7.137  0.00  0.00     0.203 HD
ATOM     28  H   LIG d   1       5.913  -3.714  -8.593  0.00  0.00     0.203 HD
ENDROOT
BRANCH  15  29
ATOM     29  C   LIG d   1       8.448  -4.248  -7.353  0.00  0.00    -0.001 C 
ATOM     30  H   LIG d   1       9.162  -4.906  -7.850  0.00  0.00     0.033 H 
ATOM     31  H   LIG d   1       8.944  -3.727  -6.534  0.00  0.00     0.033 H 
BRANCH  29  32
ATOM     32  C   LIG d   1       7.288  -5.080  -6.802  0.00  0.00     0.029 C 
ATOM     33  H   LIG d   1       6.385  -4.865  -7.372  0.00  0.00     0.036 H 
ATOM     34  H   LIG d   1       7.528  -6.139  -6.887  0.00  0.00     0.036 H 
BRANCH  32  35
ATOM     35  C   LIG d   1       7.062  -4.730  -5.353  0.00  0.00     0.211 C 
ATOM     36  O   LIG d   1       7.979  -4.804  -4.562  0.00  0.00    -0.276 OA
ATOM     37  N   LIG d   1       5.843  -4.335  -4.937  0.00  0.00    -0.329 N 
ATOM     38  H   LIG d   1       5.110  -4.277  -5.570  0.00  0.00     0.145 HD
ATOM     39  H   LIG d   1       5.697  -4.111  -4.005  0.00  0.00     0.145 HD
ENDBRANCH  32  35
ENDBRANCH  29  32
ENDBRANCH  15  29
BRANCH   1  40
ATOM     40  C   LIG d   1       1.960  -0.085 -10.330  0.00  0.00    -0.038 C 
ATOM     41  H   LIG d   1       2.224   0.858 -10.807  0.00  0.00     0.028 H 
ATOM     42  H   LIG d   1       2.089  -0.900 -11.041  0.00  0.00     0.028 H 
ATOM     43  H   LIG d   1       0.921  -0.049 -10.002  0.00  0.00     0.028 H 
ENDBRANCH   1  40
BRANCH  20  44
ATOM     44  C   LIG d   1       8.116  -0.307  -4.736  0.00  0.00     0.026 C 
ATOM     45  H   LIG d   1       9.154  -0.277  -4.404  0.00  0.00     0.047 H 
ATOM     46  H   LIG d   1       7.672   0.683  -4.631  0.00  0.00     0.047 H 
BRANCH  44  47
ATOM     47  C   LIG d   1       7.337  -1.309  -3.883  0.00  0.00    -0.011 C 
ATOM     48  H   LIG d   1       6.955  -2.109  -4.518  0.00  0.00     0.033 H 
ATOM     49  H   LIG d   1       7.997  -1.733  -3.125  0.00  0.00     0.033 H 
BRANCH  47  50
ATOM     50  C   LIG d   1       6.185  -0.608  -3.210  0.00  0.00    -0.046 A 
ATOM     51  C   LIG d   1       6.101   0.772  -3.247  0.00  0.00    -0.059 A 
ATOM     52  C   LIG d   1       5.041   1.415  -2.634  0.00  0.00    -0.061 A 
ATOM     53  H   LIG d   1       6.860   1.346  -3.757  0.00  0.00     0.062 H 
ATOM     54  C   LIG d   1       4.072   0.679  -1.977  0.00  0.00    -0.062 A 
ATOM     55  H   LIG d   1       4.973   2.492  -2.666  0.00  0.00     0.062 H 
ATOM     56  C   LIG d   1       4.160  -0.700  -1.937  0.00  0.00    -0.061 A 
ATOM     57  H   LIG d   1       3.246   1.182  -1.497  0.00  0.00     0.062 H 
ATOM     58  C   LIG d   1       5.216  -1.343  -2.554  0.00  0.00    -0.059 A 
ATOM     59  H   LIG d   1       3.403  -1.273  -1.424  0.00  0.00     0.062 H 
ATOM     60  H   LIG d   1       5.285  -2.420  -2.522  0.00  0.00     0.062 H 
ENDBRANCH  47  50
ENDBRANCH  44  47
ENDBRANCH  20  44
TORSDOF 7
ENDMDL
MODEL 6
REMARK VINA RESULT:      -6.9      3.352      5.606
REMARK  7 active torsions:
REMARK  status: ('A' for Active; 'I' for Inactive)
REMARK    1  A    between atoms: C_1  and  C_2 
REMARK    2  A    between atoms: C_16  and  C_19 
REMARK    3  A    between atoms: C_19  and  C_20 
REMARK    4  A    between atoms: C_20  and  C_21 
REMARK       I    between atoms: C_21  and  N_23 
REMARK    5  A    between atoms: N_26  and  C_29 
REMARK    6  A    between atoms: C_29  and  C_30 
REMARK    7  A    between atoms: C_30  and  C_31 
ROOT
ATOM      1  C   LIG d   1       3.199  -1.377  -9.522  0.00  0.00    -0.027 A 
ATOM      2  C   LIG d   1       3.276  -0.012  -9.710  0.00  0.00    -0.039 A 
ATOM      3  C   LIG d   1       3.818   0.798  -8.729  0.00  0.00     0.042 A 
ATOM      4  C   LIG d   1       4.286   0.236  -7.552  0.00  0.00    -0.032 A 
ATOM      5  C   LIG d   1       4.211  -1.125  -7.361  0.00  0.00     0.036 A 
ATOM      6  C   LIG d   1       3.663  -1.949  -8.341  0.00  0.00     0.046 A 
ATOM      7  N   LIG d   1       3.691  -3.281  -7.921  0.00  0.00    -0.280 N 
ATOM      8  C   LIG d   1       4.227  -3.417  -6.693  0.00  0.00     0.274 A 
ATOM      9  O   LIG d   1       4.380  -4.451  -6.079  0.00  0.00    -0.269 OA
ATOM     10  C   LIG d   1       4.611  -2.036  -6.236  0.00  0.00     0.106 A 
ATOM     11  C   LIG d   1       6.111  -1.932  -5.930  0.00  0.00     0.111 A 
ATOM     12  H   LIG d   1       6.702  -2.665  -6.479  0.00  0.00     0.047 H 
ATOM     13  C   LIG d   1       6.208  -2.109  -4.389  0.00  0.00     0.096 A 
ATOM     14  H   LIG d   1       6.868  -2.926  -4.098  0.00  0.00     0.046 H 
ATOM     15  C   LIG d   1       4.753  -2.326  -3.922  0.00  0.00    -0.009 C 
ATOM     16  H   LIG d   1       4.537  -3.391  -3.838  0.00  0.00     0.086 H 
ATOM     17  N   LIG d   1       3.919  -1.685  -4.981  0.00  0.00     0.245 N 
ATOM     18  C   LIG d   1       6.705  -0.763  -3.914  0.00  0.00     0.231 A 
ATOM     19  O   LIG d   1       6.914  -0.461  -2.759  0.00  0.00    -0.275 OA
ATOM     20  N   LIG d   1       6.878   0.045  -4.967  0.00  0.00    -0.241 N 
ATOM     21  C   LIG d   1       6.580  -0.514  -6.164  0.00  0.00     0.232 A 
ATOM     22  O   LIG d   1       6.670   0.026  -7.246  0.00  0.00    -0.275 OA
ATOM     23 CL   LIG d   1       3.914   2.514  -8.970  0.00  0.00    -0.084 Cl
ATOM     24  H   LIG d   1       2.911   0.426 -10.627  0.00  0.00     0.064 H 
ATOM     25  H   LIG d   1       4.712   0.866  -6.785  0.00  0.00     0.064 H 
ATOM     26  H   LIG d   1       3.361  -4.024  -8.453  0.00  0.00     0.155 HD
ATOM     27  H   LIG d   1       3.888  -0.684  -4.863  0.00  0.00     0.203 HD
ATOM     28  H   LIG d   1       2.988  -2.072  -4.973  0.00  0.00     0.203 HD
ENDROOT
BRANCH  15  29
ATOM     29  C   LIG d   1       4.515  -1.628  -2.582  0.00  0.00    -0.001 C 
ATOM     30  H   LIG d   1       4.316  -2.376  -1.813  0.00  0.00     0.033 H 
ATOM     31  H   LIG d   1       5.400  -1.054  -2.308  0.00  0.00     0.033 H 
BRANCH  29  32
ATOM     32  C   LIG d   1       3.313  -0.690  -2.701  0.00  0.00     0.029 C 
ATOM     33  H   LIG d   1       2.875  -0.786  -3.694  0.00  0.00     0.036 H 
ATOM     34  H   LIG d   1       2.569  -0.954  -1.950  0.00  0.00     0.036 H 
BRANCH  32  35
ATOM     35  C   LIG d   1       3.762   0.732  -2.486  0.00  0.00     0.211 C 
ATOM     36  O   LIG d   1       4.325   1.042  -1.457  0.00  0.00    -0.276 OA
ATOM     37  N   LIG d   1       3.539   1.661  -3.437  0.00  0.00    -0.329 N 
ATOM     38  H   LIG d   1       3.088   1.414  -4.260  0.00  0.00     0.145 HD
ATOM     39  H   LIG d   1       3.827   2.577  -3.299  0.00  0.00     0.145 HD
ENDBRANCH  32  35
ENDBRANCH  29  32
ENDBRANCH  15  29
BRANCH   1  40
ATOM     40  C   LIG d   1       2.605  -2.250 -10.597  0.00  0.00    -0.038 C 
ATOM     41  H   LIG d   1       2.952  -3.275 -10.466  0.00  0.00     0.028 H 
ATOM     42  H   LIG d   1       1.518  -2.223 -10.528  0.00  0.00     0.028 H 
ATOM     43  H   LIG d   1       2.916  -1.883 -11.576  0.00  0.00     0.028 H 
ENDBRANCH   1  40
BRANCH  20  44
ATOM     44  C   LIG d   1       7.358   1.423  -4.839  0.00  0.00     0.026 C 
ATOM     45  H   LIG d   1       7.275   1.928  -5.802  0.00  0.00     0.047 H 
ATOM     46  H   LIG d   1       6.755   1.950  -4.099  0.00  0.00     0.047 H 
BRANCH  44  47
ATOM     47  C   LIG d   1       8.821   1.414  -4.393  0.00  0.00    -0.011 C 
ATOM     48  H   LIG d   1       9.106   2.414  -4.063  0.00  0.00     0.033 H 
ATOM     49  H   LIG d   1       8.945   0.711  -3.568  0.00  0.00     0.033 H 
BRANCH  47  50
ATOM     50  C   LIG d   1       9.696   0.996  -5.546  0.00  0.00    -0.046 A 
ATOM     51  C   LIG d   1       9.743   1.767  -6.692  0.00  0.00    -0.059 A 
ATOM     52  C   LIG d   1      10.550   1.385  -7.748  0.00  0.00    -0.061 A 
ATOM     53  H   LIG d   1       9.152   2.669  -6.762  0.00  0.00     0.062 H 
ATOM     54  C   LIG d   1      11.302   0.229  -7.662  0.00  0.00    -0.062 A 
ATOM     55  H   LIG d   1      10.589   1.990  -8.643  0.00  0.00     0.062 H 
ATOM     56  C   LIG d   1      11.251  -0.544  -6.517  0.00  0.00    -0.061 A 
ATOM     57  H   LIG d   1      11.930  -0.070  -8.487  0.00  0.00     0.062 H 
ATOM     58  C   LIG d   1      10.448  -0.160  -5.459  0.00  0.00    -0.059 A 
ATOM     59  H   LIG d   1      11.838  -1.447  -6.449  0.00  0.00     0.062 H 
ATOM     60  H   LIG d   1      10.408  -0.764  -4.565  0.00  0.00     0.062 H 
ENDBRANCH  47  50
ENDBRANCH  44  47
ENDBRANCH  20  44
TORSDOF 7
ENDMDL
MODEL 7
REMARK VINA RESULT:      -6.8      2.800      5.848
REMARK  7 active torsions:
REMARK  status: ('A' for Active; 'I' for Inactive)
REMARK    1  A    between atoms: C_1  and  C_2 
REMARK    2  A    between atoms: C_16  and  C_19 
REMARK    3  A    between atoms: C_19  and  C_20 
REMARK    4  A    between atoms: C_20  and  C_21 
REMARK       I    between atoms: C_21  and  N_23 
REMARK    5  A    between atoms: N_26  and  C_29 
REMARK    6  A    between atoms: C_29  and  C_30 
REMARK    7  A    between atoms: C_30  and  C_31 
ROOT
ATOM      1  C   LIG d   1       2.779  -1.164  -9.173  0.00  0.00    -0.027 A 
ATOM      2  C   LIG d   1       3.551  -2.044  -9.904  0.00  0.00    -0.039 A 
ATOM      3  C   LIG d   1       4.692  -2.597  -9.352  0.00  0.00     0.042 A 
ATOM      4  C   LIG d   1       5.061  -2.266  -8.058  0.00  0.00    -0.032 A 
ATOM      5  C   LIG d   1       4.294  -1.388  -7.326  0.00  0.00     0.036 A 
ATOM      6  C   LIG d   1       3.146  -0.822  -7.875  0.00  0.00     0.046 A 
ATOM      7  N   LIG d   1       2.542   0.034  -6.951  0.00  0.00    -0.280 N 
ATOM      8  C   LIG d   1       3.222   0.092  -5.790  0.00  0.00     0.274 A 
ATOM      9  O   LIG d   1       2.933   0.748  -4.812  0.00  0.00    -0.269 OA
ATOM     10  C   LIG d   1       4.405  -0.826  -5.938  0.00  0.00     0.106 A 
ATOM     11  C   LIG d   1       4.404  -1.935  -4.877  0.00  0.00     0.111 A 
ATOM     12  H   LIG d   1       3.404  -2.154  -4.502  0.00  0.00     0.047 H 
ATOM     13  C   LIG d   1       5.365  -1.417  -3.770  0.00  0.00     0.096 A 
ATOM     14  H   LIG d   1       4.894  -1.374  -2.789  0.00  0.00     0.046 H 
ATOM     15  C   LIG d   1       5.832  -0.033  -4.266  0.00  0.00    -0.009 C 
ATOM     16  H   LIG d   1       5.216   0.754  -3.830  0.00  0.00     0.086 H 
ATOM     17  N   LIG d   1       5.670  -0.090  -5.749  0.00  0.00     0.245 N 
ATOM     18  C   LIG d   1       6.515  -2.397  -3.821  0.00  0.00     0.231 A 
ATOM     19  O   LIG d   1       7.501  -2.355  -3.117  0.00  0.00    -0.275 OA
ATOM     20  N   LIG d   1       6.275  -3.316  -4.763  0.00  0.00    -0.241 N 
ATOM     21  C   LIG d   1       5.103  -3.159  -5.422  0.00  0.00     0.232 A 
ATOM     22  O   LIG d   1       4.678  -3.876  -6.303  0.00  0.00    -0.275 OA
ATOM     23 CL   LIG d   1       5.658  -3.705 -10.274  0.00  0.00    -0.084 Cl
ATOM     24  H   LIG d   1       3.263  -2.303 -10.912  0.00  0.00     0.064 H 
ATOM     25  H   LIG d   1       5.951  -2.697  -7.624  0.00  0.00     0.064 H 
ATOM     26  H   LIG d   1       1.726   0.530  -7.125  0.00  0.00     0.155 HD
ATOM     27  H   LIG d   1       6.434  -0.587  -6.179  0.00  0.00     0.203 HD
ATOM     28  H   LIG d   1       5.594   0.842  -6.127  0.00  0.00     0.203 HD
ENDROOT
BRANCH  15  29
ATOM     29  C   LIG d   1       7.304   0.190  -3.914  0.00  0.00    -0.001 C 
ATOM     30  H   LIG d   1       7.526  -0.291  -2.960  0.00  0.00     0.033 H 
ATOM     31  H   LIG d   1       7.933  -0.240  -4.692  0.00  0.00     0.033 H 
BRANCH  29  32
ATOM     32  C   LIG d   1       7.581   1.690  -3.803  0.00  0.00     0.029 C 
ATOM     33  H   LIG d   1       6.636   2.232  -3.765  0.00  0.00     0.036 H 
ATOM     34  H   LIG d   1       8.149   1.889  -2.895  0.00  0.00     0.036 H 
BRANCH  32  35
ATOM     35  C   LIG d   1       8.373   2.145  -5.002  0.00  0.00     0.211 C 
ATOM     36  O   LIG d   1       7.862   2.142  -6.102  0.00  0.00    -0.276 OA
ATOM     37  N   LIG d   1       9.648   2.555  -4.851  0.00  0.00    -0.329 N 
ATOM     38  H   LIG d   1      10.057   2.556  -3.972  0.00  0.00     0.145 HD
ATOM     39  H   LIG d   1      10.158   2.847  -5.623  0.00  0.00     0.145 HD
ENDBRANCH  32  35
ENDBRANCH  29  32
ENDBRANCH  15  29
BRANCH   1  40
ATOM     40  C   LIG d   1       1.539  -0.566  -9.785  0.00  0.00    -0.038 C 
ATOM     41  H   LIG d   1       1.075   0.116  -9.074  0.00  0.00     0.028 H 
ATOM     42  H   LIG d   1       1.807  -0.021 -10.690  0.00  0.00     0.028 H 
ATOM     43  H   LIG d   1       0.838  -1.363 -10.035  0.00  0.00     0.028 H 
ENDBRANCH   1  40
BRANCH  20  44
ATOM     44  C   LIG d   1       7.203  -4.411  -5.056  0.00  0.00     0.026 C 
ATOM     45  H   LIG d   1       7.964  -4.461  -4.277  0.00  0.00     0.047 H 
ATOM     46  H   LIG d   1       6.655  -5.353  -5.089  0.00  0.00     0.047 H 
BRANCH  44  47
ATOM     47  C   LIG d   1       7.874  -4.164  -6.409  0.00  0.00    -0.011 C 
ATOM     48  H   LIG d   1       8.439  -5.049  -6.701  0.00  0.00     0.033 H 
ATOM     49  H   LIG d   1       7.111  -3.956  -7.160  0.00  0.00     0.033 H 
BRANCH  47  50
ATOM     50  C   LIG d   1       8.806  -2.985  -6.299  0.00  0.00    -0.046 A 
ATOM     51  C   LIG d   1       8.583  -1.856  -7.065  0.00  0.00    -0.059 A 
ATOM     52  C   LIG d   1       9.437  -0.772  -6.960  0.00  0.00    -0.061 A 
ATOM     53  H   LIG d   1       7.742  -1.818  -7.741  0.00  0.00     0.062 H 
ATOM     54  C   LIG d   1      10.516  -0.822  -6.098  0.00  0.00    -0.062 A 
ATOM     55  H   LIG d   1       9.261   0.112  -7.555  0.00  0.00     0.062 H 
ATOM     56  C   LIG d   1      10.741  -1.954  -5.337  0.00  0.00    -0.061 A 
ATOM     57  H   LIG d   1      11.183   0.023  -6.019  0.00  0.00     0.062 H 
ATOM     58  C   LIG d   1       9.885  -3.035  -5.437  0.00  0.00    -0.059 A 
ATOM     59  H   LIG d   1      11.584  -1.993  -4.664  0.00  0.00     0.062 H 
ATOM     60  H   LIG d   1      10.061  -3.920  -4.843  0.00  0.00     0.062 H 
ENDBRANCH  47  50
ENDBRANCH  44  47
ENDBRANCH  20  44
TORSDOF 7
ENDMDL
MODEL 8
REMARK VINA RESULT:      -6.7      3.885      7.179
REMARK  7 active torsions:
REMARK  status: ('A' for Active; 'I' for Inactive)
REMARK    1  A    between atoms: C_1  and  C_2 
REMARK    2  A    between atoms: C_16  and  C_19 
REMARK    3  A    between atoms: C_19  and  C_20 
REMARK    4  A    between atoms: C_20  and  C_21 
REMARK       I    between atoms: C_21  and  N_23 
REMARK    5  A    between atoms: N_26  and  C_29 
REMARK    6  A    between atoms: C_29  and  C_30 
REMARK    7  A    between atoms: C_30  and  C_31 
ROOT
ATOM      1  C   LIG d   1       9.597   2.322  -4.922  0.00  0.00    -0.027 A 
ATOM      2  C   LIG d   1       8.764   2.070  -3.851  0.00  0.00    -0.039 A 
ATOM      3  C   LIG d   1       7.555   1.425  -4.043  0.00  0.00     0.042 A 
ATOM      4  C   LIG d   1       7.179   1.032  -5.317  0.00  0.00    -0.032 A 
ATOM      5  C   LIG d   1       8.007   1.283  -6.388  0.00  0.00     0.036 A 
ATOM      6  C   LIG d   1       9.224   1.934  -6.206  0.00  0.00     0.046 A 
ATOM      7  N   LIG d   1       9.883   2.078  -7.430  0.00  0.00    -0.280 N 
ATOM      8  C   LIG d   1       9.174   1.562  -8.452  0.00  0.00     0.274 A 
ATOM      9  O   LIG d   1       9.496   1.544  -9.621  0.00  0.00    -0.269 OA
ATOM     10  C   LIG d   1       7.909   1.002  -7.860  0.00  0.00     0.106 A 
ATOM     11  C   LIG d   1       7.762  -0.498  -8.142  0.00  0.00     0.111 A 
ATOM     12  H   LIG d   1       8.721  -0.989  -8.308  0.00  0.00     0.047 H 
ATOM     13  C   LIG d   1       6.823  -0.574  -9.378  0.00  0.00     0.096 A 
ATOM     14  H   LIG d   1       7.264  -1.123 -10.210  0.00  0.00     0.046 H 
ATOM     15  C   LIG d   1       6.516   0.896  -9.734  0.00  0.00    -0.009 C 
ATOM     16  H   LIG d   1       7.195   1.247 -10.511  0.00  0.00     0.086 H 
ATOM     17  N   LIG d   1       6.721   1.642  -8.457  0.00  0.00     0.245 N 
ATOM     18  C   LIG d   1       5.582  -1.242  -8.833  0.00  0.00     0.231 A 
ATOM     19  O   LIG d   1       4.582  -1.489  -9.473  0.00  0.00    -0.275 OA
ATOM     20  N   LIG d   1       5.757  -1.516  -7.535  0.00  0.00    -0.241 N 
ATOM     21  C   LIG d   1       6.960  -1.146  -7.036  0.00  0.00     0.232 A 
ATOM     22  O   LIG d   1       7.339  -1.304  -5.895  0.00  0.00    -0.275 OA
ATOM     23 CL   LIG d   1       6.512   1.109  -2.693  0.00  0.00    -0.084 Cl
ATOM     24  H   LIG d   1       9.058   2.375  -2.858  0.00  0.00     0.064 H 
ATOM     25  H   LIG d   1       6.236   0.529  -5.470  0.00  0.00     0.064 H 
ATOM     26  H   LIG d   1      10.750   2.502  -7.532  0.00  0.00     0.155 HD
ATOM     27  H   LIG d   1       5.923   1.543  -7.847  0.00  0.00     0.203 HD
ATOM     28  H   LIG d   1       6.903   2.615  -8.647  0.00  0.00     0.203 HD
ENDROOT
BRANCH  15  29
ATOM     29  C   LIG d   1       5.064   1.040 -10.192  0.00  0.00    -0.001 C 
ATOM     30  H   LIG d   1       5.040   1.245 -11.263  0.00  0.00     0.033 H 
ATOM     31  H   LIG d   1       4.524   0.116  -9.987  0.00  0.00     0.033 H 
BRANCH  29  32
ATOM     32  C   LIG d   1       4.404   2.196  -9.439  0.00  0.00     0.029 C 
ATOM     33  H   LIG d   1       5.087   2.570  -8.676  0.00  0.00     0.036 H 
ATOM     34  H   LIG d   1       4.167   2.998 -10.138  0.00  0.00     0.036 H 
BRANCH  32  35
ATOM     35  C   LIG d   1       3.137   1.711  -8.784  0.00  0.00     0.211 C 
ATOM     36  O   LIG d   1       2.426   0.911  -9.356  0.00  0.00    -0.276 OA
ATOM     37  N   LIG d   1       2.793   2.165  -7.562  0.00  0.00    -0.329 N 
ATOM     38  H   LIG d   1       3.361   2.805  -7.104  0.00  0.00     0.145 HD
ATOM     39  H   LIG d   1       1.977   1.853  -7.140  0.00  0.00     0.145 HD
ENDBRANCH  32  35
ENDBRANCH  29  32
ENDBRANCH  15  29
BRANCH   1  40
ATOM     40  C   LIG d   1      10.912   3.025  -4.701  0.00  0.00    -0.038 C 
ATOM     41  H   LIG d   1      10.826   4.063  -5.019  0.00  0.00     0.028 H 
ATOM     42  H   LIG d   1      11.170   2.988  -3.643  0.00  0.00     0.028 H 
ATOM     43  H   LIG d   1      11.690   2.530  -5.283  0.00  0.00     0.028 H 
ENDBRANCH   1  40
BRANCH  20  44
ATOM     44  C   LIG d   1       4.733  -2.170  -6.718  0.00  0.00     0.026 C 
ATOM     45  H   LIG d   1       4.202  -2.906  -7.321  0.00  0.00     0.047 H 
ATOM     46  H   LIG d   1       5.206  -2.668  -5.871  0.00  0.00     0.047 H 
BRANCH  44  47
ATOM     47  C   LIG d   1       3.743  -1.122  -6.204  0.00  0.00    -0.011 C 
ATOM     48  H   LIG d   1       4.002  -0.146  -6.615  0.00  0.00     0.033 H 
ATOM     49  H   LIG d   1       2.734  -1.391  -6.518  0.00  0.00     0.033 H 
BRANCH  47  50
ATOM     50  C   LIG d   1       3.805  -1.068  -4.700  0.00  0.00    -0.046 A 
ATOM     51  C   LIG d   1       4.532  -2.015  -4.004  0.00  0.00    -0.059 A 
ATOM     52  C   LIG d   1       4.591  -1.961  -2.623  0.00  0.00    -0.061 A 
ATOM     53  H   LIG d   1       5.055  -2.795  -4.537  0.00  0.00     0.062 H 
ATOM     54  C   LIG d   1       3.918  -0.966  -1.939  0.00  0.00    -0.062 A 
ATOM     55  H   LIG d   1       5.163  -2.700  -2.079  0.00  0.00     0.062 H 
ATOM     56  C   LIG d   1       3.187  -0.022  -2.636  0.00  0.00    -0.061 A 
ATOM     57  H   LIG d   1       3.963  -0.927  -0.862  0.00  0.00     0.062 H 
ATOM     58  C   LIG d   1       3.131  -0.073  -4.016  0.00  0.00    -0.059 A 
ATOM     59  H   LIG d   1       2.661   0.754  -2.102  0.00  0.00     0.062 H 
ATOM     60  H   LIG d   1       2.560   0.664  -4.561  0.00  0.00     0.062 H 
ENDBRANCH  47  50
ENDBRANCH  44  47
ENDBRANCH  20  44
TORSDOF 7
ENDMDL
MODEL 9
REMARK VINA RESULT:      -6.7      2.457      3.261
REMARK  7 active torsions:
REMARK  status: ('A' for Active; 'I' for Inactive)
REMARK    1  A    between atoms: C_1  and  C_2 
REMARK    2  A    between atoms: C_16  and  C_19 
REMARK    3  A    between atoms: C_19  and  C_20 
REMARK    4  A    between atoms: C_20  and  C_21 
REMARK       I    between atoms: C_21  and  N_23 
REMARK    5  A    between atoms: N_26  and  C_29 
REMARK    6  A    between atoms: C_29  and  C_30 
REMARK    7  A    between atoms: C_30  and  C_31 
ROOT
ATOM      1  C   LIG d   1       8.413  -6.904  -5.121  0.00  0.00    -0.027 A 
ATOM      2  C   LIG d   1       7.208  -7.444  -5.521  0.00  0.00    -0.039 A 
ATOM      3  C   LIG d   1       6.119  -6.625  -5.756  0.00  0.00     0.042 A 
ATOM      4  C   LIG d   1       6.240  -5.255  -5.588  0.00  0.00    -0.032 A 
ATOM      5  C   LIG d   1       7.440  -4.712  -5.189  0.00  0.00     0.036 A 
ATOM      6  C   LIG d   1       8.541  -5.529  -4.946  0.00  0.00     0.046 A 
ATOM      7  N   LIG d   1       9.637  -4.757  -4.551  0.00  0.00    -0.280 N 
ATOM      8  C   LIG d   1       9.343  -3.444  -4.503  0.00  0.00     0.274 A 
ATOM      9  O   LIG d   1      10.094  -2.543  -4.196  0.00  0.00    -0.269 OA
ATOM     10  C   LIG d   1       7.902  -3.309  -4.917  0.00  0.00     0.106 A 
ATOM     11  C   LIG d   1       7.744  -2.412  -6.151  0.00  0.00     0.111 A 
ATOM     12  H   LIG d   1       8.643  -2.384  -6.767  0.00  0.00     0.047 H 
ATOM     13  C   LIG d   1       7.362  -1.019  -5.575  0.00  0.00     0.096 A 
ATOM     14  H   LIG d   1       8.043  -0.230  -5.894  0.00  0.00     0.046 H 
ATOM     15  C   LIG d   1       7.352  -1.213  -4.044  0.00  0.00    -0.009 C 
ATOM     16  H   LIG d   1       8.310  -0.913  -3.618  0.00  0.00     0.086 H 
ATOM     17  N   LIG d   1       7.105  -2.672  -3.851  0.00  0.00     0.245 N 
ATOM     18  C   LIG d   1       5.952  -0.809  -6.076  0.00  0.00     0.231 A 
ATOM     19  O   LIG d   1       5.266   0.163  -5.847  0.00  0.00    -0.275 OA
ATOM     20  N   LIG d   1       5.579  -1.863  -6.812  0.00  0.00    -0.241 N 
ATOM     21  C   LIG d   1       6.517  -2.831  -6.930  0.00  0.00     0.232 A 
ATOM     22  O   LIG d   1       6.403  -3.865  -7.553  0.00  0.00    -0.275 OA
ATOM     23 CL   LIG d   1       4.606  -7.309  -6.260  0.00  0.00    -0.084 Cl
ATOM     24  H   LIG d   1       7.115  -8.512  -5.652  0.00  0.00     0.064 H 
ATOM     25  H   LIG d   1       5.391  -4.612  -5.772  0.00  0.00     0.064 H 
ATOM     26  H   LIG d   1      10.509  -5.124  -4.335  0.00  0.00     0.155 HD
ATOM     27  H   LIG d   1       6.128  -2.893  -3.962  0.00  0.00     0.203 HD
ATOM     28  H   LIG d   1       7.434  -2.964  -2.943  0.00  0.00     0.203 HD
ENDROOT
BRANCH  15  29
ATOM     29  C   LIG d   1       6.216  -0.406  -3.413  0.00  0.00    -0.001 C 
ATOM     30  H   LIG d   1       6.632   0.338  -2.734  0.00  0.00     0.033 H 
ATOM     31  H   LIG d   1       5.648   0.095  -4.197  0.00  0.00     0.033 H 
BRANCH  29  32
ATOM     32  C   LIG d   1       5.294  -1.347  -2.635  0.00  0.00     0.029 C 
ATOM     33  H   LIG d   1       5.544  -2.380  -2.874  0.00  0.00     0.036 H 
ATOM     34  H   LIG d   1       5.423  -1.180  -1.566  0.00  0.00     0.036 H 
BRANCH  32  35
ATOM     35  C   LIG d   1       3.861  -1.076  -3.017  0.00  0.00     0.211 C 
ATOM     36  O   LIG d   1       3.238  -0.203  -2.450  0.00  0.00    -0.276 OA
ATOM     37  N   LIG d   1       3.273  -1.803  -3.987  0.00  0.00    -0.329 N 
ATOM     38  H   LIG d   1       3.771  -2.501  -4.440  0.00  0.00     0.145 HD
ATOM     39  H   LIG d   1       2.351  -1.629  -4.232  0.00  0.00     0.145 HD
ENDBRANCH  32  35
ENDBRANCH  29  32
ENDBRANCH  15  29
BRANCH   1  40
ATOM     40  C   LIG d   1       9.593  -7.807  -4.867  0.00  0.00    -0.038 C 
ATOM     41  H   LIG d   1       9.242  -8.768  -4.495  0.00  0.00     0.028 H 
ATOM     42  H   LIG d   1      10.144  -7.955  -5.796  0.00  0.00     0.028 H 
ATOM     43  H   LIG d   1      10.248  -7.347  -4.126  0.00  0.00     0.028 H 
ENDBRANCH   1  40
BRANCH  20  44
ATOM     44  C   LIG d   1       4.262  -1.961  -7.445  0.00  0.00     0.026 C 
ATOM     45  H   LIG d   1       3.915  -2.994  -7.404  0.00  0.00     0.047 H 
ATOM     46  H   LIG d   1       3.556  -1.320  -6.917  0.00  0.00     0.047 H 
BRANCH  44  47
ATOM     47  C   LIG d   1       4.363  -1.515  -8.905  0.00  0.00    -0.011 C 
ATOM     48  H   LIG d   1       5.353  -1.758  -9.291  0.00  0.00     0.033 H 
ATOM     49  H   LIG d   1       3.605  -2.031  -9.495  0.00  0.00     0.033 H 
BRANCH  47  50
ATOM     50  C   LIG d   1       4.141  -0.027  -8.991  0.00  0.00    -0.046 A 
ATOM     51  C   LIG d   1       5.191   0.810  -9.321  0.00  0.00    -0.059 A 
ATOM     52  C   LIG d   1       4.985   2.175  -9.405  0.00  0.00    -0.061 A 
ATOM     53  H   LIG d   1       6.170   0.398  -9.516  0.00  0.00     0.062 H 
ATOM     54  C   LIG d   1       3.733   2.703  -9.151  0.00  0.00    -0.062 A 
ATOM     55  H   LIG d   1       5.804   2.829  -9.667  0.00  0.00     0.062 H 
ATOM     56  C   LIG d   1       2.685   1.866  -8.817  0.00  0.00    -0.061 A 
ATOM     57  H   LIG d   1       3.574   3.768  -9.215  0.00  0.00     0.062 H 
ATOM     58  C   LIG d   1       2.889   0.501  -8.737  0.00  0.00    -0.059 A 
ATOM     59  H   LIG d   1       1.707   2.278  -8.618  0.00  0.00     0.062 H 
ATOM     60  H   LIG d   1       2.071  -0.153  -8.476  0.00  0.00     0.062 H 
ENDBRANCH  47  50
ENDBRANCH  44  47
ENDBRANCH  20  44
TORSDOF 7
ENDMDL
