MODEL 1
REMARK VINA RESULT:      -7.8      0.000      0.000
REMARK  5 active torsions:
REMARK  status: ('A' for Active; 'I' for Inactive)
REMARK    1  A    between atoms: C_1  and  N_2 
REMARK    2  A    between atoms: C_10  and  C_13 
REMARK    3  A    between atoms: C_13  and  C_14 
REMARK    4  A    between atoms: C_14  and  C_15 
REMARK       I    between atoms: C_15  and  N_17 
REMARK    5  A    between atoms: N_17  and  C_18 
ROOT
ATOM      1  C   LIG d   1       8.696   2.606  -4.503  0.00  0.00     0.003 C 
ATOM      2  H   LIG d   1       9.186   2.364  -5.447  0.00  0.00     0.034 H 
ATOM      3  H   LIG d   1       8.093   3.504  -4.627  0.00  0.00     0.034 H 
ENDROOT
BRANCH   1   4
ATOM      4  C   LIG d   1       7.810   1.459  -4.089  0.00  0.00     0.107 A 
ATOM      5  N   LIG d   1       6.748   1.685  -3.370  0.00  0.00    -0.245 NA
ATOM      6  C   LIG d   1       5.940   0.678  -2.987  0.00  0.00     0.088 A 
ATOM      7  C   LIG d   1       6.226  -0.649  -3.359  0.00  0.00     0.070 A 
ATOM      8  C   LIG d   1       4.801   0.946  -2.214  0.00  0.00    -0.034 A 
ATOM      9  N   LIG d   1       7.343  -0.927  -4.120  0.00  0.00    -0.308 N 
ATOM     10  C   LIG d   1       5.378  -1.675  -2.953  0.00  0.00    -0.036 A 
ATOM     11  C   LIG d   1       8.150   0.090  -4.493  0.00  0.00     0.273 A 
ATOM     12  O   LIG d   1       9.146  -0.127  -5.161  0.00  0.00    -0.266 OA
ATOM     13  C   LIG d   1       4.267  -1.386  -2.193  0.00  0.00    -0.060 A 
ATOM     14  H   LIG d   1       5.590  -2.696  -3.235  0.00  0.00     0.064 H 
ATOM     15  C   LIG d   1       3.983  -0.076  -1.828  0.00  0.00    -0.060 A 
ATOM     16  H   LIG d   1       3.609  -2.183  -1.880  0.00  0.00     0.062 H 
ATOM     17  H   LIG d   1       3.108   0.136  -1.232  0.00  0.00     0.062 H 
ATOM     18  H   LIG d   1       4.570   1.961  -1.923  0.00  0.00     0.064 H 
BRANCH   9  19
ATOM     19  C   LIG d   1       7.651  -2.304  -4.514  0.00  0.00     0.015 C 
ATOM     20  H   LIG d   1       7.078  -2.565  -5.404  0.00  0.00     0.046 H 
ATOM     21  H   LIG d   1       8.716  -2.390  -4.730  0.00  0.00     0.046 H 
ATOM     22  H   LIG d   1       7.389  -2.982  -3.701  0.00  0.00     0.046 H 
ENDBRANCH   9  19
ENDBRANCH   1   4
BRANCH   1  23
ATOM     23  C   LIG d   1       9.756   2.845  -3.426  0.00  0.00     0.030 C 
ATOM     24  H   LIG d   1       9.446   2.364  -2.498  0.00  0.00     0.036 H 
ATOM     25  H   LIG d   1      10.707   2.426  -3.752  0.00  0.00     0.036 H 
BRANCH  23  26
ATOM     26  C   LIG d   1       9.911   4.327  -3.195  0.00  0.00     0.218 C 
ATOM     27  O   LIG d   1       9.783   5.101  -4.120  0.00  0.00    -0.276 OA
ATOM     28  N   LIG d   1      10.193   4.791  -1.961  0.00  0.00    -0.285 N 
ATOM     29  H   LIG d   1      10.230   4.178  -1.210  0.00  0.00     0.155 HD
BRANCH  28  30
ATOM     30  C   LIG d   1      10.434   6.155  -1.765  0.00  0.00     0.035 A 
ATOM     31  C   LIG d   1       9.369   7.024  -1.603  0.00  0.00    -0.017 A 
ATOM     32  C   LIG d   1       9.609   8.379  -1.404  0.00  0.00     0.048 A 
ATOM     33  H   LIG d   1       8.356   6.650  -1.627  0.00  0.00     0.066 H 
ATOM     34  C   LIG d   1      10.934   8.850  -1.381  0.00  0.00    -0.000 A 
ATOM     35  N   LIG d   1       8.787   9.468  -1.212  0.00  0.00    -0.361 N 
ATOM     36  C   LIG d   1      11.996   7.959  -1.552  0.00  0.00    -0.051 A 
ATOM     37  C   LIG d   1      10.846  10.297  -1.161  0.00  0.00    -0.037 A 
ATOM     38  C   LIG d   1      11.744   6.630  -1.742  0.00  0.00    -0.040 A 
ATOM     39  H   LIG d   1      13.014   8.320  -1.535  0.00  0.00     0.062 H 
ATOM     40  H   LIG d   1      12.567   5.942  -1.873  0.00  0.00     0.064 H 
ATOM     41  C   LIG d   1       9.542  10.601  -1.069  0.00  0.00     0.003 A 
ATOM     42  H   LIG d   1      11.674  10.986  -1.088  0.00  0.00     0.064 H 
ATOM     43  H   LIG d   1       9.147  11.593  -0.906  0.00  0.00     0.081 H 
ATOM     44  H   LIG d   1       7.818   9.436  -1.181  0.00  0.00     0.165 HD
ENDBRANCH  28  30
ENDBRANCH  23  26
ENDBRANCH   1  23
TORSDOF 5
ENDMDL
MODEL 2
REMARK VINA RESULT:      -7.5      5.391      8.912
REMARK  5 active torsions:
REMARK  status: ('A' for Active; 'I' for Inactive)
REMARK    1  A    between atoms: C_1  and  N_2 
REMARK    2  A    between atoms: C_10  and  C_13 
REMARK    3  A    between atoms: C_13  and  C_14 
REMARK    4  A    between atoms: C_14  and  C_15 
REMARK       I    between atoms: C_15  and  N_17 
REMARK    5  A    between atoms: N_17  and  C_18 
ROOT
ATOM      1  C   LIG d   1       7.386  -3.850  -4.705  0.00  0.00     0.003 C 
ATOM      2  H   LIG d   1       8.272  -3.696  -5.321  0.00  0.00     0.034 H 
ATOM      3  H   LIG d   1       7.639  -4.487  -3.858  0.00  0.00     0.034 H 
ENDROOT
BRANCH   1   4
ATOM      4  C   LIG d   1       6.889  -2.519  -4.201  0.00  0.00     0.107 A 
ATOM      5  N   LIG d   1       5.724  -2.437  -3.626  0.00  0.00    -0.245 NA
ATOM      6  C   LIG d   1       5.256  -1.260  -3.168  0.00  0.00     0.088 A 
ATOM      7  C   LIG d   1       6.021  -0.086  -3.299  0.00  0.00     0.070 A 
ATOM      8  C   LIG d   1       3.998  -1.196  -2.550  0.00  0.00    -0.034 A 
ATOM      9  N   LIG d   1       7.261  -0.135  -3.904  0.00  0.00    -0.308 N 
ATOM     10  C   LIG d   1       5.520   1.120  -2.819  0.00  0.00    -0.036 A 
ATOM     11  C   LIG d   1       7.717  -1.319  -4.367  0.00  0.00     0.273 A 
ATOM     12  O   LIG d   1       8.805  -1.391  -4.910  0.00  0.00    -0.266 OA
ATOM     13  C   LIG d   1       4.282   1.157  -2.218  0.00  0.00    -0.060 A 
ATOM     14  H   LIG d   1       6.101   2.025  -2.916  0.00  0.00     0.064 H 
ATOM     15  C   LIG d   1       3.527  -0.002  -2.086  0.00  0.00    -0.060 A 
ATOM     16  H   LIG d   1       3.894   2.093  -1.844  0.00  0.00     0.062 H 
ATOM     17  H   LIG d   1       2.557   0.042  -1.611  0.00  0.00     0.062 H 
ATOM     18  H   LIG d   1       3.402  -2.090  -2.442  0.00  0.00     0.064 H 
BRANCH   9  19
ATOM     19  C   LIG d   1       8.067   1.080  -4.048  0.00  0.00     0.015 C 
ATOM     20  H   LIG d   1       8.749   1.166  -3.201  0.00  0.00     0.046 H 
ATOM     21  H   LIG d   1       8.641   1.027  -4.973  0.00  0.00     0.046 H 
ATOM     22  H   LIG d   1       7.411   1.950  -4.076  0.00  0.00     0.046 H 
ENDBRANCH   9  19
ENDBRANCH   1   4
BRANCH   1  23
ATOM     23  C   LIG d   1       6.294  -4.519  -5.541  0.00  0.00     0.030 C 
ATOM     24  H   LIG d   1       6.716  -5.370  -6.075  0.00  0.00     0.036 H 
ATOM     25  H   LIG d   1       5.494  -4.862  -4.886  0.00  0.00     0.036 H 
BRANCH  23  26
ATOM     26  C   LIG d   1       5.742  -3.526  -6.533  0.00  0.00     0.218 C 
ATOM     27  O   LIG d   1       6.459  -3.074  -7.399  0.00  0.00    -0.276 OA
ATOM     28  N   LIG d   1       4.453  -3.142  -6.455  0.00  0.00    -0.285 N 
ATOM     29  H   LIG d   1       3.862  -3.553  -5.804  0.00  0.00     0.155 HD
BRANCH  28  30
ATOM     30  C   LIG d   1       3.966  -2.149  -7.313  0.00  0.00     0.035 A 
ATOM     31  C   LIG d   1       3.948  -0.831  -6.896  0.00  0.00    -0.017 A 
ATOM     32  C   LIG d   1       3.468   0.156  -7.750  0.00  0.00     0.048 A 
ATOM     33  H   LIG d   1       4.309  -0.567  -5.913  0.00  0.00     0.066 H 
ATOM     34  C   LIG d   1       2.997  -0.204  -9.026  0.00  0.00    -0.000 A 
ATOM     35  N   LIG d   1       3.327   1.522  -7.636  0.00  0.00    -0.361 N 
ATOM     36  C   LIG d   1       3.017  -1.542  -9.427  0.00  0.00    -0.051 A 
ATOM     37  C   LIG d   1       2.564   1.043  -9.665  0.00  0.00    -0.037 A 
ATOM     38  C   LIG d   1       3.496  -2.498  -8.578  0.00  0.00    -0.040 A 
ATOM     39  H   LIG d   1       2.656  -1.819 -10.406  0.00  0.00     0.062 H 
ATOM     40  H   LIG d   1       3.512  -3.532  -8.890  0.00  0.00     0.064 H 
ATOM     41  C   LIG d   1       2.787   2.032  -8.786  0.00  0.00     0.003 A 
ATOM     42  H   LIG d   1       2.145   1.144 -10.655  0.00  0.00     0.064 H 
ATOM     43  H   LIG d   1       2.572   3.076  -8.960  0.00  0.00     0.081 H 
ATOM     44  H   LIG d   1       3.574   2.044  -6.857  0.00  0.00     0.165 HD
ENDBRANCH  28  30
ENDBRANCH  23  26
ENDBRANCH   1  23
TORSDOF 5
ENDMDL
MODEL 3
REMARK VINA RESULT:      -7.3      1.832      2.677
REMARK  5 active torsions:
REMARK  status: ('A' for Active; 'I' for Inactive)
REMARK    1  A    between atoms: C_1  and  N_2 
REMARK    2  A    between atoms: C_10  and  C_13 
REMARK    3  A    between atoms: C_13  and  C_14 
REMARK    4  A    between atoms: C_14  and  C_15 
REMARK       I    between atoms: C_15  and  N_17 
REMARK    5  A    between atoms: N_17  and  C_18 
ROOT
ATOM      1  C   LIG d   1       8.309   0.933  -6.500  0.00  0.00     0.003 C 
ATOM      2  H   LIG d   1       8.245   0.414  -7.457  0.00  0.00     0.034 H 
ATOM      3  H   LIG d   1       7.988   1.966  -6.625  0.00  0.00     0.034 H 
ENDROOT
BRANCH   1   4
ATOM      4  C   LIG d   1       7.417   0.247  -5.497  0.00  0.00     0.107 A 
ATOM      5  N   LIG d   1       6.810   0.947  -4.583  0.00  0.00    -0.245 NA
ATOM      6  C   LIG d   1       6.007   0.359  -3.675  0.00  0.00     0.088 A 
ATOM      7  C   LIG d   1       5.805  -1.034  -3.696  0.00  0.00     0.070 A 
ATOM      8  C   LIG d   1       5.362   1.134  -2.699  0.00  0.00    -0.034 A 
ATOM      9  N   LIG d   1       6.432  -1.808  -4.650  0.00  0.00    -0.308 N 
ATOM     10  C   LIG d   1       4.971  -1.623  -2.749  0.00  0.00    -0.036 A 
ATOM     11  C   LIG d   1       7.240  -1.209  -5.552  0.00  0.00     0.273 A 
ATOM     12  O   LIG d   1       7.811  -1.868  -6.402  0.00  0.00    -0.266 OA
ATOM     13  C   LIG d   1       4.351  -0.840  -1.801  0.00  0.00    -0.060 A 
ATOM     14  H   LIG d   1       4.811  -2.690  -2.758  0.00  0.00     0.064 H 
ATOM     15  C   LIG d   1       4.549   0.535  -1.781  0.00  0.00    -0.060 A 
ATOM     16  H   LIG d   1       3.704  -1.298  -1.067  0.00  0.00     0.062 H 
ATOM     17  H   LIG d   1       4.056   1.136  -1.032  0.00  0.00     0.062 H 
ATOM     18  H   LIG d   1       5.509   2.204  -2.675  0.00  0.00     0.064 H 
BRANCH   9  19
ATOM     19  C   LIG d   1       6.230  -3.259  -4.682  0.00  0.00     0.015 C 
ATOM     20  H   LIG d   1       7.097  -3.757  -4.246  0.00  0.00     0.046 H 
ATOM     21  H   LIG d   1       5.338  -3.513  -4.108  0.00  0.00     0.046 H 
ATOM     22  H   LIG d   1       6.103  -3.586  -5.714  0.00  0.00     0.046 H 
ENDBRANCH   9  19
ENDBRANCH   1   4
BRANCH   1  23
ATOM     23  C   LIG d   1       9.755   0.902  -6.001  0.00  0.00     0.030 C 
ATOM     24  H   LIG d   1       9.871   0.098  -5.275  0.00  0.00     0.036 H 
ATOM     25  H   LIG d   1      10.426   0.733  -6.841  0.00  0.00     0.036 H 
BRANCH  23  26
ATOM     26  C   LIG d   1      10.087   2.219  -5.347  0.00  0.00     0.218 C 
ATOM     27  O   LIG d   1      11.236   2.607  -5.317  0.00  0.00    -0.276 OA
ATOM     28  N   LIG d   1       9.108   2.965  -4.797  0.00  0.00    -0.285 N 
ATOM     29  H   LIG d   1       8.183   2.688  -4.880  0.00  0.00     0.155 HD
BRANCH  28  30
ATOM     30  C   LIG d   1       9.428   4.139  -4.106  0.00  0.00     0.035 A 
ATOM     31  C   LIG d   1       9.850   4.068  -2.791  0.00  0.00    -0.017 A 
ATOM     32  C   LIG d   1      10.172   5.234  -2.105  0.00  0.00     0.048 A 
ATOM     33  H   LIG d   1       9.934   3.110  -2.299  0.00  0.00     0.066 H 
ATOM     34  C   LIG d   1      10.053   6.474  -2.759  0.00  0.00    -0.000 A 
ATOM     35  N   LIG d   1      10.615   5.490  -0.826  0.00  0.00    -0.361 N 
ATOM     36  C   LIG d   1       9.619   6.527  -4.085  0.00  0.00    -0.051 A 
ATOM     37  C   LIG d   1      10.455   7.489  -1.779  0.00  0.00    -0.037 A 
ATOM     38  C   LIG d   1       9.312   5.372  -4.746  0.00  0.00    -0.040 A 
ATOM     39  H   LIG d   1       9.527   7.479  -4.587  0.00  0.00     0.062 H 
ATOM     40  H   LIG d   1       8.977   5.414  -5.772  0.00  0.00     0.064 H 
ATOM     41  C   LIG d   1      10.777   6.838  -0.650  0.00  0.00     0.003 A 
ATOM     42  H   LIG d   1      10.485   8.556  -1.937  0.00  0.00     0.064 H 
ATOM     43  H   LIG d   1      11.115   7.308   0.261  0.00  0.00     0.081 H 
ATOM     44  H   LIG d   1      10.786   4.815  -0.151  0.00  0.00     0.165 HD
ENDBRANCH  28  30
ENDBRANCH  23  26
ENDBRANCH   1  23
TORSDOF 5
ENDMDL
MODEL 4
REMARK VINA RESULT:      -7.3      2.358      9.003
REMARK  5 active torsions:
REMARK  status: ('A' for Active; 'I' for Inactive)
REMARK    1  A    between atoms: C_1  and  N_2 
REMARK    2  A    between atoms: C_10  and  C_13 
REMARK    3  A    between atoms: C_13  and  C_14 
REMARK    4  A    between atoms: C_14  and  C_15 
REMARK       I    between atoms: C_15  and  N_17 
REMARK    5  A    between atoms: N_17  and  C_18 
ROOT
ATOM      1  C   LIG d   1       9.682   3.692  -3.432  0.00  0.00     0.003 C 
ATOM      2  H   LIG d   1      10.610   3.300  -3.014  0.00  0.00     0.034 H 
ATOM      3  H   LIG d   1       8.853   3.451  -2.766  0.00  0.00     0.034 H 
ENDROOT
BRANCH   1   4
ATOM      4  C   LIG d   1       9.790   5.188  -3.578  0.00  0.00     0.107 A 
ATOM      5  N   LIG d   1       9.527   5.749  -4.723  0.00  0.00    -0.245 NA
ATOM      6  C   LIG d   1       9.616   7.083  -4.880  0.00  0.00     0.088 A 
ATOM      7  C   LIG d   1       9.996   7.907  -3.804  0.00  0.00     0.070 A 
ATOM      8  C   LIG d   1       9.326   7.666  -6.123  0.00  0.00    -0.034 A 
ATOM      9  N   LIG d   1      10.284   7.347  -2.575  0.00  0.00    -0.308 N 
ATOM     10  C   LIG d   1      10.082   9.284  -3.987  0.00  0.00    -0.036 A 
ATOM     11  C   LIG d   1      10.197   6.007  -2.431  0.00  0.00     0.273 A 
ATOM     12  O   LIG d   1      10.450   5.485  -1.359  0.00  0.00    -0.266 OA
ATOM     13  C   LIG d   1       9.794   9.831  -5.217  0.00  0.00    -0.060 A 
ATOM     14  H   LIG d   1      10.373   9.922  -3.166  0.00  0.00     0.064 H 
ATOM     15  C   LIG d   1       9.417   9.019  -6.280  0.00  0.00    -0.060 A 
ATOM     16  H   LIG d   1       9.860  10.900  -5.358  0.00  0.00     0.062 H 
ATOM     17  H   LIG d   1       9.193   9.462  -7.239  0.00  0.00     0.062 H 
ATOM     18  H   LIG d   1       9.032   7.045  -6.956  0.00  0.00     0.064 H 
BRANCH   9  19
ATOM     19  C   LIG d   1      10.681   8.193  -1.447  0.00  0.00     0.015 C 
ATOM     20  H   LIG d   1      10.446   7.685  -0.511  0.00  0.00     0.046 H 
ATOM     21  H   LIG d   1      11.753   8.384  -1.497  0.00  0.00     0.046 H 
ATOM     22  H   LIG d   1      10.140   9.138  -1.493  0.00  0.00     0.046 H 
ENDBRANCH   9  19
ENDBRANCH   1   4
BRANCH   1  23
ATOM     23  C   LIG d   1       9.435   3.062  -4.804  0.00  0.00     0.030 C 
ATOM     24  H   LIG d   1       9.144   3.837  -5.512  0.00  0.00     0.036 H 
ATOM     25  H   LIG d   1      10.347   2.577  -5.151  0.00  0.00     0.036 H 
BRANCH  23  26
ATOM     26  C   LIG d   1       8.332   2.041  -4.697  0.00  0.00     0.218 C 
ATOM     27  O   LIG d   1       7.612   1.825  -5.648  0.00  0.00    -0.276 OA
ATOM     28  N   LIG d   1       8.147   1.367  -3.544  0.00  0.00    -0.285 N 
ATOM     29  H   LIG d   1       8.764   1.491  -2.805  0.00  0.00     0.155 HD
BRANCH  28  30
ATOM     30  C   LIG d   1       7.063   0.491  -3.412  0.00  0.00     0.035 A 
ATOM     31  C   LIG d   1       5.809   0.990  -3.111  0.00  0.00    -0.017 A 
ATOM     32  C   LIG d   1       4.732   0.120  -2.984  0.00  0.00     0.048 A 
ATOM     33  H   LIG d   1       5.665   2.053  -2.979  0.00  0.00     0.066 H 
ATOM     34  C   LIG d   1       4.938  -1.261  -3.154  0.00  0.00    -0.000 A 
ATOM     35  N   LIG d   1       3.396   0.301  -2.703  0.00  0.00    -0.361 N 
ATOM     36  C   LIG d   1       6.213  -1.748  -3.451  0.00  0.00    -0.051 A 
ATOM     37  C   LIG d   1       3.630  -1.893  -2.954  0.00  0.00    -0.037 A 
ATOM     38  C   LIG d   1       7.258  -0.879  -3.578  0.00  0.00    -0.040 A 
ATOM     39  H   LIG d   1       6.371  -2.808  -3.582  0.00  0.00     0.062 H 
ATOM     40  H   LIG d   1       8.244  -1.257  -3.809  0.00  0.00     0.064 H 
ATOM     41  C   LIG d   1       2.755  -0.909  -2.690  0.00  0.00     0.003 A 
ATOM     42  H   LIG d   1       3.412  -2.949  -3.010  0.00  0.00     0.064 H 
ATOM     43  H   LIG d   1       1.703  -1.052  -2.495  0.00  0.00     0.081 H 
ATOM     44  H   LIG d   1       2.972   1.157  -2.540  0.00  0.00     0.165 HD
ENDBRANCH  28  30
ENDBRANCH  23  26
ENDBRANCH   1  23
TORSDOF 5
ENDMDL
MODEL 5
REMARK VINA RESULT:      -7.2      6.276      9.402
REMARK  5 active torsions:
REMARK  status: ('A' for Active; 'I' for Inactive)
REMARK    1  A    between atoms: C_1  and  N_2 
REMARK    2  A    between atoms: C_10  and  C_13 
REMARK    3  A    between atoms: C_13  and  C_14 
REMARK    4  A    between atoms: C_14  and  C_15 
REMARK       I    between atoms: C_15  and  N_17 
REMARK    5  A    between atoms: N_17  and  C_18 
ROOT
ATOM      1  C   LIG d   1       5.346  -4.946  -7.958  0.00  0.00     0.003 C 
ATOM      2  H   LIG d   1       5.357  -5.802  -8.633  0.00  0.00     0.034 H 
ATOM      3  H   LIG d   1       6.345  -4.512  -7.904  0.00  0.00     0.034 H 
ENDROOT
BRANCH   1   4
ATOM      4  C   LIG d   1       4.377  -3.912  -8.472  0.00  0.00     0.107 A 
ATOM      5  N   LIG d   1       4.573  -2.652  -8.211  0.00  0.00    -0.245 NA
ATOM      6  C   LIG d   1       3.722  -1.709  -8.659  0.00  0.00     0.088 A 
ATOM      7  C   LIG d   1       2.597  -2.067  -9.425  0.00  0.00     0.070 A 
ATOM      8  C   LIG d   1       3.953  -0.356  -8.366  0.00  0.00    -0.034 A 
ATOM      9  N   LIG d   1       2.357  -3.393  -9.722  0.00  0.00    -0.308 N 
ATOM     10  C   LIG d   1       1.730  -1.077  -9.879  0.00  0.00    -0.036 A 
ATOM     11  C   LIG d   1       3.214  -4.331  -9.262  0.00  0.00     0.273 A 
ATOM     12  O   LIG d   1       3.024  -5.510  -9.504  0.00  0.00    -0.266 OA
ATOM     13  C   LIG d   1       1.979   0.243  -9.577  0.00  0.00    -0.060 A 
ATOM     14  H   LIG d   1       0.865  -1.343 -10.468  0.00  0.00     0.064 H 
ATOM     15  C   LIG d   1       3.090   0.597  -8.822  0.00  0.00    -0.060 A 
ATOM     16  H   LIG d   1       1.305   1.011  -9.930  0.00  0.00     0.062 H 
ATOM     17  H   LIG d   1       3.272   1.637  -8.592  0.00  0.00     0.062 H 
ATOM     18  H   LIG d   1       4.814  -0.069  -7.780  0.00  0.00     0.064 H 
BRANCH   9  19
ATOM     19  C   LIG d   1       1.190  -3.778 -10.519  0.00  0.00     0.015 C 
ATOM     20  H   LIG d   1       0.294  -3.321 -10.097  0.00  0.00     0.046 H 
ATOM     21  H   LIG d   1       1.322  -3.435 -11.545  0.00  0.00     0.046 H 
ATOM     22  H   LIG d   1       1.084  -4.863 -10.508  0.00  0.00     0.046 H 
ENDBRANCH   9  19
ENDBRANCH   1   4
BRANCH   1  23
ATOM     23  C   LIG d   1       4.911  -5.403  -6.564  0.00  0.00     0.030 C 
ATOM     24  H   LIG d   1       3.862  -5.697  -6.590  0.00  0.00     0.036 H 
ATOM     25  H   LIG d   1       5.519  -6.251  -6.253  0.00  0.00     0.036 H 
BRANCH  23  26
ATOM     26  C   LIG d   1       5.090  -4.270  -5.586  0.00  0.00     0.218 C 
ATOM     27  O   LIG d   1       6.173  -4.074  -5.077  0.00  0.00    -0.276 OA
ATOM     28  N   LIG d   1       4.046  -3.474  -5.277  0.00  0.00    -0.285 N 
ATOM     29  H   LIG d   1       3.198  -3.588  -5.734  0.00  0.00     0.155 HD
BRANCH  28  30
ATOM     30  C   LIG d   1       4.187  -2.484  -4.298  0.00  0.00     0.035 A 
ATOM     31  C   LIG d   1       4.506  -1.191  -4.669  0.00  0.00    -0.017 A 
ATOM     32  C   LIG d   1       4.641  -0.207  -3.696  0.00  0.00     0.048 A 
ATOM     33  H   LIG d   1       4.646  -0.945  -5.712  0.00  0.00     0.066 H 
ATOM     34  C   LIG d   1       4.461  -0.546  -2.343  0.00  0.00    -0.000 A 
ATOM     35  N   LIG d   1       4.940   1.137  -3.743  0.00  0.00    -0.361 N 
ATOM     36  C   LIG d   1       4.145  -1.858  -1.986  0.00  0.00    -0.051 A 
ATOM     37  C   LIG d   1       4.673   0.691  -1.584  0.00  0.00    -0.037 A 
ATOM     38  C   LIG d   1       4.010  -2.812  -2.954  0.00  0.00    -0.040 A 
ATOM     39  H   LIG d   1       4.006  -2.118  -0.947  0.00  0.00     0.062 H 
ATOM     40  H   LIG d   1       3.765  -3.826  -2.677  0.00  0.00     0.064 H 
ATOM     41  C   LIG d   1       4.955   1.655  -2.476  0.00  0.00     0.003 A 
ATOM     42  H   LIG d   1       4.614   0.805  -0.512  0.00  0.00     0.064 H 
ATOM     43  H   LIG d   1       5.161   2.685  -2.229  0.00  0.00     0.081 H 
ATOM     44  H   LIG d   1       5.113   1.641  -4.553  0.00  0.00     0.165 HD
ENDBRANCH  28  30
ENDBRANCH  23  26
ENDBRANCH   1  23
TORSDOF 5
ENDMDL
MODEL 6
REMARK VINA RESULT:      -7.0      1.789      8.721
REMARK  5 active torsions:
REMARK  status: ('A' for Active; 'I' for Inactive)
REMARK    1  A    between atoms: C_1  and  N_2 
REMARK    2  A    between atoms: C_10  and  C_13 
REMARK    3  A    between atoms: C_13  and  C_14 
REMARK    4  A    between atoms: C_14  and  C_15 
REMARK       I    between atoms: C_15  and  N_17 
REMARK    5  A    between atoms: N_17  and  C_18 
ROOT
ATOM      1  C   LIG d   1       9.260   4.332  -5.167  0.00  0.00     0.003 C 
ATOM      2  H   LIG d   1       8.177   4.331  -5.294  0.00  0.00     0.034 H 
ATOM      3  H   LIG d   1       9.738   4.550  -6.121  0.00  0.00     0.034 H 
ENDROOT
BRANCH   1   4
ATOM      4  C   LIG d   1       9.646   5.385  -4.159  0.00  0.00     0.107 A 
ATOM      5  N   LIG d   1       9.938   5.040  -2.939  0.00  0.00    -0.245 NA
ATOM      6  C   LIG d   1      10.286   5.961  -2.020  0.00  0.00     0.088 A 
ATOM      7  C   LIG d   1      10.343   7.325  -2.361  0.00  0.00     0.070 A 
ATOM      8  C   LIG d   1      10.598   5.565  -0.710  0.00  0.00    -0.034 A 
ATOM      9  N   LIG d   1      10.039   7.729  -3.645  0.00  0.00    -0.308 N 
ATOM     10  C   LIG d   1      10.705   8.262  -1.397  0.00  0.00    -0.036 A 
ATOM     11  C   LIG d   1       9.685   6.797  -4.557  0.00  0.00     0.273 A 
ATOM     12  O   LIG d   1       9.407   7.125  -5.697  0.00  0.00    -0.266 OA
ATOM     13  C   LIG d   1      11.005   7.847  -0.118  0.00  0.00    -0.060 A 
ATOM     14  H   LIG d   1      10.752   9.310  -1.650  0.00  0.00     0.064 H 
ATOM     15  C   LIG d   1      10.951   6.500   0.219  0.00  0.00    -0.060 A 
ATOM     16  H   LIG d   1      11.287   8.575   0.629  0.00  0.00     0.062 H 
ATOM     17  H   LIG d   1      11.190   6.191   1.225  0.00  0.00     0.062 H 
ATOM     18  H   LIG d   1      10.559   4.521  -0.437  0.00  0.00     0.064 H 
BRANCH   9  19
ATOM     19  C   LIG d   1      10.095   9.146  -4.013  0.00  0.00     0.015 C 
ATOM     20  H   LIG d   1       9.995   9.246  -5.094  0.00  0.00     0.046 H 
ATOM     21  H   LIG d   1       9.281   9.680  -3.522  0.00  0.00     0.046 H 
ATOM     22  H   LIG d   1      11.049   9.566  -3.696  0.00  0.00     0.046 H 
ENDBRANCH   9  19
ENDBRANCH   1   4
BRANCH   1  23
ATOM     23  C   LIG d   1       9.715   2.959  -4.668  0.00  0.00     0.030 C 
ATOM     24  H   LIG d   1      10.472   2.561  -5.342  0.00  0.00     0.036 H 
ATOM     25  H   LIG d   1      10.134   3.057  -3.667  0.00  0.00     0.036 H 
BRANCH  23  26
ATOM     26  C   LIG d   1       8.534   2.023  -4.629  0.00  0.00     0.218 C 
ATOM     27  O   LIG d   1       7.819   1.909  -5.601  0.00  0.00    -0.276 OA
ATOM     28  N   LIG d   1       8.274   1.312  -3.513  0.00  0.00    -0.285 N 
ATOM     29  H   LIG d   1       8.883   1.353  -2.760  0.00  0.00     0.155 HD
BRANCH  28  30
ATOM     30  C   LIG d   1       7.124   0.517  -3.443  0.00  0.00     0.035 A 
ATOM     31  C   LIG d   1       5.913   1.091  -3.101  0.00  0.00    -0.017 A 
ATOM     32  C   LIG d   1       4.770   0.303  -3.035  0.00  0.00     0.048 A 
ATOM     33  H   LIG d   1       5.854   2.149  -2.890  0.00  0.00     0.066 H 
ATOM     34  C   LIG d   1       4.865  -1.074  -3.307  0.00  0.00    -0.000 A 
ATOM     35  N   LIG d   1       3.452   0.568  -2.736  0.00  0.00    -0.361 N 
ATOM     36  C   LIG d   1       6.097  -1.637  -3.645  0.00  0.00    -0.051 A 
ATOM     37  C   LIG d   1       3.510  -1.613  -3.150  0.00  0.00    -0.037 A 
ATOM     38  C   LIG d   1       7.210  -0.848  -3.710  0.00  0.00    -0.040 A 
ATOM     39  H   LIG d   1       6.171  -2.694  -3.854  0.00  0.00     0.062 H 
ATOM     40  H   LIG d   1       8.162  -1.284  -3.972  0.00  0.00     0.064 H 
ATOM     41  C   LIG d   1       2.717  -0.585  -2.810  0.00  0.00     0.003 A 
ATOM     42  H   LIG d   1       3.209  -2.641  -3.282  0.00  0.00     0.064 H 
ATOM     43  H   LIG d   1       1.656  -0.657  -2.622  0.00  0.00     0.081 H 
ATOM     44  H   LIG d   1       3.097   1.441  -2.508  0.00  0.00     0.165 HD
ENDBRANCH  28  30
ENDBRANCH  23  26
ENDBRANCH   1  23
TORSDOF 5
ENDMDL
MODEL 7
REMARK VINA RESULT:      -7.0      7.108     11.443
REMARK  5 active torsions:
REMARK  status: ('A' for Active; 'I' for Inactive)
REMARK    1  A    between atoms: C_1  and  N_2 
REMARK    2  A    between atoms: C_10  and  C_13 
REMARK    3  A    between atoms: C_13  and  C_14 
REMARK    4  A    between atoms: C_14  and  C_15 
REMARK       I    between atoms: C_15  and  N_17 
REMARK    5  A    between atoms: N_17  and  C_18 
ROOT
ATOM      1  C   LIG d   1       5.570   0.190  -7.958  0.00  0.00     0.003 C 
ATOM      2  H   LIG d   1       6.433   0.836  -7.796  0.00  0.00     0.034 H 
ATOM      3  H   LIG d   1       5.801  -0.539  -8.734  0.00  0.00     0.034 H 
ENDROOT
BRANCH   1   4
ATOM      4  C   LIG d   1       5.234  -0.529  -6.676  0.00  0.00     0.107 A 
ATOM      5  N   LIG d   1       5.047   0.149  -5.581  0.00  0.00    -0.245 NA
ATOM      6  C   LIG d   1       4.746  -0.470  -4.423  0.00  0.00     0.088 A 
ATOM      7  C   LIG d   1       4.625  -1.871  -4.371  0.00  0.00     0.070 A 
ATOM      8  C   LIG d   1       4.547   0.282  -3.255  0.00  0.00    -0.034 A 
ATOM      9  N   LIG d   1       4.818  -2.623  -5.513  0.00  0.00    -0.308 N 
ATOM     10  C   LIG d   1       4.314  -2.491  -3.165  0.00  0.00    -0.036 A 
ATOM     11  C   LIG d   1       5.126  -1.992  -6.667  0.00  0.00     0.273 A 
ATOM     12  O   LIG d   1       5.306  -2.631  -7.689  0.00  0.00    -0.266 OA
ATOM     13  C   LIG d   1       4.125  -1.731  -2.032  0.00  0.00    -0.060 A 
ATOM     14  H   LIG d   1       4.219  -3.566  -3.117  0.00  0.00     0.064 H 
ATOM     15  C   LIG d   1       4.242  -0.348  -2.083  0.00  0.00    -0.060 A 
ATOM     16  H   LIG d   1       3.882  -2.213  -1.097  0.00  0.00     0.062 H 
ATOM     17  H   LIG d   1       4.091   0.236  -1.187  0.00  0.00     0.062 H 
ATOM     18  H   LIG d   1       4.636   1.358  -3.283  0.00  0.00     0.064 H 
BRANCH   9  19
ATOM     19  C   LIG d   1       4.695  -4.082  -5.472  0.00  0.00     0.015 C 
ATOM     20  H   LIG d   1       4.701  -4.477  -6.488  0.00  0.00     0.046 H 
ATOM     21  H   LIG d   1       5.534  -4.501  -4.915  0.00  0.00     0.046 H 
ATOM     22  H   LIG d   1       3.761  -4.355  -4.981  0.00  0.00     0.046 H 
ENDBRANCH   9  19
ENDBRANCH   1   4
BRANCH   1  23
ATOM     23  C   LIG d   1       4.374   1.039  -8.393  0.00  0.00     0.030 C 
ATOM     24  H   LIG d   1       3.987   1.589  -7.536  0.00  0.00     0.036 H 
ATOM     25  H   LIG d   1       4.688   1.742  -9.164  0.00  0.00     0.036 H 
BRANCH  23  26
ATOM     26  C   LIG d   1       3.294   0.141  -8.942  0.00  0.00     0.218 C 
ATOM     27  O   LIG d   1       2.240   0.032  -8.354  0.00  0.00    -0.276 OA
ATOM     28  N   LIG d   1       3.502  -0.540 -10.087  0.00  0.00    -0.285 N 
ATOM     29  H   LIG d   1       4.319  -0.402 -10.592  0.00  0.00     0.155 HD
BRANCH  28  30
ATOM     30  C   LIG d   1       2.540  -1.448 -10.545  0.00  0.00     0.035 A 
ATOM     31  C   LIG d   1       2.426  -2.689  -9.944  0.00  0.00    -0.017 A 
ATOM     32  C   LIG d   1       1.467  -3.588 -10.397  0.00  0.00     0.048 A 
ATOM     33  H   LIG d   1       3.076  -2.956  -9.124  0.00  0.00     0.066 H 
ATOM     34  C   LIG d   1       0.632  -3.226 -11.469  0.00  0.00    -0.000 A 
ATOM     35  N   LIG d   1       1.110  -4.863 -10.016  0.00  0.00    -0.361 N 
ATOM     36  C   LIG d   1       0.766  -1.971 -12.067  0.00  0.00    -0.051 A 
ATOM     37  C   LIG d   1      -0.249  -4.375 -11.703  0.00  0.00    -0.037 A 
ATOM     38  C   LIG d   1       1.709  -1.097 -11.608  0.00  0.00    -0.040 A 
ATOM     39  H   LIG d   1       0.125  -1.692 -12.890  0.00  0.00     0.062 H 
ATOM     40  H   LIG d   1       1.811  -0.126 -12.070  0.00  0.00     0.064 H 
ATOM     41  C   LIG d   1       0.087  -5.315 -10.806  0.00  0.00     0.003 A 
ATOM     42  H   LIG d   1      -1.021  -4.449 -12.455  0.00  0.00     0.064 H 
ATOM     43  H   LIG d   1      -0.382  -6.284 -10.720  0.00  0.00     0.081 H 
ATOM     44  H   LIG d   1       1.522  -5.366  -9.297  0.00  0.00     0.165 HD
ENDBRANCH  28  30
ENDBRANCH  23  26
ENDBRANCH   1  23
TORSDOF 5
ENDMDL
MODEL 8
REMARK VINA RESULT:      -7.0      7.509     12.406
REMARK  5 active torsions:
REMARK  status: ('A' for Active; 'I' for Inactive)
REMARK    1  A    between atoms: C_1  and  N_2 
REMARK    2  A    between atoms: C_10  and  C_13 
REMARK    3  A    between atoms: C_13  and  C_14 
REMARK    4  A    between atoms: C_14  and  C_15 
REMARK       I    between atoms: C_15  and  N_17 
REMARK    5  A    between atoms: N_17  and  C_18 
ROOT
ATOM      1  C   LIG d   1       5.177  -3.586  -6.999  0.00  0.00     0.003 C 
ATOM      2  H   LIG d   1       5.365  -3.214  -8.006  0.00  0.00     0.034 H 
ATOM      3  H   LIG d   1       6.098  -3.996  -6.585  0.00  0.00     0.034 H 
ENDROOT
BRANCH   1   4
ATOM      4  C   LIG d   1       4.696  -2.453  -6.128  0.00  0.00     0.107 A 
ATOM      5  N   LIG d   1       4.912  -2.483  -4.845  0.00  0.00    -0.245 NA
ATOM      6  C   LIG d   1       4.492  -1.484  -4.045  0.00  0.00     0.088 A 
ATOM      7  C   LIG d   1       3.808  -0.378  -4.583  0.00  0.00     0.070 A 
ATOM      8  C   LIG d   1       4.737  -1.538  -2.665  0.00  0.00    -0.034 A 
ATOM      9  N   LIG d   1       3.560  -0.311  -5.939  0.00  0.00    -0.308 N 
ATOM     10  C   LIG d   1       3.383   0.645  -3.739  0.00  0.00    -0.036 A 
ATOM     11  C   LIG d   1       3.980  -1.323  -6.730  0.00  0.00     0.273 A 
ATOM     12  O   LIG d   1       3.771  -1.293  -7.930  0.00  0.00    -0.266 OA
ATOM     13  C   LIG d   1       3.635   0.568  -2.388  0.00  0.00    -0.060 A 
ATOM     14  H   LIG d   1       2.858   1.497  -4.144  0.00  0.00     0.064 H 
ATOM     15  C   LIG d   1       4.311  -0.524  -1.857  0.00  0.00    -0.060 A 
ATOM     16  H   LIG d   1       3.305   1.362  -1.734  0.00  0.00     0.062 H 
ATOM     17  H   LIG d   1       4.502  -0.570  -0.795  0.00  0.00     0.062 H 
ATOM     18  H   LIG d   1       5.262  -2.381  -2.241  0.00  0.00     0.064 H 
BRANCH   9  19
ATOM     19  C   LIG d   1       2.849   0.835  -6.510  0.00  0.00     0.015 C 
ATOM     20  H   LIG d   1       1.915   0.497  -6.959  0.00  0.00     0.046 H 
ATOM     21  H   LIG d   1       2.633   1.557  -5.722  0.00  0.00     0.046 H 
ATOM     22  H   LIG d   1       3.470   1.304  -7.273  0.00  0.00     0.046 H 
ENDBRANCH   9  19
ENDBRANCH   1   4
BRANCH   1  23
ATOM     23  C   LIG d   1       4.108  -4.679  -7.050  0.00  0.00     0.030 C 
ATOM     24  H   LIG d   1       3.139  -4.251  -6.792  0.00  0.00     0.036 H 
ATOM     25  H   LIG d   1       4.064  -5.097  -8.054  0.00  0.00     0.036 H 
BRANCH  23  26
ATOM     26  C   LIG d   1       4.454  -5.766  -6.066  0.00  0.00     0.218 C 
ATOM     27  O   LIG d   1       4.015  -5.724  -4.936  0.00  0.00    -0.276 OA
ATOM     28  N   LIG d   1       5.252  -6.786  -6.442  0.00  0.00    -0.285 N 
ATOM     29  H   LIG d   1       5.548  -6.856  -7.363  0.00  0.00     0.155 HD
BRANCH  28  30
ATOM     30  C   LIG d   1       5.652  -7.744  -5.503  0.00  0.00     0.035 A 
ATOM     31  C   LIG d   1       4.750  -8.696  -5.066  0.00  0.00    -0.017 A 
ATOM     32  C   LIG d   1       5.149  -9.650  -4.136  0.00  0.00     0.048 A 
ATOM     33  H   LIG d   1       3.740  -8.702  -5.448  0.00  0.00     0.066 H 
ATOM     34  C   LIG d   1       6.467  -9.625  -3.644  0.00  0.00    -0.000 A 
ATOM     35  N   LIG d   1       4.507 -10.703  -3.524  0.00  0.00    -0.361 N 
ATOM     36  C   LIG d   1       7.362  -8.651  -4.093  0.00  0.00    -0.051 A 
ATOM     37  C   LIG d   1       6.566 -10.737  -2.695  0.00  0.00    -0.037 A 
ATOM     38  C   LIG d   1       6.956  -7.725  -5.010  0.00  0.00    -0.040 A 
ATOM     39  H   LIG d   1       8.374  -8.632  -3.715  0.00  0.00     0.062 H 
ATOM     40  H   LIG d   1       7.650  -6.974  -5.356  0.00  0.00     0.064 H 
ATOM     41  C   LIG d   1       5.367 -11.339  -2.669  0.00  0.00     0.003 A 
ATOM     42  H   LIG d   1       7.439 -11.019  -2.124  0.00  0.00     0.064 H 
ATOM     43  H   LIG d   1       5.118 -12.198  -2.063  0.00  0.00     0.081 H 
ATOM     44  H   LIG d   1       3.583 -10.957  -3.676  0.00  0.00     0.165 HD
ENDBRANCH  28  30
ENDBRANCH  23  26
ENDBRANCH   1  23
TORSDOF 5
ENDMDL
MODEL 9
REMARK VINA RESULT:      -6.8      6.169     10.174
REMARK  5 active torsions:
REMARK  status: ('A' for Active; 'I' for Inactive)
REMARK    1  A    between atoms: C_1  and  N_2 
REMARK    2  A    between atoms: C_10  and  C_13 
REMARK    3  A    between atoms: C_13  and  C_14 
REMARK    4  A    between atoms: C_14  and  C_15 
REMARK       I    between atoms: C_15  and  N_17 
REMARK    5  A    between atoms: N_17  and  C_18 
ROOT
ATOM      1  C   LIG d   1       7.233   0.002  -7.367  0.00  0.00     0.003 C 
ATOM      2  H   LIG d   1       8.287   0.169  -7.140  0.00  0.00     0.034 H 
ATOM      3  H   LIG d   1       7.142  -0.784  -8.116  0.00  0.00     0.034 H 
ENDROOT
BRANCH   1   4
ATOM      4  C   LIG d   1       6.511  -0.416  -6.111  0.00  0.00     0.107 A 
ATOM      5  N   LIG d   1       6.316   0.449  -5.157  0.00  0.00    -0.245 NA
ATOM      6  C   LIG d   1       5.674   0.101  -4.025  0.00  0.00     0.088 A 
ATOM      7  C   LIG d   1       5.194  -1.210  -3.848  0.00  0.00     0.070 A 
ATOM      8  C   LIG d   1       5.474   1.050  -3.010  0.00  0.00    -0.034 A 
ATOM      9  N   LIG d   1       5.383  -2.153  -4.838  0.00  0.00    -0.308 N 
ATOM     10  C   LIG d   1       4.533  -1.549  -2.671  0.00  0.00    -0.036 A 
ATOM     11  C   LIG d   1       6.035  -1.796  -5.967  0.00  0.00     0.273 A 
ATOM     12  O   LIG d   1       6.220  -2.608  -6.855  0.00  0.00    -0.266 OA
ATOM     13  C   LIG d   1       4.351  -0.600  -1.690  0.00  0.00    -0.060 A 
ATOM     14  H   LIG d   1       4.161  -2.552  -2.528  0.00  0.00     0.064 H 
ATOM     15  C   LIG d   1       4.823   0.695  -1.865  0.00  0.00    -0.060 A 
ATOM     16  H   LIG d   1       3.837  -0.863  -0.778  0.00  0.00     0.062 H 
ATOM     17  H   LIG d   1       4.672   1.429  -1.087  0.00  0.00     0.062 H 
ATOM     18  H   LIG d   1       5.837   2.059  -3.135  0.00  0.00     0.064 H 
BRANCH   9  19
ATOM     19  C   LIG d   1       4.888  -3.521  -4.666  0.00  0.00     0.015 C 
ATOM     20  H   LIG d   1       4.981  -4.063  -5.608  0.00  0.00     0.046 H 
ATOM     21  H   LIG d   1       5.476  -4.025  -3.899  0.00  0.00     0.046 H 
ATOM     22  H   LIG d   1       3.841  -3.494  -4.365  0.00  0.00     0.046 H 
ENDBRANCH   9  19
ENDBRANCH   1   4
BRANCH   1  23
ATOM     23  C   LIG d   1       6.616   1.295  -7.903  0.00  0.00     0.030 C 
ATOM     24  H   LIG d   1       6.257   1.898  -7.071  0.00  0.00     0.036 H 
ATOM     25  H   LIG d   1       7.369   1.853  -8.459  0.00  0.00     0.036 H 
BRANCH  23  26
ATOM     26  C   LIG d   1       5.464   0.960  -8.815  0.00  0.00     0.218 C 
ATOM     27  O   LIG d   1       4.933   1.834  -9.467  0.00  0.00    -0.276 OA
ATOM     28  N   LIG d   1       5.023  -0.311  -8.906  0.00  0.00    -0.285 N 
ATOM     29  H   LIG d   1       5.490  -1.020  -8.437  0.00  0.00     0.155 HD
BRANCH  28  30
ATOM     30  C   LIG d   1       3.893  -0.606  -9.677  0.00  0.00     0.035 A 
ATOM     31  C   LIG d   1       4.045  -1.148 -10.940  0.00  0.00    -0.017 A 
ATOM     32  C   LIG d   1       2.922  -1.445 -11.703  0.00  0.00     0.048 A 
ATOM     33  H   LIG d   1       5.033  -1.344 -11.331  0.00  0.00     0.066 H 
ATOM     34  C   LIG d   1       1.643  -1.179 -11.182  0.00  0.00    -0.000 A 
ATOM     35  N   LIG d   1       2.745  -1.981 -12.960  0.00  0.00    -0.361 N 
ATOM     36  C   LIG d   1       1.509  -0.626  -9.907  0.00  0.00    -0.051 A 
ATOM     37  C   LIG d   1       0.690  -1.593 -12.216  0.00  0.00    -0.037 A 
ATOM     38  C   LIG d   1       2.621  -0.345  -9.167  0.00  0.00    -0.040 A 
ATOM     39  H   LIG d   1       0.527  -0.422  -9.506  0.00  0.00     0.062 H 
ATOM     40  H   LIG d   1       2.516   0.082  -8.181  0.00  0.00     0.064 H 
ATOM     41  C   LIG d   1       1.409  -2.061 -13.248  0.00  0.00     0.003 A 
ATOM     42  H   LIG d   1      -0.387  -1.533 -12.158  0.00  0.00     0.064 H 
ATOM     43  H   LIG d   1       0.995  -2.444 -14.169  0.00  0.00     0.081 H 
ATOM     44  H   LIG d   1       3.461  -2.259 -13.553  0.00  0.00     0.165 HD
ENDBRANCH  28  30
ENDBRANCH  23  26
ENDBRANCH   1  23
TORSDOF 5
ENDMDL
