MODEL 1
REMARK VINA RESULT:      -5.5      0.000      0.000
REMARK  2 active torsions:
REMARK  status: ('A' for Active; 'I' for Inactive)
REMARK    1  A    between atoms: C_2  and  C_11 
REMARK    2  A    between atoms: C_4  and  C_9 
ROOT
ATOM      1  C   LIG d   1       2.345   0.390  -4.779  0.00  0.00     0.057 C 
ATOM      2  C   LIG d   1       3.079  -0.040  -3.486  0.00  0.00     0.051 C 
ATOM      3  H   LIG d   1       2.409  -0.597  -2.830  0.00  0.00     0.041 H 
ATOM      4  C   LIG d   1       4.206  -0.953  -4.013  0.00  0.00     0.150 C 
ATOM      5  H   LIG d   1       5.178  -0.530  -3.759  0.00  0.00     0.080 H 
ATOM      6  O   LIG d   1       4.049  -1.008  -5.460  0.00  0.00    -0.455 OA
ATOM      7  C   LIG d   1       3.336   0.054  -5.877  0.00  0.00     0.308 C 
ATOM      8  O   LIG d   1       3.463   0.634  -6.930  0.00  0.00    -0.251 OA
ATOM      9  H   LIG d   1       2.137   1.459  -4.762  0.00  0.00     0.038 H 
ATOM     10  H   LIG d   1       1.424  -0.180  -4.905  0.00  0.00     0.038 H 
ENDROOT
BRANCH   2  11
ATOM     11  C   LIG d   1       3.652   1.157  -2.774  0.00  0.00     0.049 C 
ATOM     12  O   LIG d   1       3.647   2.239  -3.312  0.00  0.00    -0.549 OA
ATOM     13  O   LIG d   1       4.168   1.022  -1.542  0.00  0.00    -0.549 OA
ENDBRANCH   2  11
BRANCH   4  14
ATOM     14  C   LIG d   1       4.072  -2.334  -3.426  0.00  0.00     0.083 C 
ATOM     15  O   LIG d   1       3.622  -2.476  -2.314  0.00  0.00    -0.546 OA
ATOM     16  O   LIG d   1       4.453  -3.406  -4.139  0.00  0.00    -0.546 OA
ENDBRANCH   4  14
TORSDOF 2
ENDMDL
MODEL 2
REMARK VINA RESULT:      -5.2      1.744      3.483
REMARK  2 active torsions:
REMARK  status: ('A' for Active; 'I' for Inactive)
REMARK    1  A    between atoms: C_2  and  C_11 
REMARK    2  A    between atoms: C_4  and  C_9 
ROOT
ATOM      1  C   LIG d   1       3.091  -1.384  -2.884  0.00  0.00     0.057 C 
ATOM      2  C   LIG d   1       3.367   0.068  -3.343  0.00  0.00     0.051 C 
ATOM      3  H   LIG d   1       3.174   0.771  -2.532  0.00  0.00     0.041 H 
ATOM      4  C   LIG d   1       4.868   0.042  -3.697  0.00  0.00     0.150 C 
ATOM      5  H   LIG d   1       5.007   0.274  -4.753  0.00  0.00     0.080 H 
ATOM      6  O   LIG d   1       5.334  -1.309  -3.418  0.00  0.00    -0.455 OA
ATOM      7  C   LIG d   1       4.288  -2.155  -3.411  0.00  0.00     0.308 C 
ATOM      8  O   LIG d   1       4.298  -3.312  -3.759  0.00  0.00    -0.251 OA
ATOM      9  H   LIG d   1       2.169  -1.757  -3.328  0.00  0.00     0.038 H 
ATOM     10  H   LIG d   1       3.045  -1.441  -1.797  0.00  0.00     0.038 H 
ENDROOT
BRANCH   2  11
ATOM     11  C   LIG d   1       2.540   0.411  -4.555  0.00  0.00     0.049 C 
ATOM     12  O   LIG d   1       2.966   1.185  -5.378  0.00  0.00    -0.549 OA
ATOM     13  O   LIG d   1       1.328  -0.144  -4.719  0.00  0.00    -0.549 OA
ENDBRANCH   2  11
BRANCH   4  14
ATOM     14  C   LIG d   1       5.618   1.033  -2.845  0.00  0.00     0.083 C 
ATOM     15  O   LIG d   1       5.173   1.367  -1.773  0.00  0.00    -0.546 OA
ATOM     16  O   LIG d   1       6.782   1.544  -3.278  0.00  0.00    -0.546 OA
ENDBRANCH   4  14
TORSDOF 2
ENDMDL
MODEL 3
REMARK VINA RESULT:      -5.0      1.339      1.763
REMARK  2 active torsions:
REMARK  status: ('A' for Active; 'I' for Inactive)
REMARK    1  A    between atoms: C_2  and  C_11 
REMARK    2  A    between atoms: C_4  and  C_9 
ROOT
ATOM      1  C   LIG d   1       2.945   0.124  -3.349  0.00  0.00     0.057 C 
ATOM      2  C   LIG d   1       4.317  -0.367  -2.829  0.00  0.00     0.051 C 
ATOM      3  H   LIG d   1       4.188  -1.162  -2.095  0.00  0.00     0.041 H 
ATOM      4  C   LIG d   1       4.999  -0.907  -4.104  0.00  0.00     0.150 C 
ATOM      5  H   LIG d   1       5.907  -0.340  -4.310  0.00  0.00     0.080 H 
ATOM      6  O   LIG d   1       4.043  -0.732  -5.188  0.00  0.00    -0.455 OA
ATOM      7  C   LIG d   1       3.146   0.212  -4.851  0.00  0.00     0.308 C 
ATOM      8  O   LIG d   1       2.602   0.986  -5.603  0.00  0.00    -0.251 OA
ATOM      9  H   LIG d   1       2.707   1.104  -2.936  0.00  0.00     0.038 H 
ATOM     10  H   LIG d   1       2.163  -0.596  -3.108  0.00  0.00     0.038 H 
ENDROOT
BRANCH   2  11
ATOM     11  C   LIG d   1       5.107   0.776  -2.246  0.00  0.00     0.049 C 
ATOM     12  O   LIG d   1       4.803   1.232  -1.169  0.00  0.00    -0.549 OA
ATOM     13  O   LIG d   1       6.146   1.288  -2.923  0.00  0.00    -0.549 OA
ENDBRANCH   2  11
BRANCH   4  14
ATOM     14  C   LIG d   1       5.327  -2.368  -3.935  0.00  0.00     0.083 C 
ATOM     15  O   LIG d   1       6.479  -2.732  -3.931  0.00  0.00    -0.546 OA
ATOM     16  O   LIG d   1       4.339  -3.265  -3.790  0.00  0.00    -0.546 OA
ENDBRANCH   4  14
TORSDOF 2
ENDMDL
MODEL 4
REMARK VINA RESULT:      -5.0      0.848      3.461
REMARK  2 active torsions:
REMARK  status: ('A' for Active; 'I' for Inactive)
REMARK    1  A    between atoms: C_2  and  C_11 
REMARK    2  A    between atoms: C_4  and  C_9 
ROOT
ATOM      1  C   LIG d   1       4.641  -0.649  -5.678  0.00  0.00     0.057 C 
ATOM      2  C   LIG d   1       4.426  -0.733  -4.148  0.00  0.00     0.051 C 
ATOM      3  H   LIG d   1       5.306  -0.370  -3.615  0.00  0.00     0.041 H 
ATOM      4  C   LIG d   1       3.223   0.205  -3.914  0.00  0.00     0.150 C 
ATOM      5  H   LIG d   1       2.386  -0.358  -3.500  0.00  0.00     0.080 H 
ATOM      6  O   LIG d   1       2.864   0.747  -5.217  0.00  0.00    -0.455 OA
ATOM      7  C   LIG d   1       3.341  -0.054  -6.187  0.00  0.00     0.308 C 
ATOM      8  O   LIG d   1       2.829  -0.262  -7.261  0.00  0.00    -0.251 OA
ATOM      9  H   LIG d   1       4.798  -1.643  -6.097  0.00  0.00     0.038 H 
ATOM     10  H   LIG d   1       5.481   0.005  -5.913  0.00  0.00     0.038 H 
ENDROOT
BRANCH   2  11
ATOM     11  C   LIG d   1       4.092  -2.142  -3.732  0.00  0.00     0.049 C 
ATOM     12  O   LIG d   1       3.609  -2.352  -2.644  0.00  0.00    -0.549 OA
ATOM     13  O   LIG d   1       4.332  -3.163  -4.569  0.00  0.00    -0.549 OA
ENDBRANCH   2  11
BRANCH   4  14
ATOM     14  C   LIG d   1       3.611   1.321  -2.978  0.00  0.00     0.083 C 
ATOM     15  O   LIG d   1       3.651   2.460  -3.380  0.00  0.00    -0.546 OA
ATOM     16  O   LIG d   1       3.910   1.049  -1.698  0.00  0.00    -0.546 OA
ENDBRANCH   4  14
TORSDOF 2
ENDMDL
MODEL 5
REMARK VINA RESULT:      -4.9      2.245      3.614
REMARK  2 active torsions:
REMARK  status: ('A' for Active; 'I' for Inactive)
REMARK    1  A    between atoms: C_2  and  C_11 
REMARK    2  A    between atoms: C_4  and  C_9 
ROOT
ATOM      1  C   LIG d   1       4.604  -1.185  -2.077  0.00  0.00     0.057 C 
ATOM      2  C   LIG d   1       4.975   0.213  -2.628  0.00  0.00     0.051 C 
ATOM      3  H   LIG d   1       5.644   0.733  -1.941  0.00  0.00     0.041 H 
ATOM      4  C   LIG d   1       5.700  -0.116  -3.950  0.00  0.00     0.150 C 
ATOM      5  H   LIG d   1       5.155   0.313  -4.791  0.00  0.00     0.080 H 
ATOM      6  O   LIG d   1       5.723  -1.568  -4.057  0.00  0.00    -0.455 OA
ATOM      7  C   LIG d   1       4.756  -2.093  -3.283  0.00  0.00     0.308 C 
ATOM      8  O   LIG d   1       4.126  -3.099  -3.506  0.00  0.00    -0.251 OA
ATOM      9  H   LIG d   1       3.576  -1.193  -1.717  0.00  0.00     0.038 H 
ATOM     10  H   LIG d   1       5.292  -1.480  -1.284  0.00  0.00     0.038 H 
ENDROOT
BRANCH   2  11
ATOM     11  C   LIG d   1       3.736   1.030  -2.889  0.00  0.00     0.049 C 
ATOM     12  O   LIG d   1       3.186   1.600  -1.976  0.00  0.00    -0.549 OA
ATOM     13  O   LIG d   1       3.244   1.123  -4.134  0.00  0.00    -0.549 OA
ENDBRANCH   2  11
BRANCH   4  14
ATOM     14  C   LIG d   1       7.108   0.422  -3.916  0.00  0.00     0.083 C 
ATOM     15  O   LIG d   1       8.015  -0.232  -4.372  0.00  0.00    -0.546 OA
ATOM     16  O   LIG d   1       7.351   1.629  -3.381  0.00  0.00    -0.546 OA
ENDBRANCH   4  14
TORSDOF 2
ENDMDL
MODEL 6
REMARK VINA RESULT:      -4.9      1.185      3.924
REMARK  2 active torsions:
REMARK  status: ('A' for Active; 'I' for Inactive)
REMARK    1  A    between atoms: C_2  and  C_11 
REMARK    2  A    between atoms: C_4  and  C_9 
ROOT
ATOM      1  C   LIG d   1       3.436  -0.703  -2.416  0.00  0.00     0.057 C 
ATOM      2  C   LIG d   1       3.681  -1.337  -3.806  0.00  0.00     0.051 C 
ATOM      3  H   LIG d   1       2.740  -1.655  -4.256  0.00  0.00     0.041 H 
ATOM      4  C   LIG d   1       4.306  -0.178  -4.611  0.00  0.00     0.150 C 
ATOM      5  H   LIG d   1       5.313  -0.445  -4.931  0.00  0.00     0.080 H 
ATOM      6  O   LIG d   1       4.353   0.968  -3.714  0.00  0.00    -0.455 OA
ATOM      7  C   LIG d   1       4.299   0.545  -2.438  0.00  0.00     0.308 C 
ATOM      8  O   LIG d   1       4.836   1.062  -1.488  0.00  0.00    -0.251 OA
ATOM      9  H   LIG d   1       3.759  -1.379  -1.625  0.00  0.00     0.038 H 
ATOM     10  H   LIG d   1       2.385  -0.442  -2.293  0.00  0.00     0.038 H 
ENDROOT
BRANCH   2  11
ATOM     11  C   LIG d   1       4.642  -2.493  -3.704  0.00  0.00     0.049 C 
ATOM     12  O   LIG d   1       4.236  -3.626  -3.807  0.00  0.00    -0.549 OA
ATOM     13  O   LIG d   1       5.948  -2.263  -3.497  0.00  0.00    -0.549 OA
ENDBRANCH   2  11
BRANCH   4  14
ATOM     14  C   LIG d   1       3.449   0.140  -5.810  0.00  0.00     0.083 C 
ATOM     15  O   LIG d   1       2.693   1.081  -5.780  0.00  0.00    -0.546 OA
ATOM     16  O   LIG d   1       3.529  -0.624  -6.912  0.00  0.00    -0.546 OA
ENDBRANCH   4  14
TORSDOF 2
ENDMDL
MODEL 7
REMARK VINA RESULT:      -4.7      1.817      3.804
REMARK  2 active torsions:
REMARK  status: ('A' for Active; 'I' for Inactive)
REMARK    1  A    between atoms: C_2  and  C_11 
REMARK    2  A    between atoms: C_4  and  C_9 
ROOT
ATOM      1  C   LIG d   1       6.298  -1.794  -4.659  0.00  0.00     0.057 C 
ATOM      2  C   LIG d   1       5.457  -1.432  -3.411  0.00  0.00     0.051 C 
ATOM      3  H   LIG d   1       6.089  -1.372  -2.525  0.00  0.00     0.041 H 
ATOM      4  C   LIG d   1       4.885  -0.044  -3.767  0.00  0.00     0.150 C 
ATOM      5  H   LIG d   1       3.796  -0.086  -3.799  0.00  0.00     0.080 H 
ATOM      6  O   LIG d   1       5.411   0.293  -5.083  0.00  0.00    -0.455 OA
ATOM      7  C   LIG d   1       5.794  -0.830  -5.717  0.00  0.00     0.308 C 
ATOM      8  O   LIG d   1       5.745  -1.033  -6.907  0.00  0.00    -0.251 OA
ATOM      9  H   LIG d   1       6.113  -2.825  -4.959  0.00  0.00     0.038 H 
ATOM     10  H   LIG d   1       7.359  -1.633  -4.467  0.00  0.00     0.038 H 
ENDROOT
BRANCH   2  11
ATOM     11  C   LIG d   1       4.346  -2.430  -3.209  0.00  0.00     0.049 C 
ATOM     12  O   LIG d   1       3.520  -2.247  -2.346  0.00  0.00    -0.549 OA
ATOM     13  O   LIG d   1       4.276  -3.522  -3.986  0.00  0.00    -0.549 OA
ENDBRANCH   2  11
BRANCH   4  14
ATOM     14  C   LIG d   1       5.335   0.977  -2.754  0.00  0.00     0.083 C 
ATOM     15  O   LIG d   1       6.206   1.765  -3.035  0.00  0.00    -0.546 OA
ATOM     16  O   LIG d   1       4.766   1.010  -1.538  0.00  0.00    -0.546 OA
ENDBRANCH   4  14
TORSDOF 2
ENDMDL
MODEL 8
REMARK VINA RESULT:      -4.4      2.378      2.891
REMARK  2 active torsions:
REMARK  status: ('A' for Active; 'I' for Inactive)
REMARK    1  A    between atoms: C_2  and  C_11 
REMARK    2  A    between atoms: C_4  and  C_9 
ROOT
ATOM      1  C   LIG d   1       6.326  -0.175  -4.984  0.00  0.00     0.057 C 
ATOM      2  C   LIG d   1       5.325  -0.161  -3.804  0.00  0.00     0.051 C 
ATOM      3  H   LIG d   1       4.298  -0.142  -4.170  0.00  0.00     0.041 H 
ATOM      4  C   LIG d   1       5.621  -1.492  -3.082  0.00  0.00     0.150 C 
ATOM      5  H   LIG d   1       5.963  -1.297  -2.065  0.00  0.00     0.080 H 
ATOM      6  O   LIG d   1       6.673  -2.150  -3.845  0.00  0.00    -0.455 OA
ATOM      7  C   LIG d   1       7.331  -1.239  -4.584  0.00  0.00     0.308 C 
ATOM      8  O   LIG d   1       8.504  -1.263  -4.875  0.00  0.00    -0.251 OA
ATOM      9  H   LIG d   1       6.813   0.795  -5.083  0.00  0.00     0.038 H 
ATOM     10  H   LIG d   1       5.823  -0.450  -5.911  0.00  0.00     0.038 H 
ENDROOT
BRANCH   2  11
ATOM     11  C   LIG d   1       5.590   1.009  -2.893  0.00  0.00     0.049 C 
ATOM     12  O   LIG d   1       6.361   1.876  -3.232  0.00  0.00    -0.549 OA
ATOM     13  O   LIG d   1       4.969   1.089  -1.706  0.00  0.00    -0.549 OA
ENDBRANCH   2  11
BRANCH   4  14
ATOM     14  C   LIG d   1       4.385  -2.354  -3.057  0.00  0.00     0.083 C 
ATOM     15  O   LIG d   1       3.495  -2.112  -2.276  0.00  0.00    -0.546 OA
ATOM     16  O   LIG d   1       4.273  -3.390  -3.903  0.00  0.00    -0.546 OA
ENDBRANCH   4  14
TORSDOF 2
ENDMDL
MODEL 9
REMARK VINA RESULT:      -4.4      1.882      3.633
REMARK  2 active torsions:
REMARK  status: ('A' for Active; 'I' for Inactive)
REMARK    1  A    between atoms: C_2  and  C_11 
REMARK    2  A    between atoms: C_4  and  C_9 
ROOT
ATOM      1  C   LIG d   1       3.856  -0.869  -5.552  0.00  0.00     0.057 C 
ATOM      2  C   LIG d   1       4.873  -1.355  -4.492  0.00  0.00     0.051 C 
ATOM      3  H   LIG d   1       5.862  -1.478  -4.935  0.00  0.00     0.041 H 
ATOM      4  C   LIG d   1       4.877  -0.207  -3.461  0.00  0.00     0.150 C 
ATOM      5  H   LIG d   1       4.537  -0.574  -2.492  0.00  0.00     0.080 H 
ATOM      6  O   LIG d   1       3.954   0.801  -3.964  0.00  0.00    -0.455 OA
ATOM      7  C   LIG d   1       3.101   0.236  -4.838  0.00  0.00     0.308 C 
ATOM      8  O   LIG d   1       1.948   0.551  -5.019  0.00  0.00    -0.251 OA
ATOM      9  H   LIG d   1       3.180  -1.677  -5.832  0.00  0.00     0.038 H 
ATOM     10  H   LIG d   1       4.372  -0.478  -6.428  0.00  0.00     0.038 H 
ENDROOT
BRANCH   2  11
ATOM     11  C   LIG d   1       4.409  -2.640  -3.857  0.00  0.00     0.049 C 
ATOM     12  O   LIG d   1       3.901  -2.623  -2.760  0.00  0.00    -0.549 OA
ATOM     13  O   LIG d   1       4.560  -3.804  -4.508  0.00  0.00    -0.549 OA
ENDBRANCH   2  11
BRANCH   4  14
ATOM     14  C   LIG d   1       6.262   0.374  -3.339  0.00  0.00     0.083 C 
ATOM     15  O   LIG d   1       7.227  -0.352  -3.363  0.00  0.00    -0.546 OA
ATOM     16  O   LIG d   1       6.422   1.700  -3.204  0.00  0.00    -0.546 OA
ENDBRANCH   4  14
TORSDOF 2
ENDMDL
MODEL 10
REMARK VINA RESULT:      -4.3      9.344     10.944
REMARK  2 active torsions:
REMARK  status: ('A' for Active; 'I' for Inactive)
REMARK    1  A    between atoms: C_2  and  C_11 
REMARK    2  A    between atoms: C_4  and  C_9 
ROOT
ATOM      1  C   LIG d   1       7.263 -10.678  -3.774  0.00  0.00     0.057 C 
ATOM      2  C   LIG d   1       6.223 -10.049  -2.816  0.00  0.00     0.051 C 
ATOM      3  H   LIG d   1       6.111  -8.982  -3.015  0.00  0.00     0.041 H 
ATOM      4  C   LIG d   1       4.925 -10.807  -3.164  0.00  0.00     0.150 C 
ATOM      5  H   LIG d   1       4.568 -11.356  -2.293  0.00  0.00     0.080 H 
ATOM      6  O   LIG d   1       5.265 -11.734  -4.235  0.00  0.00    -0.455 OA
ATOM      7  C   LIG d   1       6.592 -11.959  -4.234  0.00  0.00     0.308 C 
ATOM      8  O   LIG d   1       7.145 -12.988  -4.541  0.00  0.00    -0.251 OA
ATOM      9  H   LIG d   1       8.188 -10.899  -3.242  0.00  0.00     0.038 H 
ATOM     10  H   LIG d   1       7.453 -10.018  -4.620  0.00  0.00     0.038 H 
ENDROOT
BRANCH   2  11
ATOM     11  C   LIG d   1       6.609 -10.286  -1.379  0.00  0.00     0.049 C 
ATOM     12  O   LIG d   1       5.970 -11.056  -0.701  0.00  0.00    -0.549 OA
ATOM     13  O   LIG d   1       7.662  -9.641  -0.852  0.00  0.00    -0.549 OA
ENDBRANCH   2  11
BRANCH   4  14
ATOM     14  C   LIG d   1       3.870  -9.839  -3.635  0.00  0.00     0.083 C 
ATOM     15  O   LIG d   1       2.791  -9.811  -3.092  0.00  0.00    -0.546 OA
ATOM     16  O   LIG d   1       4.131  -9.008  -4.656  0.00  0.00    -0.546 OA
ENDBRANCH   4  14
TORSDOF 2
ENDMDL
