MODEL 1
REMARK VINA RESULT:      -7.2      0.000      0.000
REMARK  6 active torsions:
REMARK  status: ('A' for Active; 'I' for Inactive)
REMARK    1  A    between atoms: C_1  and  N_63 
REMARK    2  A    between atoms: C_2  and  N_63 
REMARK    3  A    between atoms: C_3  and  C_4 
REMARK    4  A    between atoms: C_3  and  N_63 
REMARK       I    between atoms: C_4  and  N_6 
REMARK    5  A    between atoms: N_6  and  C_7 
REMARK       I    between atoms: N_21  and  C_23 
REMARK       I    between atoms: C_23  and  N_25 
REMARK    6  A    between atoms: N_25  and  C_26 
ROOT
ATOM      1  C   LIG d   1       4.314  -1.482  -7.283  0.00  0.00     0.099 C 
ATOM      2  C   LIG d   1       4.667  -2.692  -6.752  0.00  0.00    -0.034 C 
ATOM      3  C   LIG d   1       4.668  -2.845  -5.361  0.00  0.00    -0.040 C 
ATOM      4  C   LIG d   1       4.306  -1.814  -4.553  0.00  0.00     0.027 C 
ATOM      5  N   LIG d   1       3.868  -0.645  -5.078  0.00  0.00    -0.310 N 
ATOM      6  C   LIG d   1       3.944  -0.437  -6.417  0.00  0.00     0.273 C 
ATOM      7  O   LIG d   1       3.683   0.665  -6.873  0.00  0.00    -0.266 OA
ATOM      8  C   LIG d   1       3.277   0.422  -4.271  0.00  0.00     0.031 C 
ATOM      9  C   LIG d   1       3.675   0.328  -2.809  0.00  0.00    -0.006 C 
ATOM     10  H   LIG d   1       3.012   0.974  -2.234  0.00  0.00     0.033 H 
ATOM     11  C   LIG d   1       3.490  -1.106  -2.312  0.00  0.00    -0.037 C 
ATOM     12  C   LIG d   1       4.471  -2.010  -3.062  0.00  0.00     0.016 C 
ATOM     13  H   LIG d   1       4.296  -3.053  -2.800  0.00  0.00     0.038 H 
ATOM     14  C   LIG d   1       5.902  -1.585  -2.692  0.00  0.00     0.024 C 
ATOM     15  N   LIG d   1       6.059  -0.177  -3.089  0.00  0.00    -0.285 N 
ATOM     16  C   LIG d   1       5.101   0.809  -2.575  0.00  0.00     0.021 C 
ATOM     17  C   LIG d   1       7.062   0.199  -3.909  0.00  0.00     0.302 C 
ATOM     18  O   LIG d   1       7.791  -0.639  -4.401  0.00  0.00    -0.253 OA
ATOM     19  N   LIG d   1       7.254   1.504  -4.182  0.00  0.00    -0.296 N 
ATOM     20  H   LIG d   1       4.943  -3.515  -7.395  0.00  0.00     0.064 H 
ATOM     21  H   LIG d   1       4.958  -3.790  -4.926  0.00  0.00     0.064 H 
ATOM     22  H   LIG d   1       3.603   1.385  -4.665  0.00  0.00     0.050 H 
ATOM     23  H   LIG d   1       2.191   0.362  -4.346  0.00  0.00     0.050 H 
ATOM     24  H   LIG d   1       3.695  -1.152  -1.242  0.00  0.00     0.028 H 
ATOM     25  H   LIG d   1       2.468  -1.431  -2.503  0.00  0.00     0.028 H 
ATOM     26  H   LIG d   1       6.051  -1.685  -1.616  0.00  0.00     0.047 H 
ATOM     27  H   LIG d   1       6.623  -2.204  -3.225  0.00  0.00     0.047 H 
ATOM     28  H   LIG d   1       5.250   1.759  -3.087  0.00  0.00     0.047 H 
ATOM     29  H   LIG d   1       5.264   0.948  -1.507  0.00  0.00     0.047 H 
ATOM     30  H   LIG d   1       6.629   2.167  -3.849  0.00  0.00     0.150 HD
ENDROOT
BRANCH  19  31
ATOM     31  C   LIG d   1       8.407   1.922  -4.984  0.00  0.00     0.025 C 
ATOM     32  C   LIG d   1       8.043   1.861  -6.470  0.00  0.00    -0.035 C 
ATOM     33  C   LIG d   1       9.247   2.298  -7.307  0.00  0.00    -0.051 C 
ATOM     34  H   LIG d   1       7.767   0.840  -6.734  0.00  0.00     0.028 H 
ATOM     35  H   LIG d   1       7.203   2.527  -6.666  0.00  0.00     0.028 H 
ATOM     36  C   LIG d   1       9.633   3.730  -6.935  0.00  0.00    -0.053 C 
ATOM     37  H   LIG d   1      10.087   1.632  -7.111  0.00  0.00     0.027 H 
ATOM     38  H   LIG d   1       8.988   2.254  -8.365  0.00  0.00     0.027 H 
ATOM     39  C   LIG d   1       9.997   3.792  -5.451  0.00  0.00    -0.051 C 
ATOM     40  H   LIG d   1      10.491   4.042  -7.533  0.00  0.00     0.026 H 
ATOM     41  H   LIG d   1       8.793   4.397  -7.132  0.00  0.00     0.026 H 
ATOM     42  C   LIG d   1       8.793   3.356  -4.613  0.00  0.00    -0.035 C 
ATOM     43  H   LIG d   1      10.837   3.126  -5.254  0.00  0.00     0.027 H 
ATOM     44  H   LIG d   1      10.272   4.813  -5.186  0.00  0.00     0.027 H 
ATOM     45  H   LIG d   1       7.952   4.021  -4.809  0.00  0.00     0.028 H 
ATOM     46  H   LIG d   1       9.052   3.400  -3.555  0.00  0.00     0.028 H 
ATOM     47  H   LIG d   1       9.247   1.257  -4.788  0.00  0.00     0.050 H 
ENDBRANCH  19  31
BRANCH   1  48
ATOM     48  N   LIG d   1       4.326  -1.284  -8.671  0.00  0.00    -0.277 N 
ATOM     49  C   LIG d   1       5.428  -0.797  -9.274  0.00  0.00     0.263 C 
ATOM     50  O   LIG d   1       6.380  -0.449  -8.606  0.00  0.00    -0.270 OA
ATOM     51  H   LIG d   1       3.539  -1.498  -9.198  0.00  0.00     0.155 HD
BRANCH  49  52
ATOM     52  C   LIG d   1       5.480  -0.686 -10.776  0.00  0.00     0.046 C 
ATOM     53  H   LIG d   1       5.727  -1.658 -11.203  0.00  0.00     0.091 H 
ATOM     54  H   LIG d   1       6.242   0.040 -11.061  0.00  0.00     0.091 H 
BRANCH  52  55
ATOM     55  N   LIG d   1       4.152  -0.263 -11.269  0.00  0.00     0.237 N 
ATOM     56  H   LIG d   1       3.430  -0.835 -10.815  0.00  0.00     0.203 HD
BRANCH  55  57
ATOM     57  C   LIG d   1       4.070  -0.461 -12.731  0.00  0.00    -0.043 C 
ATOM     58  H   LIG d   1       4.896   0.068 -13.206  0.00  0.00     0.078 H 
ATOM     59  H   LIG d   1       3.125  -0.080 -13.116  0.00  0.00     0.078 H 
ATOM     60  H   LIG d   1       4.149  -1.527 -12.950  0.00  0.00     0.078 H 
ENDBRANCH  55  57
BRANCH  55  61
ATOM     61  C   LIG d   1       3.918   1.157 -10.937  0.00  0.00    -0.043 C 
ATOM     62  H   LIG d   1       3.214   1.215 -10.108  0.00  0.00     0.078 H 
ATOM     63  H   LIG d   1       4.863   1.613 -10.643  0.00  0.00     0.078 H 
ATOM     64  H   LIG d   1       3.511   1.689 -11.797  0.00  0.00     0.078 H 
ENDBRANCH  55  61
ENDBRANCH  52  55
ENDBRANCH  49  52
ENDBRANCH   1  48
TORSDOF 6
ENDMDL
MODEL 2
REMARK VINA RESULT:      -7.2      1.912      5.371
REMARK  6 active torsions:
REMARK  status: ('A' for Active; 'I' for Inactive)
REMARK    1  A    between atoms: C_1  and  N_63 
REMARK    2  A    between atoms: C_2  and  N_63 
REMARK    3  A    between atoms: C_3  and  C_4 
REMARK    4  A    between atoms: C_3  and  N_63 
REMARK       I    between atoms: C_4  and  N_6 
REMARK    5  A    between atoms: N_6  and  C_7 
REMARK       I    between atoms: N_21  and  C_23 
REMARK       I    between atoms: C_23  and  N_25 
REMARK    6  A    between atoms: N_25  and  C_26 
ROOT
ATOM      1  C   LIG d   1       7.696   0.871  -4.784  0.00  0.00     0.099 C 
ATOM      2  C   LIG d   1       7.275   1.768  -3.842  0.00  0.00    -0.034 C 
ATOM      3  C   LIG d   1       6.255   1.394  -2.960  0.00  0.00    -0.040 C 
ATOM      4  C   LIG d   1       5.704   0.153  -3.029  0.00  0.00     0.027 C 
ATOM      5  N   LIG d   1       6.182  -0.768  -3.900  0.00  0.00    -0.310 N 
ATOM      6  C   LIG d   1       7.105  -0.406  -4.825  0.00  0.00     0.273 C 
ATOM      7  O   LIG d   1       7.429  -1.195  -5.698  0.00  0.00    -0.266 OA
ATOM      8  C   LIG d   1       5.772  -2.172  -3.882  0.00  0.00     0.031 C 
ATOM      9  C   LIG d   1       4.435  -2.375  -3.193  0.00  0.00    -0.006 C 
ATOM     10  H   LIG d   1       4.317  -3.439  -2.987  0.00  0.00     0.033 H 
ATOM     11  C   LIG d   1       4.420  -1.628  -1.859  0.00  0.00    -0.037 C 
ATOM     12  C   LIG d   1       4.512  -0.127  -2.142  0.00  0.00     0.016 C 
ATOM     13  H   LIG d   1       4.601   0.427  -1.208  0.00  0.00     0.038 H 
ATOM     14  C   LIG d   1       3.249   0.298  -2.911  0.00  0.00     0.024 C 
ATOM     15  N   LIG d   1       3.210  -0.481  -4.158  0.00  0.00    -0.285 N 
ATOM     16  C   LIG d   1       3.269  -1.945  -4.073  0.00  0.00     0.021 C 
ATOM     17  C   LIG d   1       3.125   0.136  -5.354  0.00  0.00     0.302 C 
ATOM     18  O   LIG d   1       3.171   1.349  -5.416  0.00  0.00    -0.253 OA
ATOM     19  N   LIG d   1       2.988  -0.592  -6.479  0.00  0.00    -0.296 N 
ATOM     20  H   LIG d   1       7.721   2.750  -3.779  0.00  0.00     0.064 H 
ATOM     21  H   LIG d   1       5.902   2.096  -2.220  0.00  0.00     0.064 H 
ATOM     22  H   LIG d   1       5.698  -2.531  -4.910  0.00  0.00     0.050 H 
ATOM     23  H   LIG d   1       6.530  -2.755  -3.361  0.00  0.00     0.050 H 
ATOM     24  H   LIG d   1       3.493  -1.845  -1.328  0.00  0.00     0.028 H 
ATOM     25  H   LIG d   1       5.271  -1.942  -1.253  0.00  0.00     0.028 H 
ATOM     26  H   LIG d   1       2.362   0.085  -2.313  0.00  0.00     0.047 H 
ATOM     27  H   LIG d   1       3.295   1.363  -3.140  0.00  0.00     0.047 H 
ATOM     28  H   LIG d   1       3.400  -2.361  -5.073  0.00  0.00     0.047 H 
ATOM     29  H   LIG d   1       2.339  -2.320  -3.648  0.00  0.00     0.047 H 
ATOM     30  H   LIG d   1       3.024  -1.560  -6.439  0.00  0.00     0.150 HD
ENDROOT
BRANCH  19  31
ATOM     31  C   LIG d   1       2.786   0.081  -7.765  0.00  0.00     0.025 C 
ATOM     32  C   LIG d   1       4.126   0.612  -8.279  0.00  0.00    -0.035 C 
ATOM     33  C   LIG d   1       3.915   1.313  -9.623  0.00  0.00    -0.051 C 
ATOM     34  H   LIG d   1       4.536   1.321  -7.559  0.00  0.00     0.028 H 
ATOM     35  H   LIG d   1       4.821  -0.218  -8.408  0.00  0.00     0.028 H 
ATOM     36  C   LIG d   1       3.340   0.318 -10.632  0.00  0.00    -0.053 C 
ATOM     37  H   LIG d   1       3.221   2.143  -9.494  0.00  0.00     0.027 H 
ATOM     38  H   LIG d   1       4.869   1.692  -9.988  0.00  0.00     0.027 H 
ATOM     39  C   LIG d   1       2.000  -0.213 -10.119  0.00  0.00    -0.051 C 
ATOM     40  H   LIG d   1       3.190   0.818 -11.590  0.00  0.00     0.026 H 
ATOM     41  H   LIG d   1       4.035  -0.512 -10.761  0.00  0.00     0.026 H 
ATOM     42  C   LIG d   1       2.211  -0.915  -8.776  0.00  0.00    -0.035 C 
ATOM     43  H   LIG d   1       1.306   0.617  -9.991  0.00  0.00     0.027 H 
ATOM     44  H   LIG d   1       1.591  -0.922 -10.839  0.00  0.00     0.027 H 
ATOM     45  H   LIG d   1       2.907  -1.745  -8.904  0.00  0.00     0.028 H 
ATOM     46  H   LIG d   1       1.257  -1.293  -8.410  0.00  0.00     0.028 H 
ATOM     47  H   LIG d   1       2.091   0.911  -7.637  0.00  0.00     0.050 H 
ENDBRANCH  19  31
BRANCH   1  48
ATOM     48  N   LIG d   1       8.699   1.220  -5.700  0.00  0.00    -0.277 N 
ATOM     49  C   LIG d   1       8.367   1.714  -6.909  0.00  0.00     0.263 C 
ATOM     50  O   LIG d   1       7.201   1.777  -7.237  0.00  0.00    -0.270 OA
ATOM     51  H   LIG d   1       9.633   1.104  -5.463  0.00  0.00     0.155 HD
BRANCH  49  52
ATOM     52  C   LIG d   1       9.442   2.190  -7.851  0.00  0.00     0.046 C 
ATOM     53  H   LIG d   1       9.465   1.546  -8.730  0.00  0.00     0.091 H 
ATOM     54  H   LIG d   1      10.409   2.151  -7.348  0.00  0.00     0.091 H 
BRANCH  52  55
ATOM     55  N   LIG d   1       9.132   3.572  -8.270  0.00  0.00     0.237 N 
ATOM     56  H   LIG d   1       8.120   3.727  -8.187  0.00  0.00     0.203 HD
BRANCH  55  57
ATOM     57  C   LIG d   1       9.533   3.775  -9.678  0.00  0.00    -0.043 C 
ATOM     58  H   LIG d   1       8.803   4.421 -10.165  0.00  0.00     0.078 H 
ATOM     59  H   LIG d   1       9.581   2.821 -10.203  0.00  0.00     0.078 H 
ATOM     60  H   LIG d   1      10.514   4.251  -9.702  0.00  0.00     0.078 H 
ENDBRANCH  55  57
BRANCH  55  61
ATOM     61  C   LIG d   1       9.838   4.535  -7.400  0.00  0.00    -0.043 C 
ATOM     62  H   LIG d   1      10.006   5.457  -7.956  0.00  0.00     0.078 H 
ATOM     63  H   LIG d   1       9.218   4.746  -6.528  0.00  0.00     0.078 H 
ATOM     64  H   LIG d   1      10.795   4.127  -7.075  0.00  0.00     0.078 H 
ENDBRANCH  55  61
ENDBRANCH  52  55
ENDBRANCH  49  52
ENDBRANCH   1  48
TORSDOF 6
ENDMDL
MODEL 3
REMARK VINA RESULT:      -6.8      2.513      6.515
REMARK  6 active torsions:
REMARK  status: ('A' for Active; 'I' for Inactive)
REMARK    1  A    between atoms: C_1  and  N_63 
REMARK    2  A    between atoms: C_2  and  N_63 
REMARK    3  A    between atoms: C_3  and  C_4 
REMARK    4  A    between atoms: C_3  and  N_63 
REMARK       I    between atoms: C_4  and  N_6 
REMARK    5  A    between atoms: N_6  and  C_7 
REMARK       I    between atoms: N_21  and  C_23 
REMARK       I    between atoms: C_23  and  N_25 
REMARK    6  A    between atoms: N_25  and  C_26 
ROOT
ATOM      1  C   LIG d   1       8.054  -0.083  -9.001  0.00  0.00     0.099 C 
ATOM      2  C   LIG d   1       7.634  -1.025  -9.900  0.00  0.00    -0.034 C 
ATOM      3  C   LIG d   1       6.362  -0.896 -10.468  0.00  0.00    -0.040 C 
ATOM      4  C   LIG d   1       5.565   0.157 -10.147  0.00  0.00     0.027 C 
ATOM      5  N   LIG d   1       6.014   1.138  -9.328  0.00  0.00    -0.310 N 
ATOM      6  C   LIG d   1       7.204   0.995  -8.692  0.00  0.00     0.273 C 
ATOM      7  O   LIG d   1       7.541   1.810  -7.849  0.00  0.00    -0.266 OA
ATOM      8  C   LIG d   1       5.288   2.388  -9.107  0.00  0.00     0.031 C 
ATOM      9  C   LIG d   1       3.810   2.263  -9.431  0.00  0.00    -0.006 C 
ATOM     10  H   LIG d   1       3.390   3.267  -9.495  0.00  0.00     0.033 H 
ATOM     11  C   LIG d   1       3.633   1.585 -10.790  0.00  0.00    -0.037 C 
ATOM     12  C   LIG d   1       4.153   0.150 -10.689  0.00  0.00     0.016 C 
ATOM     13  H   LIG d   1       4.130  -0.329 -11.667  0.00  0.00     0.038 H 
ATOM     14  C   LIG d   1       3.273  -0.614  -9.685  0.00  0.00     0.024 C 
ATOM     15  N   LIG d   1       3.370   0.084  -8.394  0.00  0.00    -0.285 N 
ATOM     16  C   LIG d   1       3.049   1.516  -8.344  0.00  0.00     0.021 C 
ATOM     17  C   LIG d   1       3.746  -0.576  -7.280  0.00  0.00     0.302 C 
ATOM     18  O   LIG d   1       4.098  -1.737  -7.352  0.00  0.00    -0.253 OA
ATOM     19  N   LIG d   1       3.733   0.051  -6.088  0.00  0.00    -0.296 N 
ATOM     20  H   LIG d   1       8.272  -1.855 -10.165  0.00  0.00     0.064 H 
ATOM     21  H   LIG d   1       6.010  -1.639 -11.168  0.00  0.00     0.064 H 
ATOM     22  H   LIG d   1       5.397   2.680  -8.061  0.00  0.00     0.050 H 
ATOM     23  H   LIG d   1       5.722   3.166  -9.735  0.00  0.00     0.050 H 
ATOM     24  H   LIG d   1       2.576   1.574 -11.058  0.00  0.00     0.028 H 
ATOM     25  H   LIG d   1       4.197   2.130 -11.548  0.00  0.00     0.028 H 
ATOM     26  H   LIG d   1       2.237  -0.617 -10.028  0.00  0.00     0.047 H 
ATOM     27  H   LIG d   1       3.631  -1.638  -9.581  0.00  0.00     0.047 H 
ATOM     28  H   LIG d   1       3.329   1.915  -7.369  0.00  0.00     0.047 H 
ATOM     29  H   LIG d   1       1.979   1.652  -8.494  0.00  0.00     0.047 H 
ATOM     30  H   LIG d   1       3.523   0.997  -6.039  0.00  0.00     0.150 HD
ENDROOT
BRANCH  19  31
ATOM     31  C   LIG d   1       4.037  -0.695  -4.865  0.00  0.00     0.025 C 
ATOM     32  C   LIG d   1       5.309  -0.131  -4.226  0.00  0.00    -0.035 C 
ATOM     33  C   LIG d   1       5.626  -0.910  -2.948  0.00  0.00    -0.051 C 
ATOM     34  H   LIG d   1       6.139  -0.227  -4.926  0.00  0.00     0.028 H 
ATOM     35  H   LIG d   1       5.158   0.920  -3.983  0.00  0.00     0.028 H 
ATOM     36  C   LIG d   1       4.460  -0.777  -1.967  0.00  0.00    -0.053 C 
ATOM     37  H   LIG d   1       5.777  -1.962  -3.192  0.00  0.00     0.027 H 
ATOM     38  H   LIG d   1       6.532  -0.510  -2.494  0.00  0.00     0.027 H 
ATOM     39  C   LIG d   1       3.189  -1.340  -2.605  0.00  0.00    -0.051 C 
ATOM     40  H   LIG d   1       4.687  -1.332  -1.056  0.00  0.00     0.026 H 
ATOM     41  H   LIG d   1       4.309   0.275  -1.723  0.00  0.00     0.026 H 
ATOM     42  C   LIG d   1       2.871  -0.561  -3.882  0.00  0.00    -0.035 C 
ATOM     43  H   LIG d   1       3.340  -2.392  -2.848  0.00  0.00     0.027 H 
ATOM     44  H   LIG d   1       2.359  -1.245  -1.905  0.00  0.00     0.027 H 
ATOM     45  H   LIG d   1       2.721   0.491  -3.639  0.00  0.00     0.028 H 
ATOM     46  H   LIG d   1       1.965  -0.962  -4.337  0.00  0.00     0.028 H 
ATOM     47  H   LIG d   1       4.188  -1.747  -5.108  0.00  0.00     0.050 H 
ENDBRANCH  19  31
BRANCH   1  48
ATOM     48  N   LIG d   1       9.313  -0.193  -8.393  0.00  0.00    -0.277 N 
ATOM     49  C   LIG d   1       9.468  -0.966  -7.300  0.00  0.00     0.263 C 
ATOM     50  O   LIG d   1       8.503  -1.498  -6.792  0.00  0.00    -0.270 OA
ATOM     51  H   LIG d   1      10.072   0.288  -8.759  0.00  0.00     0.155 HD
BRANCH  49  52
ATOM     52  C   LIG d   1      10.840  -1.170  -6.709  0.00  0.00     0.046 C 
ATOM     53  H   LIG d   1      11.543  -0.482  -7.179  0.00  0.00     0.091 H 
ATOM     54  H   LIG d   1      11.162  -2.196  -6.887  0.00  0.00     0.091 H 
BRANCH  52  55
ATOM     55  N   LIG d   1      10.782  -0.888  -5.260  0.00  0.00     0.237 N 
ATOM     56  H   LIG d   1       9.920  -1.292  -4.875  0.00  0.00     0.203 HD
BRANCH  55  57
ATOM     57  C   LIG d   1      10.771   0.572  -5.030  0.00  0.00    -0.043 C 
ATOM     58  H   LIG d   1      10.764   1.082  -5.993  0.00  0.00     0.078 H 
ATOM     59  H   LIG d   1      11.651   0.876  -4.464  0.00  0.00     0.078 H 
ATOM     60  H   LIG d   1       9.872   0.836  -4.472  0.00  0.00     0.078 H 
ENDBRANCH  55  57
BRANCH  55  61
ATOM     61  C   LIG d   1      11.943  -1.498  -4.579  0.00  0.00    -0.043 C 
ATOM     62  H   LIG d   1      11.844  -1.345  -3.505  0.00  0.00     0.078 H 
ATOM     63  H   LIG d   1      11.958  -2.567  -4.794  0.00  0.00     0.078 H 
ATOM     64  H   LIG d   1      12.871  -1.045  -4.927  0.00  0.00     0.078 H 
ENDBRANCH  55  61
ENDBRANCH  52  55
ENDBRANCH  49  52
ENDBRANCH   1  48
TORSDOF 6
ENDMDL
MODEL 4
REMARK VINA RESULT:      -6.6      3.456      8.699
REMARK  6 active torsions:
REMARK  status: ('A' for Active; 'I' for Inactive)
REMARK    1  A    between atoms: C_1  and  N_63 
REMARK    2  A    between atoms: C_2  and  N_63 
REMARK    3  A    between atoms: C_3  and  C_4 
REMARK    4  A    between atoms: C_3  and  N_63 
REMARK       I    between atoms: C_4  and  N_6 
REMARK    5  A    between atoms: N_6  and  C_7 
REMARK       I    between atoms: N_21  and  C_23 
REMARK       I    between atoms: C_23  and  N_25 
REMARK    6  A    between atoms: N_25  and  C_26 
ROOT
ATOM      1  C   LIG d   1      11.354   3.023  -3.473  0.00  0.00     0.099 C 
ATOM      2  C   LIG d   1      12.199   2.022  -3.865  0.00  0.00    -0.034 C 
ATOM      3  C   LIG d   1      12.016   1.437  -5.123  0.00  0.00    -0.040 C 
ATOM      4  C   LIG d   1      11.026   1.868  -5.948  0.00  0.00     0.027 C 
ATOM      5  N   LIG d   1      10.245   2.919  -5.600  0.00  0.00    -0.310 N 
ATOM      6  C   LIG d   1      10.339   3.445  -4.353  0.00  0.00     0.273 C 
ATOM      7  O   LIG d   1       9.541   4.296  -3.993  0.00  0.00    -0.266 OA
ATOM      8  C   LIG d   1       9.305   3.556  -6.521  0.00  0.00     0.031 C 
ATOM      9  C   LIG d   1       8.909   2.641  -7.666  0.00  0.00    -0.006 C 
ATOM     10  H   LIG d   1       8.428   3.247  -8.434  0.00  0.00     0.033 H 
ATOM     11  C   LIG d   1      10.158   2.003  -8.275  0.00  0.00    -0.037 C 
ATOM     12  C   LIG d   1      10.799   1.092  -7.226  0.00  0.00     0.016 C 
ATOM     13  H   LIG d   1      11.745   0.698  -7.597  0.00  0.00     0.038 H 
ATOM     14  C   LIG d   1       9.818  -0.049  -6.911  0.00  0.00     0.024 C 
ATOM     15  N   LIG d   1       8.579   0.563  -6.404  0.00  0.00    -0.285 N 
ATOM     16  C   LIG d   1       7.910   1.578  -7.227  0.00  0.00     0.021 C 
ATOM     17  C   LIG d   1       8.070   0.200  -5.210  0.00  0.00     0.302 C 
ATOM     18  O   LIG d   1       8.682  -0.571  -4.497  0.00  0.00    -0.253 OA
ATOM     19  N   LIG d   1       6.883   0.694  -4.806  0.00  0.00    -0.296 N 
ATOM     20  H   LIG d   1      12.994   1.687  -3.215  0.00  0.00     0.064 H 
ATOM     21  H   LIG d   1      12.667   0.636  -5.441  0.00  0.00     0.064 H 
ATOM     22  H   LIG d   1       8.407   3.840  -5.970  0.00  0.00     0.050 H 
ATOM     23  H   LIG d   1       9.764   4.455  -6.930  0.00  0.00     0.050 H 
ATOM     24  H   LIG d   1       9.879   1.414  -9.149  0.00  0.00     0.028 H 
ATOM     25  H   LIG d   1      10.862   2.782  -8.568  0.00  0.00     0.028 H 
ATOM     26  H   LIG d   1       9.606  -0.617  -7.817  0.00  0.00     0.047 H 
ATOM     27  H   LIG d   1      10.244  -0.706  -6.152  0.00  0.00     0.047 H 
ATOM     28  H   LIG d   1       7.116   2.048  -6.647  0.00  0.00     0.047 H 
ATOM     29  H   LIG d   1       7.479   1.102  -8.107  0.00  0.00     0.047 H 
ATOM     30  H   LIG d   1       6.430   1.365  -5.339  0.00  0.00     0.150 HD
ENDROOT
BRANCH  19  31
ATOM     31  C   LIG d   1       6.279   0.218  -3.559  0.00  0.00     0.025 C 
ATOM     32  C   LIG d   1       5.355   1.300  -2.994  0.00  0.00    -0.035 C 
ATOM     33  C   LIG d   1       4.723   0.802  -1.693  0.00  0.00    -0.051 C 
ATOM     34  H   LIG d   1       5.932   2.203  -2.796  0.00  0.00     0.028 H 
ATOM     35  H   LIG d   1       4.570   1.521  -3.718  0.00  0.00     0.028 H 
ATOM     36  C   LIG d   1       3.914  -0.465  -1.971  0.00  0.00    -0.053 C 
ATOM     37  H   LIG d   1       5.508   0.581  -0.969  0.00  0.00     0.027 H 
ATOM     38  H   LIG d   1       4.066   1.573  -1.290  0.00  0.00     0.027 H 
ATOM     39  C   LIG d   1       4.837  -1.547  -2.535  0.00  0.00    -0.051 C 
ATOM     40  H   LIG d   1       3.463  -0.820  -1.043  0.00  0.00     0.026 H 
ATOM     41  H   LIG d   1       3.128  -0.244  -2.694  0.00  0.00     0.026 H 
ATOM     42  C   LIG d   1       5.468  -1.050  -3.837  0.00  0.00    -0.035 C 
ATOM     43  H   LIG d   1       5.621  -1.768  -1.811  0.00  0.00     0.027 H 
ATOM     44  H   LIG d   1       4.260  -2.450  -2.733  0.00  0.00     0.027 H 
ATOM     45  H   LIG d   1       4.683  -0.828  -4.560  0.00  0.00     0.028 H 
ATOM     46  H   LIG d   1       6.126  -1.820  -4.239  0.00  0.00     0.028 H 
ATOM     47  H   LIG d   1       7.063  -0.003  -2.835  0.00  0.00     0.050 H 
ENDBRANCH  19  31
BRANCH   1  48
ATOM     48  N   LIG d   1      11.491   3.615  -2.210  0.00  0.00    -0.277 N 
ATOM     49  C   LIG d   1      12.272   4.703  -2.057  0.00  0.00     0.263 C 
ATOM     50  O   LIG d   1      12.922   5.118  -2.993  0.00  0.00    -0.270 OA
ATOM     51  H   LIG d   1      11.025   3.242  -1.445  0.00  0.00     0.155 HD
BRANCH  49  52
ATOM     52  C   LIG d   1      12.335   5.405  -0.725  0.00  0.00     0.046 C 
ATOM     53  H   LIG d   1      12.745   6.406  -0.861  0.00  0.00     0.091 H 
ATOM     54  H   LIG d   1      12.976   4.840  -0.047  0.00  0.00     0.091 H 
BRANCH  52  55
ATOM     55  N   LIG d   1      10.967   5.511  -0.176  0.00  0.00     0.237 N 
ATOM     56  H   LIG d   1      10.465   4.635  -0.358  0.00  0.00     0.203 HD
BRANCH  55  57
ATOM     57  C   LIG d   1      10.246   6.622  -0.831  0.00  0.00    -0.043 C 
ATOM     58  H   LIG d   1       9.655   6.223  -1.656  0.00  0.00     0.078 H 
ATOM     59  H   LIG d   1      10.949   7.362  -1.213  0.00  0.00     0.078 H 
ATOM     60  H   LIG d   1       9.583   7.092  -0.104  0.00  0.00     0.078 H 
ENDBRANCH  55  57
BRANCH  55  61
ATOM     61  C   LIG d   1      11.024   5.737   1.284  0.00  0.00    -0.043 C 
ATOM     62  H   LIG d   1      11.895   6.351   1.512  0.00  0.00     0.078 H 
ATOM     63  H   LIG d   1      10.120   6.258   1.598  0.00  0.00     0.078 H 
ATOM     64  H   LIG d   1      11.099   4.787   1.814  0.00  0.00     0.078 H 
ENDBRANCH  55  61
ENDBRANCH  52  55
ENDBRANCH  49  52
ENDBRANCH   1  48
TORSDOF 6
ENDMDL
MODEL 5
REMARK VINA RESULT:      -6.5      3.060      5.491
REMARK  6 active torsions:
REMARK  status: ('A' for Active; 'I' for Inactive)
REMARK    1  A    between atoms: C_1  and  N_63 
REMARK    2  A    between atoms: C_2  and  N_63 
REMARK    3  A    between atoms: C_3  and  C_4 
REMARK    4  A    between atoms: C_3  and  N_63 
REMARK       I    between atoms: C_4  and  N_6 
REMARK    5  A    between atoms: N_6  and  C_7 
REMARK       I    between atoms: N_21  and  C_23 
REMARK       I    between atoms: C_23  and  N_25 
REMARK    6  A    between atoms: N_25  and  C_26 
ROOT
ATOM      1  C   LIG d   1       6.870  -3.937  -4.936  0.00  0.00     0.099 C 
ATOM      2  C   LIG d   1       7.802  -3.046  -4.481  0.00  0.00    -0.034 C 
ATOM      3  C   LIG d   1       7.379  -1.968  -3.694  0.00  0.00    -0.040 C 
ATOM      4  C   LIG d   1       6.067  -1.820  -3.374  0.00  0.00     0.027 C 
ATOM      5  N   LIG d   1       5.155  -2.751  -3.746  0.00  0.00    -0.310 N 
ATOM      6  C   LIG d   1       5.520  -3.754  -4.584  0.00  0.00     0.273 C 
ATOM      7  O   LIG d   1       4.670  -4.507  -5.031  0.00  0.00    -0.266 OA
ATOM      8  C   LIG d   1       3.775  -2.755  -3.264  0.00  0.00     0.031 C 
ATOM      9  C   LIG d   1       3.333  -1.390  -2.768  0.00  0.00    -0.006 C 
ATOM     10  H   LIG d   1       2.413  -1.519  -2.196  0.00  0.00     0.033 H 
ATOM     11  C   LIG d   1       4.395  -0.809  -1.834  0.00  0.00    -0.037 C 
ATOM     12  C   LIG d   1       5.668  -0.557  -2.645  0.00  0.00     0.016 C 
ATOM     13  H   LIG d   1       6.474  -0.233  -1.988  0.00  0.00     0.038 H 
ATOM     14  C   LIG d   1       5.363   0.516  -3.705  0.00  0.00     0.024 C 
ATOM     15  N   LIG d   1       4.279  -0.002  -4.555  0.00  0.00    -0.285 N 
ATOM     16  C   LIG d   1       3.031  -0.436  -3.915  0.00  0.00     0.021 C 
ATOM     17  C   LIG d   1       4.429  -0.078  -5.893  0.00  0.00     0.302 C 
ATOM     18  O   LIG d   1       5.499   0.196  -6.400  0.00  0.00    -0.253 OA
ATOM     19  N   LIG d   1       3.394  -0.458  -6.666  0.00  0.00    -0.296 N 
ATOM     20  H   LIG d   1       8.847  -3.170  -4.725  0.00  0.00     0.064 H 
ATOM     21  H   LIG d   1       8.101  -1.248  -3.339  0.00  0.00     0.064 H 
ATOM     22  H   LIG d   1       3.117  -3.065  -4.078  0.00  0.00     0.050 H 
ATOM     23  H   LIG d   1       3.686  -3.473  -2.449  0.00  0.00     0.050 H 
ATOM     24  H   LIG d   1       4.037   0.131  -1.413  0.00  0.00     0.028 H 
ATOM     25  H   LIG d   1       4.603  -1.515  -1.030  0.00  0.00     0.028 H 
ATOM     26  H   LIG d   1       5.043   1.437  -3.217  0.00  0.00     0.047 H 
ATOM     27  H   LIG d   1       6.250   0.704  -4.308  0.00  0.00     0.047 H 
ATOM     28  H   LIG d   1       2.405  -0.942  -4.650  0.00  0.00     0.047 H 
ATOM     29  H   LIG d   1       2.501   0.435  -3.531  0.00  0.00     0.047 H 
ATOM     30  H   LIG d   1       2.563  -0.747  -6.258  0.00  0.00     0.150 HD
ENDROOT
BRANCH  19  31
ATOM     31  C   LIG d   1       3.524  -0.436  -8.125  0.00  0.00     0.025 C 
ATOM     32  C   LIG d   1       2.884  -1.696  -8.713  0.00  0.00    -0.035 C 
ATOM     33  C   LIG d   1       3.019  -1.673 -10.237  0.00  0.00    -0.051 C 
ATOM     34  H   LIG d   1       3.388  -2.578  -8.317  0.00  0.00     0.028 H 
ATOM     35  H   LIG d   1       1.829  -1.728  -8.442  0.00  0.00     0.028 H 
ATOM     36  C   LIG d   1       2.312  -0.435 -10.793  0.00  0.00    -0.053 C 
ATOM     37  H   LIG d   1       4.074  -1.641 -10.508  0.00  0.00     0.027 H 
ATOM     38  H   LIG d   1       2.564  -2.570 -10.656  0.00  0.00     0.027 H 
ATOM     39  C   LIG d   1       2.951   0.824 -10.206  0.00  0.00    -0.051 C 
ATOM     40  H   LIG d   1       2.408  -0.419 -11.879  0.00  0.00     0.026 H 
ATOM     41  H   LIG d   1       1.257  -0.467 -10.523  0.00  0.00     0.026 H 
ATOM     42  C   LIG d   1       2.816   0.802  -8.682  0.00  0.00    -0.035 C 
ATOM     43  H   LIG d   1       4.007   0.856 -10.477  0.00  0.00     0.027 H 
ATOM     44  H   LIG d   1       2.448   1.706 -10.602  0.00  0.00     0.027 H 
ATOM     45  H   LIG d   1       1.760   0.769  -8.411  0.00  0.00     0.028 H 
ATOM     46  H   LIG d   1       3.271   1.699  -8.263  0.00  0.00     0.028 H 
ATOM     47  H   LIG d   1       4.579  -0.404  -8.396  0.00  0.00     0.050 H 
ENDBRANCH  19  31
BRANCH   1  48
ATOM     48  N   LIG d   1       7.254  -5.015  -5.747  0.00  0.00    -0.277 N 
ATOM     49  C   LIG d   1       7.376  -4.847  -7.078  0.00  0.00     0.263 C 
ATOM     50  O   LIG d   1       7.071  -3.788  -7.586  0.00  0.00    -0.270 OA
ATOM     51  H   LIG d   1       7.431  -5.882  -5.349  0.00  0.00     0.155 HD
BRANCH  49  52
ATOM     52  C   LIG d   1       7.892  -5.973  -7.936  0.00  0.00     0.046 C 
ATOM     53  H   LIG d   1       8.746  -6.441  -7.446  0.00  0.00     0.091 H 
ATOM     54  H   LIG d   1       8.199  -5.581  -8.906  0.00  0.00     0.091 H 
BRANCH  52  55
ATOM     55  N   LIG d   1       6.819  -6.977  -8.101  0.00  0.00     0.237 N 
ATOM     56  H   LIG d   1       6.041  -6.739  -7.475  0.00  0.00     0.203 HD
BRANCH  55  57
ATOM     57  C   LIG d   1       7.326  -8.320  -7.746  0.00  0.00    -0.043 C 
ATOM     58  H   LIG d   1       6.833  -8.654  -6.833  0.00  0.00     0.078 H 
ATOM     59  H   LIG d   1       8.404  -8.292  -7.588  0.00  0.00     0.078 H 
ATOM     60  H   LIG d   1       7.096  -9.011  -8.557  0.00  0.00     0.078 H 
ENDBRANCH  55  57
BRANCH  55  61
ATOM     61  C   LIG d   1       6.332  -6.973  -9.496  0.00  0.00    -0.043 C 
ATOM     62  H   LIG d   1       6.272  -8.001  -9.852  0.00  0.00     0.078 H 
ATOM     63  H   LIG d   1       5.341  -6.520  -9.524  0.00  0.00     0.078 H 
ATOM     64  H   LIG d   1       7.009  -6.406 -10.135  0.00  0.00     0.078 H 
ENDBRANCH  55  61
ENDBRANCH  52  55
ENDBRANCH  49  52
ENDBRANCH   1  48
TORSDOF 6
ENDMDL
MODEL 6
REMARK VINA RESULT:      -6.2      2.475      4.984
REMARK  6 active torsions:
REMARK  status: ('A' for Active; 'I' for Inactive)
REMARK    1  A    between atoms: C_1  and  N_63 
REMARK    2  A    between atoms: C_2  and  N_63 
REMARK    3  A    between atoms: C_3  and  C_4 
REMARK    4  A    between atoms: C_3  and  N_63 
REMARK       I    between atoms: C_4  and  N_6 
REMARK    5  A    between atoms: N_6  and  C_7 
REMARK       I    between atoms: N_21  and  C_23 
REMARK       I    between atoms: C_23  and  N_25 
REMARK    6  A    between atoms: N_25  and  C_26 
ROOT
ATOM      1  C   LIG d   1       4.013  -0.048  -7.389  0.00  0.00     0.099 C 
ATOM      2  C   LIG d   1       2.910   0.016  -6.583  0.00  0.00    -0.034 C 
ATOM      3  C   LIG d   1       3.083  -0.021  -5.195  0.00  0.00    -0.040 C 
ATOM      4  C   LIG d   1       4.329  -0.102  -4.657  0.00  0.00     0.027 C 
ATOM      5  N   LIG d   1       5.427  -0.073  -5.450  0.00  0.00    -0.310 N 
ATOM      6  C   LIG d   1       5.288  -0.129  -6.798  0.00  0.00     0.273 C 
ATOM      7  O   LIG d   1       6.276  -0.246  -7.504  0.00  0.00    -0.266 OA
ATOM      8  C   LIG d   1       6.787   0.048  -4.926  0.00  0.00     0.031 C 
ATOM      9  C   LIG d   1       6.888  -0.386  -3.475  0.00  0.00    -0.006 C 
ATOM     10  H   LIG d   1       7.841  -0.033  -3.080  0.00  0.00     0.033 H 
ATOM     11  C   LIG d   1       5.767   0.262  -2.660  0.00  0.00    -0.037 C 
ATOM     12  C   LIG d   1       4.427  -0.284  -3.159  0.00  0.00     0.016 C 
ATOM     13  H   LIG d   1       3.604   0.231  -2.664  0.00  0.00     0.038 H 
ATOM     14  C   LIG d   1       4.381  -1.794  -2.869  0.00  0.00     0.024 C 
ATOM     15  N   LIG d   1       5.510  -2.413  -3.580  0.00  0.00    -0.285 N 
ATOM     16  C   LIG d   1       6.863  -1.902  -3.330  0.00  0.00     0.021 C 
ATOM     17  C   LIG d   1       5.306  -3.428  -4.445  0.00  0.00     0.302 C 
ATOM     18  O   LIG d   1       4.175  -3.779  -4.713  0.00  0.00    -0.253 OA
ATOM     19  N   LIG d   1       6.358  -4.051  -5.011  0.00  0.00    -0.296 N 
ATOM     20  H   LIG d   1       1.921   0.092  -7.011  0.00  0.00     0.064 H 
ATOM     21  H   LIG d   1       2.221   0.014  -4.546  0.00  0.00     0.064 H 
ATOM     22  H   LIG d   1       7.454  -0.572  -5.527  0.00  0.00     0.050 H 
ATOM     23  H   LIG d   1       7.107   1.087  -5.007  0.00  0.00     0.050 H 
ATOM     24  H   LIG d   1       5.892   0.017  -1.606  0.00  0.00     0.028 H 
ATOM     25  H   LIG d   1       5.797   1.344  -2.791  0.00  0.00     0.028 H 
ATOM     26  H   LIG d   1       4.478  -1.968  -1.797  0.00  0.00     0.047 H 
ATOM     27  H   LIG d   1       3.441  -2.212  -3.229  0.00  0.00     0.047 H 
ATOM     28  H   LIG d   1       7.555  -2.344  -4.047  0.00  0.00     0.047 H 
ATOM     29  H   LIG d   1       7.171  -2.173  -2.321  0.00  0.00     0.047 H 
ATOM     30  H   LIG d   1       7.258  -3.725  -4.854  0.00  0.00     0.150 HD
ENDROOT
BRANCH  19  31
ATOM     31  C   LIG d   1       6.142  -5.222  -5.865  0.00  0.00     0.025 C 
ATOM     32  C   LIG d   1       6.380  -4.838  -7.327  0.00  0.00    -0.035 C 
ATOM     33  C   LIG d   1       6.155  -6.061  -8.218  0.00  0.00    -0.051 C 
ATOM     34  H   LIG d   1       5.685  -4.047  -7.612  0.00  0.00     0.028 H 
ATOM     35  H   LIG d   1       7.403  -4.484  -7.448  0.00  0.00     0.028 H 
ATOM     36  C   LIG d   1       7.128  -7.170  -7.818  0.00  0.00    -0.053 C 
ATOM     37  H   LIG d   1       5.131  -6.415  -8.098  0.00  0.00     0.027 H 
ATOM     38  H   LIG d   1       6.323  -5.787  -9.260  0.00  0.00     0.027 H 
ATOM     39  C   LIG d   1       6.891  -7.555  -6.356  0.00  0.00    -0.051 C 
ATOM     40  H   LIG d   1       6.968  -8.042  -8.454  0.00  0.00     0.026 H 
ATOM     41  H   LIG d   1       8.152  -6.817  -7.939  0.00  0.00     0.026 H 
ATOM     42  C   LIG d   1       7.117  -6.332  -5.464  0.00  0.00    -0.035 C 
ATOM     43  H   LIG d   1       5.867  -7.909  -6.236  0.00  0.00     0.027 H 
ATOM     44  H   LIG d   1       7.584  -8.345  -6.071  0.00  0.00     0.027 H 
ATOM     45  H   LIG d   1       8.140  -5.977  -5.586  0.00  0.00     0.028 H 
ATOM     46  H   LIG d   1       6.947  -6.606  -4.423  0.00  0.00     0.028 H 
ATOM     47  H   LIG d   1       5.118  -5.576  -5.744  0.00  0.00     0.050 H 
ENDBRANCH  19  31
BRANCH   1  48
ATOM     48  N   LIG d   1       3.876  -0.038  -8.784  0.00  0.00    -0.277 N 
ATOM     49  C   LIG d   1       3.920   1.128  -9.458  0.00  0.00     0.263 C 
ATOM     50  O   LIG d   1       3.991   2.176  -8.851  0.00  0.00    -0.270 OA
ATOM     51  H   LIG d   1       3.749  -0.871  -9.265  0.00  0.00     0.155 HD
BRANCH  49  52
ATOM     52  C   LIG d   1       3.881   1.131 -10.964  0.00  0.00     0.046 C 
ATOM     53  H   LIG d   1       4.773   1.626 -11.349  0.00  0.00     0.091 H 
ATOM     54  H   LIG d   1       2.993   1.666 -11.305  0.00  0.00     0.091 H 
BRANCH  52  55
ATOM     55  N   LIG d   1       3.859  -0.267 -11.444  0.00  0.00     0.237 N 
ATOM     56  H   LIG d   1       4.217  -0.880 -10.702  0.00  0.00     0.203 HD
BRANCH  55  57
ATOM     57  C   LIG d   1       4.720  -0.405 -12.637  0.00  0.00    -0.043 C 
ATOM     58  H   LIG d   1       4.192  -0.005 -13.502  0.00  0.00     0.078 H 
ATOM     59  H   LIG d   1       4.965  -1.452 -12.812  0.00  0.00     0.078 H 
ATOM     60  H   LIG d   1       5.638   0.161 -12.479  0.00  0.00     0.078 H 
ENDBRANCH  55  57
BRANCH  55  61
ATOM     61  C   LIG d   1       2.474  -0.668 -11.770  0.00  0.00    -0.043 C 
ATOM     62  H   LIG d   1       2.442  -1.017 -12.802  0.00  0.00     0.078 H 
ATOM     63  H   LIG d   1       2.172  -1.475 -11.103  0.00  0.00     0.078 H 
ATOM     64  H   LIG d   1       1.794   0.176 -11.650  0.00  0.00     0.078 H 
ENDBRANCH  55  61
ENDBRANCH  52  55
ENDBRANCH  49  52
ENDBRANCH   1  48
TORSDOF 6
ENDMDL
MODEL 7
REMARK VINA RESULT:      -6.2      2.280      6.257
REMARK  6 active torsions:
REMARK  status: ('A' for Active; 'I' for Inactive)
REMARK    1  A    between atoms: C_1  and  N_63 
REMARK    2  A    between atoms: C_2  and  N_63 
REMARK    3  A    between atoms: C_3  and  C_4 
REMARK    4  A    between atoms: C_3  and  N_63 
REMARK       I    between atoms: C_4  and  N_6 
REMARK    5  A    between atoms: N_6  and  C_7 
REMARK       I    between atoms: N_21  and  C_23 
REMARK       I    between atoms: C_23  and  N_25 
REMARK    6  A    between atoms: N_25  and  C_26 
ROOT
ATOM      1  C   LIG d   1       7.597   0.508  -9.207  0.00  0.00     0.099 C 
ATOM      2  C   LIG d   1       7.624  -0.655  -9.925  0.00  0.00    -0.034 C 
ATOM      3  C   LIG d   1       6.421  -1.173 -10.418  0.00  0.00    -0.040 C 
ATOM      4  C   LIG d   1       5.248  -0.521 -10.202  0.00  0.00     0.027 C 
ATOM      5  N   LIG d   1       5.230   0.677  -9.571  0.00  0.00    -0.310 N 
ATOM      6  C   LIG d   1       6.365   1.158  -9.003  0.00  0.00     0.273 C 
ATOM      7  O   LIG d   1       6.317   2.164  -8.315  0.00  0.00    -0.266 OA
ATOM      8  C   LIG d   1       4.036   1.518  -9.487  0.00  0.00     0.031 C 
ATOM      9  C   LIG d   1       2.757   0.726  -9.687  0.00  0.00    -0.006 C 
ATOM     10  H   LIG d   1       1.946   1.432  -9.870  0.00  0.00     0.033 H 
ATOM     11  C   LIG d   1       2.891  -0.174 -10.916  0.00  0.00    -0.037 C 
ATOM     12  C   LIG d   1       3.977  -1.215 -10.639  0.00  0.00     0.016 C 
ATOM     13  H   LIG d   1       4.164  -1.811 -11.532  0.00  0.00     0.038 H 
ATOM     14  C   LIG d   1       3.509  -2.106  -9.476  0.00  0.00     0.024 C 
ATOM     15  N   LIG d   1       3.294  -1.232  -8.311  0.00  0.00    -0.285 N 
ATOM     16  C   LIG d   1       2.389  -0.085  -8.452  0.00  0.00     0.021 C 
ATOM     17  C   LIG d   1       3.916  -1.479  -7.141  0.00  0.00     0.302 C 
ATOM     18  O   LIG d   1       4.733  -2.375  -7.064  0.00  0.00    -0.253 OA
ATOM     19  N   LIG d   1       3.632  -0.732  -6.057  0.00  0.00    -0.296 N 
ATOM     20  H   LIG d   1       8.557  -1.167 -10.108  0.00  0.00     0.064 H 
ATOM     21  H   LIG d   1       6.424  -2.099 -10.975  0.00  0.00     0.064 H 
ATOM     22  H   LIG d   1       4.007   1.994  -8.506  0.00  0.00     0.050 H 
ATOM     23  H   LIG d   1       4.095   2.293 -10.251  0.00  0.00     0.050 H 
ATOM     24  H   LIG d   1       1.942  -0.677 -11.106  0.00  0.00     0.028 H 
ATOM     25  H   LIG d   1       3.167   0.427 -11.783  0.00  0.00     0.028 H 
ATOM     26  H   LIG d   1       2.576  -2.603  -9.742  0.00  0.00     0.047 H 
ATOM     27  H   LIG d   1       4.273  -2.849  -9.246  0.00  0.00     0.047 H 
ATOM     28  H   LIG d   1       2.469   0.548  -7.568  0.00  0.00     0.047 H 
ATOM     29  H   LIG d   1       1.365  -0.443  -8.547  0.00  0.00     0.047 H 
ATOM     30  H   LIG d   1       3.036   0.029  -6.134  0.00  0.00     0.150 HD
ENDROOT
BRANCH  19  31
ATOM     31  C   LIG d   1       4.226  -1.068  -4.760  0.00  0.00     0.025 C 
ATOM     32  C   LIG d   1       5.190   0.043  -4.337  0.00  0.00    -0.035 C 
ATOM     33  C   LIG d   1       5.809  -0.308  -2.983  0.00  0.00    -0.051 C 
ATOM     34  H   LIG d   1       5.979   0.143  -5.083  0.00  0.00     0.028 H 
ATOM     35  H   LIG d   1       4.646   0.984  -4.255  0.00  0.00     0.028 H 
ATOM     36  C   LIG d   1       4.702  -0.448  -1.937  0.00  0.00    -0.053 C 
ATOM     37  H   LIG d   1       6.352  -1.249  -3.064  0.00  0.00     0.027 H 
ATOM     38  H   LIG d   1       6.496   0.483  -2.682  0.00  0.00     0.027 H 
ATOM     39  C   LIG d   1       3.738  -1.558  -2.359  0.00  0.00    -0.051 C 
ATOM     40  H   LIG d   1       5.144  -0.697  -0.971  0.00  0.00     0.026 H 
ATOM     41  H   LIG d   1       4.158   0.494  -1.854  0.00  0.00     0.026 H 
ATOM     42  C   LIG d   1       3.118  -1.207  -3.713  0.00  0.00    -0.035 C 
ATOM     43  H   LIG d   1       4.282  -2.499  -2.440  0.00  0.00     0.027 H 
ATOM     44  H   LIG d   1       2.949  -1.658  -1.614  0.00  0.00     0.027 H 
ATOM     45  H   LIG d   1       2.575  -0.265  -3.632  0.00  0.00     0.028 H 
ATOM     46  H   LIG d   1       2.431  -1.998  -4.014  0.00  0.00     0.028 H 
ATOM     47  H   LIG d   1       4.769  -2.009  -4.842  0.00  0.00     0.050 H 
ENDBRANCH  19  31
BRANCH   1  48
ATOM     48  N   LIG d   1       8.779   1.044  -8.677  0.00  0.00    -0.277 N 
ATOM     49  C   LIG d   1       9.498   1.931  -9.392  0.00  0.00     0.263 C 
ATOM     50  O   LIG d   1       9.169   2.201 -10.528  0.00  0.00    -0.270 OA
ATOM     51  H   LIG d   1       9.080   0.775  -7.794  0.00  0.00     0.155 HD
BRANCH  49  52
ATOM     52  C   LIG d   1      10.708   2.588  -8.781  0.00  0.00     0.046 C 
ATOM     53  H   LIG d   1      11.120   3.314  -9.483  0.00  0.00     0.091 H 
ATOM     54  H   LIG d   1      11.461   1.831  -8.560  0.00  0.00     0.091 H 
BRANCH  52  55
ATOM     55  N   LIG d   1      10.298   3.289  -7.546  0.00  0.00     0.237 N 
ATOM     56  H   LIG d   1       9.679   2.675  -7.005  0.00  0.00     0.203 HD
BRANCH  55  57
ATOM     57  C   LIG d   1       9.568   4.527  -7.887  0.00  0.00    -0.043 C 
ATOM     58  H   LIG d   1      10.046   5.369  -7.387  0.00  0.00     0.078 H 
ATOM     59  H   LIG d   1       8.528   4.458  -7.569  0.00  0.00     0.078 H 
ATOM     60  H   LIG d   1       9.607   4.677  -8.967  0.00  0.00     0.078 H 
ENDBRANCH  55  57
BRANCH  55  61
ATOM     61  C   LIG d   1      11.487   3.612  -6.730  0.00  0.00    -0.043 C 
ATOM     62  H   LIG d   1      12.028   4.431  -7.203  0.00  0.00     0.078 H 
ATOM     63  H   LIG d   1      11.162   3.917  -5.735  0.00  0.00     0.078 H 
ATOM     64  H   LIG d   1      12.141   2.743  -6.647  0.00  0.00     0.078 H 
ENDBRANCH  55  61
ENDBRANCH  52  55
ENDBRANCH  49  52
ENDBRANCH   1  48
TORSDOF 6
ENDMDL
MODEL 8
REMARK VINA RESULT:      -5.9      6.894     10.970
REMARK  6 active torsions:
REMARK  status: ('A' for Active; 'I' for Inactive)
REMARK    1  A    between atoms: C_1  and  N_63 
REMARK    2  A    between atoms: C_2  and  N_63 
REMARK    3  A    between atoms: C_3  and  C_4 
REMARK    4  A    between atoms: C_3  and  N_63 
REMARK       I    between atoms: C_4  and  N_6 
REMARK    5  A    between atoms: N_6  and  C_7 
REMARK       I    between atoms: N_21  and  C_23 
REMARK       I    between atoms: C_23  and  N_25 
REMARK    6  A    between atoms: N_25  and  C_26 
ROOT
ATOM      1  C   LIG d   1      11.152   6.181  -0.818  0.00  0.00     0.099 C 
ATOM      2  C   LIG d   1      12.455   6.470  -0.522  0.00  0.00    -0.034 C 
ATOM      3  C   LIG d   1      12.808   7.797  -0.249  0.00  0.00    -0.040 C 
ATOM      4  C   LIG d   1      11.868   8.778  -0.260  0.00  0.00     0.027 C 
ATOM      5  N   LIG d   1      10.562   8.481  -0.463  0.00  0.00    -0.310 N 
ATOM      6  C   LIG d   1      10.204   7.222  -0.820  0.00  0.00     0.273 C 
ATOM      7  O   LIG d   1       9.049   6.989  -1.140  0.00  0.00    -0.266 OA
ATOM      8  C   LIG d   1       9.485   9.455  -0.287  0.00  0.00     0.031 C 
ATOM      9  C   LIG d   1       9.980  10.886  -0.382  0.00  0.00    -0.006 C 
ATOM     10  H   LIG d   1       9.200  11.542   0.008  0.00  0.00     0.033 H 
ATOM     11  C   LIG d   1      11.227  11.063   0.485  0.00  0.00    -0.037 C 
ATOM     12  C   LIG d   1      12.349  10.202  -0.099  0.00  0.00     0.016 C 
ATOM     13  H   LIG d   1      13.222  10.232   0.552  0.00  0.00     0.038 H 
ATOM     14  C   LIG d   1      12.693  10.740  -1.499  0.00  0.00     0.024 C 
ATOM     15  N   LIG d   1      11.472  10.653  -2.315  0.00  0.00    -0.285 N 
ATOM     16  C   LIG d   1      10.251  11.302  -1.822  0.00  0.00     0.021 C 
ATOM     17  C   LIG d   1      11.474   9.992  -3.490  0.00  0.00     0.302 C 
ATOM     18  O   LIG d   1      12.464   9.382  -3.842  0.00  0.00    -0.253 OA
ATOM     19  N   LIG d   1      10.378  10.008  -4.273  0.00  0.00    -0.296 N 
ATOM     20  H   LIG d   1      13.201   5.689  -0.500  0.00  0.00     0.064 H 
ATOM     21  H   LIG d   1      13.836   8.043  -0.027  0.00  0.00     0.064 H 
ATOM     22  H   LIG d   1       8.730   9.290  -1.057  0.00  0.00     0.050 H 
ATOM     23  H   LIG d   1       9.027   9.303   0.690  0.00  0.00     0.050 H 
ATOM     24  H   LIG d   1      11.529  12.110   0.482  0.00  0.00     0.028 H 
ATOM     25  H   LIG d   1      11.011  10.747   1.506  0.00  0.00     0.028 H 
ATOM     26  H   LIG d   1      13.018  11.778  -1.428  0.00  0.00     0.047 H 
ATOM     27  H   LIG d   1      13.481  10.134  -1.945  0.00  0.00     0.047 H 
ATOM     28  H   LIG d   1       9.407  11.007  -2.447  0.00  0.00     0.047 H 
ATOM     29  H   LIG d   1      10.372  12.383  -1.869  0.00  0.00     0.047 H 
ATOM     30  H   LIG d   1       9.564  10.433  -3.961  0.00  0.00     0.150 HD
ENDROOT
BRANCH  19  31
ATOM     31  C   LIG d   1      10.416   9.382  -5.597  0.00  0.00     0.025 C 
ATOM     32  C   LIG d   1       9.424   8.216  -5.639  0.00  0.00    -0.035 C 
ATOM     33  C   LIG d   1       9.463   7.563  -7.021  0.00  0.00    -0.051 C 
ATOM     34  H   LIG d   1       9.696   7.481  -4.881  0.00  0.00     0.028 H 
ATOM     35  H   LIG d   1       8.419   8.587  -5.440  0.00  0.00     0.028 H 
ATOM     36  C   LIG d   1       9.081   8.594  -8.084  0.00  0.00    -0.053 C 
ATOM     37  H   LIG d   1      10.468   7.192  -7.220  0.00  0.00     0.027 H 
ATOM     38  H   LIG d   1       8.758   6.732  -7.051  0.00  0.00     0.027 H 
ATOM     39  C   LIG d   1      10.072   9.759  -8.043  0.00  0.00    -0.051 C 
ATOM     40  H   LIG d   1       9.109   8.128  -9.070  0.00  0.00     0.026 H 
ATOM     41  H   LIG d   1       8.076   8.965  -7.886  0.00  0.00     0.026 H 
ATOM     42  C   LIG d   1      10.033  10.414  -6.661  0.00  0.00    -0.035 C 
ATOM     43  H   LIG d   1      11.077   9.388  -8.242  0.00  0.00     0.027 H 
ATOM     44  H   LIG d   1       9.800  10.494  -8.800  0.00  0.00     0.027 H 
ATOM     45  H   LIG d   1       9.027  10.784  -6.462  0.00  0.00     0.028 H 
ATOM     46  H   LIG d   1      10.739  11.244  -6.631  0.00  0.00     0.028 H 
ATOM     47  H   LIG d   1      11.421   9.010  -5.796  0.00  0.00     0.050 H 
ENDBRANCH  19  31
BRANCH   1  48
ATOM     48  N   LIG d   1      10.766   4.868  -1.121  0.00  0.00    -0.277 N 
ATOM     49  C   LIG d   1      10.940   4.384  -2.367  0.00  0.00     0.263 C 
ATOM     50  O   LIG d   1      11.351   5.111  -3.247  0.00  0.00    -0.270 OA
ATOM     51  H   LIG d   1      10.372   4.308  -0.434  0.00  0.00     0.155 HD
BRANCH  49  52
ATOM     52  C   LIG d   1      10.627   2.941  -2.666  0.00  0.00     0.046 C 
ATOM     53  H   LIG d   1       9.977   2.542  -1.886  0.00  0.00     0.091 H 
ATOM     54  H   LIG d   1      11.553   2.366  -2.696  0.00  0.00     0.091 H 
BRANCH  52  55
ATOM     55  N   LIG d   1       9.927   2.864  -3.965  0.00  0.00     0.237 N 
ATOM     56  H   LIG d   1       9.816   3.813  -4.341  0.00  0.00     0.203 HD
BRANCH  55  57
ATOM     57  C   LIG d   1       8.590   2.262  -3.784  0.00  0.00    -0.043 C 
ATOM     58  H   LIG d   1       8.033   2.347  -4.717  0.00  0.00     0.078 H 
ATOM     59  H   LIG d   1       8.046   2.771  -2.988  0.00  0.00     0.078 H 
ATOM     60  H   LIG d   1       8.707   1.208  -3.526  0.00  0.00     0.078 H 
ENDBRANCH  55  57
BRANCH  55  61
ATOM     61  C   LIG d   1      10.718   2.060  -4.919  0.00  0.00    -0.043 C 
ATOM     62  H   LIG d   1      10.231   1.095  -5.057  0.00  0.00     0.078 H 
ATOM     63  H   LIG d   1      10.763   2.584  -5.874  0.00  0.00     0.078 H 
ATOM     64  H   LIG d   1      11.730   1.906  -4.542  0.00  0.00     0.078 H 
ENDBRANCH  55  61
ENDBRANCH  52  55
ENDBRANCH  49  52
ENDBRANCH   1  48
TORSDOF 6
ENDMDL
MODEL 9
REMARK VINA RESULT:      -5.5      7.931     11.686
REMARK  6 active torsions:
REMARK  status: ('A' for Active; 'I' for Inactive)
REMARK    1  A    between atoms: C_1  and  N_63 
REMARK    2  A    between atoms: C_2  and  N_63 
REMARK    3  A    between atoms: C_3  and  C_4 
REMARK    4  A    between atoms: C_3  and  N_63 
REMARK       I    between atoms: C_4  and  N_6 
REMARK    5  A    between atoms: N_6  and  C_7 
REMARK       I    between atoms: N_21  and  C_23 
REMARK       I    between atoms: C_23  and  N_25 
REMARK    6  A    between atoms: N_25  and  C_26 
ROOT
ATOM      1  C   LIG d   1      10.113  10.131  -1.984  0.00  0.00     0.099 C 
ATOM      2  C   LIG d   1       9.286   9.481  -1.111  0.00  0.00    -0.034 C 
ATOM      3  C   LIG d   1       9.609   8.177  -0.718  0.00  0.00    -0.040 C 
ATOM      4  C   LIG d   1      10.735   7.575  -1.182  0.00  0.00     0.027 C 
ATOM      5  N   LIG d   1      11.603   8.249  -1.973  0.00  0.00    -0.310 N 
ATOM      6  C   LIG d   1      11.272   9.478  -2.444  0.00  0.00     0.273 C 
ATOM      7  O   LIG d   1      11.988  10.023  -3.268  0.00  0.00    -0.266 OA
ATOM      8  C   LIG d   1      12.921   7.730  -2.337  0.00  0.00     0.031 C 
ATOM      9  C   LIG d   1      13.005   6.221  -2.202  0.00  0.00    -0.006 C 
ATOM     10  H   LIG d   1      14.057   5.935  -2.233  0.00  0.00     0.033 H 
ATOM     11  C   LIG d   1      12.434   5.788  -0.851  0.00  0.00    -0.037 C 
ATOM     12  C   LIG d   1      10.940   6.119  -0.827  0.00  0.00     0.016 C 
ATOM     13  H   LIG d   1      10.525   5.911   0.158  0.00  0.00     0.038 H 
ATOM     14  C   LIG d   1      10.239   5.274  -1.905  0.00  0.00     0.024 C 
ATOM     15  N   LIG d   1      10.845   5.622  -3.200  0.00  0.00    -0.285 N 
ATOM     16  C   LIG d   1      12.301   5.506  -3.348  0.00  0.00     0.021 C 
ATOM     17  C   LIG d   1      10.080   6.041  -4.228  0.00  0.00     0.302 C 
ATOM     18  O   LIG d   1       8.890   6.222  -4.065  0.00  0.00    -0.253 OA
ATOM     19  N   LIG d   1      10.636   6.259  -5.436  0.00  0.00    -0.296 N 
ATOM     20  H   LIG d   1       8.397   9.964  -0.732  0.00  0.00     0.064 H 
ATOM     21  H   LIG d   1       8.958   7.645  -0.040  0.00  0.00     0.064 H 
ATOM     22  H   LIG d   1      13.137   8.005  -3.370  0.00  0.00     0.050 H 
ATOM     23  H   LIG d   1      13.671   8.185  -1.690  0.00  0.00     0.050 H 
ATOM     24  H   LIG d   1      12.573   4.714  -0.722  0.00  0.00     0.028 H 
ATOM     25  H   LIG d   1      12.944   6.322  -0.049  0.00  0.00     0.028 H 
ATOM     26  H   LIG d   1      10.389   4.214  -1.699  0.00  0.00     0.047 H 
ATOM     27  H   LIG d   1       9.174   5.502  -1.921  0.00  0.00     0.047 H 
ATOM     28  H   LIG d   1      12.605   5.955  -4.293  0.00  0.00     0.047 H 
ATOM     29  H   LIG d   1      12.581   4.454  -3.343  0.00  0.00     0.047 H 
ATOM     30  H   LIG d   1      11.596   6.185  -5.549  0.00  0.00     0.150 HD
ENDROOT
BRANCH  19  31
ATOM     31  C   LIG d   1       9.788   6.608  -6.579  0.00  0.00     0.025 C 
ATOM     32  C   LIG d   1       9.915   8.106  -6.869  0.00  0.00    -0.035 C 
ATOM     33  C   LIG d   1       9.031   8.471  -8.063  0.00  0.00    -0.051 C 
ATOM     34  H   LIG d   1       9.597   8.674  -5.993  0.00  0.00     0.028 H 
ATOM     35  H   LIG d   1      10.953   8.345  -7.099  0.00  0.00     0.028 H 
ATOM     36  C   LIG d   1       9.477   7.674  -9.290  0.00  0.00    -0.053 C 
ATOM     37  H   LIG d   1       7.993   8.232  -7.832  0.00  0.00     0.027 H 
ATOM     38  H   LIG d   1       9.120   9.537  -8.269  0.00  0.00     0.027 H 
ATOM     39  C   LIG d   1       9.350   6.178  -9.001  0.00  0.00    -0.051 C 
ATOM     40  H   LIG d   1       8.846   7.935 -10.141  0.00  0.00     0.026 H 
ATOM     41  H   LIG d   1      10.515   7.913  -9.521  0.00  0.00     0.026 H 
ATOM     42  C   LIG d   1      10.235   5.812  -7.807  0.00  0.00    -0.035 C 
ATOM     43  H   LIG d   1       8.312   5.939  -8.771  0.00  0.00     0.027 H 
ATOM     44  H   LIG d   1       9.668   5.610  -9.875  0.00  0.00     0.027 H 
ATOM     45  H   LIG d   1      11.273   6.052  -8.037  0.00  0.00     0.028 H 
ATOM     46  H   LIG d   1      10.145   4.746  -7.601  0.00  0.00     0.028 H 
ATOM     47  H   LIG d   1       8.750   6.370  -6.349  0.00  0.00     0.050 H 
ENDBRANCH  19  31
BRANCH   1  48
ATOM     48  N   LIG d   1       9.809  11.429  -2.420  0.00  0.00    -0.277 N 
ATOM     49  C   LIG d   1      10.245  12.495  -1.720  0.00  0.00     0.263 C 
ATOM     50  O   LIG d   1      10.827  12.332  -0.668  0.00  0.00    -0.270 OA
ATOM     51  H   LIG d   1       9.284  11.559  -3.225  0.00  0.00     0.155 HD
BRANCH  49  52
ATOM     52  C   LIG d   1      10.012  13.888  -2.245  0.00  0.00     0.046 C 
ATOM     53  H   LIG d   1      10.947  14.291  -2.633  0.00  0.00     0.091 H 
ATOM     54  H   LIG d   1       9.649  14.525  -1.437  0.00  0.00     0.091 H 
BRANCH  52  55
ATOM     55  N   LIG d   1       9.020  13.826  -3.339  0.00  0.00     0.237 N 
ATOM     56  H   LIG d   1       8.664  12.866  -3.413  0.00  0.00     0.203 HD
BRANCH  55  57
ATOM     57  C   LIG d   1       9.658  14.199  -4.619  0.00  0.00    -0.043 C 
ATOM     58  H   LIG d   1      10.736  14.266  -4.471  0.00  0.00     0.078 H 
ATOM     59  H   LIG d   1       9.279  15.159  -4.970  0.00  0.00     0.078 H 
ATOM     60  H   LIG d   1       9.440  13.430  -5.361  0.00  0.00     0.078 H 
ENDBRANCH  55  57
BRANCH  55  61
ATOM     61  C   LIG d   1       7.892  14.736  -3.052  0.00  0.00    -0.043 C 
ATOM     62  H   LIG d   1       8.271  15.755  -2.978  0.00  0.00     0.078 H 
ATOM     63  H   LIG d   1       7.170  14.674  -3.866  0.00  0.00     0.078 H 
ATOM     64  H   LIG d   1       7.407  14.460  -2.116  0.00  0.00     0.078 H 
ENDBRANCH  55  61
ENDBRANCH  52  55
ENDBRANCH  49  52
ENDBRANCH   1  48
TORSDOF 6
ENDMDL
