MODEL 1
REMARK VINA RESULT:      -7.1      0.000      0.000
REMARK  1 active torsions:
REMARK  status: ('A' for Active; 'I' for Inactive)
REMARK    1  A    between atoms: C_10  and  C_11 
ROOT
ATOM      1  C   LIG d   1       4.483  -2.341  -3.076  0.00  0.00    -0.061 A 
ATOM      2  C   LIG d   1       3.992  -1.325  -2.278  0.00  0.00    -0.061 A 
ATOM      3  C   LIG d   1       3.432  -0.194  -2.849  0.00  0.00    -0.050 A 
ATOM      4  C   LIG d   1       3.363  -0.075  -4.233  0.00  0.00     0.033 A 
ATOM      5  C   LIG d   1       3.862  -1.108  -5.045  0.00  0.00     0.033 A 
ATOM      6  C   LIG d   1       4.426  -2.236  -4.455  0.00  0.00    -0.050 A 
ATOM      7  C   LIG d   1       3.668  -0.740  -6.468  0.00  0.00     0.198 A 
ATOM      8  O   LIG d   1       3.986  -1.407  -7.432  0.00  0.00    -0.286 OA
ATOM      9  C   LIG d   1       3.019   0.585  -6.501  0.00  0.00     0.070 A 
ATOM     10  C   LIG d   1       2.664   1.289  -7.617  0.00  0.00    -0.040 C 
ATOM     11  C   LIG d   1       2.827   1.002  -5.099  0.00  0.00     0.198 A 
ATOM     12  O   LIG d   1       2.321   2.040  -4.723  0.00  0.00    -0.286 OA
ATOM     13  H   LIG d   1       4.917  -3.218  -2.621  0.00  0.00     0.062 H 
ATOM     14  H   LIG d   1       4.044  -1.413  -1.202  0.00  0.00     0.062 H 
ATOM     15  H   LIG d   1       3.051   0.595  -2.219  0.00  0.00     0.062 H 
ATOM     16  H   LIG d   1       4.816  -3.030  -5.074  0.00  0.00     0.062 H 
ATOM     17  H   LIG d   1       2.073   2.189  -7.521  0.00  0.00     0.063 H 
ENDROOT
BRANCH  10  18
ATOM     18  C   LIG d   1       3.083   0.824  -8.942  0.00  0.00    -0.024 A 
ATOM     19  C   LIG d   1       2.247  -0.011  -9.694  0.00  0.00    -0.053 A 
ATOM     20  C   LIG d   1       2.648  -0.443 -10.939  0.00  0.00    -0.047 A 
ATOM     21  H   LIG d   1       1.289  -0.316  -9.298  0.00  0.00     0.062 H 
ATOM     22  C   LIG d   1       3.876  -0.053 -11.449  0.00  0.00     0.018 A 
ATOM     23  H   LIG d   1       2.004  -1.088 -11.519  0.00  0.00     0.063 H 
ATOM     24  C   LIG d   1       4.710   0.774 -10.713  0.00  0.00    -0.047 A 
ATOM     25 BR   LIG d   1       4.418  -0.652 -13.159  0.00  0.00    -0.050 Br
ATOM     26  C   LIG d   1       4.320   1.219  -9.468  0.00  0.00    -0.053 A 
ATOM     27  H   LIG d   1       5.665   1.073 -11.117  0.00  0.00     0.063 H 
ATOM     28  H   LIG d   1       4.969   1.867  -8.898  0.00  0.00     0.062 H 
ENDBRANCH  10  18
TORSDOF 1
ENDMDL
MODEL 2
REMARK VINA RESULT:      -6.4      5.511      6.744
REMARK  1 active torsions:
REMARK  status: ('A' for Active; 'I' for Inactive)
REMARK    1  A    between atoms: C_10  and  C_11 
ROOT
ATOM      1  C   LIG d   1       3.190  -0.652  -2.400  0.00  0.00    -0.061 A 
ATOM      2  C   LIG d   1       3.528  -1.966  -2.663  0.00  0.00    -0.061 A 
ATOM      3  C   LIG d   1       4.782  -2.282  -3.161  0.00  0.00    -0.050 A 
ATOM      4  C   LIG d   1       5.709  -1.273  -3.399  0.00  0.00     0.033 A 
ATOM      5  C   LIG d   1       5.367   0.064  -3.132  0.00  0.00     0.033 A 
ATOM      6  C   LIG d   1       4.100   0.364  -2.638  0.00  0.00    -0.050 A 
ATOM      7  C   LIG d   1       6.519   0.933  -3.467  0.00  0.00     0.198 A 
ATOM      8  O   LIG d   1       6.563   2.143  -3.357  0.00  0.00    -0.286 OA
ATOM      9  C   LIG d   1       7.605   0.065  -3.961  0.00  0.00     0.070 A 
ATOM     10  C   LIG d   1       8.842   0.466  -4.378  0.00  0.00    -0.040 C 
ATOM     11  C   LIG d   1       7.097  -1.319  -3.919  0.00  0.00     0.198 A 
ATOM     12  O   LIG d   1       7.706  -2.317  -4.249  0.00  0.00    -0.286 OA
ATOM     13  H   LIG d   1       2.211  -0.417  -2.013  0.00  0.00     0.062 H 
ATOM     14  H   LIG d   1       2.810  -2.753  -2.479  0.00  0.00     0.062 H 
ATOM     15  H   LIG d   1       5.038  -3.310  -3.364  0.00  0.00     0.062 H 
ATOM     16  H   LIG d   1       3.829   1.389  -2.435  0.00  0.00     0.062 H 
ATOM     17  H   LIG d   1       9.605  -0.269  -4.592  0.00  0.00     0.063 H 
ENDROOT
BRANCH  10  18
ATOM     18  C   LIG d   1       9.137   1.894  -4.533  0.00  0.00    -0.024 A 
ATOM     19  C   LIG d   1       9.622   2.636  -3.448  0.00  0.00    -0.053 A 
ATOM     20  C   LIG d   1       9.897   3.978  -3.602  0.00  0.00    -0.047 A 
ATOM     21  H   LIG d   1       9.780   2.158  -2.492  0.00  0.00     0.062 H 
ATOM     22  C   LIG d   1       9.695   4.593  -4.828  0.00  0.00     0.018 A 
ATOM     23  H   LIG d   1      10.270   4.551  -2.766  0.00  0.00     0.063 H 
ATOM     24  C   LIG d   1       9.216   3.867  -5.906  0.00  0.00    -0.047 A 
ATOM     25 BR   LIG d   1      10.075   6.434  -5.028  0.00  0.00    -0.050 Br
ATOM     26  C   LIG d   1       8.942   2.523  -5.770  0.00  0.00    -0.053 A 
ATOM     27  H   LIG d   1       9.061   4.354  -6.857  0.00  0.00     0.063 H 
ATOM     28  H   LIG d   1       8.573   1.958  -6.612  0.00  0.00     0.062 H 
ENDBRANCH  10  18
TORSDOF 1
ENDMDL
MODEL 3
REMARK VINA RESULT:      -6.3      4.911      5.939
REMARK  1 active torsions:
REMARK  status: ('A' for Active; 'I' for Inactive)
REMARK    1  A    between atoms: C_10  and  C_11 
ROOT
ATOM      1  C   LIG d   1       4.294   0.040  -1.575  0.00  0.00    -0.061 A 
ATOM      2  C   LIG d   1       5.072   1.039  -2.131  0.00  0.00    -0.061 A 
ATOM      3  C   LIG d   1       5.790   0.803  -3.291  0.00  0.00    -0.050 A 
ATOM      4  C   LIG d   1       5.732  -0.443  -3.905  0.00  0.00     0.033 A 
ATOM      5  C   LIG d   1       4.941  -1.459  -3.341  0.00  0.00     0.033 A 
ATOM      6  C   LIG d   1       4.229  -1.208  -2.171  0.00  0.00    -0.050 A 
ATOM      7  C   LIG d   1       5.050  -2.676  -4.180  0.00  0.00     0.198 A 
ATOM      8  O   LIG d   1       4.494  -3.739  -3.980  0.00  0.00    -0.286 OA
ATOM      9  C   LIG d   1       5.956  -2.366  -5.303  0.00  0.00     0.070 A 
ATOM     10  C   LIG d   1       6.326  -3.213  -6.308  0.00  0.00    -0.040 C 
ATOM     11  C   LIG d   1       6.384  -0.965  -5.130  0.00  0.00     0.198 A 
ATOM     12  O   LIG d   1       7.134  -0.349  -5.861  0.00  0.00    -0.286 OA
ATOM     13  H   LIG d   1       3.738   0.233  -0.671  0.00  0.00     0.062 H 
ATOM     14  H   LIG d   1       5.120   2.008  -1.656  0.00  0.00     0.062 H 
ATOM     15  H   LIG d   1       6.396   1.588  -3.718  0.00  0.00     0.062 H 
ATOM     16  H   LIG d   1       3.624  -1.986  -1.731  0.00  0.00     0.062 H 
ATOM     17  H   LIG d   1       6.888  -2.837  -7.151  0.00  0.00     0.063 H 
ENDROOT
BRANCH  10  18
ATOM     18  C   LIG d   1       5.960  -4.631  -6.244  0.00  0.00    -0.024 A 
ATOM     19  C   LIG d   1       4.789  -5.086  -6.864  0.00  0.00    -0.053 A 
ATOM     20  C   LIG d   1       4.452  -6.421  -6.799  0.00  0.00    -0.047 A 
ATOM     21  H   LIG d   1       4.150  -4.392  -7.390  0.00  0.00     0.062 H 
ATOM     22  C   LIG d   1       5.271  -7.313  -6.124  0.00  0.00     0.018 A 
ATOM     23  H   LIG d   1       3.549  -6.772  -7.276  0.00  0.00     0.063 H 
ATOM     24  C   LIG d   1       6.431  -6.872  -5.509  0.00  0.00    -0.047 A 
ATOM     25 BR   LIG d   1       4.799  -9.142  -6.042  0.00  0.00    -0.050 Br
ATOM     26  C   LIG d   1       6.784  -5.541  -5.569  0.00  0.00    -0.053 A 
ATOM     27  H   LIG d   1       7.063  -7.574  -4.985  0.00  0.00     0.063 H 
ATOM     28  H   LIG d   1       7.691  -5.200  -5.093  0.00  0.00     0.062 H 
ENDBRANCH  10  18
TORSDOF 1
ENDMDL
MODEL 4
REMARK VINA RESULT:      -6.1      5.265      6.352
REMARK  1 active torsions:
REMARK  status: ('A' for Active; 'I' for Inactive)
REMARK    1  A    between atoms: C_10  and  C_11 
ROOT
ATOM      1  C   LIG d   1       4.477   1.495  -2.427  0.00  0.00    -0.061 A 
ATOM      2  C   LIG d   1       3.362   0.686  -2.310  0.00  0.00    -0.061 A 
ATOM      3  C   LIG d   1       3.415  -0.640  -2.703  0.00  0.00    -0.050 A 
ATOM      4  C   LIG d   1       4.594  -1.167  -3.219  0.00  0.00     0.033 A 
ATOM      5  C   LIG d   1       5.729  -0.346  -3.337  0.00  0.00     0.033 A 
ATOM      6  C   LIG d   1       5.658   0.987  -2.943  0.00  0.00    -0.050 A 
ATOM      7  C   LIG d   1       6.842  -1.141  -3.907  0.00  0.00     0.198 A 
ATOM      8  O   LIG d   1       7.965  -0.740  -4.141  0.00  0.00    -0.286 OA
ATOM      9  C   LIG d   1       6.341  -2.509  -4.141  0.00  0.00     0.070 A 
ATOM     10  C   LIG d   1       7.047  -3.558  -4.657  0.00  0.00    -0.040 C 
ATOM     11  C   LIG d   1       4.930  -2.526  -3.709  0.00  0.00     0.198 A 
ATOM     12  O   LIG d   1       4.180  -3.480  -3.747  0.00  0.00    -0.286 OA
ATOM     13  H   LIG d   1       4.426   2.527  -2.118  0.00  0.00     0.062 H 
ATOM     14  H   LIG d   1       2.444   1.092  -1.911  0.00  0.00     0.062 H 
ATOM     15  H   LIG d   1       2.539  -1.266  -2.610  0.00  0.00     0.062 H 
ATOM     16  H   LIG d   1       6.524   1.624  -3.036  0.00  0.00     0.062 H 
ATOM     17  H   LIG d   1       6.617  -4.549  -4.659  0.00  0.00     0.063 H 
ENDROOT
BRANCH  10  18
ATOM     18  C   LIG d   1       8.388  -3.339  -5.208  0.00  0.00    -0.024 A 
ATOM     19  C   LIG d   1       8.545  -2.931  -6.538  0.00  0.00    -0.053 A 
ATOM     20  C   LIG d   1       9.809  -2.728  -7.048  0.00  0.00    -0.047 A 
ATOM     21  H   LIG d   1       7.678  -2.776  -7.164  0.00  0.00     0.062 H 
ATOM     22  C   LIG d   1      10.923  -2.926  -6.248  0.00  0.00     0.018 A 
ATOM     23  H   LIG d   1       9.932  -2.413  -8.074  0.00  0.00     0.063 H 
ATOM     24  C   LIG d   1      10.777  -3.330  -4.930  0.00  0.00    -0.047 A 
ATOM     25 BR   LIG d   1      12.653  -2.644  -6.958  0.00  0.00    -0.050 Br
ATOM     26  C   LIG d   1       9.519  -3.532  -4.404  0.00  0.00    -0.053 A 
ATOM     27  H   LIG d   1      11.649  -3.483  -4.314  0.00  0.00     0.063 H 
ATOM     28  H   LIG d   1       9.406  -3.842  -3.376  0.00  0.00     0.062 H 
ENDBRANCH  10  18
TORSDOF 1
ENDMDL
MODEL 5
REMARK VINA RESULT:      -5.9      5.071      5.768
REMARK  1 active torsions:
REMARK  status: ('A' for Active; 'I' for Inactive)
REMARK    1  A    between atoms: C_10  and  C_11 
ROOT
ATOM      1  C   LIG d   1       4.411  -3.159  -3.528  0.00  0.00    -0.061 A 
ATOM      2  C   LIG d   1       3.734  -2.463  -2.545  0.00  0.00    -0.061 A 
ATOM      3  C   LIG d   1       4.095  -1.164  -2.230  0.00  0.00    -0.050 A 
ATOM      4  C   LIG d   1       5.145  -0.551  -2.905  0.00  0.00     0.033 A 
ATOM      5  C   LIG d   1       5.834  -1.257  -3.907  0.00  0.00     0.033 A 
ATOM      6  C   LIG d   1       5.462  -2.565  -4.207  0.00  0.00    -0.050 A 
ATOM      7  C   LIG d   1       6.896  -0.387  -4.466  0.00  0.00     0.198 A 
ATOM      8  O   LIG d   1       7.678  -0.685  -5.348  0.00  0.00    -0.286 OA
ATOM      9  C   LIG d   1       6.834   0.906  -3.758  0.00  0.00     0.070 A 
ATOM     10  C   LIG d   1       7.640   1.988  -3.969  0.00  0.00    -0.040 C 
ATOM     11  C   LIG d   1       5.736   0.804  -2.778  0.00  0.00     0.198 A 
ATOM     12  O   LIG d   1       5.379   1.672  -2.008  0.00  0.00    -0.286 OA
ATOM     13  H   LIG d   1       4.123  -4.171  -3.766  0.00  0.00     0.062 H 
ATOM     14  H   LIG d   1       2.918  -2.936  -2.017  0.00  0.00     0.062 H 
ATOM     15  H   LIG d   1       3.562  -0.627  -1.460  0.00  0.00     0.062 H 
ATOM     16  H   LIG d   1       5.991  -3.114  -4.971  0.00  0.00     0.062 H 
ATOM     17  H   LIG d   1       7.417   2.929  -3.485  0.00  0.00     0.063 H 
ENDROOT
BRANCH  10  18
ATOM     18  C   LIG d   1       8.805   1.876  -4.852  0.00  0.00    -0.024 A 
ATOM     19  C   LIG d   1       8.701   2.225  -6.204  0.00  0.00    -0.053 A 
ATOM     20  C   LIG d   1       9.801   2.116  -7.027  0.00  0.00    -0.047 A 
ATOM     21  H   LIG d   1       7.761   2.578  -6.602  0.00  0.00     0.062 H 
ATOM     22  C   LIG d   1      11.008   1.663  -6.519  0.00  0.00     0.018 A 
ATOM     23  H   LIG d   1       9.722   2.384  -8.070  0.00  0.00     0.063 H 
ATOM     24  C   LIG d   1      11.120   1.316  -5.182  0.00  0.00    -0.047 A 
ATOM     25 BR   LIG d   1      12.511   1.518  -7.657  0.00  0.00    -0.050 Br
ATOM     26  C   LIG d   1      10.031   1.424  -4.345  0.00  0.00    -0.053 A 
ATOM     27  H   LIG d   1      12.064   0.963  -4.794  0.00  0.00     0.063 H 
ATOM     28  H   LIG d   1      10.121   1.158  -3.303  0.00  0.00     0.062 H 
ENDBRANCH  10  18
TORSDOF 1
ENDMDL
MODEL 6
REMARK VINA RESULT:      -5.7      3.215      6.233
REMARK  1 active torsions:
REMARK  status: ('A' for Active; 'I' for Inactive)
REMARK    1  A    between atoms: C_10  and  C_11 
ROOT
ATOM      1  C   LIG d   1       4.434   1.740  -9.894  0.00  0.00    -0.061 A 
ATOM      2  C   LIG d   1       3.214   2.168  -9.404  0.00  0.00    -0.061 A 
ATOM      3  C   LIG d   1       2.745   1.699  -8.189  0.00  0.00    -0.050 A 
ATOM      4  C   LIG d   1       3.501   0.793  -7.453  0.00  0.00     0.033 A 
ATOM      5  C   LIG d   1       4.742   0.358  -7.950  0.00  0.00     0.033 A 
ATOM      6  C   LIG d   1       5.197   0.835  -9.177  0.00  0.00    -0.050 A 
ATOM      7  C   LIG d   1       5.341  -0.594  -6.985  0.00  0.00     0.198 A 
ATOM      8  O   LIG d   1       6.411  -1.159  -7.104  0.00  0.00    -0.286 OA
ATOM      9  C   LIG d   1       4.405  -0.732  -5.853  0.00  0.00     0.070 A 
ATOM     10  C   LIG d   1       4.575  -1.515  -4.747  0.00  0.00    -0.040 C 
ATOM     11  C   LIG d   1       3.250   0.138  -6.147  0.00  0.00     0.198 A 
ATOM     12  O   LIG d   1       2.271   0.291  -5.445  0.00  0.00    -0.286 OA
ATOM     13  H   LIG d   1       4.791   2.111 -10.843  0.00  0.00     0.062 H 
ATOM     14  H   LIG d   1       2.623   2.871  -9.973  0.00  0.00     0.062 H 
ATOM     15  H   LIG d   1       1.791   2.037  -7.813  0.00  0.00     0.062 H 
ATOM     16  H   LIG d   1       6.147   0.501  -9.566  0.00  0.00     0.062 H 
ATOM     17  H   LIG d   1       3.885  -1.436  -3.919  0.00  0.00     0.063 H 
ENDROOT
BRANCH  10  18
ATOM     18  C   LIG d   1       5.692  -2.462  -4.683  0.00  0.00    -0.024 A 
ATOM     19  C   LIG d   1       6.857  -2.131  -3.981  0.00  0.00    -0.053 A 
ATOM     20  C   LIG d   1       7.903  -3.027  -3.925  0.00  0.00    -0.047 A 
ATOM     21  H   LIG d   1       6.937  -1.175  -3.484  0.00  0.00     0.062 H 
ATOM     22  C   LIG d   1       7.803  -4.254  -4.562  0.00  0.00     0.018 A 
ATOM     23  H   LIG d   1       8.803  -2.773  -3.384  0.00  0.00     0.063 H 
ATOM     24  C   LIG d   1       6.653  -4.590  -5.260  0.00  0.00    -0.047 A 
ATOM     25 BR   LIG d   1       9.243  -5.476  -4.480  0.00  0.00    -0.050 Br
ATOM     26  C   LIG d   1       5.597  -3.707  -5.320  0.00  0.00    -0.053 A 
ATOM     27  H   LIG d   1       6.583  -5.547  -5.753  0.00  0.00     0.063 H 
ATOM     28  H   LIG d   1       4.700  -3.972  -5.859  0.00  0.00     0.062 H 
ENDBRANCH  10  18
TORSDOF 1
ENDMDL
MODEL 7
REMARK VINA RESULT:      -5.5     11.890     13.441
REMARK  1 active torsions:
REMARK  status: ('A' for Active; 'I' for Inactive)
REMARK    1  A    between atoms: C_10  and  C_11 
ROOT
ATOM      1  C   LIG d   1       4.848 -13.473  -7.728  0.00  0.00    -0.061 A 
ATOM      2  C   LIG d   1       3.492 -13.223  -7.624  0.00  0.00    -0.061 A 
ATOM      3  C   LIG d   1       2.990 -12.528  -6.537  0.00  0.00    -0.050 A 
ATOM      4  C   LIG d   1       3.850 -12.076  -5.542  0.00  0.00     0.033 A 
ATOM      5  C   LIG d   1       5.228 -12.329  -5.648  0.00  0.00     0.033 A 
ATOM      6  C   LIG d   1       5.717 -13.035  -6.744  0.00  0.00    -0.050 A 
ATOM      7  C   LIG d   1       5.917 -11.747  -4.471  0.00  0.00     0.198 A 
ATOM      8  O   LIG d   1       7.111 -11.784  -4.246  0.00  0.00    -0.286 OA
ATOM      9  C   LIG d   1       4.890 -11.114  -3.620  0.00  0.00     0.070 A 
ATOM     10  C   LIG d   1       5.101 -10.464  -2.438  0.00  0.00    -0.040 C 
ATOM     11  C   LIG d   1       3.593 -11.321  -4.292  0.00  0.00     0.198 A 
ATOM     12  O   LIG d   1       2.511 -10.940  -3.894  0.00  0.00    -0.286 OA
ATOM     13  H   LIG d   1       5.229 -14.016  -8.579  0.00  0.00     0.062 H 
ATOM     14  H   LIG d   1       2.820 -13.573  -8.395  0.00  0.00     0.062 H 
ATOM     15  H   LIG d   1       1.929 -12.337  -6.462  0.00  0.00     0.062 H 
ATOM     16  H   LIG d   1       6.774 -13.236  -6.828  0.00  0.00     0.062 H 
ATOM     17  H   LIG d   1       4.292  -9.923  -1.968  0.00  0.00     0.063 H 
ENDROOT
BRANCH  10  18
ATOM     18  C   LIG d   1       6.424 -10.497  -1.807  0.00  0.00    -0.024 A 
ATOM     19  C   LIG d   1       7.325  -9.444  -2.004  0.00  0.00    -0.053 A 
ATOM     20  C   LIG d   1       8.568  -9.483  -1.407  0.00  0.00    -0.047 A 
ATOM     21  H   LIG d   1       7.049  -8.602  -2.622  0.00  0.00     0.062 H 
ATOM     22  C   LIG d   1       8.925 -10.562  -0.614  0.00  0.00     0.018 A 
ATOM     23  H   LIG d   1       9.264  -8.671  -1.558  0.00  0.00     0.063 H 
ATOM     24  C   LIG d   1       8.039 -11.608  -0.414  0.00  0.00    -0.047 A 
ATOM     25 BR   LIG d   1      10.631 -10.605   0.199  0.00  0.00    -0.050 Br
ATOM     26  C   LIG d   1       6.791 -11.581  -0.999  0.00  0.00    -0.053 A 
ATOM     27  H   LIG d   1       8.325 -12.445   0.205  0.00  0.00     0.063 H 
ATOM     28  H   LIG d   1       6.101 -12.395  -0.839  0.00  0.00     0.062 H 
ENDBRANCH  10  18
TORSDOF 1
ENDMDL
MODEL 8
REMARK VINA RESULT:      -5.4      5.038      7.477
REMARK  1 active torsions:
REMARK  status: ('A' for Active; 'I' for Inactive)
REMARK    1  A    between atoms: C_10  and  C_11 
ROOT
ATOM      1  C   LIG d   1      11.083  -5.425  -3.862  0.00  0.00    -0.061 A 
ATOM      2  C   LIG d   1      10.749  -6.586  -4.533  0.00  0.00    -0.061 A 
ATOM      3  C   LIG d   1       9.481  -6.747  -5.065  0.00  0.00    -0.050 A 
ATOM      4  C   LIG d   1       8.534  -5.738  -4.927  0.00  0.00     0.033 A 
ATOM      5  C   LIG d   1       8.874  -4.556  -4.245  0.00  0.00     0.033 A 
ATOM      6  C   LIG d   1      10.151  -4.412  -3.711  0.00  0.00    -0.050 A 
ATOM      7  C   LIG d   1       7.700  -3.650  -4.238  0.00  0.00     0.198 A 
ATOM      8  O   LIG d   1       7.649  -2.546  -3.733  0.00  0.00    -0.286 OA
ATOM      9  C   LIG d   1       6.605  -4.332  -4.954  0.00  0.00     0.070 A 
ATOM     10  C   LIG d   1       5.349  -3.844  -5.174  0.00  0.00    -0.040 C 
ATOM     11  C   LIG d   1       7.128  -5.642  -5.386  0.00  0.00     0.198 A 
ATOM     12  O   LIG d   1       6.517  -6.489  -6.007  0.00  0.00    -0.286 OA
ATOM     13  H   LIG d   1      12.074  -5.308  -3.451  0.00  0.00     0.062 H 
ATOM     14  H   LIG d   1      11.482  -7.373  -4.643  0.00  0.00     0.062 H 
ATOM     15  H   LIG d   1       9.228  -7.658  -5.588  0.00  0.00     0.062 H 
ATOM     16  H   LIG d   1      10.416  -3.509  -3.182  0.00  0.00     0.062 H 
ATOM     17  H   LIG d   1       4.670  -4.374  -5.827  0.00  0.00     0.063 H 
ENDROOT
BRANCH  10  18
ATOM     18  C   LIG d   1       4.921  -2.600  -4.526  0.00  0.00    -0.024 A 
ATOM     19  C   LIG d   1       5.018  -1.381  -5.208  0.00  0.00    -0.053 A 
ATOM     20  C   LIG d   1       4.614  -0.216  -4.592  0.00  0.00    -0.047 A 
ATOM     21  H   LIG d   1       5.411  -1.352  -6.214  0.00  0.00     0.062 H 
ATOM     22  C   LIG d   1       4.111  -0.250  -3.301  0.00  0.00     0.018 A 
ATOM     23  H   LIG d   1       4.690   0.726  -5.116  0.00  0.00     0.063 H 
ATOM     24  C   LIG d   1       4.010  -1.452  -2.619  0.00  0.00    -0.047 A 
ATOM     25 BR   LIG d   1       3.559   1.354  -2.465  0.00  0.00    -0.050 Br
ATOM     26  C   LIG d   1       4.405  -2.626  -3.224  0.00  0.00    -0.053 A 
ATOM     27  H   LIG d   1       3.617  -1.470  -1.614  0.00  0.00     0.063 H 
ATOM     28  H   LIG d   1       4.322  -3.562  -2.693  0.00  0.00     0.062 H 
ENDBRANCH  10  18
TORSDOF 1
ENDMDL
MODEL 9
REMARK VINA RESULT:      -5.4     10.458     12.204
REMARK  1 active torsions:
REMARK  status: ('A' for Active; 'I' for Inactive)
REMARK    1  A    between atoms: C_10  and  C_11 
ROOT
ATOM      1  C   LIG d   1       9.894   5.756  -7.471  0.00  0.00    -0.061 A 
ATOM      2  C   LIG d   1       9.805   4.413  -7.158  0.00  0.00    -0.061 A 
ATOM      3  C   LIG d   1       9.746   4.005  -5.836  0.00  0.00    -0.050 A 
ATOM      4  C   LIG d   1       9.776   4.948  -4.814  0.00  0.00     0.033 A 
ATOM      5  C   LIG d   1       9.866   6.314  -5.132  0.00  0.00     0.033 A 
ATOM      6  C   LIG d   1       9.930   6.708  -6.466  0.00  0.00    -0.050 A 
ATOM      7  C   LIG d   1       9.879   7.101  -3.876  0.00  0.00     0.198 A 
ATOM      8  O   LIG d   1       9.949   8.312  -3.788  0.00  0.00    -0.286 OA
ATOM      9  C   LIG d   1       9.793   6.150  -2.751  0.00  0.00     0.070 A 
ATOM     10  C   LIG d   1       9.777   6.462  -1.422  0.00  0.00    -0.040 C 
ATOM     11  C   LIG d   1       9.729   4.799  -3.339  0.00  0.00     0.198 A 
ATOM     12  O   LIG d   1       9.650   3.753  -2.727  0.00  0.00    -0.286 OA
ATOM     13  H   LIG d   1       9.940   6.064  -8.504  0.00  0.00     0.062 H 
ATOM     14  H   LIG d   1       9.782   3.677  -7.949  0.00  0.00     0.062 H 
ATOM     15  H   LIG d   1       9.677   2.953  -5.599  0.00  0.00     0.062 H 
ATOM     16  H   LIG d   1      10.004   7.755  -6.716  0.00  0.00     0.062 H 
ATOM     17  H   LIG d   1       9.576   5.692  -0.690  0.00  0.00     0.063 H 
ENDROOT
BRANCH  10  18
ATOM     18  C   LIG d   1      10.030   7.839  -0.987  0.00  0.00    -0.024 A 
ATOM     19  C   LIG d   1       8.965   8.733  -0.824  0.00  0.00    -0.053 A 
ATOM     20  C   LIG d   1       9.212  10.026  -0.415  0.00  0.00    -0.047 A 
ATOM     21  H   LIG d   1       7.953   8.412  -1.019  0.00  0.00     0.062 H 
ATOM     22  C   LIG d   1      10.511  10.441  -0.165  0.00  0.00     0.018 A 
ATOM     23  H   LIG d   1       8.392  10.718  -0.289  0.00  0.00     0.063 H 
ATOM     24  C   LIG d   1      11.570   9.563  -0.323  0.00  0.00    -0.047 A 
ATOM     25 BR   LIG d   1      10.838  12.217   0.395  0.00  0.00    -0.050 Br
ATOM     26  C   LIG d   1      11.339   8.265  -0.727  0.00  0.00    -0.053 A 
ATOM     27  H   LIG d   1      12.579   9.894  -0.127  0.00  0.00     0.063 H 
ATOM     28  H   LIG d   1      12.165   7.580  -0.845  0.00  0.00     0.062 H 
ENDBRANCH  10  18
TORSDOF 1
ENDMDL
MODEL 10
REMARK VINA RESULT:      -5.1      4.817      6.770
REMARK  1 active torsions:
REMARK  status: ('A' for Active; 'I' for Inactive)
REMARK    1  A    between atoms: C_10  and  C_11 
ROOT
ATOM      1  C   LIG d   1       7.700  -8.106  -5.320  0.00  0.00    -0.061 A 
ATOM      2  C   LIG d   1       6.436  -8.606  -5.571  0.00  0.00    -0.061 A 
ATOM      3  C   LIG d   1       5.359  -7.748  -5.713  0.00  0.00    -0.050 A 
ATOM      4  C   LIG d   1       5.544  -6.374  -5.603  0.00  0.00     0.033 A 
ATOM      5  C   LIG d   1       6.829  -5.864  -5.349  0.00  0.00     0.033 A 
ATOM      6  C   LIG d   1       7.901  -6.741  -5.202  0.00  0.00    -0.050 A 
ATOM      7  C   LIG d   1       6.756  -4.385  -5.280  0.00  0.00     0.198 A 
ATOM      8  O   LIG d   1       7.685  -3.629  -5.074  0.00  0.00    -0.286 OA
ATOM      9  C   LIG d   1       5.351  -3.996  -5.505  0.00  0.00     0.070 A 
ATOM     10  C   LIG d   1       4.851  -2.725  -5.523  0.00  0.00    -0.040 C 
ATOM     11  C   LIG d   1       4.590  -5.244  -5.708  0.00  0.00     0.198 A 
ATOM     12  O   LIG d   1       3.398  -5.329  -5.923  0.00  0.00    -0.286 OA
ATOM     13  H   LIG d   1       8.533  -8.782  -5.210  0.00  0.00     0.062 H 
ATOM     14  H   LIG d   1       6.288  -9.673  -5.656  0.00  0.00     0.062 H 
ATOM     15  H   LIG d   1       4.374  -8.146  -5.908  0.00  0.00     0.062 H 
ATOM     16  H   LIG d   1       8.889  -6.356  -5.002  0.00  0.00     0.062 H 
ATOM     17  H   LIG d   1       3.830  -2.551  -5.830  0.00  0.00     0.063 H 
ENDROOT
BRANCH  10  18
ATOM     18  C   LIG d   1       5.699  -1.597  -5.125  0.00  0.00    -0.024 A 
ATOM     19  C   LIG d   1       5.854  -1.275  -3.771  0.00  0.00    -0.053 A 
ATOM     20  C   LIG d   1       6.653  -0.213  -3.406  0.00  0.00    -0.047 A 
ATOM     21  H   LIG d   1       5.348  -1.856  -3.014  0.00  0.00     0.062 H 
ATOM     22  C   LIG d   1       7.304   0.534  -4.375  0.00  0.00     0.018 A 
ATOM     23  H   LIG d   1       6.773   0.037  -2.362  0.00  0.00     0.063 H 
ATOM     24  C   LIG d   1       7.157   0.222  -5.717  0.00  0.00    -0.047 A 
ATOM     25 BR   LIG d   1       8.398   1.989  -3.863  0.00  0.00    -0.050 Br
ATOM     26  C   LIG d   1       6.365  -0.840  -6.098  0.00  0.00    -0.053 A 
ATOM     27  H   LIG d   1       7.667   0.809  -6.466  0.00  0.00     0.063 H 
ATOM     28  H   LIG d   1       6.255  -1.085  -7.144  0.00  0.00     0.062 H 
ENDBRANCH  10  18
TORSDOF 1
ENDMDL
