MODEL 1
REMARK VINA RESULT:      -5.5      0.000      0.000
REMARK  12 active torsions:
REMARK  status: ('A' for Active; 'I' for Inactive)
REMARK    1  A    between atoms: C_1  and  C_2 
REMARK    2  A    between atoms: C_2  and  C_3 
REMARK    3  A    between atoms: C_3  and  C_4 
REMARK    4  A    between atoms: C_4  and  C_5 
REMARK    5  A    between atoms: C_5  and  C_6 
REMARK    6  A    between atoms: C_6  and  C_8 
REMARK    7  A    between atoms: C_6  and  C_23 
REMARK    8  A    between atoms: C_8  and  C_10 
REMARK    9  A    between atoms: C_8  and  C_11 
REMARK   10  A    between atoms: C_11  and  C_12 
REMARK       I    between atoms: C_12  and  N_14 
REMARK   11  A    between atoms: N_14  and  C_15 
REMARK   12  A    between atoms: C_18  and  C_21 
ROOT
ATOM      1  C   LIG d   1       6.969  -2.075  -4.154  0.00  0.00    -0.028 C 
ATOM      2  H   LIG d   1       7.396  -1.592  -5.032  0.00  0.00     0.031 H 
ENDROOT
BRANCH   1   3
ATOM      3  C   LIG d   1       6.430  -1.012  -3.197  0.00  0.00     0.002 C 
ATOM      4  H   LIG d   1       7.072  -0.953  -2.318  0.00  0.00     0.036 H 
BRANCH   3   5
ATOM      5  C   LIG d   1       5.010  -1.386  -2.765  0.00  0.00    -0.045 C 
ATOM      6  H   LIG d   1       4.364  -1.432  -3.642  0.00  0.00     0.027 H 
ATOM      7  H   LIG d   1       5.024  -2.358  -2.273  0.00  0.00     0.027 H 
BRANCH   5   8
ATOM      8  C   LIG d   1       4.478  -0.330  -1.794  0.00  0.00    -0.052 C 
ATOM      9  H   LIG d   1       4.158  -0.813  -0.871  0.00  0.00     0.026 H 
ATOM     10  H   LIG d   1       5.265   0.391  -1.572  0.00  0.00     0.026 H 
BRANCH   8  11
ATOM     11  C   LIG d   1       3.289   0.393  -2.429  0.00  0.00    -0.053 C 
ATOM     12  H   LIG d   1       2.533   0.588  -1.668  0.00  0.00     0.026 H 
ATOM     13  H   LIG d   1       3.625   1.339  -2.857  0.00  0.00     0.026 H 
BRANCH  11  14
ATOM     14  C   LIG d   1       2.689  -0.481  -3.532  0.00  0.00    -0.056 C 
ATOM     15  H   LIG d   1       3.409  -1.247  -3.821  0.00  0.00     0.026 H 
ATOM     16  H   LIG d   1       1.780  -0.956  -3.164  0.00  0.00     0.026 H 
BRANCH  14  17
ATOM     17  C   LIG d   1       2.355   0.387  -4.747  0.00  0.00    -0.065 C 
ATOM     18  H   LIG d   1       3.275   0.792  -5.169  0.00  0.00     0.023 H 
ATOM     19  H   LIG d   1       1.847  -0.218  -5.497  0.00  0.00     0.023 H 
ATOM     20  H   LIG d   1       1.705   1.207  -4.440  0.00  0.00     0.023 H 
ENDBRANCH  14  17
ENDBRANCH  11  14
ENDBRANCH   8  11
ENDBRANCH   5   8
ENDBRANCH   3   5
BRANCH   3  21
ATOM     21  C   LIG d   1       6.407   0.326  -3.891  0.00  0.00     0.045 C 
ATOM     22  O   LIG d   1       5.870   0.437  -4.968  0.00  0.00    -0.549 OA
ATOM     23  O   LIG d   1       6.982   1.392  -3.315  0.00  0.00    -0.549 OA
ENDBRANCH   3  21
ENDBRANCH   1   3
BRANCH   1  24
ATOM     24  C   LIG d   1       8.048  -2.898  -3.448  0.00  0.00    -0.061 C 
ATOM     25  H   LIG d   1       8.620  -3.459  -4.187  0.00  0.00     0.023 H 
ATOM     26  H   LIG d   1       8.717  -2.229  -2.904  0.00  0.00     0.023 H 
ATOM     27  H   LIG d   1       7.579  -3.590  -2.749  0.00  0.00     0.023 H 
ENDBRANCH   1  24
BRANCH   1  28
ATOM     28  C   LIG d   1       5.827  -2.998  -4.587  0.00  0.00     0.027 C 
ATOM     29  H   LIG d   1       6.141  -4.037  -4.486  0.00  0.00     0.036 H 
ATOM     30  H   LIG d   1       4.957  -2.819  -3.956  0.00  0.00     0.036 H 
BRANCH  28  31
ATOM     31  C   LIG d   1       5.472  -2.717  -6.025  0.00  0.00     0.217 C 
ATOM     32  O   LIG d   1       6.243  -3.020  -6.910  0.00  0.00    -0.276 OA
ATOM     33  N   LIG d   1       4.297  -2.130  -6.326  0.00  0.00    -0.285 N 
ATOM     34  H   LIG d   1       3.647  -1.957  -5.626  0.00  0.00     0.155 HD
BRANCH  33  35
ATOM     35  C   LIG d   1       4.014  -1.770  -7.643  0.00  0.00     0.033 A 
ATOM     36  C   LIG d   1       3.555  -2.728  -8.540  0.00  0.00    -0.040 A 
ATOM     37  C   LIG d   1       3.275  -2.376  -9.842  0.00  0.00    -0.051 A 
ATOM     38  H   LIG d   1       3.418  -3.749  -8.217  0.00  0.00     0.064 H 
ATOM     39  C   LIG d   1       3.453  -1.054 -10.261  0.00  0.00    -0.003 A 
ATOM     40  H   LIG d   1       2.919  -3.120 -10.539  0.00  0.00     0.062 H 
ATOM     41  C   LIG d   1       3.916  -0.094  -9.356  0.00  0.00    -0.051 A 
ATOM     42  C   LIG d   1       4.189  -0.453  -8.054  0.00  0.00    -0.040 A 
ATOM     43  H   LIG d   1       4.056   0.928  -9.675  0.00  0.00     0.062 H 
ATOM     44  H   LIG d   1       4.541   0.289  -7.353  0.00  0.00     0.064 H 
BRANCH  39  45
ATOM     45  C   LIG d   1       3.156  -0.673 -11.654  0.00  0.00     0.072 C 
ATOM     46  O   LIG d   1       4.002  -0.117 -12.326  0.00  0.00    -0.545 OA
ATOM     47  O   LIG d   1       1.946  -0.942 -12.181  0.00  0.00    -0.545 OA
ENDBRANCH  39  45
ENDBRANCH  33  35
ENDBRANCH  28  31
ENDBRANCH   1  28
TORSDOF 12
ENDMDL
MODEL 2
REMARK VINA RESULT:      -5.3      4.029      8.014
REMARK  12 active torsions:
REMARK  status: ('A' for Active; 'I' for Inactive)
REMARK    1  A    between atoms: C_1  and  C_2 
REMARK    2  A    between atoms: C_2  and  C_3 
REMARK    3  A    between atoms: C_3  and  C_4 
REMARK    4  A    between atoms: C_4  and  C_5 
REMARK    5  A    between atoms: C_5  and  C_6 
REMARK    6  A    between atoms: C_6  and  C_8 
REMARK    7  A    between atoms: C_6  and  C_23 
REMARK    8  A    between atoms: C_8  and  C_10 
REMARK    9  A    between atoms: C_8  and  C_11 
REMARK   10  A    between atoms: C_11  and  C_12 
REMARK       I    between atoms: C_12  and  N_14 
REMARK   11  A    between atoms: N_14  and  C_15 
REMARK   12  A    between atoms: C_18  and  C_21 
ROOT
ATOM      1  C   LIG d   1       6.361  -1.788  -4.733  0.00  0.00    -0.028 C 
ATOM      2  H   LIG d   1       6.881  -2.343  -5.514  0.00  0.00     0.031 H 
ENDROOT
BRANCH   1   3
ATOM      3  C   LIG d   1       4.897  -2.229  -4.682  0.00  0.00     0.002 C 
ATOM      4  H   LIG d   1       4.267  -1.450  -5.111  0.00  0.00     0.036 H 
BRANCH   3   5
ATOM      5  C   LIG d   1       4.488  -2.470  -3.227  0.00  0.00    -0.045 C 
ATOM      6  H   LIG d   1       3.899  -3.386  -3.163  0.00  0.00     0.027 H 
ATOM      7  H   LIG d   1       5.380  -2.569  -2.610  0.00  0.00     0.027 H 
BRANCH   5   8
ATOM      8  C   LIG d   1       3.652  -1.289  -2.730  0.00  0.00    -0.052 C 
ATOM      9  H   LIG d   1       3.499  -0.583  -3.545  0.00  0.00     0.026 H 
ATOM     10  H   LIG d   1       2.687  -1.650  -2.376  0.00  0.00     0.026 H 
BRANCH   8  11
ATOM     11  C   LIG d   1       4.387  -0.592  -1.583  0.00  0.00    -0.053 C 
ATOM     12  H   LIG d   1       3.803  -0.684  -0.667  0.00  0.00     0.026 H 
ATOM     13  H   LIG d   1       5.363  -1.059  -1.439  0.00  0.00     0.026 H 
BRANCH  11  14
ATOM     14  C   LIG d   1       4.576   0.888  -1.922  0.00  0.00    -0.056 C 
ATOM     15  H   LIG d   1       4.421   1.488  -1.025  0.00  0.00     0.026 H 
ATOM     16  H   LIG d   1       5.587   1.048  -2.296  0.00  0.00     0.026 H 
BRANCH  14  17
ATOM     17  C   LIG d   1       3.564   1.300  -2.992  0.00  0.00    -0.065 C 
ATOM     18  H   LIG d   1       3.996   2.080  -3.620  0.00  0.00     0.023 H 
ATOM     19  H   LIG d   1       3.313   0.436  -3.607  0.00  0.00     0.023 H 
ATOM     20  H   LIG d   1       2.662   1.679  -2.511  0.00  0.00     0.023 H 
ENDBRANCH  14  17
ENDBRANCH  11  14
ENDBRANCH   8  11
ENDBRANCH   5   8
ENDBRANCH   3   5
BRANCH   3  21
ATOM     21  C   LIG d   1       4.727  -3.503  -5.469  0.00  0.00     0.045 C 
ATOM     22  O   LIG d   1       4.382  -4.516  -4.908  0.00  0.00    -0.549 OA
ATOM     23  O   LIG d   1       4.958  -3.512  -6.791  0.00  0.00    -0.549 OA
ENDBRANCH   3  21
ENDBRANCH   1   3
BRANCH   1  24
ATOM     24  C   LIG d   1       6.432  -0.290  -5.037  0.00  0.00    -0.061 C 
ATOM     25  H   LIG d   1       7.154   0.182  -4.370  0.00  0.00     0.023 H 
ATOM     26  H   LIG d   1       6.745  -0.144  -6.071  0.00  0.00     0.023 H 
ATOM     27  H   LIG d   1       5.450   0.158  -4.887  0.00  0.00     0.023 H 
ENDBRANCH   1  24
BRANCH   1  28
ATOM     28  C   LIG d   1       7.025  -2.067  -3.383  0.00  0.00     0.027 C 
ATOM     29  H   LIG d   1       7.468  -1.147  -3.000  0.00  0.00     0.036 H 
ATOM     30  H   LIG d   1       6.277  -2.431  -2.679  0.00  0.00     0.036 H 
BRANCH  28  31
ATOM     31  C   LIG d   1       8.101  -3.108  -3.558  0.00  0.00     0.217 C 
ATOM     32  O   LIG d   1       8.140  -3.776  -4.568  0.00  0.00    -0.276 OA
ATOM     33  N   LIG d   1       9.021  -3.295  -2.591  0.00  0.00    -0.285 N 
ATOM     34  H   LIG d   1       9.037  -2.709  -1.817  0.00  0.00     0.155 HD
BRANCH  33  35
ATOM     35  C   LIG d   1       9.949  -4.329  -2.701  0.00  0.00     0.033 A 
ATOM     36  C   LIG d   1       9.693  -5.557  -2.100  0.00  0.00    -0.040 A 
ATOM     37  C   LIG d   1      10.607  -6.581  -2.207  0.00  0.00    -0.051 A 
ATOM     38  H   LIG d   1       8.777  -5.708  -1.549  0.00  0.00     0.064 H 
ATOM     39  C   LIG d   1      11.793  -6.386  -2.921  0.00  0.00    -0.003 A 
ATOM     40  H   LIG d   1      10.408  -7.535  -1.741  0.00  0.00     0.062 H 
ATOM     41  C   LIG d   1      12.047  -5.150  -3.522  0.00  0.00    -0.051 A 
ATOM     42  C   LIG d   1      11.126  -4.132  -3.416  0.00  0.00    -0.040 A 
ATOM     43  H   LIG d   1      12.963  -4.994  -4.074  0.00  0.00     0.062 H 
ATOM     44  H   LIG d   1      11.319  -3.178  -3.884  0.00  0.00     0.064 H 
BRANCH  39  45
ATOM     45  C   LIG d   1      12.775  -7.480  -3.037  0.00  0.00     0.072 C 
ATOM     46  O   LIG d   1      12.726  -8.424  -2.274  0.00  0.00    -0.545 OA
ATOM     47  O   LIG d   1      13.727  -7.432  -3.989  0.00  0.00    -0.545 OA
ENDBRANCH  39  45
ENDBRANCH  33  35
ENDBRANCH  28  31
ENDBRANCH   1  28
TORSDOF 12
ENDMDL
MODEL 3
REMARK VINA RESULT:      -5.3      2.513      8.029
REMARK  12 active torsions:
REMARK  status: ('A' for Active; 'I' for Inactive)
REMARK    1  A    between atoms: C_1  and  C_2 
REMARK    2  A    between atoms: C_2  and  C_3 
REMARK    3  A    between atoms: C_3  and  C_4 
REMARK    4  A    between atoms: C_4  and  C_5 
REMARK    5  A    between atoms: C_5  and  C_6 
REMARK    6  A    between atoms: C_6  and  C_8 
REMARK    7  A    between atoms: C_6  and  C_23 
REMARK    8  A    between atoms: C_8  and  C_10 
REMARK    9  A    between atoms: C_8  and  C_11 
REMARK   10  A    between atoms: C_11  and  C_12 
REMARK       I    between atoms: C_12  and  N_14 
REMARK   11  A    between atoms: N_14  and  C_15 
REMARK   12  A    between atoms: C_18  and  C_21 
ROOT
ATOM      1  C   LIG d   1       3.534  -0.182 -10.310  0.00  0.00    -0.028 C 
ATOM      2  H   LIG d   1       4.326  -0.441  -9.607  0.00  0.00     0.031 H 
ENDROOT
BRANCH   1   3
ATOM      3  C   LIG d   1       2.905  -1.461 -10.863  0.00  0.00     0.002 C 
ATOM      4  H   LIG d   1       3.160  -1.567 -11.917  0.00  0.00     0.036 H 
BRANCH   3   5
ATOM      5  C   LIG d   1       1.383  -1.387 -10.712  0.00  0.00    -0.045 C 
ATOM      6  H   LIG d   1       1.030  -2.257 -10.157  0.00  0.00     0.027 H 
ATOM      7  H   LIG d   1       1.115  -0.480 -10.172  0.00  0.00     0.027 H 
BRANCH   5   8
ATOM      8  C   LIG d   1       0.734  -1.368 -12.097  0.00  0.00    -0.052 C 
ATOM      9  H   LIG d   1      -0.184  -1.954 -12.077  0.00  0.00     0.026 H 
ATOM     10  H   LIG d   1       0.502  -0.340 -12.376  0.00  0.00     0.026 H 
BRANCH   8  11
ATOM     11  C   LIG d   1       1.700  -1.968 -13.121  0.00  0.00    -0.053 C 
ATOM     12  H   LIG d   1       2.409  -1.204 -13.442  0.00  0.00     0.026 H 
ATOM     13  H   LIG d   1       2.241  -2.798 -12.666  0.00  0.00     0.026 H 
BRANCH  11  14
ATOM     14  C   LIG d   1       0.912  -2.474 -14.331  0.00  0.00    -0.056 C 
ATOM     15  H   LIG d   1       1.149  -1.861 -15.201  0.00  0.00     0.026 H 
ATOM     16  H   LIG d   1       1.183  -3.510 -14.532  0.00  0.00     0.026 H 
BRANCH  14  17
ATOM     17  C   LIG d   1      -0.587  -2.385 -14.038  0.00  0.00    -0.065 C 
ATOM     18  H   LIG d   1      -1.110  -3.175 -14.578  0.00  0.00     0.023 H 
ATOM     19  H   LIG d   1      -0.756  -2.503 -12.968  0.00  0.00     0.023 H 
ATOM     20  H   LIG d   1      -0.962  -1.414 -14.361  0.00  0.00     0.023 H 
ENDBRANCH  14  17
ENDBRANCH  11  14
ENDBRANCH   8  11
ENDBRANCH   5   8
ENDBRANCH   3   5
BRANCH   3  21
ATOM     21  C   LIG d   1       3.427  -2.651 -10.098  0.00  0.00     0.045 C 
ATOM     22  O   LIG d   1       3.999  -3.540 -10.684  0.00  0.00    -0.549 OA
ATOM     23  O   LIG d   1       3.257  -2.723  -8.769  0.00  0.00    -0.549 OA
ENDBRANCH   3  21
ENDBRANCH   1   3
BRANCH   1  24
ATOM     24  C   LIG d   1       4.122   0.635 -11.462  0.00  0.00    -0.061 C 
ATOM     25  H   LIG d   1       3.816   1.677 -11.362  0.00  0.00     0.023 H 
ATOM     26  H   LIG d   1       5.210   0.574 -11.433  0.00  0.00     0.023 H 
ATOM     27  H   LIG d   1       3.761   0.240 -12.411  0.00  0.00     0.023 H 
ENDBRANCH   1  24
BRANCH   1  28
ATOM     28  C   LIG d   1       2.465   0.644  -9.592  0.00  0.00     0.027 C 
ATOM     29  H   LIG d   1       2.408   1.635 -10.044  0.00  0.00     0.036 H 
ATOM     30  H   LIG d   1       1.499   0.147  -9.684  0.00  0.00     0.036 H 
BRANCH  28  31
ATOM     31  C   LIG d   1       2.826   0.776  -8.135  0.00  0.00     0.217 C 
ATOM     32  O   LIG d   1       3.180   1.848  -7.692  0.00  0.00    -0.276 OA
ATOM     33  N   LIG d   1       2.755  -0.298  -7.324  0.00  0.00    -0.285 N 
ATOM     34  H   LIG d   1       2.400  -1.136  -7.659  0.00  0.00     0.155 HD
BRANCH  33  35
ATOM     35  C   LIG d   1       3.193  -0.205  -6.004  0.00  0.00     0.033 A 
ATOM     36  C   LIG d   1       2.332   0.266  -5.019  0.00  0.00    -0.040 A 
ATOM     37  C   LIG d   1       2.761   0.359  -3.713  0.00  0.00    -0.051 A 
ATOM     38  H   LIG d   1       1.325   0.560  -5.277  0.00  0.00     0.064 H 
ATOM     39  C   LIG d   1       4.064  -0.020  -3.379  0.00  0.00    -0.003 A 
ATOM     40  H   LIG d   1       2.092   0.725  -2.949  0.00  0.00     0.062 H 
ATOM     41  C   LIG d   1       4.927  -0.493  -4.372  0.00  0.00    -0.051 A 
ATOM     42  C   LIG d   1       4.489  -0.588  -5.674  0.00  0.00    -0.040 A 
ATOM     43  H   LIG d   1       5.935  -0.787  -4.118  0.00  0.00     0.062 H 
ATOM     44  H   LIG d   1       5.154  -0.958  -6.441  0.00  0.00     0.064 H 
BRANCH  39  45
ATOM     45  C   LIG d   1       4.528   0.078  -1.983  0.00  0.00     0.072 C 
ATOM     46  O   LIG d   1       4.585  -0.918  -1.289  0.00  0.00    -0.545 OA
ATOM     47  O   LIG d   1       4.889   1.273  -1.476  0.00  0.00    -0.545 OA
ENDBRANCH  39  45
ENDBRANCH  33  35
ENDBRANCH  28  31
ENDBRANCH   1  28
TORSDOF 12
ENDMDL
MODEL 4
REMARK VINA RESULT:      -5.3      3.983      7.315
REMARK  12 active torsions:
REMARK  status: ('A' for Active; 'I' for Inactive)
REMARK    1  A    between atoms: C_1  and  C_2 
REMARK    2  A    between atoms: C_2  and  C_3 
REMARK    3  A    between atoms: C_3  and  C_4 
REMARK    4  A    between atoms: C_4  and  C_5 
REMARK    5  A    between atoms: C_5  and  C_6 
REMARK    6  A    between atoms: C_6  and  C_8 
REMARK    7  A    between atoms: C_6  and  C_23 
REMARK    8  A    between atoms: C_8  and  C_10 
REMARK    9  A    between atoms: C_8  and  C_11 
REMARK   10  A    between atoms: C_11  and  C_12 
REMARK       I    between atoms: C_12  and  N_14 
REMARK   11  A    between atoms: N_14  and  C_15 
REMARK   12  A    between atoms: C_18  and  C_21 
ROOT
ATOM      1  C   LIG d   1       6.429  -0.821  -5.478  0.00  0.00    -0.028 C 
ATOM      2  H   LIG d   1       6.585  -1.821  -5.880  0.00  0.00     0.031 H 
ENDROOT
BRANCH   1   3
ATOM      3  C   LIG d   1       4.940  -0.606  -5.204  0.00  0.00     0.002 C 
ATOM      4  H   LIG d   1       4.798   0.340  -4.682  0.00  0.00     0.036 H 
BRANCH   3   5
ATOM      5  C   LIG d   1       4.411  -1.751  -4.335  0.00  0.00    -0.045 C 
ATOM      6  H   LIG d   1       3.849  -2.448  -4.956  0.00  0.00     0.027 H 
ATOM      7  H   LIG d   1       5.249  -2.271  -3.872  0.00  0.00     0.027 H 
BRANCH   5   8
ATOM      8  C   LIG d   1       3.498  -1.184  -3.247  0.00  0.00    -0.052 C 
ATOM      9  H   LIG d   1       3.153  -0.194  -3.541  0.00  0.00     0.026 H 
ATOM     10  H   LIG d   1       2.640  -1.843  -3.112  0.00  0.00     0.026 H 
BRANCH   8  11
ATOM     11  C   LIG d   1       4.274  -1.083  -1.931  0.00  0.00    -0.053 C 
ATOM     12  H   LIG d   1       3.682  -1.521  -1.126  0.00  0.00     0.026 H 
ATOM     13  H   LIG d   1       5.217  -1.623  -2.024  0.00  0.00     0.026 H 
BRANCH  11  14
ATOM     14  C   LIG d   1       4.556   0.387  -1.616  0.00  0.00    -0.056 C 
ATOM     15  H   LIG d   1       4.439   0.558  -0.546  0.00  0.00     0.026 H 
ATOM     16  H   LIG d   1       5.575   0.632  -1.913  0.00  0.00     0.026 H 
BRANCH  14  17
ATOM     17  C   LIG d   1       3.573   1.272  -2.384  0.00  0.00    -0.065 C 
ATOM     18  H   LIG d   1       2.621   0.751  -2.491  0.00  0.00     0.023 H 
ATOM     19  H   LIG d   1       3.418   2.202  -1.838  0.00  0.00     0.023 H 
ATOM     20  H   LIG d   1       3.979   1.493  -3.372  0.00  0.00     0.023 H 
ENDBRANCH  14  17
ENDBRANCH  11  14
ENDBRANCH   8  11
ENDBRANCH   5   8
ENDBRANCH   3   5
BRANCH   3  21
ATOM     21  C   LIG d   1       4.187  -0.578  -6.508  0.00  0.00     0.045 C 
ATOM     22  O   LIG d   1       4.157  -1.563  -7.209  0.00  0.00    -0.549 OA
ATOM     23  O   LIG d   1       3.549   0.538  -6.892  0.00  0.00    -0.549 OA
ENDBRANCH   3  21
ENDBRANCH   1   3
BRANCH   1  24
ATOM     24  C   LIG d   1       6.916   0.218  -6.491  0.00  0.00    -0.061 C 
ATOM     25  H   LIG d   1       6.981  -0.240  -7.478  0.00  0.00     0.023 H 
ATOM     26  H   LIG d   1       6.213   1.051  -6.523  0.00  0.00     0.023 H 
ATOM     27  H   LIG d   1       7.899   0.583  -6.194  0.00  0.00     0.023 H 
ENDBRANCH   1  24
BRANCH   1  28
ATOM     28  C   LIG d   1       7.216  -0.668  -4.174  0.00  0.00     0.027 C 
ATOM     29  H   LIG d   1       6.584  -0.953  -3.333  0.00  0.00     0.036 H 
ATOM     30  H   LIG d   1       8.095  -1.313  -4.203  0.00  0.00     0.036 H 
BRANCH  28  31
ATOM     31  C   LIG d   1       7.649   0.767  -4.013  0.00  0.00     0.217 C 
ATOM     32  O   LIG d   1       6.832   1.620  -3.743  0.00  0.00    -0.276 OA
ATOM     33  N   LIG d   1       8.946   1.100  -4.170  0.00  0.00    -0.285 N 
ATOM     34  H   LIG d   1       9.611   0.408  -4.311  0.00  0.00     0.155 HD
BRANCH  33  35
ATOM     35  C   LIG d   1       9.331   2.439  -4.131  0.00  0.00     0.033 A 
ATOM     36  C   LIG d   1       9.188   3.235  -5.263  0.00  0.00    -0.040 A 
ATOM     37  C   LIG d   1       9.568   4.558  -5.228  0.00  0.00    -0.051 A 
ATOM     38  H   LIG d   1       8.781   2.815  -6.170  0.00  0.00     0.064 H 
ATOM     39  C   LIG d   1      10.096   5.101  -4.053  0.00  0.00    -0.003 A 
ATOM     40  H   LIG d   1       9.458   5.176  -6.107  0.00  0.00     0.062 H 
ATOM     41  C   LIG d   1      10.239   4.298  -2.918  0.00  0.00    -0.051 A 
ATOM     42  C   LIG d   1       9.852   2.977  -2.959  0.00  0.00    -0.040 A 
ATOM     43  H   LIG d   1      10.647   4.713  -2.009  0.00  0.00     0.062 H 
ATOM     44  H   LIG d   1       9.957   2.357  -2.081  0.00  0.00     0.064 H 
BRANCH  39  45
ATOM     45  C   LIG d   1      10.505   6.518  -4.012  0.00  0.00     0.072 C 
ATOM     46  O   LIG d   1       9.899   7.304  -3.311  0.00  0.00    -0.545 OA
ATOM     47  O   LIG d   1      11.549   6.939  -4.751  0.00  0.00    -0.545 OA
ENDBRANCH  39  45
ENDBRANCH  33  35
ENDBRANCH  28  31
ENDBRANCH   1  28
TORSDOF 12
ENDMDL
MODEL 5
REMARK VINA RESULT:      -5.2      2.330      3.021
REMARK  12 active torsions:
REMARK  status: ('A' for Active; 'I' for Inactive)
REMARK    1  A    between atoms: C_1  and  C_2 
REMARK    2  A    between atoms: C_2  and  C_3 
REMARK    3  A    between atoms: C_3  and  C_4 
REMARK    4  A    between atoms: C_4  and  C_5 
REMARK    5  A    between atoms: C_5  and  C_6 
REMARK    6  A    between atoms: C_6  and  C_8 
REMARK    7  A    between atoms: C_6  and  C_23 
REMARK    8  A    between atoms: C_8  and  C_10 
REMARK    9  A    between atoms: C_8  and  C_11 
REMARK   10  A    between atoms: C_11  and  C_12 
REMARK       I    between atoms: C_12  and  N_14 
REMARK   11  A    between atoms: N_14  and  C_15 
REMARK   12  A    between atoms: C_18  and  C_21 
ROOT
ATOM      1  C   LIG d   1       5.943  -3.029  -5.021  0.00  0.00    -0.028 C 
ATOM      2  H   LIG d   1       6.074  -2.781  -6.074  0.00  0.00     0.031 H 
ENDROOT
BRANCH   1   3
ATOM      3  C   LIG d   1       5.321  -1.839  -4.289  0.00  0.00     0.002 C 
ATOM      4  H   LIG d   1       6.038  -1.436  -3.573  0.00  0.00     0.036 H 
BRANCH   3   5
ATOM      5  C   LIG d   1       4.064  -2.297  -3.545  0.00  0.00    -0.045 C 
ATOM      6  H   LIG d   1       3.314  -2.623  -4.267  0.00  0.00     0.027 H 
ATOM      7  H   LIG d   1       4.315  -3.125  -2.883  0.00  0.00     0.027 H 
BRANCH   5   8
ATOM      8  C   LIG d   1       3.507  -1.135  -2.721  0.00  0.00    -0.052 C 
ATOM      9  H   LIG d   1       3.278  -0.298  -3.380  0.00  0.00     0.026 H 
ATOM     10  H   LIG d   1       2.599  -1.454  -2.209  0.00  0.00     0.026 H 
BRANCH   8  11
ATOM     11  C   LIG d   1       4.548  -0.699  -1.688  0.00  0.00    -0.053 C 
ATOM     12  H   LIG d   1       4.269  -1.083  -0.706  0.00  0.00     0.026 H 
ATOM     13  H   LIG d   1       5.526  -1.094  -1.967  0.00  0.00     0.026 H 
BRANCH  11  14
ATOM     14  C   LIG d   1       4.611   0.828  -1.639  0.00  0.00    -0.056 C 
ATOM     15  H   LIG d   1       4.450   1.166  -0.614  0.00  0.00     0.026 H 
ATOM     16  H   LIG d   1       5.590   1.162  -1.981  0.00  0.00     0.026 H 
BRANCH  14  17
ATOM     17  C   LIG d   1       3.526   1.414  -2.544  0.00  0.00    -0.065 C 
ATOM     18  H   LIG d   1       2.574   0.924  -2.335  0.00  0.00     0.023 H 
ATOM     19  H   LIG d   1       3.433   2.483  -2.356  0.00  0.00     0.023 H 
ATOM     20  H   LIG d   1       3.797   1.250  -3.588  0.00  0.00     0.023 H 
ENDBRANCH  14  17
ENDBRANCH  11  14
ENDBRANCH   8  11
ENDBRANCH   5   8
ENDBRANCH   3   5
BRANCH   3  21
ATOM     21  C   LIG d   1       4.953  -0.771  -5.286  0.00  0.00     0.045 C 
ATOM     22  O   LIG d   1       5.486   0.313  -5.233  0.00  0.00    -0.549 OA
ATOM     23  O   LIG d   1       4.036  -1.022  -6.232  0.00  0.00    -0.549 OA
ENDBRANCH   3  21
ENDBRANCH   1   3
BRANCH   1  24
ATOM     24  C   LIG d   1       7.303  -3.356  -4.400  0.00  0.00    -0.061 C 
ATOM     25  H   LIG d   1       8.066  -3.357  -5.178  0.00  0.00     0.023 H 
ATOM     26  H   LIG d   1       7.550  -2.604  -3.651  0.00  0.00     0.023 H 
ATOM     27  H   LIG d   1       7.261  -4.339  -3.930  0.00  0.00     0.023 H 
ENDBRANCH   1  24
BRANCH   1  28
ATOM     28  C   LIG d   1       5.020  -4.244  -4.895  0.00  0.00     0.027 C 
ATOM     29  H   LIG d   1       5.609  -5.122  -4.630  0.00  0.00     0.036 H 
ATOM     30  H   LIG d   1       4.277  -4.057  -4.120  0.00  0.00     0.036 H 
BRANCH  28  31
ATOM     31  C   LIG d   1       4.324  -4.484  -6.211  0.00  0.00     0.217 C 
ATOM     32  O   LIG d   1       3.403  -5.268  -6.275  0.00  0.00    -0.276 OA
ATOM     33  N   LIG d   1       4.728  -3.826  -7.316  0.00  0.00    -0.285 N 
ATOM     34  H   LIG d   1       5.414  -3.143  -7.250  0.00  0.00     0.155 HD
BRANCH  33  35
ATOM     35  C   LIG d   1       4.160  -4.127  -8.553  0.00  0.00     0.033 A 
ATOM     36  C   LIG d   1       4.612  -5.228  -9.274  0.00  0.00    -0.040 A 
ATOM     37  C   LIG d   1       4.053  -5.528 -10.496  0.00  0.00    -0.051 A 
ATOM     38  H   LIG d   1       5.401  -5.847  -8.875  0.00  0.00     0.064 H 
ATOM     39  C   LIG d   1       3.031  -4.726 -11.012  0.00  0.00    -0.003 A 
ATOM     40  H   LIG d   1       4.404  -6.382 -11.056  0.00  0.00     0.062 H 
ATOM     41  C   LIG d   1       2.581  -3.620 -10.285  0.00  0.00    -0.051 A 
ATOM     42  C   LIG d   1       3.140  -3.329  -9.061  0.00  0.00    -0.040 A 
ATOM     43  H   LIG d   1       1.792  -2.998 -10.680  0.00  0.00     0.062 H 
ATOM     44  H   LIG d   1       2.789  -2.478  -8.496  0.00  0.00     0.064 H 
BRANCH  39  45
ATOM     45  C   LIG d   1       2.431  -5.044 -12.321  0.00  0.00     0.072 C 
ATOM     46  O   LIG d   1       2.581  -6.148 -12.806  0.00  0.00    -0.545 OA
ATOM     47  O   LIG d   1       1.717  -4.110 -12.979  0.00  0.00    -0.545 OA
ENDBRANCH  39  45
ENDBRANCH  33  35
ENDBRANCH  28  31
ENDBRANCH   1  28
TORSDOF 12
ENDMDL
MODEL 6
REMARK VINA RESULT:      -5.1      4.451      7.847
REMARK  12 active torsions:
REMARK  status: ('A' for Active; 'I' for Inactive)
REMARK    1  A    between atoms: C_1  and  C_2 
REMARK    2  A    between atoms: C_2  and  C_3 
REMARK    3  A    between atoms: C_3  and  C_4 
REMARK    4  A    between atoms: C_4  and  C_5 
REMARK    5  A    between atoms: C_5  and  C_6 
REMARK    6  A    between atoms: C_6  and  C_8 
REMARK    7  A    between atoms: C_6  and  C_23 
REMARK    8  A    between atoms: C_8  and  C_10 
REMARK    9  A    between atoms: C_8  and  C_11 
REMARK   10  A    between atoms: C_11  and  C_12 
REMARK       I    between atoms: C_12  and  N_14 
REMARK   11  A    between atoms: N_14  and  C_15 
REMARK   12  A    between atoms: C_18  and  C_21 
ROOT
ATOM      1  C   LIG d   1       7.640  -1.109  -4.965  0.00  0.00    -0.028 C 
ATOM      2  H   LIG d   1       8.442  -0.944  -4.246  0.00  0.00     0.031 H 
ENDROOT
BRANCH   1   3
ATOM      3  C   LIG d   1       6.767  -2.274  -4.498  0.00  0.00     0.002 C 
ATOM      4  H   LIG d   1       6.044  -2.522  -5.275  0.00  0.00     0.036 H 
BRANCH   3   5
ATOM      5  C   LIG d   1       6.024  -1.875  -3.220  0.00  0.00    -0.045 C 
ATOM      6  H   LIG d   1       6.545  -2.286  -2.354  0.00  0.00     0.027 H 
ATOM      7  H   LIG d   1       5.992  -0.789  -3.143  0.00  0.00     0.027 H 
BRANCH   5   8
ATOM      8  C   LIG d   1       4.598  -2.426  -3.267  0.00  0.00    -0.052 C 
ATOM      9  H   LIG d   1       4.276  -2.515  -4.304  0.00  0.00     0.026 H 
ATOM     10  H   LIG d   1       4.571  -3.408  -2.793  0.00  0.00     0.026 H 
BRANCH   8  11
ATOM     11  C   LIG d   1       3.660  -1.475  -2.521  0.00  0.00    -0.053 C 
ATOM     12  H   LIG d   1       2.932  -1.061  -3.220  0.00  0.00     0.026 H 
ATOM     13  H   LIG d   1       3.137  -2.022  -1.735  0.00  0.00     0.026 H 
BRANCH  11  14
ATOM     14  C   LIG d   1       4.473  -0.339  -1.898  0.00  0.00    -0.056 C 
ATOM     15  H   LIG d   1       4.519  -0.476  -0.817  0.00  0.00     0.026 H 
ATOM     16  H   LIG d   1       5.483  -0.349  -2.308  0.00  0.00     0.026 H 
BRANCH  14  17
ATOM     17  C   LIG d   1       3.806   1.000  -2.215  0.00  0.00    -0.065 C 
ATOM     18  H   LIG d   1       4.457   1.585  -2.866  0.00  0.00     0.023 H 
ATOM     19  H   LIG d   1       2.855   0.824  -2.716  0.00  0.00     0.023 H 
ATOM     20  H   LIG d   1       3.633   1.548  -1.288  0.00  0.00     0.023 H 
ENDBRANCH  14  17
ENDBRANCH  11  14
ENDBRANCH   8  11
ENDBRANCH   5   8
ENDBRANCH   3   5
BRANCH   3  21
ATOM     21  C   LIG d   1       7.636  -3.474  -4.219  0.00  0.00     0.045 C 
ATOM     22  O   LIG d   1       8.489  -3.415  -3.365  0.00  0.00    -0.549 OA
ATOM     23  O   LIG d   1       7.463  -4.606  -4.918  0.00  0.00    -0.549 OA
ENDBRANCH   3  21
ENDBRANCH   1   3
BRANCH   1  24
ATOM     24  C   LIG d   1       8.240  -1.437  -6.334  0.00  0.00    -0.061 C 
ATOM     25  H   LIG d   1       7.699  -0.892  -7.108  0.00  0.00     0.023 H 
ATOM     26  H   LIG d   1       9.289  -1.144  -6.350  0.00  0.00     0.023 H 
ATOM     27  H   LIG d   1       8.158  -2.508  -6.519  0.00  0.00     0.023 H 
ENDBRANCH   1  24
BRANCH   1  28
ATOM     28  C   LIG d   1       6.786   0.157  -5.073  0.00  0.00     0.027 C 
ATOM     29  H   LIG d   1       6.647   0.413  -6.123  0.00  0.00     0.036 H 
ATOM     30  H   LIG d   1       5.815  -0.019  -4.610  0.00  0.00     0.036 H 
BRANCH  28  31
ATOM     31  C   LIG d   1       7.481   1.294  -4.367  0.00  0.00     0.217 C 
ATOM     32  O   LIG d   1       6.933   1.862  -3.448  0.00  0.00    -0.276 OA
ATOM     33  N   LIG d   1       8.713   1.676  -4.758  0.00  0.00    -0.285 N 
ATOM     34  H   LIG d   1       9.184   1.172  -5.441  0.00  0.00     0.155 HD
BRANCH  33  35
ATOM     35  C   LIG d   1       9.312   2.795  -4.181  0.00  0.00     0.033 A 
ATOM     36  C   LIG d   1       9.085   4.057  -4.719  0.00  0.00    -0.040 A 
ATOM     37  C   LIG d   1       9.675   5.165  -4.151  0.00  0.00    -0.051 A 
ATOM     38  H   LIG d   1       8.447   4.169  -5.582  0.00  0.00     0.064 H 
ATOM     39  C   LIG d   1      10.502   5.019  -3.033  0.00  0.00    -0.003 A 
ATOM     40  H   LIG d   1       9.499   6.145  -4.569  0.00  0.00     0.062 H 
ATOM     41  C   LIG d   1      10.728   3.748  -2.496  0.00  0.00    -0.051 A 
ATOM     42  C   LIG d   1      10.130   2.646  -3.066  0.00  0.00    -0.040 A 
ATOM     43  H   LIG d   1      11.366   3.631  -1.633  0.00  0.00     0.062 H 
ATOM     44  H   LIG d   1      10.300   1.665  -2.648  0.00  0.00     0.064 H 
BRANCH  39  45
ATOM     45  C   LIG d   1      11.136   6.202  -2.423  0.00  0.00     0.072 C 
ATOM     46  O   LIG d   1      11.843   6.075  -1.443  0.00  0.00    -0.545 OA
ATOM     47  O   LIG d   1      10.930   7.424  -2.952  0.00  0.00    -0.545 OA
ENDBRANCH  39  45
ENDBRANCH  33  35
ENDBRANCH  28  31
ENDBRANCH   1  28
TORSDOF 12
ENDMDL
MODEL 7
REMARK VINA RESULT:      -5.1      3.765      7.255
REMARK  12 active torsions:
REMARK  status: ('A' for Active; 'I' for Inactive)
REMARK    1  A    between atoms: C_1  and  C_2 
REMARK    2  A    between atoms: C_2  and  C_3 
REMARK    3  A    between atoms: C_3  and  C_4 
REMARK    4  A    between atoms: C_4  and  C_5 
REMARK    5  A    between atoms: C_5  and  C_6 
REMARK    6  A    between atoms: C_6  and  C_8 
REMARK    7  A    between atoms: C_6  and  C_23 
REMARK    8  A    between atoms: C_8  and  C_10 
REMARK    9  A    between atoms: C_8  and  C_11 
REMARK   10  A    between atoms: C_11  and  C_12 
REMARK       I    between atoms: C_12  and  N_14 
REMARK   11  A    between atoms: N_14  and  C_15 
REMARK   12  A    between atoms: C_18  and  C_21 
ROOT
ATOM      1  C   LIG d   1       4.859  -0.409  -3.112  0.00  0.00    -0.028 C 
ATOM      2  H   LIG d   1       4.714   0.610  -2.754  0.00  0.00     0.031 H 
ENDROOT
BRANCH   1   3
ATOM      3  C   LIG d   1       4.007  -0.638  -4.361  0.00  0.00     0.002 C 
ATOM      4  H   LIG d   1       3.554  -1.628  -4.317  0.00  0.00     0.036 H 
BRANCH   3   5
ATOM      5  C   LIG d   1       4.890  -0.536  -5.607  0.00  0.00    -0.045 C 
ATOM      6  H   LIG d   1       5.070   0.514  -5.840  0.00  0.00     0.027 H 
ATOM      7  H   LIG d   1       5.840  -1.035  -5.420  0.00  0.00     0.027 H 
BRANCH   5   8
ATOM      8  C   LIG d   1       4.185  -1.208  -6.787  0.00  0.00    -0.052 C 
ATOM      9  H   LIG d   1       4.720  -2.116  -7.061  0.00  0.00     0.026 H 
ATOM     10  H   LIG d   1       3.162  -1.460  -6.505  0.00  0.00     0.026 H 
BRANCH   8  11
ATOM     11  C   LIG d   1       4.162  -0.249  -7.979  0.00  0.00    -0.053 C 
ATOM     12  H   LIG d   1       4.904   0.535  -7.830  0.00  0.00     0.026 H 
ATOM     13  H   LIG d   1       4.394  -0.799  -8.892  0.00  0.00     0.026 H 
BRANCH  11  14
ATOM     14  C   LIG d   1       2.772   0.379  -8.102  0.00  0.00    -0.056 C 
ATOM     15  H   LIG d   1       2.224  -0.105  -8.911  0.00  0.00     0.026 H 
ATOM     16  H   LIG d   1       2.231   0.248  -7.166  0.00  0.00     0.026 H 
BRANCH  14  17
ATOM     17  C   LIG d   1       2.912   1.872  -8.405  0.00  0.00    -0.065 C 
ATOM     18  H   LIG d   1       2.148   2.170  -9.125  0.00  0.00     0.023 H 
ATOM     19  H   LIG d   1       2.788   2.443  -7.486  0.00  0.00     0.023 H 
ATOM     20  H   LIG d   1       3.900   2.067  -8.824  0.00  0.00     0.023 H 
ENDBRANCH  14  17
ENDBRANCH  11  14
ENDBRANCH   8  11
ENDBRANCH   5   8
ENDBRANCH   3   5
BRANCH   3  21
ATOM     21  C   LIG d   1       2.922   0.407  -4.428  0.00  0.00     0.045 C 
ATOM     22  O   LIG d   1       3.188   1.567  -4.220  0.00  0.00    -0.549 OA
ATOM     23  O   LIG d   1       1.662   0.049  -4.719  0.00  0.00    -0.549 OA
ENDBRANCH   3  21
ENDBRANCH   1   3
BRANCH   1  24
ATOM     24  C   LIG d   1       4.442  -1.397  -2.021  0.00  0.00    -0.061 C 
ATOM     25  H   LIG d   1       5.267  -1.537  -1.323  0.00  0.00     0.023 H 
ATOM     26  H   LIG d   1       3.577  -1.004  -1.486  0.00  0.00     0.023 H 
ATOM     27  H   LIG d   1       4.184  -2.353  -2.476  0.00  0.00     0.023 H 
ENDBRANCH   1  24
BRANCH   1  28
ATOM     28  C   LIG d   1       6.335  -0.622  -3.456  0.00  0.00     0.027 C 
ATOM     29  H   LIG d   1       6.805  -1.227  -2.680  0.00  0.00     0.036 H 
ATOM     30  H   LIG d   1       6.414  -1.135  -4.414  0.00  0.00     0.036 H 
BRANCH  28  31
ATOM     31  C   LIG d   1       7.029   0.714  -3.541  0.00  0.00     0.217 C 
ATOM     32  O   LIG d   1       6.432   1.727  -3.247  0.00  0.00    -0.276 OA
ATOM     33  N   LIG d   1       8.313   0.780  -3.944  0.00  0.00    -0.285 N 
ATOM     34  H   LIG d   1       8.814  -0.035  -4.106  0.00  0.00     0.155 HD
BRANCH  33  35
ATOM     35  C   LIG d   1       8.922   2.021  -4.129  0.00  0.00     0.033 A 
ATOM     36  C   LIG d   1       9.678   2.582  -3.106  0.00  0.00    -0.040 A 
ATOM     37  C   LIG d   1      10.281   3.807  -3.286  0.00  0.00    -0.051 A 
ATOM     38  H   LIG d   1       9.793   2.057  -2.169  0.00  0.00     0.064 H 
ATOM     39  C   LIG d   1      10.133   4.486  -4.498  0.00  0.00    -0.003 A 
ATOM     40  H   LIG d   1      10.868   4.243  -2.491  0.00  0.00     0.062 H 
ATOM     41  C   LIG d   1       9.371   3.919  -5.524  0.00  0.00    -0.051 A 
ATOM     42  C   LIG d   1       8.776   2.691  -5.340  0.00  0.00    -0.040 A 
ATOM     43  H   LIG d   1       9.254   4.441  -6.463  0.00  0.00     0.062 H 
ATOM     44  H   LIG d   1       8.192   2.250  -6.134  0.00  0.00     0.064 H 
BRANCH  39  45
ATOM     45  C   LIG d   1      10.776   5.798  -4.695  0.00  0.00     0.072 C 
ATOM     46  O   LIG d   1      10.100   6.808  -4.725  0.00  0.00    -0.545 OA
ATOM     47  O   LIG d   1      12.113   5.878  -4.840  0.00  0.00    -0.545 OA
ENDBRANCH  39  45
ENDBRANCH  33  35
ENDBRANCH  28  31
ENDBRANCH   1  28
TORSDOF 12
ENDMDL
MODEL 8
REMARK VINA RESULT:      -5.1      1.877      3.424
REMARK  12 active torsions:
REMARK  status: ('A' for Active; 'I' for Inactive)
REMARK    1  A    between atoms: C_1  and  C_2 
REMARK    2  A    between atoms: C_2  and  C_3 
REMARK    3  A    between atoms: C_3  and  C_4 
REMARK    4  A    between atoms: C_4  and  C_5 
REMARK    5  A    between atoms: C_5  and  C_6 
REMARK    6  A    between atoms: C_6  and  C_8 
REMARK    7  A    between atoms: C_6  and  C_23 
REMARK    8  A    between atoms: C_8  and  C_10 
REMARK    9  A    between atoms: C_8  and  C_11 
REMARK   10  A    between atoms: C_11  and  C_12 
REMARK       I    between atoms: C_12  and  N_14 
REMARK   11  A    between atoms: N_14  and  C_15 
REMARK   12  A    between atoms: C_18  and  C_21 
ROOT
ATOM      1  C   LIG d   1       3.301  -0.550  -4.315  0.00  0.00    -0.028 C 
ATOM      2  H   LIG d   1       3.386  -1.401  -4.991  0.00  0.00     0.031 H 
ENDROOT
BRANCH   1   3
ATOM      3  C   LIG d   1       4.697  -0.100  -3.882  0.00  0.00     0.002 C 
ATOM      4  H   LIG d   1       5.239   0.287  -4.745  0.00  0.00     0.036 H 
BRANCH   3   5
ATOM      5  C   LIG d   1       5.459  -1.292  -3.296  0.00  0.00    -0.045 C 
ATOM      6  H   LIG d   1       5.812  -1.040  -2.296  0.00  0.00     0.027 H 
ATOM      7  H   LIG d   1       4.795  -2.154  -3.240  0.00  0.00     0.027 H 
BRANCH   5   8
ATOM      8  C   LIG d   1       6.653  -1.624  -4.192  0.00  0.00    -0.052 C 
ATOM      9  H   LIG d   1       6.936  -0.741  -4.763  0.00  0.00     0.026 H 
ATOM     10  H   LIG d   1       7.493  -1.943  -3.575  0.00  0.00     0.026 H 
BRANCH   8  11
ATOM     11  C   LIG d   1       6.271  -2.752  -5.153  0.00  0.00    -0.053 C 
ATOM     12  H   LIG d   1       5.927  -2.325  -6.095  0.00  0.00     0.026 H 
ATOM     13  H   LIG d   1       7.141  -3.384  -5.336  0.00  0.00     0.026 H 
BRANCH  11  14
ATOM     14  C   LIG d   1       5.152  -3.592  -4.535  0.00  0.00    -0.056 C 
ATOM     15  H   LIG d   1       5.441  -3.900  -3.529  0.00  0.00     0.026 H 
ATOM     16  H   LIG d   1       4.239  -3.000  -4.485  0.00  0.00     0.026 H 
BRANCH  14  17
ATOM     17  C   LIG d   1       4.909  -4.833  -5.397  0.00  0.00    -0.065 C 
ATOM     18  H   LIG d   1       5.605  -5.620  -5.105  0.00  0.00     0.023 H 
ATOM     19  H   LIG d   1       3.887  -5.180  -5.253  0.00  0.00     0.023 H 
ATOM     20  H   LIG d   1       5.064  -4.581  -6.446  0.00  0.00     0.023 H 
ENDBRANCH  14  17
ENDBRANCH  11  14
ENDBRANCH   8  11
ENDBRANCH   5   8
ENDBRANCH   3   5
BRANCH   3  21
ATOM     21  C   LIG d   1       4.577   0.980  -2.839  0.00  0.00     0.045 C 
ATOM     22  O   LIG d   1       4.331   2.116  -3.172  0.00  0.00    -0.549 OA
ATOM     23  O   LIG d   1       4.742   0.683  -1.541  0.00  0.00    -0.549 OA
ENDBRANCH   3  21
ENDBRANCH   1   3
BRANCH   1  24
ATOM     24  C   LIG d   1       2.491  -0.957  -3.083  0.00  0.00    -0.061 C 
ATOM     25  H   LIG d   1       2.201  -0.064  -2.528  0.00  0.00     0.023 H 
ATOM     26  H   LIG d   1       1.597  -1.494  -3.397  0.00  0.00     0.023 H 
ATOM     27  H   LIG d   1       3.097  -1.600  -2.445  0.00  0.00     0.023 H 
ENDBRANCH   1  24
BRANCH   1  28
ATOM     28  C   LIG d   1       2.594   0.602  -5.033  0.00  0.00     0.027 C 
ATOM     29  H   LIG d   1       1.521   0.539  -4.850  0.00  0.00     0.036 H 
ATOM     30  H   LIG d   1       2.972   1.552  -4.655  0.00  0.00     0.036 H 
BRANCH  28  31
ATOM     31  C   LIG d   1       2.858   0.508  -6.515  0.00  0.00     0.217 C 
ATOM     32  O   LIG d   1       3.099   1.510  -7.152  0.00  0.00    -0.276 OA
ATOM     33  N   LIG d   1       2.826  -0.691  -7.129  0.00  0.00    -0.285 N 
ATOM     34  H   LIG d   1       2.710  -1.501  -6.608  0.00  0.00     0.155 HD
BRANCH  33  35
ATOM     35  C   LIG d   1       2.961  -0.767  -8.515  0.00  0.00     0.033 A 
ATOM     36  C   LIG d   1       4.209  -1.011  -9.078  0.00  0.00    -0.040 A 
ATOM     37  C   LIG d   1       4.345  -1.087 -10.446  0.00  0.00    -0.051 A 
ATOM     38  H   LIG d   1       5.072  -1.140  -8.442  0.00  0.00     0.064 H 
ATOM     39  C   LIG d   1       3.228  -0.920 -11.269  0.00  0.00    -0.003 A 
ATOM     40  H   LIG d   1       5.315  -1.276 -10.883  0.00  0.00     0.062 H 
ATOM     41  C   LIG d   1       1.975  -0.674 -10.699  0.00  0.00    -0.051 A 
ATOM     42  C   LIG d   1       1.845  -0.605  -9.330  0.00  0.00    -0.040 A 
ATOM     43  H   LIG d   1       1.109  -0.544 -11.331  0.00  0.00     0.062 H 
ATOM     44  H   LIG d   1       0.877  -0.420  -8.889  0.00  0.00     0.064 H 
BRANCH  39  45
ATOM     45  C   LIG d   1       3.370  -1.000 -12.735  0.00  0.00     0.072 C 
ATOM     46  O   LIG d   1       2.573  -1.644 -13.388  0.00  0.00    -0.545 OA
ATOM     47  O   LIG d   1       4.382  -0.358 -13.349  0.00  0.00    -0.545 OA
ENDBRANCH  39  45
ENDBRANCH  33  35
ENDBRANCH  28  31
ENDBRANCH   1  28
TORSDOF 12
ENDMDL
MODEL 9
REMARK VINA RESULT:      -5.1      5.203      7.918
REMARK  12 active torsions:
REMARK  status: ('A' for Active; 'I' for Inactive)
REMARK    1  A    between atoms: C_1  and  C_2 
REMARK    2  A    between atoms: C_2  and  C_3 
REMARK    3  A    between atoms: C_3  and  C_4 
REMARK    4  A    between atoms: C_4  and  C_5 
REMARK    5  A    between atoms: C_5  and  C_6 
REMARK    6  A    between atoms: C_6  and  C_8 
REMARK    7  A    between atoms: C_6  and  C_23 
REMARK    8  A    between atoms: C_8  and  C_10 
REMARK    9  A    between atoms: C_8  and  C_11 
REMARK   10  A    between atoms: C_11  and  C_12 
REMARK       I    between atoms: C_12  and  N_14 
REMARK   11  A    between atoms: N_14  and  C_15 
REMARK   12  A    between atoms: C_18  and  C_21 
ROOT
ATOM      1  C   LIG d   1       9.324   4.272  -4.664  0.00  0.00    -0.028 C 
ATOM      2  H   LIG d   1       8.255   4.453  -4.767  0.00  0.00     0.031 H 
ENDROOT
BRANCH   1   3
ATOM      3  C   LIG d   1       9.741   4.486  -3.208  0.00  0.00     0.002 C 
ATOM      4  H   LIG d   1       8.920   4.205  -2.549  0.00  0.00     0.036 H 
BRANCH   3   5
ATOM      5  C   LIG d   1      10.088   5.961  -2.988  0.00  0.00    -0.045 C 
ATOM      6  H   LIG d   1      11.118   6.142  -3.298  0.00  0.00     0.027 H 
ATOM      7  H   LIG d   1       9.417   6.584  -3.579  0.00  0.00     0.027 H 
BRANCH   5   8
ATOM      8  C   LIG d   1       9.931   6.306  -1.506  0.00  0.00    -0.052 C 
ATOM      9  H   LIG d   1       8.965   5.952  -1.151  0.00  0.00     0.026 H 
ATOM     10  H   LIG d   1      10.726   5.826  -0.935  0.00  0.00     0.026 H 
BRANCH   8  11
ATOM     11  C   LIG d   1      10.018   7.823  -1.324  0.00  0.00    -0.053 C 
ATOM     12  H   LIG d   1      10.646   8.248  -2.108  0.00  0.00     0.026 H 
ATOM     13  H   LIG d   1       9.018   8.254  -1.387  0.00  0.00     0.026 H 
BRANCH  11  14
ATOM     14  C   LIG d   1      10.625   8.139   0.044  0.00  0.00    -0.056 C 
ATOM     15  H   LIG d   1      11.430   8.864  -0.075  0.00  0.00     0.026 H 
ATOM     16  H   LIG d   1       9.855   8.554   0.695  0.00  0.00     0.026 H 
BRANCH  14  17
ATOM     17  C   LIG d   1      11.181   6.857   0.665  0.00  0.00    -0.065 C 
ATOM     18  H   LIG d   1      12.191   7.040   1.034  0.00  0.00     0.023 H 
ATOM     19  H   LIG d   1      10.544   6.546   1.492  0.00  0.00     0.023 H 
ATOM     20  H   LIG d   1      11.208   6.070  -0.089  0.00  0.00     0.023 H 
ENDBRANCH  14  17
ENDBRANCH  11  14
ENDBRANCH   8  11
ENDBRANCH   5   8
ENDBRANCH   3   5
BRANCH   3  21
ATOM     21  C   LIG d   1      10.946   3.636  -2.899  0.00  0.00     0.045 C 
ATOM     22  O   LIG d   1      10.805   2.563  -2.361  0.00  0.00    -0.549 OA
ATOM     23  O   LIG d   1      12.174   4.069  -3.222  0.00  0.00    -0.549 OA
ENDBRANCH   3  21
ENDBRANCH   1   3
BRANCH   1  24
ATOM     24  C   LIG d   1      10.095   5.242  -5.563  0.00  0.00    -0.061 C 
ATOM     25  H   LIG d   1       9.426   5.637  -6.328  0.00  0.00     0.023 H 
ATOM     26  H   LIG d   1      10.484   6.063  -4.961  0.00  0.00     0.023 H 
ATOM     27  H   LIG d   1      10.922   4.716  -6.040  0.00  0.00     0.023 H 
ENDBRANCH   1  24
BRANCH   1  28
ATOM     28  C   LIG d   1       9.639   2.833  -5.079  0.00  0.00     0.027 C 
ATOM     29  H   LIG d   1       9.923   2.812  -6.131  0.00  0.00     0.036 H 
ATOM     30  H   LIG d   1      10.462   2.453  -4.473  0.00  0.00     0.036 H 
BRANCH  28  31
ATOM     31  C   LIG d   1       8.420   1.972  -4.869  0.00  0.00     0.217 C 
ATOM     32  O   LIG d   1       7.593   1.867  -5.750  0.00  0.00    -0.276 OA
ATOM     33  N   LIG d   1       8.249   1.318  -3.703  0.00  0.00    -0.285 N 
ATOM     34  H   LIG d   1       8.946   1.340  -3.028  0.00  0.00     0.155 HD
BRANCH  33  35
ATOM     35  C   LIG d   1       7.072   0.611  -3.466  0.00  0.00     0.033 A 
ATOM     36  C   LIG d   1       5.939   1.281  -3.018  0.00  0.00    -0.040 A 
ATOM     37  C   LIG d   1       4.774   0.585  -2.782  0.00  0.00    -0.051 A 
ATOM     38  H   LIG d   1       5.972   2.347  -2.853  0.00  0.00     0.064 H 
ATOM     39  C   LIG d   1       4.731  -0.796  -2.994  0.00  0.00    -0.003 A 
ATOM     40  H   LIG d   1       3.894   1.106  -2.434  0.00  0.00     0.062 H 
ATOM     41  C   LIG d   1       5.872  -1.466  -3.444  0.00  0.00    -0.051 A 
ATOM     42  C   LIG d   1       7.032  -0.763  -3.683  0.00  0.00    -0.040 A 
ATOM     43  H   LIG d   1       5.844  -2.533  -3.609  0.00  0.00     0.062 H 
ATOM     44  H   LIG d   1       7.913  -1.279  -4.035  0.00  0.00     0.064 H 
BRANCH  39  45
ATOM     45  C   LIG d   1       3.486  -1.545  -2.743  0.00  0.00     0.072 C 
ATOM     46  O   LIG d   1       2.409  -1.009  -2.918  0.00  0.00    -0.545 OA
ATOM     47  O   LIG d   1       3.542  -2.822  -2.319  0.00  0.00    -0.545 OA
ENDBRANCH  39  45
ENDBRANCH  33  35
ENDBRANCH  28  31
ENDBRANCH   1  28
TORSDOF 12
ENDMDL
MODEL 10
REMARK VINA RESULT:      -5.0      1.905      3.580
REMARK  12 active torsions:
REMARK  status: ('A' for Active; 'I' for Inactive)
REMARK    1  A    between atoms: C_1  and  C_2 
REMARK    2  A    between atoms: C_2  and  C_3 
REMARK    3  A    between atoms: C_3  and  C_4 
REMARK    4  A    between atoms: C_4  and  C_5 
REMARK    5  A    between atoms: C_5  and  C_6 
REMARK    6  A    between atoms: C_6  and  C_8 
REMARK    7  A    between atoms: C_6  and  C_23 
REMARK    8  A    between atoms: C_8  and  C_10 
REMARK    9  A    between atoms: C_8  and  C_11 
REMARK   10  A    between atoms: C_11  and  C_12 
REMARK       I    between atoms: C_12  and  N_14 
REMARK   11  A    between atoms: N_14  and  C_15 
REMARK   12  A    between atoms: C_18  and  C_21 
ROOT
ATOM      1  C   LIG d   1       4.584  -1.141  -3.332  0.00  0.00    -0.028 C 
ATOM      2  H   LIG d   1       4.430  -1.857  -4.139  0.00  0.00     0.031 H 
ENDROOT
BRANCH   1   3
ATOM      3  C   LIG d   1       6.081  -0.885  -3.155  0.00  0.00     0.002 C 
ATOM      4  H   LIG d   1       6.384  -1.178  -2.150  0.00  0.00     0.036 H 
BRANCH   3   5
ATOM      5  C   LIG d   1       6.372   0.604  -3.361  0.00  0.00    -0.045 C 
ATOM      6  H   LIG d   1       5.655   1.019  -4.070  0.00  0.00     0.027 H 
ATOM      7  H   LIG d   1       6.285   1.126  -2.409  0.00  0.00     0.027 H 
BRANCH   5   8
ATOM      8  C   LIG d   1       7.790   0.774  -3.909  0.00  0.00    -0.052 C 
ATOM      9  H   LIG d   1       8.491   0.225  -3.282  0.00  0.00     0.026 H 
ATOM     10  H   LIG d   1       7.835   0.390  -4.928  0.00  0.00     0.026 H 
BRANCH   8  11
ATOM     11  C   LIG d   1       8.161   2.259  -3.909  0.00  0.00    -0.053 C 
ATOM     12  H   LIG d   1       7.274   2.855  -3.695  0.00  0.00     0.026 H 
ATOM     13  H   LIG d   1       8.916   2.444  -3.144  0.00  0.00     0.026 H 
BRANCH  11  14
ATOM     14  C   LIG d   1       8.718   2.646  -5.280  0.00  0.00    -0.056 C 
ATOM     15  H   LIG d   1       8.362   3.641  -5.549  0.00  0.00     0.026 H 
ATOM     16  H   LIG d   1       9.807   2.649  -5.241  0.00  0.00     0.026 H 
BRANCH  14  17
ATOM     17  C   LIG d   1       8.247   1.636  -6.327  0.00  0.00    -0.065 C 
ATOM     18  H   LIG d   1       8.336   0.626  -5.925  0.00  0.00     0.023 H 
ATOM     19  H   LIG d   1       7.206   1.834  -6.582  0.00  0.00     0.023 H 
ATOM     20  H   LIG d   1       8.864   1.726  -7.222  0.00  0.00     0.023 H 
ENDBRANCH  14  17
ENDBRANCH  11  14
ENDBRANCH   8  11
ENDBRANCH   5   8
ENDBRANCH   3   5
BRANCH   3  21
ATOM     21  C   LIG d   1       6.853  -1.692  -4.167  0.00  0.00     0.045 C 
ATOM     22  O   LIG d   1       7.770  -2.392  -3.807  0.00  0.00    -0.549 OA
ATOM     23  O   LIG d   1       6.524  -1.633  -5.466  0.00  0.00    -0.549 OA
ENDBRANCH   3  21
ENDBRANCH   1   3
BRANCH   1  24
ATOM     24  C   LIG d   1       4.005  -1.705  -2.033  0.00  0.00    -0.061 C 
ATOM     25  H   LIG d   1       3.004  -1.303  -1.876  0.00  0.00     0.023 H 
ATOM     26  H   LIG d   1       3.953  -2.792  -2.100  0.00  0.00     0.023 H 
ATOM     27  H   LIG d   1       4.645  -1.423  -1.197  0.00  0.00     0.023 H 
ENDBRANCH   1  24
BRANCH   1  28
ATOM     28  C   LIG d   1       3.878   0.173  -3.676  0.00  0.00     0.027 C 
ATOM     29  H   LIG d   1       3.077   0.353  -2.959  0.00  0.00     0.036 H 
ATOM     30  H   LIG d   1       4.596   0.992  -3.633  0.00  0.00     0.036 H 
BRANCH  28  31
ATOM     31  C   LIG d   1       3.300   0.084  -5.065  0.00  0.00     0.217 C 
ATOM     32  O   LIG d   1       2.098   0.084  -5.223  0.00  0.00    -0.276 OA
ATOM     33  N   LIG d   1       4.120   0.005  -6.132  0.00  0.00    -0.285 N 
ATOM     34  H   LIG d   1       5.080   0.082  -6.013  0.00  0.00     0.155 HD
BRANCH  33  35
ATOM     35  C   LIG d   1       3.589  -0.188  -7.407  0.00  0.00     0.033 A 
ATOM     36  C   LIG d   1       3.075   0.893  -8.115  0.00  0.00    -0.040 A 
ATOM     37  C   LIG d   1       2.550   0.706  -9.374  0.00  0.00    -0.051 A 
ATOM     38  H   LIG d   1       3.087   1.880  -7.677  0.00  0.00     0.064 H 
ATOM     39  C   LIG d   1       2.534  -0.572  -9.940  0.00  0.00    -0.003 A 
ATOM     40  H   LIG d   1       2.151   1.546  -9.923  0.00  0.00     0.062 H 
ATOM     41  C   LIG d   1       3.051  -1.656  -9.225  0.00  0.00    -0.051 A 
ATOM     42  C   LIG d   1       3.579  -1.461  -7.968  0.00  0.00    -0.040 A 
ATOM     43  H   LIG d   1       3.040  -2.645  -9.659  0.00  0.00     0.062 H 
ATOM     44  H   LIG d   1       3.983  -2.297  -7.417  0.00  0.00     0.064 H 
BRANCH  39  45
ATOM     45  C   LIG d   1       1.972  -0.776 -11.288  0.00  0.00     0.072 C 
ATOM     46  O   LIG d   1       0.770  -0.885 -11.435  0.00  0.00    -0.545 OA
ATOM     47  O   LIG d   1       2.790  -0.842 -12.356  0.00  0.00    -0.545 OA
ENDBRANCH  39  45
ENDBRANCH  33  35
ENDBRANCH  28  31
ENDBRANCH   1  28
TORSDOF 12
ENDMDL
