MODEL 1
REMARK VINA RESULT:      -6.2      0.000      0.000
REMARK  19 active torsions:
REMARK  status: ('A' for Active; 'I' for Inactive)
REMARK    1  A    between atoms: C_4  and  O_33 
REMARK    2  A    between atoms: C_5  and  C_7 
REMARK    3  A    between atoms: C_7  and  C_8 
REMARK    4  A    between atoms: C_8  and  C_9 
REMARK    5  A    between atoms: C_9  and  C_10 
REMARK    6  A    between atoms: C_10  and  C_11 
REMARK    7  A    between atoms: C_11  and  C_12 
REMARK    8  A    between atoms: C_12  and  C_13 
REMARK    9  A    between atoms: C_13  and  C_14 
REMARK   10  A    between atoms: C_14  and  O_16 
REMARK   11  A    between atoms: O_16  and  C_17 
REMARK   12  A    between atoms: C_22  and  C_23 
REMARK   13  A    between atoms: C_23  and  C_24 
REMARK   14  A    between atoms: C_24  and  C_25 
REMARK   15  A    between atoms: C_25  and  C_26 
REMARK   16  A    between atoms: C_26  and  C_27 
REMARK   17  A    between atoms: C_27  and  C_28 
REMARK   18  A    between atoms: C_28  and  C_29 
REMARK   19  A    between atoms: C_29  and  C_30 
ROOT
ATOM      1  C   LIG d   1       3.093   0.171  -5.952  0.00  0.00     0.312 C 
ATOM      2  O   LIG d   1       4.281  -0.030  -6.040  0.00  0.00    -0.250 OA
ENDROOT
BRANCH   1   3
ATOM      3  C   LIG d   1       2.487   0.536  -4.622  0.00  0.00     0.045 C 
ATOM      4  H   LIG d   1       2.336  -0.375  -4.025  0.00  0.00     0.038 H 
ATOM      5  H   LIG d   1       1.519   1.033  -4.784  0.00  0.00     0.038 H 
BRANCH   3   6
ATOM      6  C   LIG d   1       3.427   1.484  -3.876  0.00  0.00    -0.043 C 
ATOM      7  H   LIG d   1       3.103   2.523  -4.035  0.00  0.00     0.027 H 
ATOM      8  H   LIG d   1       4.451   1.358  -4.256  0.00  0.00     0.027 H 
BRANCH   6   9
ATOM      9  C   LIG d   1       3.395   1.163  -2.380  0.00  0.00    -0.053 C 
ATOM     10  H   LIG d   1       2.672   0.355  -2.194  0.00  0.00     0.026 H 
ATOM     11  H   LIG d   1       3.096   2.060  -1.819  0.00  0.00     0.026 H 
BRANCH   9  12
ATOM     12  C   LIG d   1       4.786   0.716  -1.924  0.00  0.00    -0.053 C 
ATOM     13  H   LIG d   1       4.780  -0.369  -1.741  0.00  0.00     0.026 H 
ATOM     14  H   LIG d   1       5.055   1.243  -0.997  0.00  0.00     0.026 H 
BRANCH  12  15
ATOM     15  C   LIG d   1       5.809   1.044  -3.013  0.00  0.00    -0.053 C 
ATOM     16  H   LIG d   1       6.502   1.816  -2.645  0.00  0.00     0.026 H 
ATOM     17  H   LIG d   1       5.287   1.416  -3.907  0.00  0.00     0.026 H 
BRANCH  15  18
ATOM     18  C   LIG d   1       6.596  -0.218  -3.370  0.00  0.00    -0.049 C 
ATOM     19  H   LIG d   1       7.541  -0.233  -2.807  0.00  0.00     0.027 H 
ATOM     20  H   LIG d   1       6.814  -0.223  -4.449  0.00  0.00     0.027 H 
BRANCH  18  21
ATOM     21  C   LIG d   1       5.769  -1.453  -3.011  0.00  0.00    -0.024 C 
ATOM     22  H   LIG d   1       4.698  -1.209  -3.077  0.00  0.00     0.031 H 
ATOM     23  H   LIG d   1       6.011  -1.772  -1.987  0.00  0.00     0.031 H 
BRANCH  21  24
ATOM     24  C   LIG d   1       6.089  -2.569  -3.973  0.00  0.00    -0.006 A 
ATOM     25  C   LIG d   1       5.069  -3.199  -4.670  0.00  0.00     0.120 A 
ATOM     26  C   LIG d   1       5.367  -4.225  -5.555  0.00  0.00    -0.020 A 
ATOM     27  C   LIG d   1       6.678  -4.618  -5.738  0.00  0.00    -0.058 A 
ATOM     28  H   LIG d   1       4.574  -4.717  -6.099  0.00  0.00     0.065 H 
ATOM     29  C   LIG d   1       7.693  -3.989  -5.041  0.00  0.00    -0.061 A 
ATOM     30  H   LIG d   1       6.910  -5.418  -6.426  0.00  0.00     0.062 H 
ATOM     31  C   LIG d   1       7.400  -2.962  -4.163  0.00  0.00    -0.055 A 
ATOM     32  H   LIG d   1       8.718  -4.299  -5.186  0.00  0.00     0.062 H 
ATOM     33  H   LIG d   1       8.196  -2.470  -3.623  0.00  0.00     0.062 H 
BRANCH  25  34
ATOM     34  O   LIG d   1       3.780  -2.809  -4.488  0.00  0.00    -0.506 OA
ATOM     35  H   LIG d   1       3.128  -2.639  -5.358  0.00  0.00     0.292 HD
ENDBRANCH  25  34
ENDBRANCH  21  24
ENDBRANCH  18  21
ENDBRANCH  15  18
ENDBRANCH  12  15
ENDBRANCH   9  12
ENDBRANCH   6   9
ENDBRANCH   3   6
ENDBRANCH   1   3
BRANCH   1  36
ATOM     36  O   LIG d   1       2.312   0.068  -7.039  0.00  0.00    -0.426 OA
BRANCH  36  37
ATOM     37  C   LIG d   1       2.816   0.547  -8.208  0.00  0.00     0.135 A 
ATOM     38  C   LIG d   1       3.030  -0.311  -9.276  0.00  0.00    -0.005 A 
ATOM     39  C   LIG d   1       3.541   0.178 -10.462  0.00  0.00    -0.055 A 
ATOM     40  C   LIG d   1       3.839   1.523 -10.585  0.00  0.00    -0.061 A 
ATOM     41  H   LIG d   1       3.708  -0.489 -11.295  0.00  0.00     0.062 H 
ATOM     42  C   LIG d   1       3.627   2.381  -9.521  0.00  0.00    -0.058 A 
ATOM     43  H   LIG d   1       4.239   1.905 -11.513  0.00  0.00     0.062 H 
ATOM     44  C   LIG d   1       3.111   1.897  -8.335  0.00  0.00    -0.019 A 
ATOM     45  H   LIG d   1       3.860   3.430  -9.620  0.00  0.00     0.062 H 
ATOM     46  H   LIG d   1       2.941   2.568  -7.507  0.00  0.00     0.065 H 
BRANCH  38  47
ATOM     47  C   LIG d   1       2.705  -1.776  -9.143  0.00  0.00    -0.024 C 
ATOM     48  H   LIG d   1       1.798  -1.897  -8.533  0.00  0.00     0.031 H 
ATOM     49  H   LIG d   1       2.536  -2.206 -10.140  0.00  0.00     0.031 H 
BRANCH  47  50
ATOM     50  C   LIG d   1       3.872  -2.499  -8.467  0.00  0.00    -0.049 C 
ATOM     51  H   LIG d   1       4.473  -1.773  -7.898  0.00  0.00     0.027 H 
ATOM     52  H   LIG d   1       3.482  -3.266  -7.783  0.00  0.00     0.027 H 
BRANCH  50  53
ATOM     53  C   LIG d   1       4.748  -3.163  -9.532  0.00  0.00    -0.053 C 
ATOM     54  H   LIG d   1       4.812  -4.242  -9.333  0.00  0.00     0.026 H 
ATOM     55  H   LIG d   1       4.304  -2.998 -10.525  0.00  0.00     0.026 H 
BRANCH  53  56
ATOM     56  C   LIG d   1       6.150  -2.551  -9.493  0.00  0.00    -0.053 C 
ATOM     57  H   LIG d   1       6.899  -3.346  -9.613  0.00  0.00     0.026 H 
ATOM     58  H   LIG d   1       6.254  -1.822 -10.309  0.00  0.00     0.026 H 
BRANCH  56  59
ATOM     59  C   LIG d   1       6.362  -1.849  -8.150  0.00  0.00    -0.053 C 
ATOM     60  H   LIG d   1       5.445  -1.312  -7.869  0.00  0.00     0.026 H 
ATOM     61  H   LIG d   1       6.600  -2.597  -7.378  0.00  0.00     0.026 H 
BRANCH  59  62
ATOM     62  C   LIG d   1       7.519  -0.856  -8.272  0.00  0.00    -0.048 C 
ATOM     63  H   LIG d   1       7.717  -0.402  -7.291  0.00  0.00     0.027 H 
ATOM     64  H   LIG d   1       8.419  -1.382  -8.622  0.00  0.00     0.027 H 
BRANCH  62  65
ATOM     65  C   LIG d   1       7.148   0.239  -9.275  0.00  0.00    -0.013 C 
ATOM     66  H   LIG d   1       7.916   0.291 -10.062  0.00  0.00     0.033 H 
ATOM     67  H   LIG d   1       6.173   0.007  -9.728  0.00  0.00     0.033 H 
BRANCH  65  68
ATOM     68  C   LIG d   1       7.068   1.565  -8.563  0.00  0.00     0.042 C 
ATOM     69  O   LIG d   1       7.034   2.592  -9.199  0.00  0.00    -0.550 OA
ATOM     70  O   LIG d   1       7.034   1.606  -7.222  0.00  0.00    -0.550 OA
ENDBRANCH  65  68
ENDBRANCH  62  65
ENDBRANCH  59  62
ENDBRANCH  56  59
ENDBRANCH  53  56
ENDBRANCH  50  53
ENDBRANCH  47  50
ENDBRANCH  38  47
ENDBRANCH  36  37
ENDBRANCH   1  36
TORSDOF 19
ENDMDL
MODEL 2
REMARK VINA RESULT:      -6.0      1.231      3.283
REMARK  19 active torsions:
REMARK  status: ('A' for Active; 'I' for Inactive)
REMARK    1  A    between atoms: C_4  and  O_33 
REMARK    2  A    between atoms: C_5  and  C_7 
REMARK    3  A    between atoms: C_7  and  C_8 
REMARK    4  A    between atoms: C_8  and  C_9 
REMARK    5  A    between atoms: C_9  and  C_10 
REMARK    6  A    between atoms: C_10  and  C_11 
REMARK    7  A    between atoms: C_11  and  C_12 
REMARK    8  A    between atoms: C_12  and  C_13 
REMARK    9  A    between atoms: C_13  and  C_14 
REMARK   10  A    between atoms: C_14  and  O_16 
REMARK   11  A    between atoms: O_16  and  C_17 
REMARK   12  A    between atoms: C_22  and  C_23 
REMARK   13  A    between atoms: C_23  and  C_24 
REMARK   14  A    between atoms: C_24  and  C_25 
REMARK   15  A    between atoms: C_25  and  C_26 
REMARK   16  A    between atoms: C_26  and  C_27 
REMARK   17  A    between atoms: C_27  and  C_28 
REMARK   18  A    between atoms: C_28  and  C_29 
REMARK   19  A    between atoms: C_29  and  C_30 
ROOT
ATOM      1  C   LIG d   1       3.460  -0.155  -6.347  0.00  0.00     0.312 C 
ATOM      2  O   LIG d   1       3.177   0.471  -5.353  0.00  0.00    -0.250 OA
ENDROOT
BRANCH   1   3
ATOM      3  C   LIG d   1       4.773  -0.890  -6.426  0.00  0.00     0.045 C 
ATOM      4  H   LIG d   1       5.482  -0.455  -5.707  0.00  0.00     0.038 H 
ATOM      5  H   LIG d   1       5.182  -0.802  -7.443  0.00  0.00     0.038 H 
BRANCH   3   6
ATOM      6  C   LIG d   1       4.552  -2.367  -6.092  0.00  0.00    -0.043 C 
ATOM      7  H   LIG d   1       3.701  -2.751  -6.673  0.00  0.00     0.027 H 
ATOM      8  H   LIG d   1       4.339  -2.472  -5.018  0.00  0.00     0.027 H 
BRANCH   6   9
ATOM      9  C   LIG d   1       5.810  -3.164  -6.443  0.00  0.00    -0.053 C 
ATOM     10  H   LIG d   1       6.586  -2.479  -6.816  0.00  0.00     0.026 H 
ATOM     11  H   LIG d   1       5.570  -3.905  -7.220  0.00  0.00     0.026 H 
BRANCH   9  12
ATOM     12  C   LIG d   1       6.324  -3.882  -5.194  0.00  0.00    -0.053 C 
ATOM     13  H   LIG d   1       6.403  -4.961  -5.398  0.00  0.00     0.026 H 
ATOM     14  H   LIG d   1       5.625  -3.716  -4.362  0.00  0.00     0.026 H 
BRANCH  12  15
ATOM     15  C   LIG d   1       7.702  -3.332  -4.820  0.00  0.00    -0.053 C 
ATOM     16  H   LIG d   1       8.066  -2.677  -5.625  0.00  0.00     0.026 H 
ATOM     17  H   LIG d   1       8.405  -4.167  -4.681  0.00  0.00     0.026 H 
BRANCH  15  18
ATOM     18  C   LIG d   1       7.597  -2.532  -3.521  0.00  0.00    -0.049 C 
ATOM     19  H   LIG d   1       8.511  -2.676  -2.926  0.00  0.00     0.027 H 
ATOM     20  H   LIG d   1       6.726  -2.880  -2.945  0.00  0.00     0.027 H 
BRANCH  18  21
ATOM     21  C   LIG d   1       7.431  -1.047  -3.849  0.00  0.00    -0.024 C 
ATOM     22  H   LIG d   1       7.341  -0.920  -4.938  0.00  0.00     0.031 H 
ATOM     23  H   LIG d   1       8.307  -0.491  -3.485  0.00  0.00     0.031 H 
BRANCH  21  24
ATOM     24  C   LIG d   1       6.188  -0.520  -3.178  0.00  0.00    -0.006 A 
ATOM     25  C   LIG d   1       5.985   0.847  -3.069  0.00  0.00     0.120 A 
ATOM     26  C   LIG d   1       4.839   1.329  -2.452  0.00  0.00    -0.020 A 
ATOM     27  C   LIG d   1       3.905   0.446  -1.947  0.00  0.00    -0.058 A 
ATOM     28  H   LIG d   1       4.679   2.394  -2.367  0.00  0.00     0.065 H 
ATOM     29  C   LIG d   1       4.111  -0.916  -2.055  0.00  0.00    -0.061 A 
ATOM     30  H   LIG d   1       3.014   0.821  -1.465  0.00  0.00     0.062 H 
ATOM     31  C   LIG d   1       5.249  -1.400  -2.675  0.00  0.00    -0.055 A 
ATOM     32  H   LIG d   1       3.379  -1.605  -1.659  0.00  0.00     0.062 H 
ATOM     33  H   LIG d   1       5.404  -2.465  -2.762  0.00  0.00     0.062 H 
BRANCH  25  34
ATOM     34  O   LIG d   1       6.905   1.714  -3.569  0.00  0.00    -0.506 OA
ATOM     35  H   LIG d   1       6.731   2.205  -4.537  0.00  0.00     0.292 HD
ENDBRANCH  25  34
ENDBRANCH  21  24
ENDBRANCH  18  21
ENDBRANCH  15  18
ENDBRANCH  12  15
ENDBRANCH   9  12
ENDBRANCH   6   9
ENDBRANCH   3   6
ENDBRANCH   1   3
BRANCH   1  36
ATOM     36  O   LIG d   1       2.606  -0.196  -7.381  0.00  0.00    -0.426 OA
BRANCH  36  37
ATOM     37  C   LIG d   1       2.990   0.431  -8.525  0.00  0.00     0.135 A 
ATOM     38  C   LIG d   1       3.242  -0.308  -9.670  0.00  0.00    -0.005 A 
ATOM     39  C   LIG d   1       3.632   0.332 -10.831  0.00  0.00    -0.055 A 
ATOM     40  C   LIG d   1       3.771   1.708 -10.850  0.00  0.00    -0.061 A 
ATOM     41  H   LIG d   1       3.829  -0.243 -11.725  0.00  0.00     0.062 H 
ATOM     42  C   LIG d   1       3.520   2.447  -9.709  0.00  0.00    -0.058 A 
ATOM     43  H   LIG d   1       4.076   2.206 -11.759  0.00  0.00     0.062 H 
ATOM     44  C   LIG d   1       3.125   1.812  -8.548  0.00  0.00    -0.019 A 
ATOM     45  H   LIG d   1       3.629   3.520  -9.727  0.00  0.00     0.062 H 
ATOM     46  H   LIG d   1       2.925   2.390  -7.658  0.00  0.00     0.065 H 
BRANCH  38  47
ATOM     47  C   LIG d   1       3.091  -1.807  -9.650  0.00  0.00    -0.024 C 
ATOM     48  H   LIG d   1       3.256  -2.179  -8.628  0.00  0.00     0.031 H 
ATOM     49  H   LIG d   1       2.078  -2.077  -9.980  0.00  0.00     0.031 H 
BRANCH  47  50
ATOM     50  C   LIG d   1       4.119  -2.436 -10.593  0.00  0.00    -0.049 C 
ATOM     51  H   LIG d   1       3.714  -3.374 -11.003  0.00  0.00     0.027 H 
ATOM     52  H   LIG d   1       4.336  -1.740 -11.416  0.00  0.00     0.027 H 
BRANCH  50  53
ATOM     53  C   LIG d   1       5.406  -2.731  -9.821  0.00  0.00    -0.053 C 
ATOM     54  H   LIG d   1       5.247  -2.527  -8.752  0.00  0.00     0.026 H 
ATOM     55  H   LIG d   1       5.680  -3.788  -9.956  0.00  0.00     0.026 H 
BRANCH  53  56
ATOM     56  C   LIG d   1       6.533  -1.841 -10.349  0.00  0.00    -0.053 C 
ATOM     57  H   LIG d   1       7.365  -2.470 -10.695  0.00  0.00     0.026 H 
ATOM     58  H   LIG d   1       6.159  -1.235 -11.186  0.00  0.00     0.026 H 
BRANCH  56  59
ATOM     59  C   LIG d   1       7.021  -0.919  -9.230  0.00  0.00    -0.053 C 
ATOM     60  H   LIG d   1       6.266  -0.881  -8.431  0.00  0.00     0.026 H 
ATOM     61  H   LIG d   1       7.967  -1.306  -8.822  0.00  0.00     0.026 H 
BRANCH  59  62
ATOM     62  C   LIG d   1       7.244   0.487  -9.790  0.00  0.00    -0.048 C 
ATOM     63  H   LIG d   1       8.308   0.620 -10.034  0.00  0.00     0.027 H 
ATOM     64  H   LIG d   1       6.639   0.621 -10.698  0.00  0.00     0.027 H 
BRANCH  62  65
ATOM     65  C   LIG d   1       6.829   1.524  -8.743  0.00  0.00    -0.013 C 
ATOM     66  H   LIG d   1       6.779   2.519  -9.213  0.00  0.00     0.033 H 
ATOM     67  H   LIG d   1       5.842   1.261  -8.337  0.00  0.00     0.033 H 
BRANCH  65  68
ATOM     68  C   LIG d   1       7.843   1.546  -7.628  0.00  0.00     0.042 C 
ATOM     69  O   LIG d   1       9.021   1.619  -7.884  0.00  0.00    -0.550 OA
ATOM     70  O   LIG d   1       7.436   1.485  -6.351  0.00  0.00    -0.550 OA
ENDBRANCH  65  68
ENDBRANCH  62  65
ENDBRANCH  59  62
ENDBRANCH  56  59
ENDBRANCH  53  56
ENDBRANCH  50  53
ENDBRANCH  47  50
ENDBRANCH  38  47
ENDBRANCH  36  37
ENDBRANCH   1  36
TORSDOF 19
ENDMDL
MODEL 3
REMARK VINA RESULT:      -6.0      1.700      3.518
REMARK  19 active torsions:
REMARK  status: ('A' for Active; 'I' for Inactive)
REMARK    1  A    between atoms: C_4  and  O_33 
REMARK    2  A    between atoms: C_5  and  C_7 
REMARK    3  A    between atoms: C_7  and  C_8 
REMARK    4  A    between atoms: C_8  and  C_9 
REMARK    5  A    between atoms: C_9  and  C_10 
REMARK    6  A    between atoms: C_10  and  C_11 
REMARK    7  A    between atoms: C_11  and  C_12 
REMARK    8  A    between atoms: C_12  and  C_13 
REMARK    9  A    between atoms: C_13  and  C_14 
REMARK   10  A    between atoms: C_14  and  O_16 
REMARK   11  A    between atoms: O_16  and  C_17 
REMARK   12  A    between atoms: C_22  and  C_23 
REMARK   13  A    between atoms: C_23  and  C_24 
REMARK   14  A    between atoms: C_24  and  C_25 
REMARK   15  A    between atoms: C_25  and  C_26 
REMARK   16  A    between atoms: C_26  and  C_27 
REMARK   17  A    between atoms: C_27  and  C_28 
REMARK   18  A    between atoms: C_28  and  C_29 
REMARK   19  A    between atoms: C_29  and  C_30 
ROOT
ATOM      1  C   LIG d   1       2.982  -0.023  -6.125  0.00  0.00     0.312 C 
ATOM      2  O   LIG d   1       4.063  -0.559  -6.069  0.00  0.00    -0.250 OA
ENDROOT
BRANCH   1   3
ATOM      3  C   LIG d   1       2.444   0.717  -4.927  0.00  0.00     0.045 C 
ATOM      4  H   LIG d   1       1.392   0.981  -5.100  0.00  0.00     0.038 H 
ATOM      5  H   LIG d   1       3.031   1.633  -4.768  0.00  0.00     0.038 H 
BRANCH   3   6
ATOM      6  C   LIG d   1       2.548  -0.176  -3.688  0.00  0.00    -0.043 C 
ATOM      7  H   LIG d   1       3.024  -1.129  -3.961  0.00  0.00     0.027 H 
ATOM      8  H   LIG d   1       1.541  -0.370  -3.292  0.00  0.00     0.027 H 
BRANCH   6   9
ATOM      9  C   LIG d   1       3.390   0.527  -2.622  0.00  0.00    -0.053 C 
ATOM     10  H   LIG d   1       2.726   1.008  -1.888  0.00  0.00     0.026 H 
ATOM     11  H   LIG d   1       4.023   1.290  -3.098  0.00  0.00     0.026 H 
BRANCH   9  12
ATOM     12  C   LIG d   1       4.274  -0.499  -1.911  0.00  0.00    -0.053 C 
ATOM     13  H   LIG d   1       4.093  -0.452  -0.827  0.00  0.00     0.026 H 
ATOM     14  H   LIG d   1       5.332  -0.276  -2.116  0.00  0.00     0.026 H 
BRANCH  12  15
ATOM     15  C   LIG d   1       3.941  -1.902  -2.424  0.00  0.00    -0.053 C 
ATOM     16  H   LIG d   1       3.041  -1.857  -3.056  0.00  0.00     0.026 H 
ATOM     17  H   LIG d   1       3.757  -2.570  -1.571  0.00  0.00     0.026 H 
BRANCH  15  18
ATOM     18  C   LIG d   1       5.114  -2.437  -3.247  0.00  0.00    -0.049 C 
ATOM     19  H   LIG d   1       4.889  -2.331  -4.319  0.00  0.00     0.027 H 
ATOM     20  H   LIG d   1       5.276  -3.499  -3.010  0.00  0.00     0.027 H 
BRANCH  18  21
ATOM     21  C   LIG d   1       6.377  -1.641  -2.911  0.00  0.00    -0.024 C 
ATOM     22  H   LIG d   1       6.899  -2.121  -2.070  0.00  0.00     0.031 H 
ATOM     23  H   LIG d   1       6.101  -0.613  -2.634  0.00  0.00     0.031 H 
BRANCH  21  24
ATOM     24  C   LIG d   1       7.286  -1.609  -4.114  0.00  0.00    -0.006 A 
ATOM     25  C   LIG d   1       7.208  -0.557  -5.014  0.00  0.00     0.120 A 
ATOM     26  C   LIG d   1       8.047  -0.531  -6.120  0.00  0.00    -0.020 A 
ATOM     27  C   LIG d   1       8.955  -1.551  -6.321  0.00  0.00    -0.058 A 
ATOM     28  H   LIG d   1       7.988   0.288  -6.823  0.00  0.00     0.065 H 
ATOM     29  C   LIG d   1       9.030  -2.599  -5.421  0.00  0.00    -0.061 A 
ATOM     30  H   LIG d   1       9.607  -1.531  -7.181  0.00  0.00     0.062 H 
ATOM     31  C   LIG d   1       8.199  -2.625  -4.316  0.00  0.00    -0.055 A 
ATOM     32  H   LIG d   1       9.741  -3.396  -5.581  0.00  0.00     0.062 H 
ATOM     33  H   LIG d   1       8.263  -3.443  -3.613  0.00  0.00     0.062 H 
BRANCH  25  34
ATOM     34  O   LIG d   1       6.314   0.446  -4.814  0.00  0.00    -0.506 OA
ATOM     35  H   LIG d   1       6.267   0.956  -3.840  0.00  0.00     0.292 HD
ENDBRANCH  25  34
ENDBRANCH  21  24
ENDBRANCH  18  21
ENDBRANCH  15  18
ENDBRANCH  12  15
ENDBRANCH   9  12
ENDBRANCH   6   9
ENDBRANCH   3   6
ENDBRANCH   1   3
BRANCH   1  36
ATOM     36  O   LIG d   1       2.259  -0.085  -7.255  0.00  0.00    -0.426 OA
BRANCH  36  37
ATOM     37  C   LIG d   1       2.784   0.514  -8.357  0.00  0.00     0.135 A 
ATOM     38  C   LIG d   1       3.110  -0.245  -9.470  0.00  0.00    -0.005 A 
ATOM     39  C   LIG d   1       3.643   0.367 -10.589  0.00  0.00    -0.055 A 
ATOM     40  C   LIG d   1       3.850   1.734 -10.598  0.00  0.00    -0.061 A 
ATOM     41  H   LIG d   1       3.897  -0.223 -11.458  0.00  0.00     0.062 H 
ATOM     42  C   LIG d   1       3.526   2.493  -9.488  0.00  0.00    -0.058 A 
ATOM     43  H   LIG d   1       4.267   2.211 -11.473  0.00  0.00     0.062 H 
ATOM     44  C   LIG d   1       2.989   1.887  -8.370  0.00  0.00    -0.019 A 
ATOM     45  H   LIG d   1       3.689   3.560  -9.498  0.00  0.00     0.062 H 
ATOM     46  H   LIG d   1       2.731   2.480  -7.505  0.00  0.00     0.065 H 
BRANCH  38  47
ATOM     47  C   LIG d   1       2.884  -1.734  -9.462  0.00  0.00    -0.024 C 
ATOM     48  H   LIG d   1       3.100  -2.132  -8.459  0.00  0.00     0.031 H 
ATOM     49  H   LIG d   1       1.838  -1.947  -9.724  0.00  0.00     0.031 H 
BRANCH  47  50
ATOM     50  C   LIG d   1       3.811  -2.397 -10.483  0.00  0.00    -0.049 C 
ATOM     51  H   LIG d   1       3.207  -2.920 -11.240  0.00  0.00     0.027 H 
ATOM     52  H   LIG d   1       4.427  -1.629 -10.972  0.00  0.00     0.027 H 
BRANCH  50  53
ATOM     53  C   LIG d   1       4.719  -3.402  -9.771  0.00  0.00    -0.053 C 
ATOM     54  H   LIG d   1       4.105  -4.090  -9.171  0.00  0.00     0.026 H 
ATOM     55  H   LIG d   1       5.288  -3.975 -10.518  0.00  0.00     0.026 H 
BRANCH  53  56
ATOM     56  C   LIG d   1       5.689  -2.653  -8.856  0.00  0.00    -0.053 C 
ATOM     57  H   LIG d   1       6.470  -2.174  -9.463  0.00  0.00     0.026 H 
ATOM     58  H   LIG d   1       5.141  -1.885  -8.291  0.00  0.00     0.026 H 
BRANCH  56  59
ATOM     59  C   LIG d   1       6.334  -3.639  -7.880  0.00  0.00    -0.053 C 
ATOM     60  H   LIG d   1       6.402  -4.630  -8.352  0.00  0.00     0.026 H 
ATOM     61  H   LIG d   1       7.344  -3.289  -7.617  0.00  0.00     0.026 H 
BRANCH  59  62
ATOM     62  C   LIG d   1       5.481  -3.734  -6.613  0.00  0.00    -0.048 C 
ATOM     63  H   LIG d   1       5.708  -2.884  -5.954  0.00  0.00     0.027 H 
ATOM     64  H   LIG d   1       4.416  -3.715  -6.886  0.00  0.00     0.027 H 
BRANCH  62  65
ATOM     65  C   LIG d   1       5.796  -5.043  -5.884  0.00  0.00    -0.013 C 
ATOM     66  H   LIG d   1       6.539  -5.614  -6.461  0.00  0.00     0.033 H 
ATOM     67  H   LIG d   1       6.202  -4.818  -4.886  0.00  0.00     0.033 H 
BRANCH  65  68
ATOM     68  C   LIG d   1       4.536  -5.855  -5.743  0.00  0.00     0.042 C 
ATOM     69  O   LIG d   1       4.584  -6.971  -5.283  0.00  0.00    -0.550 OA
ATOM     70  O   LIG d   1       3.358  -5.339  -6.130  0.00  0.00    -0.550 OA
ENDBRANCH  65  68
ENDBRANCH  62  65
ENDBRANCH  59  62
ENDBRANCH  56  59
ENDBRANCH  53  56
ENDBRANCH  50  53
ENDBRANCH  47  50
ENDBRANCH  38  47
ENDBRANCH  36  37
ENDBRANCH   1  36
TORSDOF 19
ENDMDL
MODEL 4
REMARK VINA RESULT:      -6.0      1.955      4.555
REMARK  19 active torsions:
REMARK  status: ('A' for Active; 'I' for Inactive)
REMARK    1  A    between atoms: C_4  and  O_33 
REMARK    2  A    between atoms: C_5  and  C_7 
REMARK    3  A    between atoms: C_7  and  C_8 
REMARK    4  A    between atoms: C_8  and  C_9 
REMARK    5  A    between atoms: C_9  and  C_10 
REMARK    6  A    between atoms: C_10  and  C_11 
REMARK    7  A    between atoms: C_11  and  C_12 
REMARK    8  A    between atoms: C_12  and  C_13 
REMARK    9  A    between atoms: C_13  and  C_14 
REMARK   10  A    between atoms: C_14  and  O_16 
REMARK   11  A    between atoms: O_16  and  C_17 
REMARK   12  A    between atoms: C_22  and  C_23 
REMARK   13  A    between atoms: C_23  and  C_24 
REMARK   14  A    between atoms: C_24  and  C_25 
REMARK   15  A    between atoms: C_25  and  C_26 
REMARK   16  A    between atoms: C_26  and  C_27 
REMARK   17  A    between atoms: C_27  and  C_28 
REMARK   18  A    between atoms: C_28  and  C_29 
REMARK   19  A    between atoms: C_29  and  C_30 
ROOT
ATOM      1  C   LIG d   1       6.303  -0.363 -10.041  0.00  0.00     0.312 C 
ATOM      2  O   LIG d   1       7.200  -0.679  -9.294  0.00  0.00    -0.250 OA
ENDROOT
BRANCH   1   3
ATOM      3  C   LIG d   1       5.912   1.087 -10.176  0.00  0.00     0.045 C 
ATOM      4  H   LIG d   1       5.137   1.188 -10.948  0.00  0.00     0.038 H 
ATOM      5  H   LIG d   1       6.794   1.679 -10.462  0.00  0.00     0.038 H 
BRANCH   3   6
ATOM      6  C   LIG d   1       5.369   1.596  -8.839  0.00  0.00    -0.043 C 
ATOM      7  H   LIG d   1       6.013   2.406  -8.465  0.00  0.00     0.027 H 
ATOM      8  H   LIG d   1       5.358   0.772  -8.111  0.00  0.00     0.027 H 
BRANCH   6   9
ATOM      9  C   LIG d   1       3.946   2.123  -9.034  0.00  0.00    -0.053 C 
ATOM     10  H   LIG d   1       3.665   2.035 -10.094  0.00  0.00     0.026 H 
ATOM     11  H   LIG d   1       3.901   3.179  -8.729  0.00  0.00     0.026 H 
BRANCH   9  12
ATOM     12  C   LIG d   1       2.977   1.304  -8.180  0.00  0.00    -0.053 C 
ATOM     13  H   LIG d   1       2.389   0.638  -8.829  0.00  0.00     0.026 H 
ATOM     14  H   LIG d   1       2.300   1.982  -7.641  0.00  0.00     0.026 H 
BRANCH  12  15
ATOM     15  C   LIG d   1       3.768   0.466  -7.173  0.00  0.00    -0.053 C 
ATOM     16  H   LIG d   1       4.404   1.127  -6.566  0.00  0.00     0.026 H 
ATOM     17  H   LIG d   1       4.397  -0.257  -7.711  0.00  0.00     0.026 H 
BRANCH  15  18
ATOM     18  C   LIG d   1       2.797  -0.285  -6.260  0.00  0.00    -0.049 C 
ATOM     19  H   LIG d   1       3.263  -1.221  -5.919  0.00  0.00     0.027 H 
ATOM     20  H   LIG d   1       1.874  -0.515  -6.814  0.00  0.00     0.027 H 
BRANCH  18  21
ATOM     21  C   LIG d   1       2.459   0.587  -5.049  0.00  0.00    -0.024 C 
ATOM     22  H   LIG d   1       1.373   0.565  -4.873  0.00  0.00     0.031 H 
ATOM     23  H   LIG d   1       2.779   1.622  -5.240  0.00  0.00     0.031 H 
BRANCH  21  24
ATOM     24  C   LIG d   1       3.175   0.057  -3.833  0.00  0.00    -0.006 A 
ATOM     25  C   LIG d   1       3.858   0.926  -2.996  0.00  0.00     0.120 A 
ATOM     26  C   LIG d   1       4.516   0.435  -1.877  0.00  0.00    -0.020 A 
ATOM     27  C   LIG d   1       4.489  -0.918  -1.600  0.00  0.00    -0.058 A 
ATOM     28  H   LIG d   1       5.049   1.110  -1.223  0.00  0.00     0.065 H 
ATOM     29  C   LIG d   1       3.807  -1.782  -2.437  0.00  0.00    -0.061 A 
ATOM     30  H   LIG d   1       5.001  -1.300  -0.729  0.00  0.00     0.062 H 
ATOM     31  C   LIG d   1       3.147  -1.295  -3.549  0.00  0.00    -0.055 A 
ATOM     32  H   LIG d   1       3.788  -2.840  -2.218  0.00  0.00     0.062 H 
ATOM     33  H   LIG d   1       2.612  -1.972  -4.198  0.00  0.00     0.062 H 
BRANCH  25  34
ATOM     34  O   LIG d   1       3.882   2.257  -3.270  0.00  0.00    -0.506 OA
ATOM     35  H   LIG d   1       3.321   2.960  -2.638  0.00  0.00     0.292 HD
ENDBRANCH  25  34
ENDBRANCH  21  24
ENDBRANCH  18  21
ENDBRANCH  15  18
ENDBRANCH  12  15
ENDBRANCH   9  12
ENDBRANCH   6   9
ENDBRANCH   3   6
ENDBRANCH   1   3
BRANCH   1  36
ATOM     36  O   LIG d   1       5.656  -1.301 -10.748  0.00  0.00    -0.426 OA
BRANCH  36  37
ATOM     37  C   LIG d   1       4.313  -1.400 -10.559  0.00  0.00     0.135 A 
ATOM     38  C   LIG d   1       3.812  -2.206  -9.547  0.00  0.00    -0.005 A 
ATOM     39  C   LIG d   1       2.447  -2.305  -9.357  0.00  0.00    -0.055 A 
ATOM     40  C   LIG d   1       1.582  -1.602 -10.175  0.00  0.00    -0.061 A 
ATOM     41  H   LIG d   1       2.055  -2.931  -8.569  0.00  0.00     0.062 H 
ATOM     42  C   LIG d   1       2.078  -0.798 -11.184  0.00  0.00    -0.058 A 
ATOM     43  H   LIG d   1       0.515  -1.680 -10.025  0.00  0.00     0.062 H 
ATOM     44  C   LIG d   1       3.442  -0.692 -11.375  0.00  0.00    -0.019 A 
ATOM     45  H   LIG d   1       1.401  -0.251 -11.821  0.00  0.00     0.062 H 
ATOM     46  H   LIG d   1       3.830  -0.062 -12.160  0.00  0.00     0.065 H 
BRANCH  38  47
ATOM     47  C   LIG d   1       4.755  -2.971  -8.656  0.00  0.00    -0.024 C 
ATOM     48  H   LIG d   1       5.392  -3.625  -9.270  0.00  0.00     0.031 H 
ATOM     49  H   LIG d   1       5.385  -2.265  -8.096  0.00  0.00     0.031 H 
BRANCH  47  50
ATOM     50  C   LIG d   1       3.949  -3.824  -7.673  0.00  0.00    -0.049 C 
ATOM     51  H   LIG d   1       2.892  -3.519  -7.704  0.00  0.00     0.027 H 
ATOM     52  H   LIG d   1       4.032  -4.884  -7.954  0.00  0.00     0.027 H 
BRANCH  50  53
ATOM     53  C   LIG d   1       4.496  -3.627  -6.258  0.00  0.00    -0.053 C 
ATOM     54  H   LIG d   1       3.948  -2.812  -5.764  0.00  0.00     0.026 H 
ATOM     55  H   LIG d   1       4.369  -4.557  -5.683  0.00  0.00     0.026 H 
BRANCH  53  56
ATOM     56  C   LIG d   1       5.983  -3.273  -6.331  0.00  0.00    -0.053 C 
ATOM     57  H   LIG d   1       6.572  -4.190  -6.473  0.00  0.00     0.026 H 
ATOM     58  H   LIG d   1       6.156  -2.592  -7.177  0.00  0.00     0.026 H 
BRANCH  56  59
ATOM     59  C   LIG d   1       6.408  -2.589  -5.031  0.00  0.00    -0.053 C 
ATOM     60  H   LIG d   1       5.666  -2.798  -4.247  0.00  0.00     0.026 H 
ATOM     61  H   LIG d   1       7.391  -2.974  -4.718  0.00  0.00     0.026 H 
BRANCH  59  62
ATOM     62  C   LIG d   1       6.501  -1.078  -5.256  0.00  0.00    -0.048 C 
ATOM     63  H   LIG d   1       7.085  -0.879  -6.166  0.00  0.00     0.027 H 
ATOM     64  H   LIG d   1       5.490  -0.661  -5.369  0.00  0.00     0.027 H 
BRANCH  62  65
ATOM     65  C   LIG d   1       7.191  -0.425  -4.056  0.00  0.00    -0.013 C 
ATOM     66  H   LIG d   1       6.562  -0.547  -3.161  0.00  0.00     0.033 H 
ATOM     67  H   LIG d   1       8.166  -0.905  -3.887  0.00  0.00     0.033 H 
BRANCH  65  68
ATOM     68  C   LIG d   1       7.393   1.042  -4.331  0.00  0.00     0.042 C 
ATOM     69  O   LIG d   1       7.623   1.802  -3.420  0.00  0.00    -0.550 OA
ATOM     70  O   LIG d   1       7.319   1.506  -5.588  0.00  0.00    -0.550 OA
ENDBRANCH  65  68
ENDBRANCH  62  65
ENDBRANCH  59  62
ENDBRANCH  56  59
ENDBRANCH  53  56
ENDBRANCH  50  53
ENDBRANCH  47  50
ENDBRANCH  38  47
ENDBRANCH  36  37
ENDBRANCH   1  36
TORSDOF 19
ENDMDL
MODEL 5
REMARK VINA RESULT:      -5.9      1.890      6.270
REMARK  19 active torsions:
REMARK  status: ('A' for Active; 'I' for Inactive)
REMARK    1  A    between atoms: C_4  and  O_33 
REMARK    2  A    between atoms: C_5  and  C_7 
REMARK    3  A    between atoms: C_7  and  C_8 
REMARK    4  A    between atoms: C_8  and  C_9 
REMARK    5  A    between atoms: C_9  and  C_10 
REMARK    6  A    between atoms: C_10  and  C_11 
REMARK    7  A    between atoms: C_11  and  C_12 
REMARK    8  A    between atoms: C_12  and  C_13 
REMARK    9  A    between atoms: C_13  and  C_14 
REMARK   10  A    between atoms: C_14  and  O_16 
REMARK   11  A    between atoms: O_16  and  C_17 
REMARK   12  A    between atoms: C_22  and  C_23 
REMARK   13  A    between atoms: C_23  and  C_24 
REMARK   14  A    between atoms: C_24  and  C_25 
REMARK   15  A    between atoms: C_25  and  C_26 
REMARK   16  A    between atoms: C_26  and  C_27 
REMARK   17  A    between atoms: C_27  and  C_28 
REMARK   18  A    between atoms: C_28  and  C_29 
REMARK   19  A    between atoms: C_29  and  C_30 
ROOT
ATOM      1  C   LIG d   1       7.617   1.169  -4.958  0.00  0.00     0.312 C 
ATOM      2  O   LIG d   1       7.835   2.356  -5.025  0.00  0.00    -0.250 OA
ENDROOT
BRANCH   1   3
ATOM      3  C   LIG d   1       7.295   0.391  -6.208  0.00  0.00     0.045 C 
ATOM      4  H   LIG d   1       6.255   0.036  -6.162  0.00  0.00     0.038 H 
ATOM      5  H   LIG d   1       7.973  -0.472  -6.287  0.00  0.00     0.038 H 
BRANCH   3   6
ATOM      6  C   LIG d   1       7.473   1.293  -7.431  0.00  0.00    -0.043 C 
ATOM      7  H   LIG d   1       8.499   1.194  -7.814  0.00  0.00     0.027 H 
ATOM      8  H   LIG d   1       7.288   2.338  -7.144  0.00  0.00     0.027 H 
BRANCH   6   9
ATOM      9  C   LIG d   1       6.481   0.879  -8.519  0.00  0.00    -0.053 C 
ATOM     10  H   LIG d   1       5.768   0.149  -8.107  0.00  0.00     0.026 H 
ATOM     11  H   LIG d   1       7.026   0.425  -9.360  0.00  0.00     0.026 H 
BRANCH   9  12
ATOM     12  C   LIG d   1       5.720   2.111  -9.011  0.00  0.00    -0.053 C 
ATOM     13  H   LIG d   1       6.409   2.775  -9.555  0.00  0.00     0.026 H 
ATOM     14  H   LIG d   1       5.296   2.649  -8.150  0.00  0.00     0.026 H 
BRANCH  12  15
ATOM     15  C   LIG d   1       4.589   1.674  -9.946  0.00  0.00    -0.053 C 
ATOM     16  H   LIG d   1       4.637   0.585 -10.094  0.00  0.00     0.026 H 
ATOM     17  H   LIG d   1       4.698   2.181 -10.915  0.00  0.00     0.026 H 
BRANCH  15  18
ATOM     18  C   LIG d   1       3.242   2.044  -9.324  0.00  0.00    -0.049 C 
ATOM     19  H   LIG d   1       2.710   2.741  -9.990  0.00  0.00     0.027 H 
ATOM     20  H   LIG d   1       3.407   2.524  -8.348  0.00  0.00     0.027 H 
BRANCH  18  21
ATOM     21  C   LIG d   1       2.403   0.780  -9.135  0.00  0.00    -0.024 C 
ATOM     22  H   LIG d   1       2.330   0.242 -10.092  0.00  0.00     0.031 H 
ATOM     23  H   LIG d   1       1.394   1.055  -8.791  0.00  0.00     0.031 H 
BRANCH  21  24
ATOM     24  C   LIG d   1       3.057  -0.109  -8.108  0.00  0.00    -0.006 A 
ATOM     25  C   LIG d   1       3.534  -1.358  -8.473  0.00  0.00     0.120 A 
ATOM     26  C   LIG d   1       4.136  -2.173  -7.525  0.00  0.00    -0.020 A 
ATOM     27  C   LIG d   1       4.258  -1.738  -6.220  0.00  0.00    -0.058 A 
ATOM     28  H   LIG d   1       4.508  -3.147  -7.808  0.00  0.00     0.065 H 
ATOM     29  C   LIG d   1       3.781  -0.492  -5.858  0.00  0.00    -0.061 A 
ATOM     30  H   LIG d   1       4.726  -2.373  -5.482  0.00  0.00     0.062 H 
ATOM     31  C   LIG d   1       3.186   0.324  -6.802  0.00  0.00    -0.055 A 
ATOM     32  H   LIG d   1       3.878  -0.154  -4.837  0.00  0.00     0.062 H 
ATOM     33  H   LIG d   1       2.818   1.299  -6.517  0.00  0.00     0.062 H 
BRANCH  25  34
ATOM     34  O   LIG d   1       3.413  -1.783  -9.759  0.00  0.00    -0.506 OA
ATOM     35  H   LIG d   1       3.598  -2.837 -10.010  0.00  0.00     0.292 HD
ENDBRANCH  25  34
ENDBRANCH  21  24
ENDBRANCH  18  21
ENDBRANCH  15  18
ENDBRANCH  12  15
ENDBRANCH   9  12
ENDBRANCH   6   9
ENDBRANCH   3   6
ENDBRANCH   1   3
BRANCH   1  36
ATOM     36  O   LIG d   1       7.660   0.544  -3.771  0.00  0.00    -0.426 OA
BRANCH  36  37
ATOM     37  C   LIG d   1       6.473   0.149  -3.238  0.00  0.00     0.135 A 
ATOM     38  C   LIG d   1       6.219  -1.199  -3.032  0.00  0.00    -0.005 A 
ATOM     39  C   LIG d   1       5.013  -1.598  -2.490  0.00  0.00    -0.055 A 
ATOM     40  C   LIG d   1       4.059  -0.654  -2.154  0.00  0.00    -0.061 A 
ATOM     41  H   LIG d   1       4.813  -2.647  -2.328  0.00  0.00     0.062 H 
ATOM     42  C   LIG d   1       4.310   0.690  -2.358  0.00  0.00    -0.058 A 
ATOM     43  H   LIG d   1       3.116  -0.968  -1.730  0.00  0.00     0.062 H 
ATOM     44  C   LIG d   1       5.516   1.094  -2.895  0.00  0.00    -0.019 A 
ATOM     45  H   LIG d   1       3.564   1.424  -2.095  0.00  0.00     0.062 H 
ATOM     46  H   LIG d   1       5.714   2.144  -3.051  0.00  0.00     0.065 H 
BRANCH  38  47
ATOM     47  C   LIG d   1       7.258  -2.227  -3.398  0.00  0.00    -0.024 C 
ATOM     48  H   LIG d   1       8.154  -1.721  -3.788  0.00  0.00     0.031 H 
ATOM     49  H   LIG d   1       7.525  -2.811  -2.506  0.00  0.00     0.031 H 
BRANCH  47  50
ATOM     50  C   LIG d   1       6.695  -3.162  -4.471  0.00  0.00    -0.049 C 
ATOM     51  H   LIG d   1       6.164  -3.996  -3.987  0.00  0.00     0.027 H 
ATOM     52  H   LIG d   1       5.996  -2.606  -5.111  0.00  0.00     0.027 H 
BRANCH  50  53
ATOM     53  C   LIG d   1       7.841  -3.711  -5.322  0.00  0.00    -0.053 C 
ATOM     54  H   LIG d   1       8.774  -3.190  -5.061  0.00  0.00     0.026 H 
ATOM     55  H   LIG d   1       7.957  -4.788  -5.131  0.00  0.00     0.026 H 
BRANCH  53  56
ATOM     56  C   LIG d   1       7.529  -3.487  -6.803  0.00  0.00    -0.053 C 
ATOM     57  H   LIG d   1       6.528  -3.043  -6.903  0.00  0.00     0.026 H 
ATOM     58  H   LIG d   1       8.277  -2.808  -7.237  0.00  0.00     0.026 H 
BRANCH  56  59
ATOM     59  C   LIG d   1       7.567  -4.827  -7.540  0.00  0.00    -0.053 C 
ATOM     60  H   LIG d   1       8.162  -4.723  -8.460  0.00  0.00     0.026 H 
ATOM     61  H   LIG d   1       8.026  -5.590  -6.892  0.00  0.00     0.026 H 
BRANCH  59  62
ATOM     62  C   LIG d   1       6.142  -5.253  -7.899  0.00  0.00    -0.048 C 
ATOM     63  H   LIG d   1       5.495  -4.366  -7.945  0.00  0.00     0.027 H 
ATOM     64  H   LIG d   1       6.145  -5.757  -8.876  0.00  0.00     0.027 H 
BRANCH  62  65
ATOM     65  C   LIG d   1       5.613  -6.214  -6.831  0.00  0.00    -0.013 C 
ATOM     66  H   LIG d   1       5.516  -7.223  -7.262  0.00  0.00     0.033 H 
ATOM     67  H   LIG d   1       6.314  -6.243  -5.984  0.00  0.00     0.033 H 
BRANCH  65  68
ATOM     68  C   LIG d   1       4.265  -5.740  -6.353  0.00  0.00     0.042 C 
ATOM     69  O   LIG d   1       3.381  -5.529  -7.149  0.00  0.00    -0.550 OA
ATOM     70  O   LIG d   1       4.046  -5.553  -5.042  0.00  0.00    -0.550 OA
ENDBRANCH  65  68
ENDBRANCH  62  65
ENDBRANCH  59  62
ENDBRANCH  56  59
ENDBRANCH  53  56
ENDBRANCH  50  53
ENDBRANCH  47  50
ENDBRANCH  38  47
ENDBRANCH  36  37
ENDBRANCH   1  36
TORSDOF 19
ENDMDL
MODEL 6
REMARK VINA RESULT:      -5.9      3.662      6.686
REMARK  19 active torsions:
REMARK  status: ('A' for Active; 'I' for Inactive)
REMARK    1  A    between atoms: C_4  and  O_33 
REMARK    2  A    between atoms: C_5  and  C_7 
REMARK    3  A    between atoms: C_7  and  C_8 
REMARK    4  A    between atoms: C_8  and  C_9 
REMARK    5  A    between atoms: C_9  and  C_10 
REMARK    6  A    between atoms: C_10  and  C_11 
REMARK    7  A    between atoms: C_11  and  C_12 
REMARK    8  A    between atoms: C_12  and  C_13 
REMARK    9  A    between atoms: C_13  and  C_14 
REMARK   10  A    between atoms: C_14  and  O_16 
REMARK   11  A    between atoms: O_16  and  C_17 
REMARK   12  A    between atoms: C_22  and  C_23 
REMARK   13  A    between atoms: C_23  and  C_24 
REMARK   14  A    between atoms: C_24  and  C_25 
REMARK   15  A    between atoms: C_25  and  C_26 
REMARK   16  A    between atoms: C_26  and  C_27 
REMARK   17  A    between atoms: C_27  and  C_28 
REMARK   18  A    between atoms: C_28  and  C_29 
REMARK   19  A    between atoms: C_29  and  C_30 
ROOT
ATOM      1  C   LIG d   1       6.407   1.281  -8.863  0.00  0.00     0.312 C 
ATOM      2  O   LIG d   1       7.458   1.050  -9.413  0.00  0.00    -0.250 OA
ENDROOT
BRANCH   1   3
ATOM      3  C   LIG d   1       5.136   1.356  -9.670  0.00  0.00     0.045 C 
ATOM      4  H   LIG d   1       4.545   0.443  -9.510  0.00  0.00     0.038 H 
ATOM      5  H   LIG d   1       5.384   1.451 -10.737  0.00  0.00     0.038 H 
BRANCH   3   6
ATOM      6  C   LIG d   1       4.322   2.574  -9.227  0.00  0.00    -0.043 C 
ATOM      7  H   LIG d   1       4.018   3.154 -10.110  0.00  0.00     0.027 H 
ATOM      8  H   LIG d   1       4.936   3.204  -8.567  0.00  0.00     0.027 H 
BRANCH   6   9
ATOM      9  C   LIG d   1       3.076   2.106  -8.471  0.00  0.00    -0.053 C 
ATOM     10  H   LIG d   1       2.218   2.735  -8.754  0.00  0.00     0.026 H 
ATOM     11  H   LIG d   1       3.251   2.189  -7.389  0.00  0.00     0.026 H 
BRANCH   9  12
ATOM     12  C   LIG d   1       2.778   0.649  -8.830  0.00  0.00    -0.053 C 
ATOM     13  H   LIG d   1       3.643   0.217  -9.355  0.00  0.00     0.026 H 
ATOM     14  H   LIG d   1       1.894   0.605  -9.483  0.00  0.00     0.026 H 
BRANCH  12  15
ATOM     15  C   LIG d   1       2.508  -0.146  -7.551  0.00  0.00    -0.053 C 
ATOM     16  H   LIG d   1       3.109  -1.068  -7.558  0.00  0.00     0.026 H 
ATOM     17  H   LIG d   1       1.441  -0.404  -7.498  0.00  0.00     0.026 H 
BRANCH  15  18
ATOM     18  C   LIG d   1       2.890   0.700  -6.334  0.00  0.00    -0.049 C 
ATOM     19  H   LIG d   1       2.615   1.749  -6.517  0.00  0.00     0.027 H 
ATOM     20  H   LIG d   1       3.974   0.629  -6.163  0.00  0.00     0.027 H 
BRANCH  18  21
ATOM     21  C   LIG d   1       2.145   0.185  -5.102  0.00  0.00    -0.024 C 
ATOM     22  H   LIG d   1       1.759  -0.826  -5.302  0.00  0.00     0.031 H 
ATOM     23  H   LIG d   1       1.306   0.858  -4.871  0.00  0.00     0.031 H 
BRANCH  21  24
ATOM     24  C   LIG d   1       3.089   0.138  -3.927  0.00  0.00    -0.006 A 
ATOM     25  C   LIG d   1       3.666  -1.064  -3.548  0.00  0.00     0.120 A 
ATOM     26  C   LIG d   1       4.535  -1.103  -2.466  0.00  0.00    -0.020 A 
ATOM     27  C   LIG d   1       4.822   0.055  -1.770  0.00  0.00    -0.058 A 
ATOM     28  H   LIG d   1       4.987  -2.038  -2.169  0.00  0.00     0.065 H 
ATOM     29  C   LIG d   1       4.244   1.252  -2.151  0.00  0.00    -0.061 A 
ATOM     30  H   LIG d   1       5.497   0.025  -0.928  0.00  0.00     0.062 H 
ATOM     31  C   LIG d   1       3.382   1.295  -3.231  0.00  0.00    -0.055 A 
ATOM     32  H   LIG d   1       4.469   2.157  -1.604  0.00  0.00     0.062 H 
ATOM     33  H   LIG d   1       2.936   2.233  -3.528  0.00  0.00     0.062 H 
BRANCH  25  34
ATOM     34  O   LIG d   1       3.383  -2.201  -4.235  0.00  0.00    -0.506 OA
ATOM     35  H   LIG d   1       3.071  -2.145  -5.288  0.00  0.00     0.292 HD
ENDBRANCH  25  34
ENDBRANCH  21  24
ENDBRANCH  18  21
ENDBRANCH  15  18
ENDBRANCH  12  15
ENDBRANCH   9  12
ENDBRANCH   6   9
ENDBRANCH   3   6
ENDBRANCH   1   3
BRANCH   1  36
ATOM     36  O   LIG d   1       6.371   1.471  -7.535  0.00  0.00    -0.426 OA
BRANCH  36  37
ATOM     37  C   LIG d   1       6.593   0.384  -6.750  0.00  0.00     0.135 A 
ATOM     38  C   LIG d   1       7.434   0.481  -5.652  0.00  0.00    -0.005 A 
ATOM     39  C   LIG d   1       7.657  -0.626  -4.855  0.00  0.00    -0.055 A 
ATOM     40  C   LIG d   1       7.043  -1.828  -5.153  0.00  0.00    -0.061 A 
ATOM     41  H   LIG d   1       8.312  -0.552  -3.998  0.00  0.00     0.062 H 
ATOM     42  C   LIG d   1       6.205  -1.927  -6.248  0.00  0.00    -0.058 A 
ATOM     43  H   LIG d   1       7.219  -2.693  -4.529  0.00  0.00     0.062 H 
ATOM     44  C   LIG d   1       5.974  -0.823  -7.044  0.00  0.00    -0.019 A 
ATOM     45  H   LIG d   1       5.727  -2.867  -6.478  0.00  0.00     0.062 H 
ATOM     46  H   LIG d   1       5.316  -0.899  -7.896  0.00  0.00     0.065 H 
BRANCH  38  47
ATOM     47  C   LIG d   1       8.103   1.791  -5.326  0.00  0.00    -0.024 C 
ATOM     48  H   LIG d   1       9.124   1.793  -5.735  0.00  0.00     0.031 H 
ATOM     49  H   LIG d   1       7.528   2.616  -5.771  0.00  0.00     0.031 H 
BRANCH  47  50
ATOM     50  C   LIG d   1       8.162   1.971  -3.808  0.00  0.00    -0.049 C 
ATOM     51  H   LIG d   1       7.318   2.596  -3.479  0.00  0.00     0.027 H 
ATOM     52  H   LIG d   1       8.101   0.988  -3.320  0.00  0.00     0.027 H 
BRANCH  50  53
ATOM     53  C   LIG d   1       9.479   2.649  -3.425  0.00  0.00    -0.053 C 
ATOM     54  H   LIG d   1       9.615   2.597  -2.335  0.00  0.00     0.026 H 
ATOM     55  H   LIG d   1      10.314   2.135  -3.925  0.00  0.00     0.026 H 
BRANCH  53  56
ATOM     56  C   LIG d   1       9.445   4.114  -3.867  0.00  0.00    -0.053 C 
ATOM     57  H   LIG d   1       8.962   4.189  -4.851  0.00  0.00     0.026 H 
ATOM     58  H   LIG d   1       8.877   4.704  -3.134  0.00  0.00     0.026 H 
BRANCH  56  59
ATOM     59  C   LIG d   1      10.874   4.652  -3.957  0.00  0.00    -0.053 C 
ATOM     60  H   LIG d   1      11.581   3.871  -3.641  0.00  0.00     0.026 H 
ATOM     61  H   LIG d   1      11.092   4.944  -4.996  0.00  0.00     0.026 H 
BRANCH  59  62
ATOM     62  C   LIG d   1      11.018   5.872  -3.045  0.00  0.00    -0.048 C 
ATOM     63  H   LIG d   1      11.477   5.565  -2.094  0.00  0.00     0.027 H 
ATOM     64  H   LIG d   1      11.654   6.623  -3.534  0.00  0.00     0.027 H 
BRANCH  62  65
ATOM     65  C   LIG d   1       9.637   6.471  -2.773  0.00  0.00    -0.013 C 
ATOM     66  H   LIG d   1       9.488   7.354  -3.415  0.00  0.00     0.033 H 
ATOM     67  H   LIG d   1       8.862   5.723  -2.995  0.00  0.00     0.033 H 
BRANCH  65  68
ATOM     68  C   LIG d   1       9.542   6.881  -1.327  0.00  0.00     0.042 C 
ATOM     69  O   LIG d   1       8.854   7.821  -1.008  0.00  0.00    -0.550 OA
ATOM     70  O   LIG d   1      10.224   6.201  -0.391  0.00  0.00    -0.550 OA
ENDBRANCH  65  68
ENDBRANCH  62  65
ENDBRANCH  59  62
ENDBRANCH  56  59
ENDBRANCH  53  56
ENDBRANCH  50  53
ENDBRANCH  47  50
ENDBRANCH  38  47
ENDBRANCH  36  37
ENDBRANCH   1  36
TORSDOF 19
ENDMDL
MODEL 7
REMARK VINA RESULT:      -5.8      2.333      6.040
REMARK  19 active torsions:
REMARK  status: ('A' for Active; 'I' for Inactive)
REMARK    1  A    between atoms: C_4  and  O_33 
REMARK    2  A    between atoms: C_5  and  C_7 
REMARK    3  A    between atoms: C_7  and  C_8 
REMARK    4  A    between atoms: C_8  and  C_9 
REMARK    5  A    between atoms: C_9  and  C_10 
REMARK    6  A    between atoms: C_10  and  C_11 
REMARK    7  A    between atoms: C_11  and  C_12 
REMARK    8  A    between atoms: C_12  and  C_13 
REMARK    9  A    between atoms: C_13  and  C_14 
REMARK   10  A    between atoms: C_14  and  O_16 
REMARK   11  A    between atoms: O_16  and  C_17 
REMARK   12  A    between atoms: C_22  and  C_23 
REMARK   13  A    between atoms: C_23  and  C_24 
REMARK   14  A    between atoms: C_24  and  C_25 
REMARK   15  A    between atoms: C_25  and  C_26 
REMARK   16  A    between atoms: C_26  and  C_27 
REMARK   17  A    between atoms: C_27  and  C_28 
REMARK   18  A    between atoms: C_28  and  C_29 
REMARK   19  A    between atoms: C_29  and  C_30 
ROOT
ATOM      1  C   LIG d   1       7.467   1.223  -8.848  0.00  0.00     0.312 C 
ATOM      2  O   LIG d   1       7.622   1.291 -10.045  0.00  0.00    -0.250 OA
ENDROOT
BRANCH   1   3
ATOM      3  C   LIG d   1       6.095   1.418  -8.254  0.00  0.00     0.045 C 
ATOM      4  H   LIG d   1       6.137   2.198  -7.481  0.00  0.00     0.038 H 
ATOM      5  H   LIG d   1       5.753   0.475  -7.805  0.00  0.00     0.038 H 
BRANCH   3   6
ATOM      6  C   LIG d   1       5.119   1.842  -9.353  0.00  0.00    -0.043 C 
ATOM      7  H   LIG d   1       5.416   1.382 -10.307  0.00  0.00     0.027 H 
ATOM      8  H   LIG d   1       5.135   2.937  -9.455  0.00  0.00     0.027 H 
BRANCH   6   9
ATOM      9  C   LIG d   1       3.706   1.386  -8.985  0.00  0.00    -0.053 C 
ATOM     10  H   LIG d   1       3.076   1.375  -9.887  0.00  0.00     0.026 H 
ATOM     11  H   LIG d   1       3.277   2.079  -8.246  0.00  0.00     0.026 H 
BRANCH   9  12
ATOM     12  C   LIG d   1       3.764  -0.022  -8.389  0.00  0.00    -0.053 C 
ATOM     13  H   LIG d   1       4.761  -0.197  -7.956  0.00  0.00     0.026 H 
ATOM     14  H   LIG d   1       3.573  -0.763  -9.179  0.00  0.00     0.026 H 
BRANCH  12  15
ATOM     15  C   LIG d   1       2.702  -0.158  -7.295  0.00  0.00    -0.053 C 
ATOM     16  H   LIG d   1       2.637  -1.209  -6.976  0.00  0.00     0.026 H 
ATOM     17  H   LIG d   1       1.728   0.168  -7.688  0.00  0.00     0.026 H 
BRANCH  15  18
ATOM     18  C   LIG d   1       3.088   0.715  -6.099  0.00  0.00    -0.049 C 
ATOM     19  H   LIG d   1       2.970   1.776  -6.366  0.00  0.00     0.027 H 
ATOM     20  H   LIG d   1       4.136   0.521  -5.825  0.00  0.00     0.027 H 
BRANCH  18  21
ATOM     21  C   LIG d   1       2.181   0.384  -4.913  0.00  0.00    -0.024 C 
ATOM     22  H   LIG d   1       1.516  -0.451  -5.182  0.00  0.00     0.031 H 
ATOM     23  H   LIG d   1       1.577   1.266  -4.655  0.00  0.00     0.031 H 
BRANCH  21  24
ATOM     24  C   LIG d   1       3.027  -0.009  -3.728  0.00  0.00    -0.006 A 
ATOM     25  C   LIG d   1       3.696   0.962  -3.000  0.00  0.00     0.120 A 
ATOM     26  C   LIG d   1       4.472   0.597  -1.910  0.00  0.00    -0.020 A 
ATOM     27  C   LIG d   1       4.577  -0.733  -1.553  0.00  0.00    -0.058 A 
ATOM     28  H   LIG d   1       4.994   1.353  -1.340  0.00  0.00     0.065 H 
ATOM     29  C   LIG d   1       3.909  -1.700  -2.282  0.00  0.00    -0.061 A 
ATOM     30  H   LIG d   1       5.182  -1.018  -0.705  0.00  0.00     0.062 H 
ATOM     31  C   LIG d   1       3.130  -1.338  -3.365  0.00  0.00    -0.055 A 
ATOM     32  H   LIG d   1       3.994  -2.740  -2.001  0.00  0.00     0.062 H 
ATOM     33  H   LIG d   1       2.607  -2.096  -3.929  0.00  0.00     0.062 H 
BRANCH  25  34
ATOM     34  O   LIG d   1       3.589   2.271  -3.353  0.00  0.00    -0.506 OA
ATOM     35  H   LIG d   1       3.879   2.594  -4.363  0.00  0.00     0.292 HD
ENDBRANCH  25  34
ENDBRANCH  21  24
ENDBRANCH  18  21
ENDBRANCH  15  18
ENDBRANCH  12  15
ENDBRANCH   9  12
ENDBRANCH   6   9
ENDBRANCH   3   6
ENDBRANCH   1   3
BRANCH   1  36
ATOM     36  O   LIG d   1       8.515   0.975  -8.048  0.00  0.00    -0.426 OA
BRANCH  36  37
ATOM     37  C   LIG d   1       8.881   1.960  -7.185  0.00  0.00     0.135 A 
ATOM     38  C   LIG d   1       8.886   1.721  -5.820  0.00  0.00    -0.005 A 
ATOM     39  C   LIG d   1       9.259   2.724  -4.946  0.00  0.00    -0.055 A 
ATOM     40  C   LIG d   1       9.625   3.966  -5.433  0.00  0.00    -0.061 A 
ATOM     41  H   LIG d   1       9.264   2.539  -3.881  0.00  0.00     0.062 H 
ATOM     42  C   LIG d   1       9.620   4.207  -6.794  0.00  0.00    -0.058 A 
ATOM     43  H   LIG d   1       9.916   4.749  -4.748  0.00  0.00     0.062 H 
ATOM     44  C   LIG d   1       9.253   3.206  -7.672  0.00  0.00    -0.019 A 
ATOM     45  H   LIG d   1       9.906   5.177  -7.171  0.00  0.00     0.062 H 
ATOM     46  H   LIG d   1       9.254   3.393  -8.735  0.00  0.00     0.065 H 
BRANCH  38  47
ATOM     47  C   LIG d   1       8.488   0.368  -5.289  0.00  0.00    -0.024 C 
ATOM     48  H   LIG d   1       8.569  -0.379  -6.092  0.00  0.00     0.031 H 
ATOM     49  H   LIG d   1       9.153   0.089  -4.460  0.00  0.00     0.031 H 
BRANCH  47  50
ATOM     50  C   LIG d   1       7.043   0.422  -4.787  0.00  0.00    -0.049 C 
ATOM     51  H   LIG d   1       7.034   0.365  -3.689  0.00  0.00     0.027 H 
ATOM     52  H   LIG d   1       6.579   1.365  -5.108  0.00  0.00     0.027 H 
BRANCH  50  53
ATOM     53  C   LIG d   1       6.258  -0.756  -5.367  0.00  0.00    -0.053 C 
ATOM     54  H   LIG d   1       5.180  -0.570  -5.251  0.00  0.00     0.026 H 
ATOM     55  H   LIG d   1       6.499  -0.868  -6.434  0.00  0.00     0.026 H 
BRANCH  53  56
ATOM     56  C   LIG d   1       6.638  -2.037  -4.622  0.00  0.00    -0.053 C 
ATOM     57  H   LIG d   1       7.727  -2.067  -4.476  0.00  0.00     0.026 H 
ATOM     58  H   LIG d   1       6.136  -2.055  -3.644  0.00  0.00     0.026 H 
BRANCH  56  59
ATOM     59  C   LIG d   1       6.199  -3.253  -5.442  0.00  0.00    -0.053 C 
ATOM     60  H   LIG d   1       6.905  -3.409  -6.271  0.00  0.00     0.026 H 
ATOM     61  H   LIG d   1       6.188  -4.145  -4.798  0.00  0.00     0.026 H 
BRANCH  59  62
ATOM     62  C   LIG d   1       4.797  -3.010  -6.003  0.00  0.00    -0.048 C 
ATOM     63  H   LIG d   1       4.047  -3.362  -5.280  0.00  0.00     0.027 H 
ATOM     64  H   LIG d   1       4.655  -1.934  -6.184  0.00  0.00     0.027 H 
BRANCH  62  65
ATOM     65  C   LIG d   1       4.635  -3.774  -7.319  0.00  0.00    -0.013 C 
ATOM     66  H   LIG d   1       4.180  -3.113  -8.073  0.00  0.00     0.033 H 
ATOM     67  H   LIG d   1       5.621  -4.109  -7.673  0.00  0.00     0.033 H 
BRANCH  65  68
ATOM     68  C   LIG d   1       3.745  -4.970  -7.099  0.00  0.00     0.042 C 
ATOM     69  O   LIG d   1       3.311  -5.583  -8.045  0.00  0.00    -0.550 OA
ATOM     70  O   LIG d   1       3.436  -5.355  -5.851  0.00  0.00    -0.550 OA
ENDBRANCH  65  68
ENDBRANCH  62  65
ENDBRANCH  59  62
ENDBRANCH  56  59
ENDBRANCH  53  56
ENDBRANCH  50  53
ENDBRANCH  47  50
ENDBRANCH  38  47
ENDBRANCH  36  37
ENDBRANCH   1  36
TORSDOF 19
ENDMDL
MODEL 8
REMARK VINA RESULT:      -5.8      3.258      6.526
REMARK  19 active torsions:
REMARK  status: ('A' for Active; 'I' for Inactive)
REMARK    1  A    between atoms: C_4  and  O_33 
REMARK    2  A    between atoms: C_5  and  C_7 
REMARK    3  A    between atoms: C_7  and  C_8 
REMARK    4  A    between atoms: C_8  and  C_9 
REMARK    5  A    between atoms: C_9  and  C_10 
REMARK    6  A    between atoms: C_10  and  C_11 
REMARK    7  A    between atoms: C_11  and  C_12 
REMARK    8  A    between atoms: C_12  and  C_13 
REMARK    9  A    between atoms: C_13  and  C_14 
REMARK   10  A    between atoms: C_14  and  O_16 
REMARK   11  A    between atoms: O_16  and  C_17 
REMARK   12  A    between atoms: C_22  and  C_23 
REMARK   13  A    between atoms: C_23  and  C_24 
REMARK   14  A    between atoms: C_24  and  C_25 
REMARK   15  A    between atoms: C_25  and  C_26 
REMARK   16  A    between atoms: C_26  and  C_27 
REMARK   17  A    between atoms: C_27  and  C_28 
REMARK   18  A    between atoms: C_28  and  C_29 
REMARK   19  A    between atoms: C_29  and  C_30 
ROOT
ATOM      1  C   LIG d   1       7.329   1.142  -7.586  0.00  0.00     0.312 C 
ATOM      2  O   LIG d   1       8.526   1.065  -7.438  0.00  0.00    -0.250 OA
ENDROOT
BRANCH   1   3
ATOM      3  C   LIG d   1       6.755   1.394  -8.957  0.00  0.00     0.045 C 
ATOM      4  H   LIG d   1       6.962   0.532  -9.606  0.00  0.00     0.038 H 
ATOM      5  H   LIG d   1       7.215   2.296  -9.387  0.00  0.00     0.038 H 
BRANCH   3   6
ATOM      6  C   LIG d   1       5.242   1.598  -8.847  0.00  0.00    -0.043 C 
ATOM      7  H   LIG d   1       4.975   2.590  -9.241  0.00  0.00     0.027 H 
ATOM      8  H   LIG d   1       4.940   1.530  -7.792  0.00  0.00     0.027 H 
BRANCH   6   9
ATOM      9  C   LIG d   1       4.522   0.517  -9.656  0.00  0.00    -0.053 C 
ATOM     10  H   LIG d   1       5.207  -0.325  -9.834  0.00  0.00     0.026 H 
ATOM     11  H   LIG d   1       4.195   0.936 -10.619  0.00  0.00     0.026 H 
BRANCH   9  12
ATOM     12  C   LIG d   1       3.302   0.024  -8.875  0.00  0.00    -0.053 C 
ATOM     13  H   LIG d   1       3.422  -1.046  -8.644  0.00  0.00     0.026 H 
ATOM     14  H   LIG d   1       2.396   0.169  -9.480  0.00  0.00     0.026 H 
BRANCH  12  15
ATOM     15  C   LIG d   1       3.177   0.816  -7.571  0.00  0.00    -0.053 C 
ATOM     16  H   LIG d   1       2.278   1.449  -7.611  0.00  0.00     0.026 H 
ATOM     17  H   LIG d   1       4.066   1.449  -7.439  0.00  0.00     0.026 H 
BRANCH  15  18
ATOM     18  C   LIG d   1       3.063  -0.155  -6.394  0.00  0.00    -0.049 C 
ATOM     19  H   LIG d   1       4.062  -0.536  -6.135  0.00  0.00     0.027 H 
ATOM     20  H   LIG d   1       2.411  -0.996  -6.673  0.00  0.00     0.027 H 
BRANCH  18  21
ATOM     21  C   LIG d   1       2.467   0.573  -5.188  0.00  0.00    -0.024 C 
ATOM     22  H   LIG d   1       1.389   0.361  -5.128  0.00  0.00     0.031 H 
ATOM     23  H   LIG d   1       2.622   1.657  -5.300  0.00  0.00     0.031 H 
BRANCH  21  24
ATOM     24  C   LIG d   1       3.145   0.098  -3.928  0.00  0.00    -0.006 A 
ATOM     25  C   LIG d   1       3.721   1.014  -3.062  0.00  0.00     0.120 A 
ATOM     26  C   LIG d   1       4.343   0.573  -1.903  0.00  0.00    -0.020 A 
ATOM     27  C   LIG d   1       4.387  -0.777  -1.615  0.00  0.00    -0.058 A 
ATOM     28  H   LIG d   1       4.794   1.286  -1.226  0.00  0.00     0.065 H 
ATOM     29  C   LIG d   1       3.811  -1.688  -2.481  0.00  0.00    -0.061 A 
ATOM     30  H   LIG d   1       4.872  -1.120  -0.713  0.00  0.00     0.062 H 
ATOM     31  C   LIG d   1       3.186  -1.251  -3.634  0.00  0.00    -0.055 A 
ATOM     32  H   LIG d   1       3.847  -2.744  -2.253  0.00  0.00     0.062 H 
ATOM     33  H   LIG d   1       2.734  -1.965  -4.306  0.00  0.00     0.062 H 
BRANCH  25  34
ATOM     34  O   LIG d   1       3.676   2.342  -3.348  0.00  0.00    -0.506 OA
ATOM     35  H   LIG d   1       3.316   3.056  -2.593  0.00  0.00     0.292 HD
ENDBRANCH  25  34
ENDBRANCH  21  24
ENDBRANCH  18  21
ENDBRANCH  15  18
ENDBRANCH  12  15
ENDBRANCH   9  12
ENDBRANCH   6   9
ENDBRANCH   3   6
ENDBRANCH   1   3
BRANCH   1  36
ATOM     36  O   LIG d   1       6.511   1.004  -6.531  0.00  0.00    -0.426 OA
BRANCH  36  37
ATOM     37  C   LIG d   1       6.649  -0.125  -5.787  0.00  0.00     0.135 A 
ATOM     38  C   LIG d   1       7.058  -0.040  -4.465  0.00  0.00    -0.005 A 
ATOM     39  C   LIG d   1       7.196  -1.189  -3.710  0.00  0.00    -0.055 A 
ATOM     40  C   LIG d   1       6.929  -2.423  -4.274  0.00  0.00    -0.061 A 
ATOM     41  H   LIG d   1       7.514  -1.124  -2.680  0.00  0.00     0.062 H 
ATOM     42  C   LIG d   1       6.522  -2.511  -5.593  0.00  0.00    -0.058 A 
ATOM     43  H   LIG d   1       7.038  -3.321  -3.683  0.00  0.00     0.062 H 
ATOM     44  C   LIG d   1       6.377  -1.364  -6.349  0.00  0.00    -0.019 A 
ATOM     45  H   LIG d   1       6.314  -3.475  -6.030  0.00  0.00     0.062 H 
ATOM     46  H   LIG d   1       6.055  -1.433  -7.377  0.00  0.00     0.065 H 
BRANCH  38  47
ATOM     47  C   LIG d   1       7.349   1.305  -3.850  0.00  0.00    -0.024 C 
ATOM     48  H   LIG d   1       6.858   2.092  -4.440  0.00  0.00     0.031 H 
ATOM     49  H   LIG d   1       6.967   1.327  -2.819  0.00  0.00     0.031 H 
BRANCH  47  50
ATOM     50  C   LIG d   1       8.860   1.545  -3.840  0.00  0.00    -0.049 C 
ATOM     51  H   LIG d   1       9.271   1.250  -2.862  0.00  0.00     0.027 H 
ATOM     52  H   LIG d   1       9.332   0.946  -4.631  0.00  0.00     0.027 H 
BRANCH  50  53
ATOM     53  C   LIG d   1       9.143   3.028  -4.085  0.00  0.00    -0.053 C 
ATOM     54  H   LIG d   1       9.518   3.165  -5.110  0.00  0.00     0.026 H 
ATOM     55  H   LIG d   1       8.215   3.605  -3.954  0.00  0.00     0.026 H 
BRANCH  53  56
ATOM     56  C   LIG d   1      10.193   3.519  -3.087  0.00  0.00    -0.053 C 
ATOM     57  H   LIG d   1      10.132   2.921  -2.167  0.00  0.00     0.026 H 
ATOM     58  H   LIG d   1      11.195   3.414  -3.527  0.00  0.00     0.026 H 
BRANCH  56  59
ATOM     59  C   LIG d   1       9.933   4.990  -2.756  0.00  0.00    -0.053 C 
ATOM     60  H   LIG d   1       8.860   5.140  -2.571  0.00  0.00     0.026 H 
ATOM     61  H   LIG d   1      10.503   5.271  -1.857  0.00  0.00     0.026 H 
BRANCH  59  62
ATOM     62  C   LIG d   1      10.376   5.863  -3.933  0.00  0.00    -0.048 C 
ATOM     63  H   LIG d   1      11.168   6.549  -3.602  0.00  0.00     0.027 H 
ATOM     64  H   LIG d   1      10.758   5.222  -4.741  0.00  0.00     0.027 H 
BRANCH  62  65
ATOM     65  C   LIG d   1       9.182   6.671  -4.445  0.00  0.00    -0.013 C 
ATOM     66  H   LIG d   1       8.287   6.031  -4.465  0.00  0.00     0.033 H 
ATOM     67  H   LIG d   1       9.005   7.528  -3.778  0.00  0.00     0.033 H 
BRANCH  65  68
ATOM     68  C   LIG d   1       9.473   7.169  -5.837  0.00  0.00     0.042 C 
ATOM     69  O   LIG d   1       9.075   8.256  -6.186  0.00  0.00    -0.550 OA
ATOM     70  O   LIG d   1      10.174   6.406  -6.690  0.00  0.00    -0.550 OA
ENDBRANCH  65  68
ENDBRANCH  62  65
ENDBRANCH  59  62
ENDBRANCH  56  59
ENDBRANCH  53  56
ENDBRANCH  50  53
ENDBRANCH  47  50
ENDBRANCH  38  47
ENDBRANCH  36  37
ENDBRANCH   1  36
TORSDOF 19
ENDMDL
MODEL 9
REMARK VINA RESULT:      -5.8      1.443      2.346
REMARK  19 active torsions:
REMARK  status: ('A' for Active; 'I' for Inactive)
REMARK    1  A    between atoms: C_4  and  O_33 
REMARK    2  A    between atoms: C_5  and  C_7 
REMARK    3  A    between atoms: C_7  and  C_8 
REMARK    4  A    between atoms: C_8  and  C_9 
REMARK    5  A    between atoms: C_9  and  C_10 
REMARK    6  A    between atoms: C_10  and  C_11 
REMARK    7  A    between atoms: C_11  and  C_12 
REMARK    8  A    between atoms: C_12  and  C_13 
REMARK    9  A    between atoms: C_13  and  C_14 
REMARK   10  A    between atoms: C_14  and  O_16 
REMARK   11  A    between atoms: O_16  and  C_17 
REMARK   12  A    between atoms: C_22  and  C_23 
REMARK   13  A    between atoms: C_23  and  C_24 
REMARK   14  A    between atoms: C_24  and  C_25 
REMARK   15  A    between atoms: C_25  and  C_26 
REMARK   16  A    between atoms: C_26  and  C_27 
REMARK   17  A    between atoms: C_27  and  C_28 
REMARK   18  A    between atoms: C_28  and  C_29 
REMARK   19  A    between atoms: C_29  and  C_30 
ROOT
ATOM      1  C   LIG d   1       3.071   0.190  -5.998  0.00  0.00     0.312 C 
ATOM      2  O   LIG d   1       4.265   0.001  -6.026  0.00  0.00    -0.250 OA
ENDROOT
BRANCH   1   3
ATOM      3  C   LIG d   1       2.409   0.633  -4.719  0.00  0.00     0.045 C 
ATOM      4  H   LIG d   1       1.350   0.857  -4.913  0.00  0.00     0.038 H 
ATOM      5  H   LIG d   1       2.911   1.536  -4.340  0.00  0.00     0.038 H 
BRANCH   3   6
ATOM      6  C   LIG d   1       2.512  -0.482  -3.677  0.00  0.00    -0.043 C 
ATOM      7  H   LIG d   1       2.954  -1.377  -4.140  0.00  0.00     0.027 H 
ATOM      8  H   LIG d   1       1.509  -0.723  -3.298  0.00  0.00     0.027 H 
BRANCH   6   9
ATOM      9  C   LIG d   1       3.398  -0.018  -2.519  0.00  0.00    -0.053 C 
ATOM     10  H   LIG d   1       2.767   0.244  -1.657  0.00  0.00     0.026 H 
ATOM     11  H   LIG d   1       3.977   0.863  -2.831  0.00  0.00     0.026 H 
BRANCH   9  12
ATOM     12  C   LIG d   1       4.355  -1.145  -2.125  0.00  0.00    -0.053 C 
ATOM     13  H   LIG d   1       4.081  -1.528  -1.130  0.00  0.00     0.026 H 
ATOM     14  H   LIG d   1       5.384  -0.759  -2.098  0.00  0.00     0.026 H 
BRANCH  12  15
ATOM     15  C   LIG d   1       4.260  -2.276  -3.151  0.00  0.00    -0.053 C 
ATOM     16  H   LIG d   1       3.416  -2.086  -3.830  0.00  0.00     0.026 H 
ATOM     17  H   LIG d   1       4.104  -3.232  -2.630  0.00  0.00     0.026 H 
BRANCH  15  18
ATOM     18  C   LIG d   1       5.558  -2.342  -3.958  0.00  0.00    -0.049 C 
ATOM     19  H   LIG d   1       5.381  -1.946  -4.970  0.00  0.00     0.027 H 
ATOM     20  H   LIG d   1       5.895  -3.387  -4.028  0.00  0.00     0.027 H 
BRANCH  18  21
ATOM     21  C   LIG d   1       6.634  -1.505  -3.264  0.00  0.00    -0.024 C 
ATOM     22  H   LIG d   1       7.255  -2.158  -2.632  0.00  0.00     0.031 H 
ATOM     23  H   LIG d   1       6.155  -0.737  -2.639  0.00  0.00     0.031 H 
BRANCH  21  24
ATOM     24  C   LIG d   1       7.500  -0.839  -4.302  0.00  0.00    -0.006 A 
ATOM     25  C   LIG d   1       7.276   0.485  -4.648  0.00  0.00     0.120 A 
ATOM     26  C   LIG d   1       8.076   1.095  -5.603  0.00  0.00    -0.020 A 
ATOM     27  C   LIG d   1       9.093   0.383  -6.208  0.00  0.00    -0.058 A 
ATOM     28  H   LIG d   1       7.903   2.127  -5.874  0.00  0.00     0.065 H 
ATOM     29  C   LIG d   1       9.314  -0.937  -5.862  0.00  0.00    -0.061 A 
ATOM     30  H   LIG d   1       9.715   0.858  -6.952  0.00  0.00     0.062 H 
ATOM     31  C   LIG d   1       8.522  -1.547  -4.906  0.00  0.00    -0.055 A 
ATOM     32  H   LIG d   1      10.110  -1.493  -6.336  0.00  0.00     0.062 H 
ATOM     33  H   LIG d   1       8.700  -2.577  -4.635  0.00  0.00     0.062 H 
BRANCH  25  34
ATOM     34  O   LIG d   1       6.275   1.184  -4.050  0.00  0.00    -0.506 OA
ATOM     35  H   LIG d   1       5.234   0.839  -4.138  0.00  0.00     0.292 HD
ENDBRANCH  25  34
ENDBRANCH  21  24
ENDBRANCH  18  21
ENDBRANCH  15  18
ENDBRANCH  12  15
ENDBRANCH   9  12
ENDBRANCH   6   9
ENDBRANCH   3   6
ENDBRANCH   1   3
BRANCH   1  36
ATOM     36  O   LIG d   1       2.336   0.004  -7.105  0.00  0.00    -0.426 OA
BRANCH  36  37
ATOM     37  C   LIG d   1       2.814   0.540  -8.260  0.00  0.00     0.135 A 
ATOM     38  C   LIG d   1       2.904  -0.241  -9.403  0.00  0.00    -0.005 A 
ATOM     39  C   LIG d   1       3.388   0.307 -10.575  0.00  0.00    -0.055 A 
ATOM     40  C   LIG d   1       3.784   1.631 -10.609  0.00  0.00    -0.061 A 
ATOM     41  H   LIG d   1       3.458  -0.300 -11.466  0.00  0.00     0.062 H 
ATOM     42  C   LIG d   1       3.696   2.412  -9.471  0.00  0.00    -0.058 A 
ATOM     43  H   LIG d   1       4.163   2.057 -11.526  0.00  0.00     0.062 H 
ATOM     44  C   LIG d   1       3.207   1.870  -8.298  0.00  0.00    -0.019 A 
ATOM     45  H   LIG d   1       4.005   3.445  -9.500  0.00  0.00     0.062 H 
ATOM     46  H   LIG d   1       3.134   2.481  -7.411  0.00  0.00     0.065 H 
BRANCH  38  47
ATOM     47  C   LIG d   1       2.472  -1.684  -9.367  0.00  0.00    -0.024 C 
ATOM     48  H   LIG d   1       2.281  -1.984  -8.326  0.00  0.00     0.031 H 
ATOM     49  H   LIG d   1       1.553  -1.806  -9.958  0.00  0.00     0.031 H 
BRANCH  47  50
ATOM     50  C   LIG d   1       3.578  -2.562  -9.955  0.00  0.00    -0.049 C 
ATOM     51  H   LIG d   1       3.126  -3.376 -10.543  0.00  0.00     0.027 H 
ATOM     52  H   LIG d   1       4.222  -1.954 -10.607  0.00  0.00     0.027 H 
BRANCH  50  53
ATOM     53  C   LIG d   1       4.416  -3.156  -8.821  0.00  0.00    -0.053 C 
ATOM     54  H   LIG d   1       4.095  -2.723  -7.862  0.00  0.00     0.026 H 
ATOM     55  H   LIG d   1       4.277  -4.247  -8.796  0.00  0.00     0.026 H 
BRANCH  53  56
ATOM     56  C   LIG d   1       5.893  -2.836  -9.057  0.00  0.00    -0.053 C 
ATOM     57  H   LIG d   1       6.479  -3.766  -9.030  0.00  0.00     0.026 H 
ATOM     58  H   LIG d   1       6.012  -2.356 -10.039  0.00  0.00     0.026 H 
BRANCH  56  59
ATOM     59  C   LIG d   1       6.391  -1.888  -7.964  0.00  0.00    -0.053 C 
ATOM     60  H   LIG d   1       5.725  -1.954  -7.091  0.00  0.00     0.026 H 
ATOM     61  H   LIG d   1       7.412  -2.173  -7.668  0.00  0.00     0.026 H 
BRANCH  59  62
ATOM     62  C   LIG d   1       6.395  -0.453  -8.496  0.00  0.00    -0.048 C 
ATOM     63  H   LIG d   1       5.380  -0.180  -8.819  0.00  0.00     0.027 H 
ATOM     64  H   LIG d   1       6.724   0.231  -7.701  0.00  0.00     0.027 H 
BRANCH  62  65
ATOM     65  C   LIG d   1       7.353  -0.353  -9.685  0.00  0.00    -0.013 C 
ATOM     66  H   LIG d   1       8.198  -1.043  -9.533  0.00  0.00     0.033 H 
ATOM     67  H   LIG d   1       6.821  -0.622 -10.609  0.00  0.00     0.033 H 
BRANCH  65  68
ATOM     68  C   LIG d   1       7.871   1.057  -9.794  0.00  0.00     0.042 C 
ATOM     69  O   LIG d   1       7.212   1.978  -9.373  0.00  0.00    -0.550 OA
ATOM     70  O   LIG d   1       9.065   1.291 -10.361  0.00  0.00    -0.550 OA
ENDBRANCH  65  68
ENDBRANCH  62  65
ENDBRANCH  59  62
ENDBRANCH  56  59
ENDBRANCH  53  56
ENDBRANCH  50  53
ENDBRANCH  47  50
ENDBRANCH  38  47
ENDBRANCH  36  37
ENDBRANCH   1  36
TORSDOF 19
ENDMDL
