MODEL 1
REMARK VINA RESULT:      -6.0      0.000      0.000
REMARK  5 active torsions:
REMARK  status: ('A' for Active; 'I' for Inactive)
REMARK    1  A    between atoms: C_1  and  C_2 
REMARK    2  A    between atoms: C_9  and  O_11 
REMARK    3  A    between atoms: O_11  and  C_12 
REMARK    4  A    between atoms: C_14  and  C_17 
REMARK    5  A    between atoms: C_17  and  O_18 
ROOT
ATOM      1  C   LIG d   1       6.631  -1.460  -6.116  0.00  0.00     0.186 A 
ATOM      2  C   LIG d   1       5.952  -2.629  -5.813  0.00  0.00     0.065 A 
ATOM      3  C   LIG d   1       5.192  -2.719  -4.662  0.00  0.00     0.144 A 
ATOM      4  C   LIG d   1       5.156  -1.583  -3.817  0.00  0.00     0.092 A 
ATOM      5  C   LIG d   1       4.416  -1.588  -2.625  0.00  0.00    -0.044 A 
ATOM      6  C   LIG d   1       4.402  -0.478  -1.834  0.00  0.00    -0.057 A 
ATOM      7  C   LIG d   1       5.111   0.665  -2.193  0.00  0.00    -0.013 A 
ATOM      8  C   LIG d   1       5.840   0.705  -3.348  0.00  0.00     0.192 A 
ATOM      9  C   LIG d   1       5.878  -0.425  -4.190  0.00  0.00     0.259 A 
ATOM     10  O   LIG d   1       4.590  -3.928  -4.554  0.00  0.00    -0.485 OA
ATOM     11  C   LIG d   1       5.267  -4.870  -5.406  0.00  0.00     0.127 C 
ATOM     12  H   LIG d   1       6.066  -5.376  -4.863  0.00  0.00     0.076 H 
ATOM     13  C   LIG d   1       5.847  -3.966  -6.519  0.00  0.00     0.021 C 
ATOM     14  H   LIG d   1       3.863  -2.468  -2.334  0.00  0.00     0.063 H 
ATOM     15  H   LIG d   1       3.833  -0.484  -0.916  0.00  0.00     0.062 H 
ATOM     16  H   LIG d   1       5.085   1.532  -1.551  0.00  0.00     0.066 H 
ATOM     17  H   LIG d   1       5.165  -3.907  -7.367  0.00  0.00     0.035 H 
ATOM     18  H   LIG d   1       6.828  -4.318  -6.835  0.00  0.00     0.035 H 
ATOM     19  N   LIG d   1       6.628  -0.349  -5.343  0.00  0.00    -0.205 N 
ATOM     20  H   LIG d   1       7.150   0.497  -5.600  0.00  0.00     0.453 HD
ENDROOT
BRANCH  11  21
ATOM     21  C   LIG d   1       4.279  -5.886  -5.983  0.00  0.00     0.081 C 
ATOM     22  H   LIG d   1       4.737  -6.395  -6.832  0.00  0.00     0.059 H 
ATOM     23  H   LIG d   1       4.022  -6.618  -5.218  0.00  0.00     0.059 H 
BRANCH  21  24
ATOM     24  O   LIG d   1       3.097  -5.210  -6.414  0.00  0.00    -0.391 OA
ATOM     25  H   LIG d   1       3.191  -4.250  -6.469  0.00  0.00     0.210 HD
ENDBRANCH  21  24
ENDBRANCH  11  21
BRANCH   1  26
ATOM     26  C   LIG d   1       7.445  -1.389  -7.382  0.00  0.00     0.021 C 
ATOM     27  H   LIG d   1       8.499  -1.267  -7.131  0.00  0.00     0.034 H 
ATOM     28  H   LIG d   1       7.114  -0.539  -7.980  0.00  0.00     0.034 H 
ATOM     29  H   LIG d   1       7.311  -2.308  -7.952  0.00  0.00     0.034 H 
ENDBRANCH   1  26
BRANCH   8  30
ATOM     30  O   LIG d   1       6.526   1.829  -3.683  0.00  0.00    -0.489 OA
BRANCH  30  31
ATOM     31  C   LIG d   1       7.953   1.752  -3.653  0.00  0.00     0.079 C 
ATOM     32  H   LIG d   1       8.260   0.705  -3.657  0.00  0.00     0.066 H 
ATOM     33  H   LIG d   1       8.363   2.253  -4.531  0.00  0.00     0.066 H 
ATOM     34  H   LIG d   1       8.325   2.237  -2.751  0.00  0.00     0.066 H 
ENDBRANCH  30  31
ENDBRANCH   8  30
TORSDOF 5
ENDMDL
MODEL 2
REMARK VINA RESULT:      -5.9      7.634     11.120
REMARK  5 active torsions:
REMARK  status: ('A' for Active; 'I' for Inactive)
REMARK    1  A    between atoms: C_1  and  C_2 
REMARK    2  A    between atoms: C_9  and  O_11 
REMARK    3  A    between atoms: O_11  and  C_12 
REMARK    4  A    between atoms: C_14  and  C_17 
REMARK    5  A    between atoms: C_17  and  O_18 
ROOT
ATOM      1  C   LIG d   1      10.741   5.928  -0.438  0.00  0.00     0.186 A 
ATOM      2  C   LIG d   1      10.394   7.184  -0.910  0.00  0.00     0.065 A 
ATOM      3  C   LIG d   1       9.951   7.346  -2.210  0.00  0.00     0.144 A 
ATOM      4  C   LIG d   1       9.886   6.188  -3.023  0.00  0.00     0.092 A 
ATOM      5  C   LIG d   1       9.456   6.260  -4.356  0.00  0.00    -0.044 A 
ATOM      6  C   LIG d   1       9.405   5.127  -5.112  0.00  0.00    -0.057 A 
ATOM      7  C   LIG d   1       9.774   3.896  -4.579  0.00  0.00    -0.013 A 
ATOM      8  C   LIG d   1      10.196   3.788  -3.284  0.00  0.00     0.192 A 
ATOM      9  C   LIG d   1      10.261   4.940  -2.473  0.00  0.00     0.259 A 
ATOM     10  O   LIG d   1       9.640   8.638  -2.474  0.00  0.00    -0.485 OA
ATOM     11  C   LIG d   1      10.276   9.486  -1.500  0.00  0.00     0.127 C 
ATOM     12  H   LIG d   1      11.261   9.799  -1.845  0.00  0.00     0.076 H 
ATOM     13  C   LIG d   1      10.395   8.557  -0.268  0.00  0.00     0.021 C 
ATOM     14  H   LIG d   1       9.168   7.209  -4.782  0.00  0.00     0.063 H 
ATOM     15  H   LIG d   1       9.075   5.185  -6.138  0.00  0.00     0.062 H 
ATOM     16  H   LIG d   1       9.725   3.011  -5.197  0.00  0.00     0.066 H 
ATOM     17  H   LIG d   1       9.538   8.678   0.395  0.00  0.00     0.035 H 
ATOM     18  H   LIG d   1      11.327   8.737   0.266  0.00  0.00     0.035 H 
ATOM     19  N   LIG d   1      10.697   4.793  -1.174  0.00  0.00    -0.205 N 
ATOM     20  H   LIG d   1      10.969   3.882  -0.788  0.00  0.00     0.453 HD
ENDROOT
BRANCH  11  21
ATOM     21  C   LIG d   1       9.401  10.702  -1.187  0.00  0.00     0.081 C 
ATOM     22  H   LIG d   1       9.487  10.948  -0.128  0.00  0.00     0.059 H 
ATOM     23  H   LIG d   1       9.733  11.551  -1.785  0.00  0.00     0.059 H 
BRANCH  21  24
ATOM     24  O   LIG d   1       8.039  10.403  -1.497  0.00  0.00    -0.391 OA
ATOM     25  H   LIG d   1       7.911  10.023  -2.377  0.00  0.00     0.210 HD
ENDBRANCH  21  24
ENDBRANCH  11  21
BRANCH   1  26
ATOM     26  C   LIG d   1      11.212   5.782   0.986  0.00  0.00     0.021 C 
ATOM     27  H   LIG d   1      11.092   6.732   1.507  0.00  0.00     0.034 H 
ATOM     28  H   LIG d   1      12.264   5.495   0.993  0.00  0.00     0.034 H 
ATOM     29  H   LIG d   1      10.623   5.015   1.487  0.00  0.00     0.034 H 
ENDBRANCH   1  26
BRANCH   8  30
ATOM     30  O   LIG d   1      10.552   2.578  -2.780  0.00  0.00    -0.489 OA
BRANCH  30  31
ATOM     31  C   LIG d   1      11.563   1.853  -3.484  0.00  0.00     0.079 C 
ATOM     32  H   LIG d   1      12.488   2.431  -3.487  0.00  0.00     0.066 H 
ATOM     33  H   LIG d   1      11.736   0.896  -2.989  0.00  0.00     0.066 H 
ATOM     34  H   LIG d   1      11.239   1.679  -4.509  0.00  0.00     0.066 H 
ENDBRANCH  30  31
ENDBRANCH   8  30
TORSDOF 5
ENDMDL
MODEL 3
REMARK VINA RESULT:      -5.7      3.249      5.771
REMARK  5 active torsions:
REMARK  status: ('A' for Active; 'I' for Inactive)
REMARK    1  A    between atoms: C_1  and  C_2 
REMARK    2  A    between atoms: C_9  and  O_11 
REMARK    3  A    between atoms: O_11  and  C_12 
REMARK    4  A    between atoms: C_14  and  C_17 
REMARK    5  A    between atoms: C_17  and  O_18 
ROOT
ATOM      1  C   LIG d   1       4.688  -2.717  -5.596  0.00  0.00     0.186 A 
ATOM      2  C   LIG d   1       4.646  -1.597  -4.781  0.00  0.00     0.065 A 
ATOM      3  C   LIG d   1       4.130  -0.405  -5.255  0.00  0.00     0.144 A 
ATOM      4  C   LIG d   1       3.668  -0.384  -6.593  0.00  0.00     0.092 A 
ATOM      5  C   LIG d   1       3.135   0.784  -7.159  0.00  0.00    -0.044 A 
ATOM      6  C   LIG d   1       2.700   0.771  -8.451  0.00  0.00    -0.057 A 
ATOM      7  C   LIG d   1       2.775  -0.388  -9.218  0.00  0.00    -0.013 A 
ATOM      8  C   LIG d   1       3.287  -1.543  -8.699  0.00  0.00     0.192 A 
ATOM      9  C   LIG d   1       3.746  -1.566  -7.366  0.00  0.00     0.259 A 
ATOM     10  O   LIG d   1       4.154   0.562  -4.305  0.00  0.00    -0.485 OA
ATOM     11  C   LIG d   1       5.095   0.194  -3.281  0.00  0.00     0.127 C 
ATOM     12  H   LIG d   1       6.086   0.587  -3.508  0.00  0.00     0.076 H 
ATOM     13  C   LIG d   1       5.088  -1.351  -3.352  0.00  0.00     0.021 C 
ATOM     14  H   LIG d   1       3.072   1.689  -6.575  0.00  0.00     0.063 H 
ATOM     15  H   LIG d   1       2.291   1.671  -8.885  0.00  0.00     0.062 H 
ATOM     16  H   LIG d   1       2.424  -0.374 -10.240  0.00  0.00     0.066 H 
ATOM     17  H   LIG d   1       4.371  -1.770  -2.645  0.00  0.00     0.035 H 
ATOM     18  H   LIG d   1       6.085  -1.753  -3.177  0.00  0.00     0.035 H 
ATOM     19  N   LIG d   1       4.260  -2.748  -6.879  0.00  0.00    -0.205 N 
ATOM     20  H   LIG d   1       4.314  -3.598  -7.452  0.00  0.00     0.453 HD
ENDROOT
BRANCH  11  21
ATOM     21  C   LIG d   1       4.621   0.682  -1.910  0.00  0.00     0.081 C 
ATOM     22  H   LIG d   1       4.470  -0.174  -1.252  0.00  0.00     0.059 H 
ATOM     23  H   LIG d   1       5.375   1.342  -1.479  0.00  0.00     0.059 H 
BRANCH  21  24
ATOM     24  O   LIG d   1       3.392   1.394  -2.056  0.00  0.00    -0.391 OA
ATOM     25  H   LIG d   1       3.019   1.357  -2.947  0.00  0.00     0.210 HD
ENDBRANCH  21  24
ENDBRANCH  11  21
BRANCH   1  26
ATOM     26  C   LIG d   1       5.250  -4.004  -5.048  0.00  0.00     0.021 C 
ATOM     27  H   LIG d   1       4.432  -4.679  -4.798  0.00  0.00     0.034 H 
ATOM     28  H   LIG d   1       5.834  -3.793  -4.152  0.00  0.00     0.034 H 
ATOM     29  H   LIG d   1       5.889  -4.469  -5.798  0.00  0.00     0.034 H 
ENDBRANCH   1  26
BRANCH   8  30
ATOM     30  O   LIG d   1       3.352  -2.664  -9.463  0.00  0.00    -0.489 OA
BRANCH  30  31
ATOM     31  C   LIG d   1       2.129  -3.133 -10.036  0.00  0.00     0.079 C 
ATOM     32  H   LIG d   1       1.651  -2.320 -10.584  0.00  0.00     0.066 H 
ATOM     33  H   LIG d   1       2.340  -3.956 -10.720  0.00  0.00     0.066 H 
ATOM     34  H   LIG d   1       1.466  -3.478  -9.244  0.00  0.00     0.066 H 
ENDBRANCH  30  31
ENDBRANCH   8  30
TORSDOF 5
ENDMDL
MODEL 4
REMARK VINA RESULT:      -5.4      1.449      5.338
REMARK  5 active torsions:
REMARK  status: ('A' for Active; 'I' for Inactive)
REMARK    1  A    between atoms: C_1  and  C_2 
REMARK    2  A    between atoms: C_9  and  O_11 
REMARK    3  A    between atoms: O_11  and  C_12 
REMARK    4  A    between atoms: C_14  and  C_17 
REMARK    5  A    between atoms: C_17  and  O_18 
ROOT
ATOM      1  C   LIG d   1       7.122  -0.595  -6.094  0.00  0.00     0.186 A 
ATOM      2  C   LIG d   1       7.511   0.428  -5.243  0.00  0.00     0.065 A 
ATOM      3  C   LIG d   1       6.935   0.556  -3.993  0.00  0.00     0.144 A 
ATOM      4  C   LIG d   1       5.937  -0.383  -3.638  0.00  0.00     0.092 A 
ATOM      5  C   LIG d   1       5.293  -0.324  -2.393  0.00  0.00    -0.044 A 
ATOM      6  C   LIG d   1       4.337  -1.244  -2.082  0.00  0.00    -0.057 A 
ATOM      7  C   LIG d   1       3.988  -2.245  -2.985  0.00  0.00    -0.013 A 
ATOM      8  C   LIG d   1       4.594  -2.333  -4.206  0.00  0.00     0.192 A 
ATOM      9  C   LIG d   1       5.589  -1.398  -4.560  0.00  0.00     0.259 A 
ATOM     10  O   LIG d   1       7.462   1.599  -3.305  0.00  0.00    -0.485 OA
ATOM     11  C   LIG d   1       8.107   2.495  -4.227  0.00  0.00     0.127 C 
ATOM     12  H   LIG d   1       7.411   3.258  -4.575  0.00  0.00     0.076 H 
ATOM     13  C   LIG d   1       8.515   1.554  -5.386  0.00  0.00     0.021 C 
ATOM     14  H   LIG d   1       5.554   0.447  -1.684  0.00  0.00     0.063 H 
ATOM     15  H   LIG d   1       3.842  -1.196  -1.123  0.00  0.00     0.062 H 
ATOM     16  H   LIG d   1       3.227  -2.963  -2.716  0.00  0.00     0.066 H 
ATOM     17  H   LIG d   1       9.533   1.188  -5.250  0.00  0.00     0.035 H 
ATOM     18  H   LIG d   1       8.408   2.053  -6.348  0.00  0.00     0.035 H 
ATOM     19  N   LIG d   1       6.175  -1.516  -5.802  0.00  0.00    -0.205 N 
ATOM     20  H   LIG d   1       5.910  -2.256  -6.463  0.00  0.00     0.453 HD
ENDROOT
BRANCH  11  21
ATOM     21  C   LIG d   1       9.338   3.139  -3.585  0.00  0.00     0.081 C 
ATOM     22  H   LIG d   1       9.860   3.744  -4.327  0.00  0.00     0.059 H 
ATOM     23  H   LIG d   1       9.025   3.773  -2.756  0.00  0.00     0.059 H 
BRANCH  21  24
ATOM     24  O   LIG d   1      10.213   2.119  -3.102  0.00  0.00    -0.391 OA
ATOM     25  H   LIG d   1      11.103   2.431  -2.892  0.00  0.00     0.210 HD
ENDBRANCH  21  24
ENDBRANCH  11  21
BRANCH   1  26
ATOM     26  C   LIG d   1       7.774  -0.714  -7.447  0.00  0.00     0.021 C 
ATOM     27  H   LIG d   1       8.835  -0.927  -7.322  0.00  0.00     0.034 H 
ATOM     28  H   LIG d   1       7.653   0.223  -7.992  0.00  0.00     0.034 H 
ATOM     29  H   LIG d   1       7.304  -1.522  -8.007  0.00  0.00     0.034 H 
ENDBRANCH   1  26
BRANCH   8  30
ATOM     30  O   LIG d   1       4.241  -3.317  -5.074  0.00  0.00    -0.489 OA
BRANCH  30  31
ATOM     31  C   LIG d   1       4.966  -4.546  -4.992  0.00  0.00     0.079 C 
ATOM     32  H   LIG d   1       4.275  -5.382  -5.106  0.00  0.00     0.066 H 
ATOM     33  H   LIG d   1       5.712  -4.581  -5.787  0.00  0.00     0.066 H 
ATOM     34  H   LIG d   1       5.462  -4.612  -4.025  0.00  0.00     0.066 H 
ENDBRANCH  30  31
ENDBRANCH   8  30
TORSDOF 5
ENDMDL
MODEL 5
REMARK VINA RESULT:      -5.4      8.485     10.990
REMARK  5 active torsions:
REMARK  status: ('A' for Active; 'I' for Inactive)
REMARK    1  A    between atoms: C_1  and  C_2 
REMARK    2  A    between atoms: C_9  and  O_11 
REMARK    3  A    between atoms: O_11  and  C_12 
REMARK    4  A    between atoms: C_14  and  C_17 
REMARK    5  A    between atoms: C_17  and  O_18 
ROOT
ATOM      1  C   LIG d   1       9.667   5.675  -3.907  0.00  0.00     0.186 A 
ATOM      2  C   LIG d   1       9.638   6.775  -4.749  0.00  0.00     0.065 A 
ATOM      3  C   LIG d   1       9.850   8.046  -4.249  0.00  0.00     0.144 A 
ATOM      4  C   LIG d   1      10.081   8.166  -2.856  0.00  0.00     0.092 A 
ATOM      5  C   LIG d   1      10.298   9.418  -2.261  0.00  0.00    -0.044 A 
ATOM      6  C   LIG d   1      10.517   9.498  -0.918  0.00  0.00    -0.057 A 
ATOM      7  C   LIG d   1      10.529   8.354  -0.127  0.00  0.00    -0.013 A 
ATOM      8  C   LIG d   1      10.323   7.119  -0.672  0.00  0.00     0.192 A 
ATOM      9  C   LIG d   1      10.093   6.998  -2.059  0.00  0.00     0.259 A 
ATOM     10  O   LIG d   1       9.804   8.983  -5.228  0.00  0.00    -0.485 OA
ATOM     11  C   LIG d   1       9.121   8.438  -6.371  0.00  0.00     0.127 C 
ATOM     12  H   LIG d   1       8.052   8.645  -6.316  0.00  0.00     0.076 H 
ATOM     13  C   LIG d   1       9.393   6.921  -6.238  0.00  0.00     0.021 C 
ATOM     14  H   LIG d   1      10.291  10.313  -2.864  0.00  0.00     0.063 H 
ATOM     15  H   LIG d   1      10.684  10.463  -0.462  0.00  0.00     0.062 H 
ATOM     16  H   LIG d   1      10.705   8.443   0.936  0.00  0.00     0.066 H 
ATOM     17  H   LIG d   1      10.277   6.633  -6.808  0.00  0.00     0.035 H 
ATOM     18  H   LIG d   1       8.526   6.341  -6.549  0.00  0.00     0.035 H 
ATOM     19  N   LIG d   1       9.884   5.737  -2.573  0.00  0.00    -0.205 N 
ATOM     20  H   LIG d   1       9.892   4.898  -1.981  0.00  0.00     0.453 HD
ENDROOT
BRANCH  11  21
ATOM     21  C   LIG d   1       9.712   8.990  -7.669  0.00  0.00     0.081 C 
ATOM     22  H   LIG d   1      10.223   9.931  -7.465  0.00  0.00     0.059 H 
ATOM     23  H   LIG d   1      10.423   8.272  -8.078  0.00  0.00     0.059 H 
BRANCH  21  24
ATOM     24  O   LIG d   1       8.664   9.213  -8.614  0.00  0.00    -0.391 OA
ATOM     25  H   LIG d   1       8.176   8.414  -8.856  0.00  0.00     0.210 HD
ENDBRANCH  21  24
ENDBRANCH  11  21
BRANCH   1  26
ATOM     26  C   LIG d   1       9.440   4.302  -4.483  0.00  0.00     0.021 C 
ATOM     27  H   LIG d   1       8.601   3.828  -3.974  0.00  0.00     0.034 H 
ATOM     28  H   LIG d   1      10.337   3.697  -4.345  0.00  0.00     0.034 H 
ATOM     29  H   LIG d   1       9.220   4.386  -5.547  0.00  0.00     0.034 H 
ENDBRANCH   1  26
BRANCH   8  30
ATOM     30  O   LIG d   1      10.338   6.013   0.116  0.00  0.00    -0.489 OA
BRANCH  30  31
ATOM     31  C   LIG d   1      11.113   6.080   1.314  0.00  0.00     0.079 C 
ATOM     32  H   LIG d   1      12.167   5.932   1.074  0.00  0.00     0.066 H 
ATOM     33  H   LIG d   1      10.982   7.059   1.778  0.00  0.00     0.066 H 
ATOM     34  H   LIG d   1      10.785   5.304   2.004  0.00  0.00     0.066 H 
ENDBRANCH  30  31
ENDBRANCH   8  30
TORSDOF 5
ENDMDL
MODEL 6
REMARK VINA RESULT:      -5.2      6.398      9.546
REMARK  5 active torsions:
REMARK  status: ('A' for Active; 'I' for Inactive)
REMARK    1  A    between atoms: C_1  and  C_2 
REMARK    2  A    between atoms: C_9  and  O_11 
REMARK    3  A    between atoms: O_11  and  C_12 
REMARK    4  A    between atoms: C_14  and  C_17 
REMARK    5  A    between atoms: C_17  and  O_18 
ROOT
ATOM      1  C   LIG d   1       9.598   7.017  -4.076  0.00  0.00     0.186 A 
ATOM      2  C   LIG d   1       9.709   5.659  -3.819  0.00  0.00     0.065 A 
ATOM      3  C   LIG d   1      10.080   5.212  -2.565  0.00  0.00     0.144 A 
ATOM      4  C   LIG d   1      10.349   6.193  -1.579  0.00  0.00     0.092 A 
ATOM      5  C   LIG d   1      10.739   5.830  -0.281  0.00  0.00    -0.044 A 
ATOM      6  C   LIG d   1      10.991   6.798   0.644  0.00  0.00    -0.057 A 
ATOM      7  C   LIG d   1      10.867   8.146   0.320  0.00  0.00    -0.013 A 
ATOM      8  C   LIG d   1      10.488   8.536  -0.934  0.00  0.00     0.192 A 
ATOM      9  C   LIG d   1      10.219   7.561  -1.916  0.00  0.00     0.259 A 
ATOM     10  O   LIG d   1      10.109   3.859  -2.506  0.00  0.00    -0.485 OA
ATOM     11  C   LIG d   1      10.188   3.329  -3.842  0.00  0.00     0.127 C 
ATOM     12  H   LIG d   1      11.227   3.199  -4.144  0.00  0.00     0.076 H 
ATOM     13  C   LIG d   1       9.505   4.432  -4.685  0.00  0.00     0.021 C 
ATOM     14  H   LIG d   1      10.840   4.789  -0.017  0.00  0.00     0.063 H 
ATOM     15  H   LIG d   1      11.292   6.517   1.642  0.00  0.00     0.062 H 
ATOM     16  H   LIG d   1      11.072   8.896   1.070  0.00  0.00     0.066 H 
ATOM     17  H   LIG d   1       8.443   4.219  -4.816  0.00  0.00     0.035 H 
ATOM     18  H   LIG d   1       9.999   4.548  -5.648  0.00  0.00     0.035 H 
ATOM     19  N   LIG d   1       9.844   7.991  -3.170  0.00  0.00    -0.205 N 
ATOM     20  H   LIG d   1       9.756   8.987  -3.402  0.00  0.00     0.453 HD
ENDROOT
BRANCH  11  21
ATOM     21  C   LIG d   1       9.426   2.007  -3.947  0.00  0.00     0.081 C 
ATOM     22  H   LIG d   1       9.402   1.684  -4.987  0.00  0.00     0.059 H 
ATOM     23  H   LIG d   1       9.927   1.250  -3.343  0.00  0.00     0.059 H 
BRANCH  21  24
ATOM     24  O   LIG d   1       8.090   2.187  -3.473  0.00  0.00    -0.391 OA
ATOM     25  H   LIG d   1       7.429   1.676  -3.957  0.00  0.00     0.210 HD
ENDBRANCH  21  24
ENDBRANCH  11  21
BRANCH   1  26
ATOM     26  C   LIG d   1       9.184   7.473  -5.451  0.00  0.00     0.021 C 
ATOM     27  H   LIG d   1       9.836   8.284  -5.777  0.00  0.00     0.034 H 
ATOM     28  H   LIG d   1       8.153   7.827  -5.422  0.00  0.00     0.034 H 
ATOM     29  H   LIG d   1       9.262   6.641  -6.150  0.00  0.00     0.034 H 
ENDBRANCH   1  26
BRANCH   8  30
ATOM     30  O   LIG d   1      10.371   9.856  -1.232  0.00  0.00    -0.489 OA
BRANCH  30  31
ATOM     31  C   LIG d   1      10.033  10.737  -0.159  0.00  0.00     0.079 C 
ATOM     32  H   LIG d   1      10.903  11.342   0.102  0.00  0.00     0.066 H 
ATOM     33  H   LIG d   1       9.217  11.391  -0.469  0.00  0.00     0.066 H 
ATOM     34  H   LIG d   1       9.723  10.153   0.707  0.00  0.00     0.066 H 
ENDBRANCH  30  31
ENDBRANCH   8  30
TORSDOF 5
ENDMDL
MODEL 7
REMARK VINA RESULT:      -5.1      8.009     10.498
REMARK  5 active torsions:
REMARK  status: ('A' for Active; 'I' for Inactive)
REMARK    1  A    between atoms: C_1  and  C_2 
REMARK    2  A    between atoms: C_9  and  O_11 
REMARK    3  A    between atoms: O_11  and  C_12 
REMARK    4  A    between atoms: C_14  and  C_17 
REMARK    5  A    between atoms: C_17  and  O_18 
ROOT
ATOM      1  C   LIG d   1       9.915   7.675  -2.536  0.00  0.00     0.186 A 
ATOM      2  C   LIG d   1      10.030   6.338  -2.883  0.00  0.00     0.065 A 
ATOM      3  C   LIG d   1       9.977   5.953  -4.210  0.00  0.00     0.144 A 
ATOM      4  C   LIG d   1       9.790   6.972  -5.175  0.00  0.00     0.092 A 
ATOM      5  C   LIG d   1       9.717   6.672  -6.544  0.00  0.00    -0.044 A 
ATOM      6  C   LIG d   1       9.536   7.676  -7.447  0.00  0.00    -0.057 A 
ATOM      7  C   LIG d   1       9.423   8.999  -7.031  0.00  0.00    -0.013 A 
ATOM      8  C   LIG d   1       9.490   9.329  -5.707  0.00  0.00     0.192 A 
ATOM      9  C   LIG d   1       9.677   8.315  -4.744  0.00  0.00     0.259 A 
ATOM     10  O   LIG d   1      10.130   4.613  -4.347  0.00  0.00    -0.485 OA
ATOM     11  C   LIG d   1       9.852   3.975  -3.088  0.00  0.00     0.127 C 
ATOM     12  H   LIG d   1       8.798   3.706  -3.017  0.00  0.00     0.076 H 
ATOM     13  C   LIG d   1      10.208   5.076  -2.062  0.00  0.00     0.021 C 
ATOM     14  H   LIG d   1       9.802   5.650  -6.880  0.00  0.00     0.063 H 
ATOM     15  H   LIG d   1       9.479   7.442  -8.500  0.00  0.00     0.062 H 
ATOM     16  H   LIG d   1       9.279   9.779  -7.766  0.00  0.00     0.066 H 
ATOM     17  H   LIG d   1      11.240   4.974  -1.725  0.00  0.00     0.035 H 
ATOM     18  H   LIG d   1       9.520   5.060  -1.218  0.00  0.00     0.035 H 
ATOM     19  N   LIG d   1       9.736   8.684  -3.419  0.00  0.00    -0.205 N 
ATOM     20  H   LIG d   1       9.650   9.662  -3.120  0.00  0.00     0.453 HD
ENDROOT
BRANCH  11  21
ATOM     21  C   LIG d   1      10.737   2.741  -2.899  0.00  0.00     0.081 C 
ATOM     22  H   LIG d   1      10.466   2.239  -1.970  0.00  0.00     0.059 H 
ATOM     23  H   LIG d   1      10.593   2.059  -3.736  0.00  0.00     0.059 H 
BRANCH  21  24
ATOM     24  O   LIG d   1      12.107   3.142  -2.840  0.00  0.00    -0.391 OA
ATOM     25  H   LIG d   1      12.502   3.065  -1.961  0.00  0.00     0.210 HD
ENDBRANCH  21  24
ENDBRANCH  11  21
BRANCH   1  26
ATOM     26  C   LIG d   1       9.985   8.065  -1.082  0.00  0.00     0.021 C 
ATOM     27  H   LIG d   1       9.062   7.769  -0.582  0.00  0.00     0.034 H 
ATOM     28  H   LIG d   1      10.112   9.144  -1.000  0.00  0.00     0.034 H 
ATOM     29  H   LIG d   1      10.830   7.563  -0.611  0.00  0.00     0.034 H 
ENDBRANCH   1  26
BRANCH   8  30
ATOM     30  O   LIG d   1       9.378  10.626  -5.319  0.00  0.00    -0.489 OA
BRANCH  30  31
ATOM     31  C   LIG d   1       9.776  11.622  -6.263  0.00  0.00     0.079 C 
ATOM     32  H   LIG d   1      10.142  11.138  -7.169  0.00  0.00     0.066 H 
ATOM     33  H   LIG d   1       8.921  12.253  -6.509  0.00  0.00     0.066 H 
ATOM     34  H   LIG d   1      10.568  12.235  -5.833  0.00  0.00     0.066 H 
ENDBRANCH  30  31
ENDBRANCH   8  30
TORSDOF 5
ENDMDL
MODEL 8
REMARK VINA RESULT:      -4.9      9.010     10.831
REMARK  5 active torsions:
REMARK  status: ('A' for Active; 'I' for Inactive)
REMARK    1  A    between atoms: C_1  and  C_2 
REMARK    2  A    between atoms: C_9  and  O_11 
REMARK    3  A    between atoms: O_11  and  C_12 
REMARK    4  A    between atoms: C_14  and  C_17 
REMARK    5  A    between atoms: C_17  and  O_18 
ROOT
ATOM      1  C   LIG d   1       9.558   9.329  -4.623  0.00  0.00     0.186 A 
ATOM      2  C   LIG d   1       9.574   8.534  -5.759  0.00  0.00     0.065 A 
ATOM      3  C   LIG d   1       9.688   7.161  -5.650  0.00  0.00     0.144 A 
ATOM      4  C   LIG d   1       9.799   6.619  -4.347  0.00  0.00     0.092 A 
ATOM      5  C   LIG d   1       9.926   5.237  -4.143  0.00  0.00    -0.044 A 
ATOM      6  C   LIG d   1      10.032   4.748  -2.875  0.00  0.00    -0.057 A 
ATOM      7  C   LIG d   1      10.015   5.602  -1.776  0.00  0.00    -0.013 A 
ATOM      8  C   LIG d   1       9.891   6.953  -1.937  0.00  0.00     0.192 A 
ATOM      9  C   LIG d   1       9.779   7.494  -3.235  0.00  0.00     0.259 A 
ATOM     10  O   LIG d   1       9.661   6.560  -6.865  0.00  0.00    -0.485 OA
ATOM     11  C   LIG d   1       9.972   7.532  -7.879  0.00  0.00     0.127 C 
ATOM     12  H   LIG d   1      11.045   7.560  -8.072  0.00  0.00     0.076 H 
ATOM     13  C   LIG d   1       9.496   8.857  -7.238  0.00  0.00     0.021 C 
ATOM     14  H   LIG d   1       9.942   4.564  -4.986  0.00  0.00     0.063 H 
ATOM     15  H   LIG d   1      10.131   3.683  -2.721  0.00  0.00     0.062 H 
ATOM     16  H   LIG d   1      10.100   5.191  -0.781  0.00  0.00     0.066 H 
ATOM     17  H   LIG d   1       8.472   9.086  -7.533  0.00  0.00     0.035 H 
ATOM     18  H   LIG d   1      10.166   9.677  -7.494  0.00  0.00     0.035 H 
ATOM     19  N   LIG d   1       9.661   8.860  -3.358  0.00  0.00    -0.205 N 
ATOM     20  H   LIG d   1       9.651   9.484  -2.543  0.00  0.00     0.453 HD
ENDROOT
BRANCH  11  21
ATOM     21  C   LIG d   1       9.200   7.238  -9.167  0.00  0.00     0.081 C 
ATOM     22  H   LIG d   1       9.614   6.349  -9.644  0.00  0.00     0.059 H 
ATOM     23  H   LIG d   1       8.150   7.066  -8.929  0.00  0.00     0.059 H 
BRANCH  21  24
ATOM     24  O   LIG d   1       9.311   8.351 -10.055  0.00  0.00    -0.391 OA
ATOM     25  H   LIG d   1       8.463   8.681 -10.380  0.00  0.00     0.210 HD
ENDBRANCH  21  24
ENDBRANCH  11  21
BRANCH   1  26
ATOM     26  C   LIG d   1       9.424  10.822  -4.773  0.00  0.00     0.021 C 
ATOM     27  H   LIG d   1       8.429  11.132  -4.456  0.00  0.00     0.034 H 
ATOM     28  H   LIG d   1       9.575  11.098  -5.817  0.00  0.00     0.034 H 
ATOM     29  H   LIG d   1      10.173  11.318  -4.155  0.00  0.00     0.034 H 
ENDBRANCH   1  26
BRANCH   8  30
ATOM     30  O   LIG d   1       9.876   7.771  -0.853  0.00  0.00    -0.489 OA
BRANCH  30  31
ATOM     31  C   LIG d   1      11.003   7.708   0.023  0.00  0.00     0.079 C 
ATOM     32  H   LIG d   1      11.047   6.723   0.489  0.00  0.00     0.066 H 
ATOM     33  H   LIG d   1      11.917   7.881  -0.547  0.00  0.00     0.066 H 
ATOM     34  H   LIG d   1      10.907   8.471   0.795  0.00  0.00     0.066 H 
ENDBRANCH  30  31
ENDBRANCH   8  30
TORSDOF 5
ENDMDL
MODEL 9
REMARK VINA RESULT:      -4.9     10.553     12.271
REMARK  5 active torsions:
REMARK  status: ('A' for Active; 'I' for Inactive)
REMARK    1  A    between atoms: C_1  and  C_2 
REMARK    2  A    between atoms: C_9  and  O_11 
REMARK    3  A    between atoms: O_11  and  C_12 
REMARK    4  A    between atoms: C_14  and  C_17 
REMARK    5  A    between atoms: C_17  and  O_18 
ROOT
ATOM      1  C   LIG d   1      10.294  10.176  -1.876  0.00  0.00     0.186 A 
ATOM      2  C   LIG d   1      10.437   8.858  -1.471  0.00  0.00     0.065 A 
ATOM      3  C   LIG d   1      10.306   7.827  -2.382  0.00  0.00     0.144 A 
ATOM      4  C   LIG d   1      10.010   8.178  -3.722  0.00  0.00     0.092 A 
ATOM      5  C   LIG d   1       9.852   7.197  -4.712  0.00  0.00    -0.044 A 
ATOM      6  C   LIG d   1       9.567   7.569  -5.992  0.00  0.00    -0.057 A 
ATOM      7  C   LIG d   1       9.430   8.911  -6.333  0.00  0.00    -0.013 A 
ATOM      8  C   LIG d   1       9.578   9.893  -5.395  0.00  0.00     0.192 A 
ATOM      9  C   LIG d   1       9.874   9.545  -4.060  0.00  0.00     0.259 A 
ATOM     10  O   LIG d   1      10.503   6.619  -1.801  0.00  0.00    -0.485 OA
ATOM     11  C   LIG d   1      10.341   6.748  -0.377  0.00  0.00     0.127 C 
ATOM     12  H   LIG d   1       9.306   6.562  -0.088  0.00  0.00     0.076 H 
ATOM     13  C   LIG d   1      10.725   8.225  -0.124  0.00  0.00     0.021 C 
ATOM     14  H   LIG d   1       9.954   6.152  -4.461  0.00  0.00     0.063 H 
ATOM     15  H   LIG d   1       9.445   6.811  -6.752  0.00  0.00     0.062 H 
ATOM     16  H   LIG d   1       9.204   9.181  -7.354  0.00  0.00     0.066 H 
ATOM     17  H   LIG d   1      11.781   8.314   0.131  0.00  0.00     0.035 H 
ATOM     18  H   LIG d   1      10.100   8.661   0.654  0.00  0.00     0.035 H 
ATOM     19  N   LIG d   1      10.011  10.562  -3.142  0.00  0.00    -0.205 N 
ATOM     20  H   LIG d   1       9.907  11.550  -3.400  0.00  0.00     0.453 HD
ENDROOT
BRANCH  11  21
ATOM     21  C   LIG d   1      11.287   5.800   0.364  0.00  0.00     0.081 C 
ATOM     22  H   LIG d   1      11.558   4.972  -0.291  0.00  0.00     0.059 H 
ATOM     23  H   LIG d   1      12.187   6.342   0.656  0.00  0.00     0.059 H 
BRANCH  21  24
ATOM     24  O   LIG d   1      10.637   5.292   1.530  0.00  0.00    -0.391 OA
ATOM     25  H   LIG d   1      10.373   4.365   1.460  0.00  0.00     0.210 HD
ENDBRANCH  21  24
ENDBRANCH  11  21
BRANCH   1  26
ATOM     26  C   LIG d   1      10.451  11.278  -0.861  0.00  0.00     0.021 C 
ATOM     27  H   LIG d   1       9.851  11.049   0.020  0.00  0.00     0.034 H 
ATOM     28  H   LIG d   1      10.115  12.221  -1.293  0.00  0.00     0.034 H 
ATOM     29  H   LIG d   1      11.499  11.363  -0.574  0.00  0.00     0.034 H 
ENDBRANCH   1  26
BRANCH   8  30
ATOM     30  O   LIG d   1       9.442  11.198  -5.745  0.00  0.00    -0.489 OA
BRANCH  30  31
ATOM     31  C   LIG d   1      10.026  11.602  -6.986  0.00  0.00     0.079 C 
ATOM     32  H   LIG d   1       9.489  11.131  -7.810  0.00  0.00     0.066 H 
ATOM     33  H   LIG d   1       9.959  12.687  -7.083  0.00  0.00     0.066 H 
ATOM     34  H   LIG d   1      11.072  11.299  -7.011  0.00  0.00     0.066 H 
ENDBRANCH  30  31
ENDBRANCH   8  30
TORSDOF 5
ENDMDL
MODEL 10
REMARK VINA RESULT:      -4.9      1.750      3.743
REMARK  5 active torsions:
REMARK  status: ('A' for Active; 'I' for Inactive)
REMARK    1  A    between atoms: C_1  and  C_2 
REMARK    2  A    between atoms: C_9  and  O_11 
REMARK    3  A    between atoms: O_11  and  C_12 
REMARK    4  A    between atoms: C_14  and  C_17 
REMARK    5  A    between atoms: C_17  and  O_18 
ROOT
ATOM      1  C   LIG d   1       5.745   0.422  -3.224  0.00  0.00     0.186 A 
ATOM      2  C   LIG d   1       5.598  -0.735  -3.973  0.00  0.00     0.065 A 
ATOM      3  C   LIG d   1       6.433  -0.986  -5.046  0.00  0.00     0.144 A 
ATOM      4  C   LIG d   1       7.418  -0.013  -5.344  0.00  0.00     0.092 A 
ATOM      5  C   LIG d   1       8.303  -0.181  -6.419  0.00  0.00    -0.044 A 
ATOM      6  C   LIG d   1       9.240   0.774  -6.678  0.00  0.00    -0.057 A 
ATOM      7  C   LIG d   1       9.332   1.917  -5.890  0.00  0.00    -0.013 A 
ATOM      8  C   LIG d   1       8.488   2.114  -4.834  0.00  0.00     0.192 A 
ATOM      9  C   LIG d   1       7.506   1.146  -4.536  0.00  0.00     0.259 A 
ATOM     10  O   LIG d   1       6.146  -2.172  -5.634  0.00  0.00    -0.485 OA
ATOM     11  C   LIG d   1       4.817  -2.576  -5.261  0.00  0.00     0.127 C 
ATOM     12  H   LIG d   1       4.085  -2.204  -5.977  0.00  0.00     0.076 H 
ATOM     13  C   LIG d   1       4.630  -1.899  -3.883  0.00  0.00     0.021 C 
ATOM     14  H   LIG d   1       8.242  -1.062  -7.039  0.00  0.00     0.063 H 
ATOM     15  H   LIG d   1       9.920   0.643  -7.507  0.00  0.00     0.062 H 
ATOM     16  H   LIG d   1      10.083   2.661  -6.115  0.00  0.00     0.066 H 
ATOM     17  H   LIG d   1       4.910  -2.576  -3.075  0.00  0.00     0.035 H 
ATOM     18  H   LIG d   1       3.607  -1.547  -3.757  0.00  0.00     0.035 H 
ATOM     19  N   LIG d   1       6.669   1.380  -3.467  0.00  0.00    -0.205 N 
ATOM     20  H   LIG d   1       6.742   2.227  -2.892  0.00  0.00     0.453 HD
ENDROOT
BRANCH  11  21
ATOM     21  C   LIG d   1       4.727  -4.099  -5.139  0.00  0.00     0.081 C 
ATOM     22  H   LIG d   1       5.658  -4.547  -5.489  0.00  0.00     0.059 H 
ATOM     23  H   LIG d   1       4.563  -4.371  -4.097  0.00  0.00     0.059 H 
BRANCH  21  24
ATOM     24  O   LIG d   1       3.640  -4.578  -5.934  0.00  0.00    -0.391 OA
ATOM     25  H   LIG d   1       3.490  -4.069  -6.742  0.00  0.00     0.210 HD
ENDBRANCH  21  24
ENDBRANCH  11  21
BRANCH   1  26
ATOM     26  C   LIG d   1       4.825   0.664  -2.055  0.00  0.00     0.021 C 
ATOM     27  H   LIG d   1       4.519  -0.292  -1.630  0.00  0.00     0.034 H 
ATOM     28  H   LIG d   1       3.944   1.209  -2.393  0.00  0.00     0.034 H 
ATOM     29  H   LIG d   1       5.346   1.249  -1.298  0.00  0.00     0.034 H 
ENDBRANCH   1  26
BRANCH   8  30
ATOM     30  O   LIG d   1       8.592   3.235  -4.075  0.00  0.00    -0.489 OA
BRANCH  30  31
ATOM     31  C   LIG d   1       9.772   3.374  -3.281  0.00  0.00     0.079 C 
ATOM     32  H   LIG d   1       9.688   4.267  -2.660  0.00  0.00     0.066 H 
ATOM     33  H   LIG d   1       9.886   2.497  -2.642  0.00  0.00     0.066 H 
ATOM     34  H   LIG d   1      10.641   3.464  -3.932  0.00  0.00     0.066 H 
ENDBRANCH  30  31
ENDBRANCH   8  30
TORSDOF 5
ENDMDL
