MODEL 1
REMARK VINA RESULT:      -4.7      0.000      0.000
REMARK  4 active torsions:
REMARK  status: ('A' for Active; 'I' for Inactive)
REMARK    1  A    between atoms: C_1  and  C_2 
REMARK    2  A    between atoms: C_5  and  C_9 
REMARK    3  A    between atoms: C_6  and  O_8 
REMARK    4  A    between atoms: C_9  and  C_11 
ROOT
ATOM      1  C   LIG d   1       3.916   0.131  -2.891  0.00  0.00    -0.047 A 
ATOM      2  C   LIG d   1       4.441  -0.897  -2.122  0.00  0.00    -0.058 A 
ATOM      3  C   LIG d   1       4.797  -2.091  -2.707  0.00  0.00    -0.048 A 
ATOM      4  C   LIG d   1       4.629  -2.270  -4.085  0.00  0.00     0.059 A 
ATOM      5  C   LIG d   1       4.097  -1.226  -4.860  0.00  0.00     0.128 A 
ATOM      6  C   LIG d   1       3.744  -0.031  -4.251  0.00  0.00    -0.017 A 
ATOM      7  H   LIG d   1       4.570  -0.758  -1.059  0.00  0.00     0.062 H 
ATOM      8  H   LIG d   1       5.201  -2.890  -2.103  0.00  0.00     0.063 H 
ATOM      9  H   LIG d   1       3.335   0.775  -4.842  0.00  0.00     0.066 H 
ENDROOT
BRANCH   4  10
ATOM     10  C   LIG d   1       5.005  -3.541  -4.716  0.00  0.00     0.164 C 
ATOM     11  O   LIG d   1       4.146  -4.329  -5.053  0.00  0.00    -0.292 OA
BRANCH  10  12
ATOM     12  C   LIG d   1       6.458  -3.867  -4.947  0.00  0.00    -0.001 C 
ATOM     13  H   LIG d   1       7.027  -3.130  -4.582  0.00  0.00     0.031 H 
ATOM     14  H   LIG d   1       6.705  -4.801  -4.443  0.00  0.00     0.031 H 
ATOM     15  H   LIG d   1       6.641  -3.972  -6.016  0.00  0.00     0.031 H 
ENDBRANCH  10  12
ENDBRANCH   4  10
BRANCH   5  16
ATOM     16  O   LIG d   1       3.929  -1.387  -6.196  0.00  0.00    -0.506 OA
ATOM     17  H   LIG d   1       3.152  -0.935  -6.551  0.00  0.00     0.292 HD
ENDBRANCH   5  16
BRANCH   1  18
ATOM     18  C   LIG d   1       3.529   1.432  -2.238  0.00  0.00    -0.040 C 
ATOM     19  H   LIG d   1       2.566   1.762  -2.625  0.00  0.00     0.028 H 
ATOM     20  H   LIG d   1       3.457   1.290  -1.160  0.00  0.00     0.028 H 
ATOM     21  H   LIG d   1       4.285   2.187  -2.455  0.00  0.00     0.028 H 
ENDBRANCH   1  18
TORSDOF 4
ENDMDL
MODEL 2
REMARK VINA RESULT:      -4.7      2.178      3.889
REMARK  4 active torsions:
REMARK  status: ('A' for Active; 'I' for Inactive)
REMARK    1  A    between atoms: C_1  and  C_2 
REMARK    2  A    between atoms: C_5  and  C_9 
REMARK    3  A    between atoms: C_6  and  O_8 
REMARK    4  A    between atoms: C_9  and  C_11 
ROOT
ATOM      1  C   LIG d   1       3.185  -0.088  -6.453  0.00  0.00    -0.047 A 
ATOM      2  C   LIG d   1       2.413   0.536  -5.485  0.00  0.00    -0.058 A 
ATOM      3  C   LIG d   1       2.761   0.450  -4.156  0.00  0.00    -0.048 A 
ATOM      4  C   LIG d   1       3.900  -0.271  -3.778  0.00  0.00     0.059 A 
ATOM      5  C   LIG d   1       4.679  -0.901  -4.763  0.00  0.00     0.128 A 
ATOM      6  C   LIG d   1       4.311  -0.803  -6.097  0.00  0.00    -0.017 A 
ATOM      7  H   LIG d   1       1.534   1.092  -5.776  0.00  0.00     0.062 H 
ATOM      8  H   LIG d   1       2.154   0.934  -3.406  0.00  0.00     0.063 H 
ATOM      9  H   LIG d   1       4.906  -1.286  -6.857  0.00  0.00     0.066 H 
ENDROOT
BRANCH   4  10
ATOM     10  C   LIG d   1       4.277  -0.368  -2.363  0.00  0.00     0.164 C 
ATOM     11  O   LIG d   1       4.333  -1.453  -1.823  0.00  0.00    -0.292 OA
BRANCH  10  12
ATOM     12  C   LIG d   1       4.598   0.879  -1.581  0.00  0.00    -0.001 C 
ATOM     13  H   LIG d   1       5.177   0.644  -0.801  0.00  0.00     0.031 H 
ATOM     14  H   LIG d   1       5.121   1.587  -2.223  0.00  0.00     0.031 H 
ATOM     15  H   LIG d   1       3.673   1.331  -1.222  0.00  0.00     0.031 H 
ENDBRANCH  10  12
ENDBRANCH   4  10
BRANCH   5  16
ATOM     16  O   LIG d   1       5.785  -1.604  -4.411  0.00  0.00    -0.506 OA
ATOM     17  H   LIG d   1       6.082  -2.231  -5.083  0.00  0.00     0.292 HD
ENDBRANCH   5  16
BRANCH   1  18
ATOM     18  C   LIG d   1       2.791   0.012  -7.904  0.00  0.00    -0.040 C 
ATOM     19  H   LIG d   1       3.624   0.412  -8.481  0.00  0.00     0.028 H 
ATOM     20  H   LIG d   1       2.532  -0.977  -8.280  0.00  0.00     0.028 H 
ATOM     21  H   LIG d   1       1.931   0.675  -8.002  0.00  0.00     0.028 H 
ENDBRANCH   1  18
TORSDOF 4
ENDMDL
MODEL 3
REMARK VINA RESULT:      -4.6      1.790      4.233
REMARK  4 active torsions:
REMARK  status: ('A' for Active; 'I' for Inactive)
REMARK    1  A    between atoms: C_1  and  C_2 
REMARK    2  A    between atoms: C_5  and  C_9 
REMARK    3  A    between atoms: C_6  and  O_8 
REMARK    4  A    between atoms: C_9  and  C_11 
ROOT
ATOM      1  C   LIG d   1       6.606  -3.014  -4.339  0.00  0.00    -0.047 A 
ATOM      2  C   LIG d   1       7.296  -1.917  -3.846  0.00  0.00    -0.058 A 
ATOM      3  C   LIG d   1       6.613  -0.794  -3.434  0.00  0.00    -0.048 A 
ATOM      4  C   LIG d   1       5.216  -0.759  -3.513  0.00  0.00     0.059 A 
ATOM      5  C   LIG d   1       4.522  -1.873  -4.013  0.00  0.00     0.128 A 
ATOM      6  C   LIG d   1       5.228  -2.994  -4.423  0.00  0.00    -0.017 A 
ATOM      7  H   LIG d   1       8.374  -1.943  -3.785  0.00  0.00     0.062 H 
ATOM      8  H   LIG d   1       7.155   0.060  -3.055  0.00  0.00     0.063 H 
ATOM      9  H   LIG d   1       4.700  -3.854  -4.809  0.00  0.00     0.066 H 
ENDROOT
BRANCH   4  10
ATOM     10  C   LIG d   1       4.481   0.434  -3.078  0.00  0.00     0.164 C 
ATOM     11  O   LIG d   1       3.812   1.059  -3.874  0.00  0.00    -0.292 OA
BRANCH  10  12
ATOM     12  C   LIG d   1       4.556   0.883  -1.641  0.00  0.00    -0.001 C 
ATOM     13  H   LIG d   1       3.643   0.859  -1.235  0.00  0.00     0.031 H 
ATOM     14  H   LIG d   1       5.218   0.219  -1.087  0.00  0.00     0.031 H 
ATOM     15  H   LIG d   1       4.945   1.901  -1.598  0.00  0.00     0.031 H 
ENDBRANCH  10  12
ENDBRANCH   4  10
BRANCH   5  16
ATOM     16  O   LIG d   1       3.169  -1.852  -4.096  0.00  0.00    -0.506 OA
ATOM     17  H   LIG d   1       2.831  -1.708  -4.990  0.00  0.00     0.292 HD
ENDBRANCH   5  16
BRANCH   1  18
ATOM     18  C   LIG d   1       7.366  -4.235  -4.787  0.00  0.00    -0.040 C 
ATOM     19  H   LIG d   1       6.666  -4.985  -5.156  0.00  0.00     0.028 H 
ATOM     20  H   LIG d   1       8.057  -3.961  -5.584  0.00  0.00     0.028 H 
ATOM     21  H   LIG d   1       7.926  -4.645  -3.946  0.00  0.00     0.028 H 
ENDBRANCH   1  18
TORSDOF 4
ENDMDL
MODEL 4
REMARK VINA RESULT:      -4.6      2.396      2.560
REMARK  4 active torsions:
REMARK  status: ('A' for Active; 'I' for Inactive)
REMARK    1  A    between atoms: C_1  and  C_2 
REMARK    2  A    between atoms: C_5  and  C_9 
REMARK    3  A    between atoms: C_6  and  O_8 
REMARK    4  A    between atoms: C_9  and  C_11 
ROOT
ATOM      1  C   LIG d   1       4.740   0.238  -2.513  0.00  0.00    -0.047 A 
ATOM      2  C   LIG d   1       4.272  -1.068  -2.495  0.00  0.00    -0.058 A 
ATOM      3  C   LIG d   1       5.060  -2.096  -2.960  0.00  0.00    -0.048 A 
ATOM      4  C   LIG d   1       6.341  -1.823  -3.455  0.00  0.00     0.059 A 
ATOM      5  C   LIG d   1       6.811  -0.500  -3.472  0.00  0.00     0.128 A 
ATOM      6  C   LIG d   1       6.001   0.522  -2.998  0.00  0.00    -0.017 A 
ATOM      7  H   LIG d   1       3.284  -1.278  -2.113  0.00  0.00     0.062 H 
ATOM      8  H   LIG d   1       4.689  -3.110  -2.948  0.00  0.00     0.063 H 
ATOM      9  H   LIG d   1       6.357   1.541  -3.009  0.00  0.00     0.066 H 
ENDROOT
BRANCH   4  10
ATOM     10  C   LIG d   1       7.187  -2.914  -3.955  0.00  0.00     0.164 C 
ATOM     11  O   LIG d   1       8.301  -3.075  -3.500  0.00  0.00    -0.292 OA
BRANCH  10  12
ATOM     12  C   LIG d   1       6.673  -3.835  -5.031  0.00  0.00    -0.001 C 
ATOM     13  H   LIG d   1       5.676  -3.778  -5.071  0.00  0.00     0.031 H 
ATOM     14  H   LIG d   1       7.093  -3.541  -5.992  0.00  0.00     0.031 H 
ATOM     15  H   LIG d   1       6.969  -4.859  -4.805  0.00  0.00     0.031 H 
ENDBRANCH  10  12
ENDBRANCH   4  10
BRANCH   5  16
ATOM     16  O   LIG d   1       8.050  -0.222  -3.949  0.00  0.00    -0.506 OA
ATOM     17  H   LIG d   1       8.096  -0.164  -4.912  0.00  0.00     0.292 HD
ENDBRANCH   5  16
BRANCH   1  18
ATOM     18  C   LIG d   1       3.866   1.353  -2.002  0.00  0.00    -0.040 C 
ATOM     19  H   LIG d   1       3.109   1.594  -2.748  0.00  0.00     0.028 H 
ATOM     20  H   LIG d   1       3.379   1.040  -1.079  0.00  0.00     0.028 H 
ATOM     21  H   LIG d   1       4.478   2.235  -1.809  0.00  0.00     0.028 H 
ENDBRANCH   1  18
TORSDOF 4
ENDMDL
MODEL 5
REMARK VINA RESULT:      -4.6      2.038      4.205
REMARK  4 active torsions:
REMARK  status: ('A' for Active; 'I' for Inactive)
REMARK    1  A    between atoms: C_1  and  C_2 
REMARK    2  A    between atoms: C_5  and  C_9 
REMARK    3  A    between atoms: C_6  and  O_8 
REMARK    4  A    between atoms: C_9  and  C_11 
ROOT
ATOM      1  C   LIG d   1       4.918  -3.014  -4.532  0.00  0.00    -0.047 A 
ATOM      2  C   LIG d   1       4.348  -2.816  -3.283  0.00  0.00    -0.058 A 
ATOM      3  C   LIG d   1       4.357  -1.567  -2.705  0.00  0.00    -0.048 A 
ATOM      4  C   LIG d   1       4.946  -0.490  -3.379  0.00  0.00     0.059 A 
ATOM      5  C   LIG d   1       5.522  -0.696  -4.643  0.00  0.00     0.128 A 
ATOM      6  C   LIG d   1       5.502  -1.963  -5.209  0.00  0.00    -0.017 A 
ATOM      7  H   LIG d   1       3.893  -3.646  -2.763  0.00  0.00     0.062 H 
ATOM      8  H   LIG d   1       3.916  -1.418  -1.730  0.00  0.00     0.063 H 
ATOM      9  H   LIG d   1       5.944  -2.126  -6.180  0.00  0.00     0.066 H 
ENDROOT
BRANCH   4  10
ATOM     10  C   LIG d   1       4.962   0.844  -2.768  0.00  0.00     0.164 C 
ATOM     11  O   LIG d   1       6.003   1.462  -2.687  0.00  0.00    -0.292 OA
BRANCH  10  12
ATOM     12  C   LIG d   1       3.685   1.448  -2.243  0.00  0.00    -0.001 C 
ATOM     13  H   LIG d   1       3.902   2.195  -1.615  0.00  0.00     0.031 H 
ATOM     14  H   LIG d   1       3.095   1.833  -3.075  0.00  0.00     0.031 H 
ATOM     15  H   LIG d   1       3.112   0.685  -1.715  0.00  0.00     0.031 H 
ENDBRANCH  10  12
ENDBRANCH   4  10
BRANCH   5  16
ATOM     16  O   LIG d   1       6.096   0.338  -5.307  0.00  0.00    -0.506 OA
ATOM     17  H   LIG d   1       5.917   0.343  -6.257  0.00  0.00     0.292 HD
ENDBRANCH   5  16
BRANCH   1  18
ATOM     18  C   LIG d   1       4.901  -4.386  -5.153  0.00  0.00    -0.040 C 
ATOM     19  H   LIG d   1       4.127  -4.991  -4.682  0.00  0.00     0.028 H 
ATOM     20  H   LIG d   1       4.696  -4.301  -6.220  0.00  0.00     0.028 H 
ATOM     21  H   LIG d   1       5.871  -4.863  -5.007  0.00  0.00     0.028 H 
ENDBRANCH   1  18
TORSDOF 4
ENDMDL
MODEL 6
REMARK VINA RESULT:      -4.5      2.147      3.834
REMARK  4 active torsions:
REMARK  status: ('A' for Active; 'I' for Inactive)
REMARK    1  A    between atoms: C_1  and  C_2 
REMARK    2  A    between atoms: C_5  and  C_9 
REMARK    3  A    between atoms: C_6  and  O_8 
REMARK    4  A    between atoms: C_9  and  C_11 
ROOT
ATOM      1  C   LIG d   1       3.687  -1.301  -3.613  0.00  0.00    -0.047 A 
ATOM      2  C   LIG d   1       2.726  -0.332  -3.860  0.00  0.00    -0.058 A 
ATOM      3  C   LIG d   1       2.599   0.218  -5.115  0.00  0.00    -0.048 A 
ATOM      4  C   LIG d   1       3.445  -0.200  -6.149  0.00  0.00     0.059 A 
ATOM      5  C   LIG d   1       4.417  -1.182  -5.894  0.00  0.00     0.128 A 
ATOM      6  C   LIG d   1       4.529  -1.724  -4.623  0.00  0.00    -0.017 A 
ATOM      7  H   LIG d   1       2.073  -0.009  -3.062  0.00  0.00     0.062 H 
ATOM      8  H   LIG d   1       1.852   0.976  -5.301  0.00  0.00     0.063 H 
ATOM      9  H   LIG d   1       5.275  -2.478  -4.422  0.00  0.00     0.066 H 
ENDROOT
BRANCH   4  10
ATOM     10  C   LIG d   1       3.317   0.383  -7.490  0.00  0.00     0.164 C 
ATOM     11  O   LIG d   1       4.037   1.300  -7.824  0.00  0.00    -0.292 OA
BRANCH  10  12
ATOM     12  C   LIG d   1       2.293  -0.159  -8.453  0.00  0.00    -0.001 C 
ATOM     13  H   LIG d   1       1.496  -0.485  -7.944  0.00  0.00     0.031 H 
ATOM     14  H   LIG d   1       1.988   0.629  -9.141  0.00  0.00     0.031 H 
ATOM     15  H   LIG d   1       2.725  -0.986  -9.017  0.00  0.00     0.031 H 
ENDBRANCH  10  12
ENDBRANCH   4  10
BRANCH   5  16
ATOM     16  O   LIG d   1       5.243  -1.596  -6.887  0.00  0.00    -0.506 OA
ATOM     17  H   LIG d   1       5.958  -0.978  -7.088  0.00  0.00     0.292 HD
ENDBRANCH   5  16
BRANCH   1  18
ATOM     18  C   LIG d   1       3.816  -1.894  -2.234  0.00  0.00    -0.040 C 
ATOM     19  H   LIG d   1       3.156  -2.756  -2.145  0.00  0.00     0.028 H 
ATOM     20  H   LIG d   1       4.847  -2.207  -2.068  0.00  0.00     0.028 H 
ATOM     21  H   LIG d   1       3.539  -1.146  -1.490  0.00  0.00     0.028 H 
ENDBRANCH   1  18
TORSDOF 4
ENDMDL
MODEL 7
REMARK VINA RESULT:      -4.4      2.634      4.318
REMARK  4 active torsions:
REMARK  status: ('A' for Active; 'I' for Inactive)
REMARK    1  A    between atoms: C_1  and  C_2 
REMARK    2  A    between atoms: C_5  and  C_9 
REMARK    3  A    between atoms: C_6  and  O_8 
REMARK    4  A    between atoms: C_9  and  C_11 
ROOT
ATOM      1  C   LIG d   1       6.805  -2.010  -3.643  0.00  0.00    -0.047 A 
ATOM      2  C   LIG d   1       5.525  -2.531  -3.757  0.00  0.00    -0.058 A 
ATOM      3  C   LIG d   1       4.427  -1.707  -3.652  0.00  0.00    -0.048 A 
ATOM      4  C   LIG d   1       4.602  -0.336  -3.427  0.00  0.00     0.059 A 
ATOM      5  C   LIG d   1       5.901   0.186  -3.312  0.00  0.00     0.128 A 
ATOM      6  C   LIG d   1       6.994  -0.660  -3.421  0.00  0.00    -0.017 A 
ATOM      7  H   LIG d   1       5.390  -3.588  -3.930  0.00  0.00     0.062 H 
ATOM      8  H   LIG d   1       3.432  -2.118  -3.737  0.00  0.00     0.063 H 
ATOM      9  H   LIG d   1       7.995  -0.264  -3.332  0.00  0.00     0.066 H 
ENDROOT
BRANCH   4  10
ATOM     10  C   LIG d   1       3.437   0.548  -3.312  0.00  0.00     0.164 C 
ATOM     11  O   LIG d   1       3.217   1.130  -2.271  0.00  0.00    -0.292 OA
BRANCH  10  12
ATOM     12  C   LIG d   1       2.514   0.736  -4.488  0.00  0.00    -0.001 C 
ATOM     13  H   LIG d   1       2.139   1.662  -4.475  0.00  0.00     0.031 H 
ATOM     14  H   LIG d   1       3.068   0.581  -5.414  0.00  0.00     0.031 H 
ATOM     15  H   LIG d   1       1.698   0.014  -4.429  0.00  0.00     0.031 H 
ENDBRANCH  10  12
ENDBRANCH   4  10
BRANCH   5  16
ATOM     16  O   LIG d   1       6.085   1.512  -3.094  0.00  0.00    -0.506 OA
ATOM     17  H   LIG d   1       6.639   1.712  -2.327  0.00  0.00     0.292 HD
ENDBRANCH   5  16
BRANCH   1  18
ATOM     18  C   LIG d   1       7.998  -2.923  -3.758  0.00  0.00    -0.040 C 
ATOM     19  H   LIG d   1       8.427  -3.090  -2.771  0.00  0.00     0.028 H 
ATOM     20  H   LIG d   1       7.685  -3.877  -4.184  0.00  0.00     0.028 H 
ATOM     21  H   LIG d   1       8.746  -2.464  -4.406  0.00  0.00     0.028 H 
ENDBRANCH   1  18
TORSDOF 4
ENDMDL
MODEL 8
REMARK VINA RESULT:      -4.4      3.440      4.235
REMARK  4 active torsions:
REMARK  status: ('A' for Active; 'I' for Inactive)
REMARK    1  A    between atoms: C_1  and  C_2 
REMARK    2  A    between atoms: C_5  and  C_9 
REMARK    3  A    between atoms: C_6  and  O_8 
REMARK    4  A    between atoms: C_9  and  C_11 
ROOT
ATOM      1  C   LIG d   1       4.834  -1.454  -2.697  0.00  0.00    -0.047 A 
ATOM      2  C   LIG d   1       6.003  -1.987  -3.220  0.00  0.00    -0.058 A 
ATOM      3  C   LIG d   1       7.007  -1.158  -3.666  0.00  0.00    -0.048 A 
ATOM      4  C   LIG d   1       6.849   0.231  -3.593  0.00  0.00     0.059 A 
ATOM      5  C   LIG d   1       5.664   0.767  -3.063  0.00  0.00     0.128 A 
ATOM      6  C   LIG d   1       4.664  -0.086  -2.619  0.00  0.00    -0.017 A 
ATOM      7  H   LIG d   1       6.125  -3.059  -3.277  0.00  0.00     0.062 H 
ATOM      8  H   LIG d   1       7.913  -1.578  -4.077  0.00  0.00     0.063 H 
ATOM      9  H   LIG d   1       3.750   0.321  -2.211  0.00  0.00     0.066 H 
ENDROOT
BRANCH   4  10
ATOM     10  C   LIG d   1       7.915   1.122  -4.068  0.00  0.00     0.164 C 
ATOM     11  O   LIG d   1       8.248   2.079  -3.401  0.00  0.00    -0.292 OA
BRANCH  10  12
ATOM     12  C   LIG d   1       8.596   0.848  -5.383  0.00  0.00    -0.001 C 
ATOM     13  H   LIG d   1       9.496   1.284  -5.391  0.00  0.00     0.031 H 
ATOM     14  H   LIG d   1       8.712  -0.228  -5.516  0.00  0.00     0.031 H 
ATOM     15  H   LIG d   1       7.992   1.250  -6.197  0.00  0.00     0.031 H 
ENDBRANCH  10  12
ENDBRANCH   4  10
BRANCH   5  16
ATOM     16  O   LIG d   1       5.497   2.111  -2.986  0.00  0.00    -0.506 OA
ATOM     17  H   LIG d   1       5.104   2.411  -2.156  0.00  0.00     0.292 HD
ENDBRANCH   5  16
BRANCH   1  18
ATOM     18  C   LIG d   1       3.743  -2.372  -2.214  0.00  0.00    -0.040 C 
ATOM     19  H   LIG d   1       4.178  -3.319  -1.896  0.00  0.00     0.028 H 
ATOM     20  H   LIG d   1       3.224  -1.911  -1.374  0.00  0.00     0.028 H 
ATOM     21  H   LIG d   1       3.034  -2.553  -3.023  0.00  0.00     0.028 H 
ENDBRANCH   1  18
TORSDOF 4
ENDMDL
MODEL 9
REMARK VINA RESULT:      -4.1      5.845      7.658
REMARK  4 active torsions:
REMARK  status: ('A' for Active; 'I' for Inactive)
REMARK    1  A    between atoms: C_1  and  C_2 
REMARK    2  A    between atoms: C_5  and  C_9 
REMARK    3  A    between atoms: C_6  and  O_8 
REMARK    4  A    between atoms: C_9  and  C_11 
ROOT
ATOM      1  C   LIG d   1       2.787  -0.787 -11.925  0.00  0.00    -0.047 A 
ATOM      2  C   LIG d   1       1.820  -1.042 -10.964  0.00  0.00    -0.058 A 
ATOM      3  C   LIG d   1       1.865  -0.405  -9.745  0.00  0.00    -0.048 A 
ATOM      4  C   LIG d   1       2.893   0.506  -9.472  0.00  0.00     0.059 A 
ATOM      5  C   LIG d   1       3.870   0.761 -10.448  0.00  0.00     0.128 A 
ATOM      6  C   LIG d   1       3.806   0.108 -11.670  0.00  0.00    -0.017 A 
ATOM      7  H   LIG d   1       1.026  -1.745 -11.174  0.00  0.00     0.062 H 
ATOM      8  H   LIG d   1       1.112  -0.610  -8.998  0.00  0.00     0.063 H 
ATOM      9  H   LIG d   1       4.555   0.300 -12.424  0.00  0.00     0.066 H 
ENDROOT
BRANCH   4  10
ATOM     10  C   LIG d   1       2.950   1.189  -8.174  0.00  0.00     0.164 C 
ATOM     11  O   LIG d   1       2.987   2.400  -8.127  0.00  0.00    -0.292 OA
BRANCH  10  12
ATOM     12  C   LIG d   1       2.960   0.385  -6.899  0.00  0.00    -0.001 C 
ATOM     13  H   LIG d   1       2.709   0.974  -6.131  0.00  0.00     0.031 H 
ATOM     14  H   LIG d   1       2.244  -0.433  -6.979  0.00  0.00     0.031 H 
ATOM     15  H   LIG d   1       3.958  -0.021  -6.733  0.00  0.00     0.031 H 
ENDBRANCH  10  12
ENDBRANCH   4  10
BRANCH   5  16
ATOM     16  O   LIG d   1       4.872   1.640 -10.197  0.00  0.00    -0.506 OA
ATOM     17  H   LIG d   1       5.750   1.313 -10.431  0.00  0.00     0.292 HD
ENDBRANCH   5  16
BRANCH   1  18
ATOM     18  C   LIG d   1       2.725  -1.493 -13.254  0.00  0.00    -0.040 C 
ATOM     19  H   LIG d   1       2.023  -2.324 -13.194  0.00  0.00     0.028 H 
ATOM     20  H   LIG d   1       2.394  -0.794 -14.022  0.00  0.00     0.028 H 
ATOM     21  H   LIG d   1       3.715  -1.873 -13.510  0.00  0.00     0.028 H 
ENDBRANCH   1  18
TORSDOF 4
ENDMDL
MODEL 10
REMARK VINA RESULT:      -4.0      9.665     11.300
REMARK  4 active torsions:
REMARK  status: ('A' for Active; 'I' for Inactive)
REMARK    1  A    between atoms: C_1  and  C_2 
REMARK    2  A    between atoms: C_5  and  C_9 
REMARK    3  A    between atoms: C_6  and  O_8 
REMARK    4  A    between atoms: C_9  and  C_11 
ROOT
ATOM      1  C   LIG d   1       9.700   6.328  -2.836  0.00  0.00    -0.047 A 
ATOM      2  C   LIG d   1       9.440   7.534  -2.203  0.00  0.00    -0.058 A 
ATOM      3  C   LIG d   1       9.894   7.760  -0.924  0.00  0.00    -0.048 A 
ATOM      4  C   LIG d   1      10.621   6.767  -0.256  0.00  0.00     0.059 A 
ATOM      5  C   LIG d   1      10.882   5.547  -0.901  0.00  0.00     0.128 A 
ATOM      6  C   LIG d   1      10.416   5.339  -2.191  0.00  0.00    -0.017 A 
ATOM      7  H   LIG d   1       8.879   8.300  -2.718  0.00  0.00     0.062 H 
ATOM      8  H   LIG d   1       9.685   8.699  -0.433  0.00  0.00     0.063 H 
ATOM      9  H   LIG d   1      10.614   4.403  -2.691  0.00  0.00     0.066 H 
ENDROOT
BRANCH   4  10
ATOM     10  C   LIG d   1      11.107   7.000   1.110  0.00  0.00     0.164 C 
ATOM     11  O   LIG d   1      11.116   6.091   1.913  0.00  0.00    -0.292 OA
BRANCH  10  12
ATOM     12  C   LIG d   1      11.596   8.366   1.513  0.00  0.00    -0.001 C 
ATOM     13  H   LIG d   1      12.580   8.431   1.350  0.00  0.00     0.031 H 
ATOM     14  H   LIG d   1      11.079   9.126   0.927  0.00  0.00     0.031 H 
ATOM     15  H   LIG d   1      11.393   8.527   2.572  0.00  0.00     0.031 H 
ENDBRANCH  10  12
ENDBRANCH   4  10
BRANCH   5  16
ATOM     16  O   LIG d   1      11.585   4.577  -0.266  0.00  0.00    -0.506 OA
ATOM     17  H   LIG d   1      11.900   3.874  -0.849  0.00  0.00     0.292 HD
ENDBRANCH   5  16
BRANCH   1  18
ATOM     18  C   LIG d   1       9.197   6.094  -4.237  0.00  0.00    -0.040 C 
ATOM     19  H   LIG d   1       8.795   7.023  -4.640  0.00  0.00     0.028 H 
ATOM     20  H   LIG d   1      10.018   5.751  -4.866  0.00  0.00     0.028 H 
ATOM     21  H   LIG d   1       8.412   5.337  -4.219  0.00  0.00     0.028 H 
ENDBRANCH   1  18
TORSDOF 4
ENDMDL
