MODEL 1
REMARK VINA RESULT:      -9.4      0.000      0.000
REMARK  3 active torsions:
REMARK  status: ('A' for Active; 'I' for Inactive)
REMARK    1  A    between atoms: C_4  and  N_7 
REMARK       I    between atoms: N_7  and  C_8 
REMARK       I    between atoms: C_8  and  N_10 
REMARK    2  A    between atoms: C_21  and  C_26 
REMARK    3  A    between atoms: C_30  and  C_32 
ROOT
ATOM      1  N   LIG d   1       7.208   1.551  -4.039  0.00  0.00    -0.269 N 
ATOM      2  C   LIG d   1       7.116   0.207  -3.998  0.00  0.00     0.306 C 
ATOM      3  O   LIG d   1       7.836  -0.473  -4.703  0.00  0.00    -0.252 OA
ATOM      4  N   LIG d   1       6.227  -0.383  -3.176  0.00  0.00    -0.284 N 
ATOM      5  C   LIG d   1       5.275   0.420  -2.399  0.00  0.00     0.021 C 
ATOM      6  C   LIG d   1       3.859  -0.118  -2.593  0.00  0.00    -0.006 C 
ATOM      7  H   LIG d   1       3.223   0.364  -1.850  0.00  0.00     0.033 H 
ATOM      8  C   LIG d   1       3.809  -1.627  -2.352  0.00  0.00    -0.037 C 
ATOM      9  C   LIG d   1       4.756  -2.305  -3.344  0.00  0.00     0.016 C 
ATOM     10  H   LIG d   1       4.684  -3.391  -3.266  0.00  0.00     0.038 H 
ATOM     11  C   LIG d   1       6.191  -1.848  -3.032  0.00  0.00     0.024 C 
ATOM     12  C   LIG d   1       4.427  -1.862  -4.749  0.00  0.00     0.027 C 
ATOM     13  C   LIG d   1       4.725  -2.725  -5.761  0.00  0.00    -0.041 C 
ATOM     14  C   LIG d   1       4.514  -2.365  -7.092  0.00  0.00    -0.047 C 
ATOM     15  C   LIG d   1       4.019  -1.100  -7.369  0.00  0.00     0.047 C 
ATOM     16  C   LIG d   1       3.726  -0.236  -6.291  0.00  0.00     0.259 C 
ATOM     17  O   LIG d   1       3.351   0.903  -6.514  0.00  0.00    -0.267 OA
ATOM     18  N   LIG d   1       3.858  -0.663  -5.011  0.00  0.00    -0.311 N 
ATOM     19  C   LIG d   1       3.305   0.203  -3.968  0.00  0.00     0.031 C 
ATOM     20  H   LIG d   1       6.683   2.091  -3.427  0.00  0.00     0.156 HD
ATOM     21  H   LIG d   1       5.541   0.373  -1.344  0.00  0.00     0.047 H 
ATOM     22  H   LIG d   1       5.318   1.455  -2.736  0.00  0.00     0.047 H 
ATOM     23  H   LIG d   1       2.792  -1.990  -2.507  0.00  0.00     0.028 H 
ATOM     24  H   LIG d   1       4.126  -1.847  -1.332  0.00  0.00     0.028 H 
ATOM     25  H   LIG d   1       6.888  -2.306  -3.735  0.00  0.00     0.047 H 
ATOM     26  H   LIG d   1       6.458  -2.127  -2.013  0.00  0.00     0.047 H 
ATOM     27  H   LIG d   1       5.130  -3.699  -5.529  0.00  0.00     0.064 H 
ATOM     28  H   LIG d   1       4.732  -3.058  -7.892  0.00  0.00     0.063 H 
ATOM     29  H   LIG d   1       3.540   1.240  -4.210  0.00  0.00     0.050 H 
ATOM     30  H   LIG d   1       2.222   0.085  -3.949  0.00  0.00     0.050 H 
ENDROOT
BRANCH   1  31
ATOM     31  C   LIG d   1       8.059   2.166  -4.964  0.00  0.00     0.035 A 
ATOM     32  C   LIG d   1       8.034   1.779  -6.297  0.00  0.00    -0.040 A 
ATOM     33  C   LIG d   1       8.872   2.392  -7.209  0.00  0.00    -0.060 A 
ATOM     34  H   LIG d   1       7.359   1.001  -6.622  0.00  0.00     0.064 H 
ATOM     35  C   LIG d   1       9.740   3.384  -6.793  0.00  0.00    -0.062 A 
ATOM     36  H   LIG d   1       8.851   2.093  -8.246  0.00  0.00     0.062 H 
ATOM     37  C   LIG d   1       9.766   3.773  -5.466  0.00  0.00    -0.060 A 
ATOM     38  H   LIG d   1      10.397   3.859  -7.506  0.00  0.00     0.062 H 
ATOM     39  C   LIG d   1       8.928   3.167  -4.551  0.00  0.00    -0.040 A 
ATOM     40  H   LIG d   1      10.443   4.551  -5.145  0.00  0.00     0.062 H 
ATOM     41  H   LIG d   1       8.949   3.471  -3.514  0.00  0.00     0.064 H 
ENDBRANCH   1  31
BRANCH  15  42
ATOM     42  C   LIG d   1       3.800  -0.663  -8.768  0.00  0.00    -0.012 A 
ATOM     43  C   LIG d   1       2.773  -1.226  -9.525  0.00  0.00    -0.042 A 
ATOM     44  C   LIG d   1       2.574  -0.815 -10.827  0.00  0.00     0.055 A 
ATOM     45  H   LIG d   1       2.133  -1.981  -9.092  0.00  0.00     0.063 H 
ATOM     46  C   LIG d   1       3.391   0.153 -11.382  0.00  0.00    -0.050 A 
ATOM     47  C   LIG d   1       4.413   0.714 -10.636  0.00  0.00    -0.061 A 
ATOM     48  H   LIG d   1       3.232   0.472 -12.401  0.00  0.00     0.062 H 
ATOM     49  C   LIG d   1       4.618   0.316  -9.332  0.00  0.00    -0.054 A 
ATOM     50  H   LIG d   1       5.048   1.470 -11.075  0.00  0.00     0.062 H 
ATOM     51  H   LIG d   1       5.414   0.757  -8.750  0.00  0.00     0.062 H 
BRANCH  44  52
ATOM     52  C   LIG d   1       1.464  -1.422 -11.645  0.00  0.00     0.417 C 
ATOM     53  F   LIG d   1       1.921  -1.668 -12.943  0.00  0.00    -0.166 F 
ATOM     54  F   LIG d   1       1.057  -2.626 -11.059  0.00  0.00    -0.166 F 
ATOM     55  F   LIG d   1       0.382  -0.537 -11.692  0.00  0.00    -0.166 F 
ENDBRANCH  44  52
ENDBRANCH  15  42
TORSDOF 3
ENDMDL
MODEL 2
REMARK VINA RESULT:      -8.8      3.933      6.748
REMARK  3 active torsions:
REMARK  status: ('A' for Active; 'I' for Inactive)
REMARK    1  A    between atoms: C_4  and  N_7 
REMARK       I    between atoms: N_7  and  C_8 
REMARK       I    between atoms: C_8  and  N_10 
REMARK    2  A    between atoms: C_21  and  C_26 
REMARK    3  A    between atoms: C_30  and  C_32 
ROOT
ATOM      1  N   LIG d   1       7.395   1.175  -9.671  0.00  0.00    -0.269 N 
ATOM      2  C   LIG d   1       6.085   1.438  -9.850  0.00  0.00     0.306 C 
ATOM      3  O   LIG d   1       5.568   2.373  -9.270  0.00  0.00    -0.252 OA
ATOM      4  N   LIG d   1       5.349   0.665 -10.673  0.00  0.00    -0.284 N 
ATOM      5  C   LIG d   1       5.927  -0.532 -11.295  0.00  0.00     0.021 C 
ATOM      6  C   LIG d   1       5.010  -1.732 -11.071  0.00  0.00    -0.006 C 
ATOM      7  H   LIG d   1       5.363  -2.537 -11.714  0.00  0.00     0.033 H 
ATOM      8  C   LIG d   1       3.571  -1.403 -11.469  0.00  0.00    -0.037 C 
ATOM      9  C   LIG d   1       3.092  -0.224 -10.618  0.00  0.00     0.016 C 
ATOM     10  H   LIG d   1       2.039  -0.014 -10.808  0.00  0.00     0.038 H 
ATOM     11  C   LIG d   1       3.947   1.005 -10.970  0.00  0.00     0.024 C 
ATOM     12  C   LIG d   1       3.306  -0.530  -9.155  0.00  0.00     0.027 C 
ATOM     13  C   LIG d   1       2.473   0.076  -8.263  0.00  0.00    -0.041 C 
ATOM     14  C   LIG d   1       2.646  -0.101  -6.890  0.00  0.00    -0.047 C 
ATOM     15  C   LIG d   1       3.699  -0.885  -6.447  0.00  0.00     0.047 C 
ATOM     16  C   LIG d   1       4.542  -1.492  -7.405  0.00  0.00     0.259 C 
ATOM     17  O   LIG d   1       5.512  -2.133  -7.038  0.00  0.00    -0.267 OA
ATOM     18  N   LIG d   1       4.278  -1.370  -8.730  0.00  0.00    -0.311 N 
ATOM     19  C   LIG d   1       5.048  -2.224  -9.636  0.00  0.00     0.031 C 
ATOM     20  H   LIG d   1       7.823   0.472 -10.186  0.00  0.00     0.156 HD
ATOM     21  H   LIG d   1       6.046  -0.360 -12.365  0.00  0.00     0.047 H 
ATOM     22  H   LIG d   1       6.902  -0.734 -10.853  0.00  0.00     0.047 H 
ATOM     23  H   LIG d   1       2.933  -2.269 -11.288  0.00  0.00     0.028 H 
ATOM     24  H   LIG d   1       3.534  -1.134 -12.524  0.00  0.00     0.028 H 
ATOM     25  H   LIG d   1       3.637   1.858 -10.367  0.00  0.00     0.047 H 
ATOM     26  H   LIG d   1       3.841   1.242 -12.029  0.00  0.00     0.047 H 
ATOM     27  H   LIG d   1       1.670   0.701  -8.625  0.00  0.00     0.064 H 
ATOM     28  H   LIG d   1       1.972   0.365  -6.186  0.00  0.00     0.063 H 
ATOM     29  H   LIG d   1       6.085  -2.250  -9.299  0.00  0.00     0.050 H 
ATOM     30  H   LIG d   1       4.642  -3.234  -9.598  0.00  0.00     0.050 H 
ENDROOT
BRANCH   1  31
ATOM     31  C   LIG d   1       8.136   1.913  -8.742  0.00  0.00     0.035 A 
ATOM     32  C   LIG d   1       8.220   1.487  -7.423  0.00  0.00    -0.040 A 
ATOM     33  C   LIG d   1       8.957   2.215  -6.509  0.00  0.00    -0.060 A 
ATOM     34  H   LIG d   1       7.713   0.585  -7.112  0.00  0.00     0.064 H 
ATOM     35  C   LIG d   1       9.602   3.372  -6.905  0.00  0.00    -0.062 A 
ATOM     36  H   LIG d   1       9.026   1.883  -5.485  0.00  0.00     0.062 H 
ATOM     37  C   LIG d   1       9.521   3.799  -8.218  0.00  0.00    -0.060 A 
ATOM     38  H   LIG d   1      10.174   3.942  -6.188  0.00  0.00     0.062 H 
ATOM     39  C   LIG d   1       8.790   3.072  -9.137  0.00  0.00    -0.040 A 
ATOM     40  H   LIG d   1      10.029   4.701  -8.525  0.00  0.00     0.062 H 
ATOM     41  H   LIG d   1       8.726   3.406 -10.163  0.00  0.00     0.064 H 
ENDBRANCH   1  31
BRANCH  15  42
ATOM     42  C   LIG d   1       3.938  -1.083  -4.999  0.00  0.00    -0.012 A 
ATOM     43  C   LIG d   1       4.078   0.019  -4.155  0.00  0.00    -0.042 A 
ATOM     44  C   LIG d   1       4.301  -0.173  -2.807  0.00  0.00     0.055 A 
ATOM     45  H   LIG d   1       4.012   1.019  -4.557  0.00  0.00     0.063 H 
ATOM     46  C   LIG d   1       4.384  -1.453  -2.291  0.00  0.00    -0.050 A 
ATOM     47  C   LIG d   1       4.247  -2.550  -3.123  0.00  0.00    -0.061 A 
ATOM     48  H   LIG d   1       4.558  -1.598  -1.236  0.00  0.00     0.062 H 
ATOM     49  C   LIG d   1       4.019  -2.372  -4.472  0.00  0.00    -0.054 A 
ATOM     50  H   LIG d   1       4.313  -3.548  -2.715  0.00  0.00     0.062 H 
ATOM     51  H   LIG d   1       3.908  -3.229  -5.120  0.00  0.00     0.062 H 
BRANCH  44  52
ATOM     52  C   LIG d   1       4.453   1.017  -1.895  0.00  0.00     0.417 C 
ATOM     53  F   LIG d   1       3.287   1.789  -1.937  0.00  0.00    -0.166 F 
ATOM     54  F   LIG d   1       4.670   0.575  -0.585  0.00  0.00    -0.166 F 
ATOM     55  F   LIG d   1       5.540   1.791  -2.312  0.00  0.00    -0.166 F 
ENDBRANCH  44  52
ENDBRANCH  15  42
TORSDOF 3
ENDMDL
MODEL 3
REMARK VINA RESULT:      -8.5      3.323      6.535
REMARK  3 active torsions:
REMARK  status: ('A' for Active; 'I' for Inactive)
REMARK    1  A    between atoms: C_4  and  N_7 
REMARK       I    between atoms: N_7  and  C_8 
REMARK       I    between atoms: C_8  and  N_10 
REMARK    2  A    between atoms: C_21  and  C_26 
REMARK    3  A    between atoms: C_30  and  C_32 
ROOT
ATOM      1  N   LIG d   1       3.410  -0.861  -6.786  0.00  0.00    -0.269 N 
ATOM      2  C   LIG d   1       3.293  -0.169  -5.635  0.00  0.00     0.306 C 
ATOM      3  O   LIG d   1       3.168   1.040  -5.662  0.00  0.00    -0.252 OA
ATOM      4  N   LIG d   1       3.313  -0.818  -4.454  0.00  0.00    -0.284 N 
ATOM      5  C   LIG d   1       3.571  -2.261  -4.395  0.00  0.00     0.021 C 
ATOM      6  C   LIG d   1       4.668  -2.554  -3.373  0.00  0.00    -0.006 C 
ATOM      7  H   LIG d   1       4.683  -3.631  -3.210  0.00  0.00     0.033 H 
ATOM      8  C   LIG d   1       4.365  -1.876  -2.036  0.00  0.00    -0.037 C 
ATOM      9  C   LIG d   1       4.270  -0.367  -2.271  0.00  0.00     0.016 C 
ATOM     10  H   LIG d   1       4.143   0.163  -1.327  0.00  0.00     0.038 H 
ATOM     11  C   LIG d   1       3.070  -0.095  -3.194  0.00  0.00     0.024 C 
ATOM     12  C   LIG d   1       5.514   0.119  -2.977  0.00  0.00     0.027 C 
ATOM     13  C   LIG d   1       5.881   1.415  -2.770  0.00  0.00    -0.041 C 
ATOM     14  C   LIG d   1       6.979   1.961  -3.437  0.00  0.00    -0.047 C 
ATOM     15  C   LIG d   1       7.674   1.168  -4.336  0.00  0.00     0.047 C 
ATOM     16  C   LIG d   1       7.257  -0.169  -4.524  0.00  0.00     0.259 C 
ATOM     17  O   LIG d   1       7.812  -0.865  -5.358  0.00  0.00    -0.267 OA
ATOM     18  N   LIG d   1       6.244  -0.685  -3.784  0.00  0.00    -0.311 N 
ATOM     19  C   LIG d   1       6.040  -2.132  -3.866  0.00  0.00     0.031 C 
ATOM     20  H   LIG d   1       3.440  -1.831  -6.768  0.00  0.00     0.156 HD
ATOM     21  H   LIG d   1       2.658  -2.780  -4.106  0.00  0.00     0.047 H 
ATOM     22  H   LIG d   1       3.889  -2.612  -5.377  0.00  0.00     0.047 H 
ATOM     23  H   LIG d   1       5.167  -2.088  -1.328  0.00  0.00     0.028 H 
ATOM     24  H   LIG d   1       3.419  -2.247  -1.642  0.00  0.00     0.028 H 
ATOM     25  H   LIG d   1       2.988   0.974  -3.391  0.00  0.00     0.047 H 
ATOM     26  H   LIG d   1       2.153  -0.458  -2.730  0.00  0.00     0.047 H 
ATOM     27  H   LIG d   1       5.317   2.026  -2.082  0.00  0.00     0.064 H 
ATOM     28  H   LIG d   1       7.281   2.982  -3.256  0.00  0.00     0.063 H 
ATOM     29  H   LIG d   1       6.154  -2.446  -4.904  0.00  0.00     0.050 H 
ATOM     30  H   LIG d   1       6.800  -2.630  -3.264  0.00  0.00     0.050 H 
ENDROOT
BRANCH   1  31
ATOM     31  C   LIG d   1       3.491  -0.180  -8.006  0.00  0.00     0.035 A 
ATOM     32  C   LIG d   1       4.665   0.468  -8.365  0.00  0.00    -0.040 A 
ATOM     33  C   LIG d   1       4.743   1.135  -9.572  0.00  0.00    -0.060 A 
ATOM     34  H   LIG d   1       5.518   0.449  -7.702  0.00  0.00     0.064 H 
ATOM     35  C   LIG d   1       3.650   1.165 -10.418  0.00  0.00    -0.062 A 
ATOM     36  H   LIG d   1       5.657   1.636  -9.853  0.00  0.00     0.062 H 
ATOM     37  C   LIG d   1       2.480   0.519 -10.064  0.00  0.00    -0.060 A 
ATOM     38  H   LIG d   1       3.712   1.690 -11.360  0.00  0.00     0.062 H 
ATOM     39  C   LIG d   1       2.397  -0.153  -8.860  0.00  0.00    -0.040 A 
ATOM     40  H   LIG d   1       1.629   0.541 -10.729  0.00  0.00     0.062 H 
ATOM     41  H   LIG d   1       1.482  -0.656  -8.584  0.00  0.00     0.064 H 
ENDBRANCH   1  31
BRANCH  15  42
ATOM     42  C   LIG d   1       8.831   1.709  -5.086  0.00  0.00    -0.012 A 
ATOM     43  C   LIG d   1       8.628   2.425  -6.266  0.00  0.00    -0.042 A 
ATOM     44  C   LIG d   1       9.709   2.926  -6.960  0.00  0.00     0.055 A 
ATOM     45  H   LIG d   1       7.625   2.587  -6.635  0.00  0.00     0.063 H 
ATOM     46  C   LIG d   1      10.993   2.722  -6.488  0.00  0.00    -0.050 A 
ATOM     47  C   LIG d   1      11.201   2.012  -5.319  0.00  0.00    -0.061 A 
ATOM     48  H   LIG d   1      11.836   3.117  -7.034  0.00  0.00     0.062 H 
ATOM     49  C   LIG d   1      10.128   1.510  -4.613  0.00  0.00    -0.054 A 
ATOM     50  H   LIG d   1      12.206   1.855  -4.955  0.00  0.00     0.062 H 
ATOM     51  H   LIG d   1      10.291   0.959  -3.698  0.00  0.00     0.062 H 
BRANCH  44  52
ATOM     52  C   LIG d   1       9.491   3.700  -8.235  0.00  0.00     0.417 C 
ATOM     53  F   LIG d   1      10.589   3.523  -9.083  0.00  0.00    -0.166 F 
ATOM     54  F   LIG d   1       8.333   3.236  -8.869  0.00  0.00    -0.166 F 
ATOM     55  F   LIG d   1       9.346   5.059  -7.937  0.00  0.00    -0.166 F 
ENDBRANCH  44  52
ENDBRANCH  15  42
TORSDOF 3
ENDMDL
MODEL 4
REMARK VINA RESULT:      -8.3      4.287      6.706
REMARK  3 active torsions:
REMARK  status: ('A' for Active; 'I' for Inactive)
REMARK    1  A    between atoms: C_4  and  N_7 
REMARK       I    between atoms: N_7  and  C_8 
REMARK       I    between atoms: C_8  and  N_10 
REMARK    2  A    between atoms: C_21  and  C_26 
REMARK    3  A    between atoms: C_30  and  C_32 
ROOT
ATOM      1  N   LIG d   1       3.056  -0.216  -6.366  0.00  0.00    -0.269 N 
ATOM      2  C   LIG d   1       4.209   0.077  -5.733  0.00  0.00     0.306 C 
ATOM      3  O   LIG d   1       5.219   0.290  -6.377  0.00  0.00    -0.252 OA
ATOM      4  N   LIG d   1       4.244   0.135  -4.387  0.00  0.00    -0.284 N 
ATOM      5  C   LIG d   1       3.066  -0.225  -3.590  0.00  0.00     0.021 C 
ATOM      6  C   LIG d   1       3.456  -1.224  -2.503  0.00  0.00    -0.006 C 
ATOM      7  H   LIG d   1       2.614  -1.303  -1.816  0.00  0.00     0.033 H 
ATOM      8  C   LIG d   1       4.668  -0.728  -1.714  0.00  0.00    -0.037 C 
ATOM      9  C   LIG d   1       5.835  -0.545  -2.687  0.00  0.00     0.016 C 
ATOM     10  H   LIG d   1       6.746  -0.277  -2.151  0.00  0.00     0.038 H 
ATOM     11  C   LIG d   1       5.464   0.566  -3.684  0.00  0.00     0.024 C 
ATOM     12  C   LIG d   1       6.049  -1.816  -3.473  0.00  0.00     0.027 C 
ATOM     13  C   LIG d   1       7.309  -2.060  -3.932  0.00  0.00    -0.041 C 
ATOM     14  C   LIG d   1       7.577  -3.178  -4.723  0.00  0.00    -0.047 C 
ATOM     15  C   LIG d   1       6.531  -4.024  -5.056  0.00  0.00     0.047 C 
ATOM     16  C   LIG d   1       5.239  -3.733  -4.562  0.00  0.00     0.259 C 
ATOM     17  O   LIG d   1       4.293  -4.426  -4.895  0.00  0.00    -0.267 OA
ATOM     18  N   LIG d   1       5.044  -2.688  -3.719  0.00  0.00    -0.311 N 
ATOM     19  C   LIG d   1       3.737  -2.605  -3.066  0.00  0.00     0.031 C 
ATOM     20  H   LIG d   1       2.236  -0.317  -5.857  0.00  0.00     0.156 HD
ATOM     21  H   LIG d   1       2.655   0.673  -3.129  0.00  0.00     0.047 H 
ATOM     22  H   LIG d   1       2.313  -0.672  -4.239  0.00  0.00     0.047 H 
ATOM     23  H   LIG d   1       4.936  -1.463  -0.953  0.00  0.00     0.028 H 
ATOM     24  H   LIG d   1       4.433   0.224  -1.239  0.00  0.00     0.028 H 
ATOM     25  H   LIG d   1       6.273   0.708  -4.400  0.00  0.00     0.047 H 
ATOM     26  H   LIG d   1       5.274   1.497  -3.150  0.00  0.00     0.047 H 
ATOM     27  H   LIG d   1       8.109  -1.379  -3.681  0.00  0.00     0.064 H 
ATOM     28  H   LIG d   1       8.580  -3.381  -5.069  0.00  0.00     0.063 H 
ATOM     29  H   LIG d   1       2.964  -2.853  -3.794  0.00  0.00     0.050 H 
ATOM     30  H   LIG d   1       3.701  -3.331  -2.255  0.00  0.00     0.050 H 
ENDROOT
BRANCH   1  31
ATOM     31  C   LIG d   1       3.041  -0.376  -7.756  0.00  0.00     0.035 A 
ATOM     32  C   LIG d   1       3.273  -1.625  -8.316  0.00  0.00    -0.040 A 
ATOM     33  C   LIG d   1       3.253  -1.780  -9.688  0.00  0.00    -0.060 A 
ATOM     34  H   LIG d   1       3.466  -2.476  -7.678  0.00  0.00     0.064 H 
ATOM     35  C   LIG d   1       3.012  -0.691 -10.504  0.00  0.00    -0.062 A 
ATOM     36  H   LIG d   1       3.430  -2.752 -10.123  0.00  0.00     0.062 H 
ATOM     37  C   LIG d   1       2.779   0.555  -9.950  0.00  0.00    -0.060 A 
ATOM     38  H   LIG d   1       3.001  -0.814 -11.577  0.00  0.00     0.062 H 
ATOM     39  C   LIG d   1       2.793   0.715  -8.578  0.00  0.00    -0.040 A 
ATOM     40  H   LIG d   1       2.587   1.403 -10.591  0.00  0.00     0.062 H 
ATOM     41  H   LIG d   1       2.612   1.689  -8.146  0.00  0.00     0.064 H 
ENDBRANCH   1  31
BRANCH  15  42
ATOM     42  C   LIG d   1       6.761  -5.211  -5.913  0.00  0.00    -0.012 A 
ATOM     43  C   LIG d   1       6.933  -6.468  -5.335  0.00  0.00    -0.042 A 
ATOM     44  C   LIG d   1       7.148  -7.569  -6.138  0.00  0.00     0.055 A 
ATOM     45  H   LIG d   1       6.898  -6.580  -4.261  0.00  0.00     0.063 H 
ATOM     46  C   LIG d   1       7.190  -7.429  -7.513  0.00  0.00    -0.050 A 
ATOM     47  C   LIG d   1       7.021  -6.184  -8.092  0.00  0.00    -0.061 A 
ATOM     48  H   LIG d   1       7.358  -8.294  -8.137  0.00  0.00     0.062 H 
ATOM     49  C   LIG d   1       6.801  -5.076  -7.301  0.00  0.00    -0.054 A 
ATOM     50  H   LIG d   1       7.055  -6.079  -9.166  0.00  0.00     0.062 H 
ATOM     51  H   LIG d   1       6.665  -4.105  -7.754  0.00  0.00     0.062 H 
BRANCH  44  52
ATOM     52  C   LIG d   1       7.334  -8.929  -5.514  0.00  0.00     0.417 C 
ATOM     53  F   LIG d   1       7.010  -8.867  -4.155  0.00  0.00    -0.166 F 
ATOM     54  F   LIG d   1       6.496  -9.852  -6.151  0.00  0.00    -0.166 F 
ATOM     55  F   LIG d   1       8.665  -9.331  -5.659  0.00  0.00    -0.166 F 
ENDBRANCH  44  52
ENDBRANCH  15  42
TORSDOF 3
ENDMDL
MODEL 5
REMARK VINA RESULT:      -8.3      3.376      5.985
REMARK  3 active torsions:
REMARK  status: ('A' for Active; 'I' for Inactive)
REMARK    1  A    between atoms: C_4  and  N_7 
REMARK       I    between atoms: N_7  and  C_8 
REMARK       I    between atoms: C_8  and  N_10 
REMARK    2  A    between atoms: C_21  and  C_26 
REMARK    3  A    between atoms: C_30  and  C_32 
ROOT
ATOM      1  N   LIG d   1       2.956  -0.388  -6.440  0.00  0.00    -0.269 N 
ATOM      2  C   LIG d   1       4.075  -0.006  -5.792  0.00  0.00     0.306 C 
ATOM      3  O   LIG d   1       5.073   0.283  -6.422  0.00  0.00    -0.252 OA
ATOM      4  N   LIG d   1       4.085   0.056  -4.446  0.00  0.00    -0.284 N 
ATOM      5  C   LIG d   1       2.927  -0.393  -3.665  0.00  0.00     0.021 C 
ATOM      6  C   LIG d   1       3.378  -1.359  -2.570  0.00  0.00    -0.006 C 
ATOM      7  H   LIG d   1       2.535  -1.502  -1.895  0.00  0.00     0.033 H 
ATOM      8  C   LIG d   1       4.536  -0.770  -1.765  0.00  0.00    -0.037 C 
ATOM      9  C   LIG d   1       5.700  -0.498  -2.722  0.00  0.00     0.016 C 
ATOM     10  H   LIG d   1       6.579  -0.160  -2.173  0.00  0.00     0.038 H 
ATOM     11  C   LIG d   1       5.258   0.580  -3.726  0.00  0.00     0.024 C 
ATOM     12  C   LIG d   1       6.022  -1.750  -3.502  0.00  0.00     0.027 C 
ATOM     13  C   LIG d   1       7.303  -1.897  -3.943  0.00  0.00    -0.041 C 
ATOM     14  C   LIG d   1       7.668  -2.992  -4.728  0.00  0.00    -0.047 C 
ATOM     15  C   LIG d   1       6.695  -3.916  -5.074  0.00  0.00     0.047 C 
ATOM     16  C   LIG d   1       5.378  -3.724  -4.599  0.00  0.00     0.259 C 
ATOM     17  O   LIG d   1       4.493  -4.489  -4.944  0.00  0.00    -0.267 OA
ATOM     18  N   LIG d   1       5.091  -2.697  -3.761  0.00  0.00    -0.311 N 
ATOM     19  C   LIG d   1       3.772  -2.714  -3.127  0.00  0.00     0.031 C 
ATOM     20  H   LIG d   1       2.139  -0.551  -5.942  0.00  0.00     0.156 HD
ATOM     21  H   LIG d   1       2.442   0.470  -3.211  0.00  0.00     0.047 H 
ATOM     22  H   LIG d   1       2.221  -0.898  -4.324  0.00  0.00     0.047 H 
ATOM     23  H   LIG d   1       4.849  -1.481  -0.999  0.00  0.00     0.028 H 
ATOM     24  H   LIG d   1       4.222   0.161  -1.295  0.00  0.00     0.028 H 
ATOM     25  H   LIG d   1       6.064   0.783  -4.431  0.00  0.00     0.047 H 
ATOM     26  H   LIG d   1       4.989   1.494  -3.197  0.00  0.00     0.047 H 
ATOM     27  H   LIG d   1       8.045  -1.156  -3.682  0.00  0.00     0.064 H 
ATOM     28  H   LIG d   1       8.688  -3.116  -5.059  0.00  0.00     0.063 H 
ATOM     29  H   LIG d   1       3.030  -3.022  -3.864  0.00  0.00     0.050 H 
ATOM     30  H   LIG d   1       3.781  -3.440  -2.314  0.00  0.00     0.050 H 
ENDROOT
BRANCH   1  31
ATOM     31  C   LIG d   1       2.974  -0.549  -7.830  0.00  0.00     0.035 A 
ATOM     32  C   LIG d   1       3.396  -1.750  -8.386  0.00  0.00    -0.040 A 
ATOM     33  C   LIG d   1       3.408  -1.907  -9.758  0.00  0.00    -0.060 A 
ATOM     34  H   LIG d   1       3.713  -2.560  -7.746  0.00  0.00     0.064 H 
ATOM     35  C   LIG d   1       3.007  -0.869 -10.578  0.00  0.00    -0.062 A 
ATOM     36  H   LIG d   1       3.733  -2.842 -10.191  0.00  0.00     0.062 H 
ATOM     37  C   LIG d   1       2.585   0.328 -10.027  0.00  0.00    -0.060 A 
ATOM     38  H   LIG d   1       3.021  -0.993 -11.651  0.00  0.00     0.062 H 
ATOM     39  C   LIG d   1       2.567   0.490  -8.656  0.00  0.00    -0.040 A 
ATOM     40  H   LIG d   1       2.269   1.136 -10.671  0.00  0.00     0.062 H 
ATOM     41  H   LIG d   1       2.237   1.425  -8.227  0.00  0.00     0.064 H 
ENDBRANCH   1  31
BRANCH  15  42
ATOM     42  C   LIG d   1       7.028  -5.082  -5.925  0.00  0.00    -0.012 A 
ATOM     43  C   LIG d   1       6.872  -5.006  -7.309  0.00  0.00    -0.042 A 
ATOM     44  C   LIG d   1       7.183  -6.096  -8.095  0.00  0.00     0.055 A 
ATOM     45  H   LIG d   1       6.509  -4.096  -7.763  0.00  0.00     0.063 H 
ATOM     46  C   LIG d   1       7.650  -7.261  -7.515  0.00  0.00    -0.050 A 
ATOM     47  C   LIG d   1       7.805  -7.343  -6.143  0.00  0.00    -0.061 A 
ATOM     48  H   LIG d   1       7.892  -8.111  -8.136  0.00  0.00     0.062 H 
ATOM     49  C   LIG d   1       7.503  -6.259  -5.346  0.00  0.00    -0.054 A 
ATOM     50  H   LIG d   1       8.170  -8.255  -5.695  0.00  0.00     0.062 H 
ATOM     51  H   LIG d   1       7.628  -6.323  -4.275  0.00  0.00     0.062 H 
BRANCH  44  52
ATOM     52  C   LIG d   1       7.016  -6.014  -9.591  0.00  0.00     0.417 C 
ATOM     53  F   LIG d   1       6.703  -7.281 -10.095  0.00  0.00    -0.166 F 
ATOM     54  F   LIG d   1       5.980  -5.124  -9.897  0.00  0.00    -0.166 F 
ATOM     55  F   LIG d   1       8.205  -5.563 -10.170  0.00  0.00    -0.166 F 
ENDBRANCH  44  52
ENDBRANCH  15  42
TORSDOF 3
ENDMDL
MODEL 6
REMARK VINA RESULT:      -8.2      4.573      7.468
REMARK  3 active torsions:
REMARK  status: ('A' for Active; 'I' for Inactive)
REMARK    1  A    between atoms: C_4  and  N_7 
REMARK       I    between atoms: N_7  and  C_8 
REMARK       I    between atoms: C_8  and  N_10 
REMARK    2  A    between atoms: C_21  and  C_26 
REMARK    3  A    between atoms: C_30  and  C_32 
ROOT
ATOM      1  N   LIG d   1       3.612  -0.971  -6.874  0.00  0.00    -0.269 N 
ATOM      2  C   LIG d   1       3.412  -0.260  -5.746  0.00  0.00     0.306 C 
ATOM      3  O   LIG d   1       3.262   0.945  -5.805  0.00  0.00    -0.252 OA
ATOM      4  N   LIG d   1       3.377  -0.885  -4.552  0.00  0.00    -0.284 N 
ATOM      5  C   LIG d   1       3.663  -2.321  -4.449  0.00  0.00     0.021 C 
ATOM      6  C   LIG d   1       4.705  -2.568  -3.359  0.00  0.00    -0.006 C 
ATOM      7  H   LIG d   1       4.734  -3.641  -3.174  0.00  0.00     0.033 H 
ATOM      8  C   LIG d   1       4.309  -1.872  -2.057  0.00  0.00    -0.037 C 
ATOM      9  C   LIG d   1       4.195  -0.370  -2.328  0.00  0.00     0.016 C 
ATOM     10  H   LIG d   1       4.001   0.175  -1.404  0.00  0.00     0.038 H 
ATOM     11  C   LIG d   1       3.045  -0.144  -3.324  0.00  0.00     0.024 C 
ATOM     12  C   LIG d   1       5.467   0.131  -2.971  0.00  0.00     0.027 C 
ATOM     13  C   LIG d   1       5.793   1.439  -2.769  0.00  0.00    -0.041 C 
ATOM     14  C   LIG d   1       6.915   1.997  -3.382  0.00  0.00    -0.047 C 
ATOM     15  C   LIG d   1       7.679   1.203  -4.223  0.00  0.00     0.047 C 
ATOM     16  C   LIG d   1       7.303  -0.147  -4.407  0.00  0.00     0.259 C 
ATOM     17  O   LIG d   1       7.922  -0.846  -5.193  0.00  0.00    -0.267 OA
ATOM     18  N   LIG d   1       6.260  -0.671  -3.717  0.00  0.00    -0.311 N 
ATOM     19  C   LIG d   1       6.093  -2.124  -3.780  0.00  0.00     0.031 C 
ATOM     20  H   LIG d   1       3.661  -1.939  -6.834  0.00  0.00     0.156 HD
ATOM     21  H   LIG d   1       2.746  -2.855  -4.203  0.00  0.00     0.047 H 
ATOM     22  H   LIG d   1       4.046  -2.682  -5.403  0.00  0.00     0.047 H 
ATOM     23  H   LIG d   1       5.073  -2.051  -1.298  0.00  0.00     0.028 H 
ATOM     24  H   LIG d   1       3.350  -2.256  -1.711  0.00  0.00     0.028 H 
ATOM     25  H   LIG d   1       2.951   0.919  -3.547  0.00  0.00     0.047 H 
ATOM     26  H   LIG d   1       2.111  -0.519  -2.906  0.00  0.00     0.047 H 
ATOM     27  H   LIG d   1       5.176   2.049  -2.127  0.00  0.00     0.064 H 
ATOM     28  H   LIG d   1       7.184   3.028  -3.205  0.00  0.00     0.063 H 
ATOM     29  H   LIG d   1       6.274  -2.455  -4.803  0.00  0.00     0.050 H 
ATOM     30  H   LIG d   1       6.827  -2.592  -3.125  0.00  0.00     0.050 H 
ENDROOT
BRANCH   1  31
ATOM     31  C   LIG d   1       3.748  -0.312  -8.101  0.00  0.00     0.035 A 
ATOM     32  C   LIG d   1       4.950   0.299  -8.432  0.00  0.00    -0.040 A 
ATOM     33  C   LIG d   1       5.084   0.944  -9.646  0.00  0.00    -0.060 A 
ATOM     34  H   LIG d   1       5.782   0.268  -7.743  0.00  0.00     0.064 H 
ATOM     35  C   LIG d   1       4.019   0.989 -10.527  0.00  0.00    -0.062 A 
ATOM     36  H   LIG d   1       6.019   1.417  -9.906  0.00  0.00     0.062 H 
ATOM     37  C   LIG d   1       2.821   0.381 -10.200  0.00  0.00    -0.060 A 
ATOM     38  H   LIG d   1       4.124   1.498 -11.474  0.00  0.00     0.062 H 
ATOM     39  C   LIG d   1       2.683  -0.270  -8.990  0.00  0.00    -0.040 A 
ATOM     40  H   LIG d   1       1.992   0.414 -10.892  0.00  0.00     0.062 H 
ATOM     41  H   LIG d   1       1.746  -0.744  -8.735  0.00  0.00     0.064 H 
ENDBRANCH   1  31
BRANCH  15  42
ATOM     42  C   LIG d   1       8.866   1.756  -4.916  0.00  0.00    -0.012 A 
ATOM     43  C   LIG d   1      10.117   1.718  -4.300  0.00  0.00    -0.042 A 
ATOM     44  C   LIG d   1      11.218   2.236  -4.950  0.00  0.00     0.055 A 
ATOM     45  H   LIG d   1      10.223   1.283  -3.317  0.00  0.00     0.063 H 
ATOM     46  C   LIG d   1      11.084   2.791  -6.209  0.00  0.00    -0.050 A 
ATOM     47  C   LIG d   1       9.846   2.833  -6.825  0.00  0.00    -0.061 A 
ATOM     48  H   LIG d   1      11.949   3.195  -6.714  0.00  0.00     0.062 H 
ATOM     49  C   LIG d   1       8.738   2.314  -6.188  0.00  0.00    -0.054 A 
ATOM     50  H   LIG d   1       9.747   3.268  -7.808  0.00  0.00     0.062 H 
ATOM     51  H   LIG d   1       7.772   2.344  -6.671  0.00  0.00     0.062 H 
BRANCH  44  52
ATOM     52  C   LIG d   1      12.570   2.194  -4.286  0.00  0.00     0.417 C 
ATOM     53  F   LIG d   1      12.612   1.130  -3.378  0.00  0.00    -0.166 F 
ATOM     54  F   LIG d   1      13.561   2.016  -5.257  0.00  0.00    -0.166 F 
ATOM     55  F   LIG d   1      12.794   3.395  -3.606  0.00  0.00    -0.166 F 
ENDBRANCH  44  52
ENDBRANCH  15  42
TORSDOF 3
ENDMDL
MODEL 7
REMARK VINA RESULT:      -8.1      1.956      4.945
REMARK  3 active torsions:
REMARK  status: ('A' for Active; 'I' for Inactive)
REMARK    1  A    between atoms: C_4  and  N_7 
REMARK       I    between atoms: N_7  and  C_8 
REMARK       I    between atoms: C_8  and  N_10 
REMARK    2  A    between atoms: C_21  and  C_26 
REMARK    3  A    between atoms: C_30  and  C_32 
ROOT
ATOM      1  N   LIG d   1       7.603  -0.286  -3.988  0.00  0.00    -0.269 N 
ATOM      2  C   LIG d   1       7.902   0.827  -4.688  0.00  0.00     0.306 C 
ATOM      3  O   LIG d   1       7.166   1.794  -4.636  0.00  0.00    -0.252 OA
ATOM      4  N   LIG d   1       9.015   0.868  -5.446  0.00  0.00    -0.284 N 
ATOM      5  C   LIG d   1       9.856  -0.324  -5.608  0.00  0.00     0.021 C 
ATOM      6  C   LIG d   1      10.131  -0.570  -7.090  0.00  0.00    -0.006 C 
ATOM      7  H   LIG d   1      10.915  -1.324  -7.156  0.00  0.00     0.033 H 
ATOM      8  C   LIG d   1      10.638   0.701  -7.772  0.00  0.00    -0.037 C 
ATOM      9  C   LIG d   1       9.571   1.788  -7.620  0.00  0.00     0.016 C 
ATOM     10  H   LIG d   1       9.854   2.686  -8.170  0.00  0.00     0.038 H 
ATOM     11  C   LIG d   1       9.418   2.111  -6.124  0.00  0.00     0.024 C 
ATOM     12  C   LIG d   1       8.242   1.272  -8.118  0.00  0.00     0.027 C 
ATOM     13  C   LIG d   1       7.355   2.190  -8.594  0.00  0.00    -0.041 C 
ATOM     14  C   LIG d   1       6.081   1.803  -9.011  0.00  0.00    -0.047 C 
ATOM     15  C   LIG d   1       5.723   0.469  -8.906  0.00  0.00     0.047 C 
ATOM     16  C   LIG d   1       6.671  -0.450  -8.403  0.00  0.00     0.259 C 
ATOM     17  O   LIG d   1       6.355  -1.617  -8.241  0.00  0.00    -0.267 OA
ATOM     18  N   LIG d   1       7.929  -0.045  -8.100  0.00  0.00    -0.311 N 
ATOM     19  C   LIG d   1       8.909  -1.095  -7.821  0.00  0.00     0.031 C 
ATOM     20  H   LIG d   1       8.225  -1.031  -3.975  0.00  0.00     0.156 HD
ATOM     21  H   LIG d   1      10.800  -0.174  -5.084  0.00  0.00     0.047 H 
ATOM     22  H   LIG d   1       9.344  -1.188  -5.187  0.00  0.00     0.047 H 
ATOM     23  H   LIG d   1      10.815   0.505  -8.830  0.00  0.00     0.028 H 
ATOM     24  H   LIG d   1      11.564   1.028  -7.299  0.00  0.00     0.028 H 
ATOM     25  H   LIG d   1       8.652   2.874  -5.986  0.00  0.00     0.047 H 
ATOM     26  H   LIG d   1      10.367   2.462  -5.720  0.00  0.00     0.047 H 
ATOM     27  H   LIG d   1       7.643   3.230  -8.650  0.00  0.00     0.064 H 
ATOM     28  H   LIG d   1       5.387   2.530  -9.408  0.00  0.00     0.063 H 
ATOM     29  H   LIG d   1       8.437  -1.865  -7.211  0.00  0.00     0.050 H 
ATOM     30  H   LIG d   1       9.226  -1.540  -8.764  0.00  0.00     0.050 H 
ENDROOT
BRANCH   1  31
ATOM     31  C   LIG d   1       6.398  -0.366  -3.282  0.00  0.00     0.035 A 
ATOM     32  C   LIG d   1       5.854   0.773  -2.703  0.00  0.00    -0.040 A 
ATOM     33  C   LIG d   1       4.661   0.691  -2.011  0.00  0.00    -0.060 A 
ATOM     34  H   LIG d   1       6.360   1.722  -2.796  0.00  0.00     0.064 H 
ATOM     35  C   LIG d   1       4.014  -0.524  -1.887  0.00  0.00    -0.062 A 
ATOM     36  H   LIG d   1       4.236   1.577  -1.563  0.00  0.00     0.062 H 
ATOM     37  C   LIG d   1       4.553  -1.660  -2.463  0.00  0.00    -0.060 A 
ATOM     38  H   LIG d   1       3.084  -0.586  -1.342  0.00  0.00     0.062 H 
ATOM     39  C   LIG d   1       5.743  -1.584  -3.161  0.00  0.00    -0.040 A 
ATOM     40  H   LIG d   1       4.043  -2.607  -2.368  0.00  0.00     0.062 H 
ATOM     41  H   LIG d   1       6.163  -2.472  -3.610  0.00  0.00     0.064 H 
ENDBRANCH   1  31
BRANCH  15  42
ATOM     42  C   LIG d   1       4.373   0.014  -9.313  0.00  0.00    -0.012 A 
ATOM     43  C   LIG d   1       4.157  -0.475 -10.601  0.00  0.00    -0.042 A 
ATOM     44  C   LIG d   1       2.898  -0.896 -10.974  0.00  0.00     0.055 A 
ATOM     45  H   LIG d   1       4.975  -0.523 -11.305  0.00  0.00     0.063 H 
ATOM     46  C   LIG d   1       1.850  -0.837 -10.073  0.00  0.00    -0.050 A 
ATOM     47  C   LIG d   1       2.058  -0.354  -8.794  0.00  0.00    -0.061 A 
ATOM     48  H   LIG d   1       0.867  -1.169 -10.370  0.00  0.00     0.062 H 
ATOM     49  C   LIG d   1       3.313   0.067  -8.407  0.00  0.00    -0.054 A 
ATOM     50  H   LIG d   1       1.236  -0.310  -8.095  0.00  0.00     0.062 H 
ATOM     51  H   LIG d   1       3.474   0.441  -7.407  0.00  0.00     0.062 H 
BRANCH  44  52
ATOM     52  C   LIG d   1       2.664  -1.425 -12.367  0.00  0.00     0.417 C 
ATOM     53  F   LIG d   1       1.309  -1.302 -12.691  0.00  0.00    -0.166 F 
ATOM     54  F   LIG d   1       3.429  -0.688 -13.279  0.00  0.00    -0.166 F 
ATOM     55  F   LIG d   1       3.038  -2.771 -12.424  0.00  0.00    -0.166 F 
ENDBRANCH  44  52
ENDBRANCH  15  42
TORSDOF 3
ENDMDL
MODEL 8
REMARK VINA RESULT:      -8.0      4.369      7.284
REMARK  3 active torsions:
REMARK  status: ('A' for Active; 'I' for Inactive)
REMARK    1  A    between atoms: C_4  and  N_7 
REMARK       I    between atoms: N_7  and  C_8 
REMARK       I    between atoms: C_8  and  N_10 
REMARK    2  A    between atoms: C_21  and  C_26 
REMARK    3  A    between atoms: C_30  and  C_32 
ROOT
ATOM      1  N   LIG d   1       3.946  -1.590  -5.643  0.00  0.00    -0.269 N 
ATOM      2  C   LIG d   1       4.915  -2.305  -6.249  0.00  0.00     0.306 C 
ATOM      3  O   LIG d   1       5.909  -2.629  -5.629  0.00  0.00    -0.252 OA
ATOM      4  N   LIG d   1       4.781  -2.661  -7.542  0.00  0.00    -0.284 N 
ATOM      5  C   LIG d   1       3.641  -2.188  -8.336  0.00  0.00     0.021 C 
ATOM      6  C   LIG d   1       4.135  -1.587  -9.650  0.00  0.00    -0.006 C 
ATOM      7  H   LIG d   1       3.265  -1.441 -10.290  0.00  0.00     0.033 H 
ATOM      8  C   LIG d   1       5.093  -2.541 -10.363  0.00  0.00    -0.037 C 
ATOM      9  C   LIG d   1       6.284  -2.808  -9.439  0.00  0.00     0.016 C 
ATOM     10  H   LIG d   1       7.036  -3.415  -9.945  0.00  0.00     0.038 H 
ATOM     11  C   LIG d   1       5.771  -3.539  -8.187  0.00  0.00     0.024 C 
ATOM     12  C   LIG d   1       6.888  -1.497  -8.993  0.00  0.00     0.027 C 
ATOM     13  C   LIG d   1       8.213  -1.498  -8.675  0.00  0.00    -0.041 C 
ATOM     14  C   LIG d   1       8.831  -0.345  -8.191  0.00  0.00    -0.047 C 
ATOM     15  C   LIG d   1       8.066   0.797  -8.014  0.00  0.00     0.047 C 
ATOM     16  C   LIG d   1       6.695   0.753  -8.352  0.00  0.00     0.259 C 
ATOM     17  O   LIG d   1       5.989   1.726  -8.144  0.00  0.00    -0.267 OA
ATOM     18  N   LIG d   1       6.158  -0.361  -8.909  0.00  0.00    -0.311 N 
ATOM     19  C   LIG d   1       4.804  -0.239  -9.450  0.00  0.00     0.031 C 
ATOM     20  H   LIG d   1       3.122  -1.391  -6.116  0.00  0.00     0.156 HD
ATOM     21  H   LIG d   1       2.976  -3.025  -8.546  0.00  0.00     0.047 H 
ATOM     22  H   LIG d   1       3.099  -1.429  -7.773  0.00  0.00     0.047 H 
ATOM     23  H   LIG d   1       5.442  -2.086 -11.291  0.00  0.00     0.028 H 
ATOM     24  H   LIG d   1       4.582  -3.479 -10.583  0.00  0.00     0.028 H 
ATOM     25  H   LIG d   1       6.599  -3.728  -7.503  0.00  0.00     0.047 H 
ATOM     26  H   LIG d   1       5.303  -4.481  -8.471  0.00  0.00     0.047 H 
ATOM     27  H   LIG d   1       8.791  -2.402  -8.800  0.00  0.00     0.064 H 
ATOM     28  H   LIG d   1       9.887  -0.342  -7.959  0.00  0.00     0.063 H 
ATOM     29  H   LIG d   1       4.202   0.355  -8.763  0.00  0.00     0.050 H 
ATOM     30  H   LIG d   1       4.853   0.277 -10.409  0.00  0.00     0.050 H 
ENDROOT
BRANCH   1  31
ATOM     31  C   LIG d   1       4.129  -1.134  -4.333  0.00  0.00     0.035 A 
ATOM     32  C   LIG d   1       4.489   0.187  -4.099  0.00  0.00    -0.040 A 
ATOM     33  C   LIG d   1       4.663   0.635  -2.805  0.00  0.00    -0.060 A 
ATOM     34  H   LIG d   1       4.629   0.864  -4.929  0.00  0.00     0.064 H 
ATOM     35  C   LIG d   1       4.490  -0.232  -1.742  0.00  0.00    -0.062 A 
ATOM     36  H   LIG d   1       4.940   1.663  -2.623  0.00  0.00     0.062 H 
ATOM     37  C   LIG d   1       4.131  -1.548  -1.971  0.00  0.00    -0.060 A 
ATOM     38  H   LIG d   1       4.631   0.120  -0.731  0.00  0.00     0.062 H 
ATOM     39  C   LIG d   1       3.949  -2.001  -3.263  0.00  0.00    -0.040 A 
ATOM     40  H   LIG d   1       3.991  -2.222  -1.138  0.00  0.00     0.062 H 
ATOM     41  H   LIG d   1       3.670  -3.029  -3.441  0.00  0.00     0.064 H 
ENDBRANCH   1  31
BRANCH  15  42
ATOM     42  C   LIG d   1       8.672   2.039  -7.480  0.00  0.00    -0.012 A 
ATOM     43  C   LIG d   1       8.803   2.218  -6.103  0.00  0.00    -0.042 A 
ATOM     44  C   LIG d   1       9.368   3.377  -5.612  0.00  0.00     0.055 A 
ATOM     45  H   LIG d   1       8.464   1.450  -5.423  0.00  0.00     0.063 H 
ATOM     46  C   LIG d   1       9.805   4.360  -6.482  0.00  0.00    -0.050 A 
ATOM     47  C   LIG d   1       9.676   4.188  -7.848  0.00  0.00    -0.061 A 
ATOM     48  H   LIG d   1      10.246   5.265  -6.092  0.00  0.00     0.062 H 
ATOM     49  C   LIG d   1       9.118   3.032  -8.352  0.00  0.00    -0.054 A 
ATOM     50  H   LIG d   1      10.019   4.959  -8.523  0.00  0.00     0.062 H 
ATOM     51  H   LIG d   1       9.021   2.897  -9.420  0.00  0.00     0.062 H 
BRANCH  44  52
ATOM     52  C   LIG d   1       9.511   3.571  -4.124  0.00  0.00     0.417 C 
ATOM     53  F   LIG d   1       8.616   2.730  -3.455  0.00  0.00    -0.166 F 
ATOM     54  F   LIG d   1      10.819   3.260  -3.737  0.00  0.00    -0.166 F 
ATOM     55  F   LIG d   1       9.233   4.902  -3.798  0.00  0.00    -0.166 F 
ENDBRANCH  44  52
ENDBRANCH  15  42
TORSDOF 3
ENDMDL
MODEL 9
REMARK VINA RESULT:      -8.0      2.259      4.684
REMARK  3 active torsions:
REMARK  status: ('A' for Active; 'I' for Inactive)
REMARK    1  A    between atoms: C_4  and  N_7 
REMARK       I    between atoms: N_7  and  C_8 
REMARK       I    between atoms: C_8  and  N_10 
REMARK    2  A    between atoms: C_21  and  C_26 
REMARK    3  A    between atoms: C_30  and  C_32 
ROOT
ATOM      1  N   LIG d   1       6.428  -4.051  -5.078  0.00  0.00    -0.269 N 
ATOM      2  C   LIG d   1       5.388  -3.457  -4.459  0.00  0.00     0.306 C 
ATOM      3  O   LIG d   1       4.255  -3.846  -4.667  0.00  0.00    -0.252 OA
ATOM      4  N   LIG d   1       5.604  -2.433  -3.611  0.00  0.00    -0.284 N 
ATOM      5  C   LIG d   1       6.951  -1.879  -3.431  0.00  0.00     0.021 C 
ATOM      6  C   LIG d   1       6.915  -0.360  -3.584  0.00  0.00    -0.006 C 
ATOM      7  H   LIG d   1       7.876   0.025  -3.243  0.00  0.00     0.033 H 
ATOM      8  C   LIG d   1       5.821   0.253  -2.710  0.00  0.00    -0.037 C 
ATOM      9  C   LIG d   1       4.476  -0.339  -3.136  0.00  0.00     0.016 C 
ATOM     10  H   LIG d   1       3.656   0.137  -2.597  0.00  0.00     0.038 H 
ATOM     11  C   LIG d   1       4.495  -1.848  -2.839  0.00  0.00     0.024 C 
ATOM     12  C   LIG d   1       4.289  -0.165  -4.625  0.00  0.00     0.027 C 
ATOM     13  C   LIG d   1       3.010  -0.086  -5.087  0.00  0.00    -0.041 C 
ATOM     14  C   LIG d   1       2.750   0.009  -6.455  0.00  0.00    -0.047 C 
ATOM     15  C   LIG d   1       3.818  -0.006  -7.338  0.00  0.00     0.047 C 
ATOM     16  C   LIG d   1       5.128  -0.093  -6.817  0.00  0.00     0.259 C 
ATOM     17  O   LIG d   1       6.079  -0.172  -7.577  0.00  0.00    -0.267 OA
ATOM     18  N   LIG d   1       5.337  -0.087  -5.477  0.00  0.00    -0.311 N 
ATOM     19  C   LIG d   1       6.722   0.068  -5.028  0.00  0.00     0.031 C 
ATOM     20  H   LIG d   1       7.337  -3.788  -4.859  0.00  0.00     0.156 HD
ATOM     21  H   LIG d   1       7.317  -2.136  -2.437  0.00  0.00     0.047 H 
ATOM     22  H   LIG d   1       7.619  -2.302  -4.181  0.00  0.00     0.047 H 
ATOM     23  H   LIG d   1       5.806   1.335  -2.845  0.00  0.00     0.028 H 
ATOM     24  H   LIG d   1       6.011   0.016  -1.663  0.00  0.00     0.028 H 
ATOM     25  H   LIG d   1       3.552  -2.299  -3.148  0.00  0.00     0.047 H 
ATOM     26  H   LIG d   1       4.655  -2.017  -1.775  0.00  0.00     0.047 H 
ATOM     27  H   LIG d   1       2.188  -0.097  -4.387  0.00  0.00     0.064 H 
ATOM     28  H   LIG d   1       1.736   0.092  -6.818  0.00  0.00     0.063 H 
ATOM     29  H   LIG d   1       7.368  -0.537  -5.664  0.00  0.00     0.050 H 
ATOM     30  H   LIG d   1       7.011   1.114  -5.128  0.00  0.00     0.050 H 
ENDROOT
BRANCH   1  31
ATOM     31  C   LIG d   1       6.198  -5.047  -6.034  0.00  0.00     0.035 A 
ATOM     32  C   LIG d   1       6.064  -4.707  -7.373  0.00  0.00    -0.040 A 
ATOM     33  C   LIG d   1       5.842  -5.693  -8.315  0.00  0.00    -0.060 A 
ATOM     34  H   LIG d   1       6.136  -3.674  -7.679  0.00  0.00     0.064 H 
ATOM     35  C   LIG d   1       5.744  -7.015  -7.924  0.00  0.00    -0.062 A 
ATOM     36  H   LIG d   1       5.741  -5.429  -9.357  0.00  0.00     0.062 H 
ATOM     37  C   LIG d   1       5.878  -7.357  -6.591  0.00  0.00    -0.060 A 
ATOM     38  H   LIG d   1       5.566  -7.783  -8.662  0.00  0.00     0.062 H 
ATOM     39  C   LIG d   1       6.105  -6.376  -5.645  0.00  0.00    -0.040 A 
ATOM     40  H   LIG d   1       5.805  -8.391  -6.289  0.00  0.00     0.062 H 
ATOM     41  H   LIG d   1       6.209  -6.644  -4.603  0.00  0.00     0.064 H 
ENDBRANCH   1  31
BRANCH  15  42
ATOM     42  C   LIG d   1       3.592   0.068  -8.801  0.00  0.00    -0.012 A 
ATOM     43  C   LIG d   1       2.657  -0.771  -9.407  0.00  0.00    -0.042 A 
ATOM     44  C   LIG d   1       2.451  -0.698 -10.770  0.00  0.00     0.055 A 
ATOM     45  H   LIG d   1       2.095  -1.476  -8.812  0.00  0.00     0.063 H 
ATOM     46  C   LIG d   1       3.168   0.206 -11.533  0.00  0.00    -0.050 A 
ATOM     47  C   LIG d   1       4.097   1.040 -10.937  0.00  0.00    -0.061 A 
ATOM     48  H   LIG d   1       3.003   0.259 -12.599  0.00  0.00     0.062 H 
ATOM     49  C   LIG d   1       4.309   0.980  -9.576  0.00  0.00    -0.054 A 
ATOM     50  H   LIG d   1       4.654   1.743 -11.538  0.00  0.00     0.062 H 
ATOM     51  H   LIG d   1       5.032   1.634  -9.110  0.00  0.00     0.062 H 
BRANCH  44  52
ATOM     52  C   LIG d   1       1.441  -1.603 -11.426  0.00  0.00     0.417 C 
ATOM     53  F   LIG d   1       0.390  -0.836 -11.939  0.00  0.00    -0.166 F 
ATOM     54  F   LIG d   1       2.054  -2.307 -12.469  0.00  0.00    -0.166 F 
ATOM     55  F   LIG d   1       0.942  -2.508 -10.484  0.00  0.00    -0.166 F 
ENDBRANCH  44  52
ENDBRANCH  15  42
TORSDOF 3
ENDMDL
