MODEL 1
REMARK VINA RESULT:      -7.9      0.000      0.000
REMARK  6 active torsions:
REMARK  status: ('A' for Active; 'I' for Inactive)
REMARK    1  A    between atoms: C_4  and  O_31 
REMARK    2  A    between atoms: C_5  and  C_7 
REMARK    3  A    between atoms: C_7  and  N_8 
REMARK    4  A    between atoms: C_12  and  C_14 
REMARK    5  A    between atoms: C_16  and  C_19 
REMARK    6  A    between atoms: C_22  and  N_25 
ROOT
ATOM      1  N   LIG d   1       3.584   0.271  -6.426  0.00  0.00     0.247 N 
ATOM      2  C   LIG d   1       2.840   0.601  -7.662  0.00  0.00    -0.031 C 
ATOM      3  C   LIG d   1       3.743   0.094  -8.814  0.00  0.00    -0.007 C 
ATOM      4  C   LIG d   1       4.326  -1.208  -8.206  0.00  0.00     0.004 C 
ATOM      5  C   LIG d   1       4.499  -0.849  -6.715  0.00  0.00     0.060 C 
ATOM      6  H   LIG d   1       4.241  -1.707  -6.094  0.00  0.00     0.095 H 
ATOM      7  H   LIG d   1       1.880   0.084  -7.676  0.00  0.00     0.082 H 
ATOM      8  H   LIG d   1       2.693   1.679  -7.740  0.00  0.00     0.082 H 
ATOM      9  H   LIG d   1       3.153  -0.122  -9.706  0.00  0.00     0.032 H 
ATOM     10  H   LIG d   1       4.533   0.810  -9.035  0.00  0.00     0.032 H 
ATOM     11  H   LIG d   1       3.627  -2.036  -8.324  0.00  0.00     0.033 H 
ATOM     12  H   LIG d   1       5.288  -1.448  -8.659  0.00  0.00     0.033 H 
ATOM     13  H   LIG d   1       4.115   1.075  -6.128  0.00  0.00     0.204 HD
ENDROOT
BRANCH   5  14
ATOM     14  C   LIG d   1       5.922  -0.429  -6.451  0.00  0.00     0.276 A 
ATOM     15  O   LIG d   1       7.018  -1.118  -6.796  0.00  0.00    -0.332 OA
ATOM     16  N   LIG d   1       8.129  -0.352  -6.354  0.00  0.00    -0.056 NA
ATOM     17  C   LIG d   1       7.636   0.718  -5.779  0.00  0.00     0.204 A 
ATOM     18  N   LIG d   1       6.293   0.661  -5.843  0.00  0.00    -0.186 NA
BRANCH  17  19
ATOM     19  C   LIG d   1       8.427   1.809  -5.160  0.00  0.00     0.041 A 
ATOM     20  C   LIG d   1       8.484   1.941  -3.775  0.00  0.00     0.041 A 
ATOM     21  N   LIG d   1       9.190   2.905  -3.220  0.00  0.00    -0.240 NA
ATOM     22  H   LIG d   1       7.948   1.243  -3.149  0.00  0.00     0.084 H 
ATOM     23  C   LIG d   1       9.858   3.789  -3.948  0.00  0.00     0.121 A 
ATOM     24  C   LIG d   1       9.843   3.724  -5.339  0.00  0.00    -0.021 A 
ATOM     25  C   LIG d   1       9.121   2.725  -5.959  0.00  0.00    -0.046 A 
ATOM     26  H   LIG d   1      10.391   4.447  -5.925  0.00  0.00     0.065 H 
ATOM     27  H   LIG d   1       9.092   2.651  -7.037  0.00  0.00     0.063 H 
BRANCH  23  28
ATOM     28  N   LIG d   1      10.583   4.790  -3.316  0.00  0.00    -0.311 N 
ATOM     29  C   LIG d   1      10.643   4.869  -1.848  0.00  0.00     0.037 C 
ATOM     30  C   LIG d   1      10.297   6.296  -1.422  0.00  0.00     0.063 C 
ATOM     31  H   LIG d   1       9.926   4.173  -1.413  0.00  0.00     0.049 H 
ATOM     32  H   LIG d   1      11.648   4.622  -1.508  0.00  0.00     0.049 H 
ATOM     33  O   LIG d   1      11.118   7.217  -2.143  0.00  0.00    -0.377 OA
ATOM     34  H   LIG d   1      10.473   6.411  -0.353  0.00  0.00     0.058 H 
ATOM     35  H   LIG d   1       9.248   6.494  -1.643  0.00  0.00     0.058 H 
ATOM     36  C   LIG d   1      10.925   7.190  -3.559  0.00  0.00     0.063 C 
ATOM     37  C   LIG d   1      11.309   5.806  -4.094  0.00  0.00     0.037 C 
ATOM     38  H   LIG d   1      11.553   7.948  -4.027  0.00  0.00     0.058 H 
ATOM     39  H   LIG d   1       9.878   7.392  -3.787  0.00  0.00     0.058 H 
ATOM     40  H   LIG d   1      12.383   5.654  -3.985  0.00  0.00     0.049 H 
ATOM     41  H   LIG d   1      11.032   5.729  -5.146  0.00  0.00     0.049 H 
ENDBRANCH  23  28
ENDBRANCH  17  19
ENDBRANCH   5  14
BRANCH   1  42
ATOM     42  C   LIG d   1       2.640  -0.120  -5.371  0.00  0.00    -0.002 C 
ATOM     43  H   LIG d   1       2.341  -1.158  -5.518  0.00  0.00     0.087 H 
ATOM     44  H   LIG d   1       1.760   0.522  -5.415  0.00  0.00     0.087 H 
BRANCH  42  45
ATOM     45  C   LIG d   1       3.302   0.026  -4.025  0.00  0.00     0.038 A 
ATOM     46  C   LIG d   1       3.703  -1.100  -3.323  0.00  0.00     0.125 A 
ATOM     47  C   LIG d   1       4.313  -0.963  -2.084  0.00  0.00    -0.020 A 
ATOM     48  C   LIG d   1       4.519   0.296  -1.553  0.00  0.00    -0.058 A 
ATOM     49  H   LIG d   1       4.626  -1.839  -1.536  0.00  0.00     0.065 H 
ATOM     50  C   LIG d   1       4.118   1.417  -2.256  0.00  0.00    -0.061 A 
ATOM     51  H   LIG d   1       4.994   0.403  -0.589  0.00  0.00     0.062 H 
ATOM     52  C   LIG d   1       3.511   1.283  -3.490  0.00  0.00    -0.050 A 
ATOM     53  H   LIG d   1       4.277   2.400  -1.837  0.00  0.00     0.062 H 
ATOM     54  H   LIG d   1       3.199   2.161  -4.037  0.00  0.00     0.062 H 
BRANCH  46  55
ATOM     55  O   LIG d   1       3.500  -2.338  -3.847  0.00  0.00    -0.506 OA
ATOM     56  H   LIG d   1       4.138  -2.586  -4.530  0.00  0.00     0.292 HD
ENDBRANCH  46  55
ENDBRANCH  42  45
ENDBRANCH   1  42
TORSDOF 6
ENDMDL
MODEL 2
REMARK VINA RESULT:      -7.9      1.396      1.765
REMARK  6 active torsions:
REMARK  status: ('A' for Active; 'I' for Inactive)
REMARK    1  A    between atoms: C_4  and  O_31 
REMARK    2  A    between atoms: C_5  and  C_7 
REMARK    3  A    between atoms: C_7  and  N_8 
REMARK    4  A    between atoms: C_12  and  C_14 
REMARK    5  A    between atoms: C_16  and  C_19 
REMARK    6  A    between atoms: C_22  and  N_25 
ROOT
ATOM      1  N   LIG d   1       4.737   0.140  -6.779  0.00  0.00     0.247 N 
ATOM      2  C   LIG d   1       3.975   0.706  -7.915  0.00  0.00    -0.031 C 
ATOM      3  C   LIG d   1       5.020   0.871  -9.047  0.00  0.00    -0.007 C 
ATOM      4  C   LIG d   1       5.905  -0.386  -8.844  0.00  0.00     0.004 C 
ATOM      5  C   LIG d   1       5.925  -0.553  -7.311  0.00  0.00     0.060 C 
ATOM      6  H   LIG d   1       5.882  -1.612  -7.052  0.00  0.00     0.095 H 
ATOM      7  H   LIG d   1       3.187   0.018  -8.222  0.00  0.00     0.082 H 
ATOM      8  H   LIG d   1       3.552   1.673  -7.643  0.00  0.00     0.082 H 
ATOM      9  H   LIG d   1       4.539   0.857 -10.026  0.00  0.00     0.032 H 
ATOM     10  H   LIG d   1       5.600   1.783  -8.913  0.00  0.00     0.032 H 
ATOM     11  H   LIG d   1       5.454  -1.256  -9.321  0.00  0.00     0.033 H 
ATOM     12  H   LIG d   1       6.911  -0.215  -9.227  0.00  0.00     0.033 H 
ATOM     13  H   LIG d   1       5.026   0.886  -6.163  0.00  0.00     0.204 HD
ENDROOT
BRANCH   5  14
ATOM     14  C   LIG d   1       7.177   0.066  -6.743  0.00  0.00     0.276 A 
ATOM     15  O   LIG d   1       8.422  -0.397  -6.908  0.00  0.00    -0.332 OA
ATOM     16  N   LIG d   1       9.277   0.494  -6.207  0.00  0.00    -0.056 NA
ATOM     17  C   LIG d   1       8.503   1.408  -5.674  0.00  0.00     0.204 A 
ATOM     18  N   LIG d   1       7.228   1.138  -6.007  0.00  0.00    -0.186 NA
BRANCH  17  19
ATOM     19  C   LIG d   1       8.959   2.549  -4.843  0.00  0.00     0.041 A 
ATOM     20  C   LIG d   1       9.284   2.359  -3.503  0.00  0.00     0.041 A 
ATOM     21  N   LIG d   1       9.694   3.368  -2.762  0.00  0.00    -0.240 NA
ATOM     22  H   LIG d   1       9.204   1.375  -3.067  0.00  0.00     0.084 H 
ATOM     23  C   LIG d   1       9.802   4.595  -3.251  0.00  0.00     0.121 A 
ATOM     24  C   LIG d   1       9.488   4.863  -4.581  0.00  0.00    -0.021 A 
ATOM     25  C   LIG d   1       9.061   3.832  -5.393  0.00  0.00    -0.046 A 
ATOM     26  H   LIG d   1       9.580   5.866  -4.973  0.00  0.00     0.065 H 
ATOM     27  H   LIG d   1       8.812   4.011  -6.429  0.00  0.00     0.063 H 
BRANCH  23  28
ATOM     28  N   LIG d   1      10.234   5.626  -2.428  0.00  0.00    -0.311 N 
ATOM     29  C   LIG d   1      11.196   5.376  -1.344  0.00  0.00     0.037 C 
ATOM     30  C   LIG d   1      10.644   5.979  -0.052  0.00  0.00     0.063 C 
ATOM     31  H   LIG d   1      11.335   4.303  -1.216  0.00  0.00     0.049 H 
ATOM     32  H   LIG d   1      12.150   5.844  -1.584  0.00  0.00     0.049 H 
ATOM     33  O   LIG d   1      10.286   7.344  -0.283  0.00  0.00    -0.377 OA
ATOM     34  H   LIG d   1      11.402   5.929   0.729  0.00  0.00     0.058 H 
ATOM     35  H   LIG d   1       9.762   5.421   0.259  0.00  0.00     0.058 H 
ATOM     36  C   LIG d   1       9.252   7.522  -1.255  0.00  0.00     0.063 C 
ATOM     37  C   LIG d   1       9.739   6.999  -2.611  0.00  0.00     0.037 C 
ATOM     38  H   LIG d   1       9.010   8.582  -1.339  0.00  0.00     0.058 H 
ATOM     39  H   LIG d   1       8.365   6.969  -0.947  0.00  0.00     0.058 H 
ATOM     40  H   LIG d   1      10.544   7.634  -2.982  0.00  0.00     0.049 H 
ATOM     41  H   LIG d   1       8.912   7.001  -3.322  0.00  0.00     0.049 H 
ENDBRANCH  23  28
ENDBRANCH  17  19
ENDBRANCH   5  14
BRANCH   1  42
ATOM     42  C   LIG d   1       3.895  -0.812  -6.045  0.00  0.00    -0.002 C 
ATOM     43  H   LIG d   1       4.192  -1.830  -6.297  0.00  0.00     0.087 H 
ATOM     44  H   LIG d   1       2.850  -0.660  -6.319  0.00  0.00     0.087 H 
BRANCH  42  45
ATOM     45  C   LIG d   1       4.061  -0.593  -4.564  0.00  0.00     0.038 A 
ATOM     46  C   LIG d   1       3.473   0.506  -3.954  0.00  0.00     0.125 A 
ATOM     47  C   LIG d   1       3.627   0.705  -2.590  0.00  0.00    -0.020 A 
ATOM     48  C   LIG d   1       4.366  -0.190  -1.841  0.00  0.00    -0.058 A 
ATOM     49  H   LIG d   1       3.171   1.560  -2.114  0.00  0.00     0.065 H 
ATOM     50  C   LIG d   1       4.951  -1.285  -2.451  0.00  0.00    -0.061 A 
ATOM     51  H   LIG d   1       4.486  -0.036  -0.780  0.00  0.00     0.062 H 
ATOM     52  C   LIG d   1       4.798  -1.486  -3.810  0.00  0.00    -0.050 A 
ATOM     53  H   LIG d   1       5.531  -1.983  -1.865  0.00  0.00     0.062 H 
ATOM     54  H   LIG d   1       5.256  -2.343  -4.284  0.00  0.00     0.062 H 
BRANCH  46  55
ATOM     55  O   LIG d   1       2.746   1.386  -4.692  0.00  0.00    -0.506 OA
ATOM     56  H   LIG d   1       3.206   2.215  -4.879  0.00  0.00     0.292 HD
ENDBRANCH  46  55
ENDBRANCH  42  45
ENDBRANCH   1  42
TORSDOF 6
ENDMDL
MODEL 3
REMARK VINA RESULT:      -7.7      2.289      3.687
REMARK  6 active torsions:
REMARK  status: ('A' for Active; 'I' for Inactive)
REMARK    1  A    between atoms: C_4  and  O_31 
REMARK    2  A    between atoms: C_5  and  C_7 
REMARK    3  A    between atoms: C_7  and  N_8 
REMARK    4  A    between atoms: C_12  and  C_14 
REMARK    5  A    between atoms: C_16  and  C_19 
REMARK    6  A    between atoms: C_22  and  N_25 
ROOT
ATOM      1  N   LIG d   1       7.099   0.376  -5.717  0.00  0.00     0.247 N 
ATOM      2  C   LIG d   1       6.079   0.012  -6.725  0.00  0.00    -0.031 C 
ATOM      3  C   LIG d   1       6.598   0.623  -8.051  0.00  0.00    -0.007 C 
ATOM      4  C   LIG d   1       8.128   0.407  -7.918  0.00  0.00     0.004 C 
ATOM      5  C   LIG d   1       8.379   0.613  -6.410  0.00  0.00     0.060 C 
ATOM      6  H   LIG d   1       9.127  -0.098  -6.058  0.00  0.00     0.095 H 
ATOM      7  H   LIG d   1       6.001  -1.072  -6.811  0.00  0.00     0.082 H 
ATOM      8  H   LIG d   1       5.114   0.443  -6.460  0.00  0.00     0.082 H 
ATOM      9  H   LIG d   1       6.200   0.083  -8.911  0.00  0.00     0.032 H 
ATOM     10  H   LIG d   1       6.358   1.684  -8.112  0.00  0.00     0.032 H 
ATOM     11  H   LIG d   1       8.403  -0.604  -8.220  0.00  0.00     0.033 H 
ATOM     12  H   LIG d   1       8.675   1.146  -8.504  0.00  0.00     0.033 H 
ATOM     13  H   LIG d   1       6.813   1.216  -5.237  0.00  0.00     0.204 HD
ENDROOT
BRANCH   5  14
ATOM     14  C   LIG d   1       8.847   2.023  -6.155  0.00  0.00     0.276 A 
ATOM     15  O   LIG d   1       9.277   2.884  -7.086  0.00  0.00    -0.332 OA
ATOM     16  N   LIG d   1       9.610   4.082  -6.401  0.00  0.00    -0.056 NA
ATOM     17  C   LIG d   1       9.370   3.861  -5.131  0.00  0.00     0.204 A 
ATOM     18  N   LIG d   1       8.907   2.606  -4.993  0.00  0.00    -0.186 NA
BRANCH  17  19
ATOM     19  C   LIG d   1       9.576   4.834  -4.030  0.00  0.00     0.041 A 
ATOM     20  C   LIG d   1       9.938   4.395  -2.760  0.00  0.00     0.041 A 
ATOM     21  N   LIG d   1      10.127   5.256  -1.780  0.00  0.00    -0.240 NA
ATOM     22  H   LIG d   1      10.070   3.339  -2.576  0.00  0.00     0.084 H 
ATOM     23  C   LIG d   1       9.970   6.559  -1.957  0.00  0.00     0.121 A 
ATOM     24  C   LIG d   1       9.603   7.072  -3.198  0.00  0.00    -0.021 A 
ATOM     25  C   LIG d   1       9.402   6.205  -4.252  0.00  0.00    -0.046 A 
ATOM     26  H   LIG d   1       9.478   8.137  -3.334  0.00  0.00     0.065 H 
ATOM     27  H   LIG d   1       9.116   6.576  -5.226  0.00  0.00     0.063 H 
BRANCH  23  28
ATOM     28  N   LIG d   1      10.176   7.425  -0.891  0.00  0.00    -0.311 N 
ATOM     29  C   LIG d   1       9.486   8.722  -0.825  0.00  0.00     0.037 C 
ATOM     30  C   LIG d   1      10.521   9.814  -0.555  0.00  0.00     0.063 C 
ATOM     31  H   LIG d   1       8.984   8.920  -1.772  0.00  0.00     0.049 H 
ATOM     32  H   LIG d   1       8.753   8.707  -0.018  0.00  0.00     0.049 H 
ATOM     33  O   LIG d   1      11.303   9.451   0.586  0.00  0.00    -0.377 OA
ATOM     34  H   LIG d   1      10.014  10.759  -0.363  0.00  0.00     0.058 H 
ATOM     35  H   LIG d   1      11.171   9.918  -1.423  0.00  0.00     0.058 H 
ATOM     36  C   LIG d   1      12.058   8.249   0.419  0.00  0.00     0.063 C 
ATOM     37  C   LIG d   1      11.097   7.075   0.202  0.00  0.00     0.037 C 
ATOM     38  H   LIG d   1      12.657   8.068   1.312  0.00  0.00     0.058 H 
ATOM     39  H   LIG d   1      12.714   8.348  -0.446  0.00  0.00     0.058 H 
ATOM     40  H   LIG d   1      10.530   6.891   1.115  0.00  0.00     0.049 H 
ATOM     41  H   LIG d   1      11.662   6.182  -0.065  0.00  0.00     0.049 H 
ENDBRANCH  23  28
ENDBRANCH  17  19
ENDBRANCH   5  14
BRANCH   1  42
ATOM     42  C   LIG d   1       7.253  -0.720  -4.752  0.00  0.00    -0.002 C 
ATOM     43  H   LIG d   1       8.231  -0.650  -4.276  0.00  0.00     0.087 H 
ATOM     44  H   LIG d   1       7.170  -1.675  -5.271  0.00  0.00     0.087 H 
BRANCH  42  45
ATOM     45  C   LIG d   1       6.176  -0.622  -3.704  0.00  0.00     0.038 A 
ATOM     46  C   LIG d   1       5.942   0.583  -3.058  0.00  0.00     0.125 A 
ATOM     47  C   LIG d   1       4.949   0.670  -2.094  0.00  0.00    -0.020 A 
ATOM     48  C   LIG d   1       4.194  -0.443  -1.779  0.00  0.00    -0.058 A 
ATOM     49  H   LIG d   1       4.766   1.608  -1.590  0.00  0.00     0.065 H 
ATOM     50  C   LIG d   1       4.428  -1.643  -2.424  0.00  0.00    -0.061 A 
ATOM     51  H   LIG d   1       3.420  -0.375  -1.029  0.00  0.00     0.062 H 
ATOM     52  C   LIG d   1       5.417  -1.732  -3.386  0.00  0.00    -0.050 A 
ATOM     53  H   LIG d   1       3.839  -2.513  -2.175  0.00  0.00     0.062 H 
ATOM     54  H   LIG d   1       5.598  -2.672  -3.889  0.00  0.00     0.062 H 
BRANCH  46  55
ATOM     55  O   LIG d   1       6.687   1.677  -3.369  0.00  0.00    -0.506 OA
ATOM     56  H   LIG d   1       7.609   1.619  -3.084  0.00  0.00     0.292 HD
ENDBRANCH  46  55
ENDBRANCH  42  45
ENDBRANCH   1  42
TORSDOF 6
ENDMDL
MODEL 4
REMARK VINA RESULT:      -7.5      7.344     11.753
REMARK  6 active torsions:
REMARK  status: ('A' for Active; 'I' for Inactive)
REMARK    1  A    between atoms: C_4  and  O_31 
REMARK    2  A    between atoms: C_5  and  C_7 
REMARK    3  A    between atoms: C_7  and  N_8 
REMARK    4  A    between atoms: C_12  and  C_14 
REMARK    5  A    between atoms: C_16  and  C_19 
REMARK    6  A    between atoms: C_22  and  N_25 
ROOT
ATOM      1  N   LIG d   1       6.555  -2.616  -4.403  0.00  0.00     0.247 N 
ATOM      2  C   LIG d   1       7.795  -2.554  -3.599  0.00  0.00    -0.031 C 
ATOM      3  C   LIG d   1       8.518  -3.895  -3.885  0.00  0.00    -0.007 C 
ATOM      4  C   LIG d   1       8.200  -4.109  -5.388  0.00  0.00     0.004 C 
ATOM      5  C   LIG d   1       6.768  -3.551  -5.523  0.00  0.00     0.060 C 
ATOM      6  H   LIG d   1       6.664  -3.022  -6.472  0.00  0.00     0.095 H 
ATOM      7  H   LIG d   1       8.413  -1.714  -3.919  0.00  0.00     0.082 H 
ATOM      8  H   LIG d   1       7.557  -2.470  -2.539  0.00  0.00     0.082 H 
ATOM      9  H   LIG d   1       9.592  -3.801  -3.723  0.00  0.00     0.032 H 
ATOM     10  H   LIG d   1       8.102  -4.699  -3.280  0.00  0.00     0.032 H 
ATOM     11  H   LIG d   1       8.894  -3.546  -6.013  0.00  0.00     0.033 H 
ATOM     12  H   LIG d   1       8.227  -5.168  -5.641  0.00  0.00     0.033 H 
ATOM     13  H   LIG d   1       5.796  -2.945  -3.826  0.00  0.00     0.204 HD
ENDROOT
BRANCH   5  14
ATOM     14  C   LIG d   1       5.769  -4.677  -5.448  0.00  0.00     0.276 A 
ATOM     15  O   LIG d   1       4.482  -4.559  -5.098  0.00  0.00    -0.332 OA
ATOM     16  N   LIG d   1       3.926  -5.863  -5.168  0.00  0.00    -0.056 NA
ATOM     17  C   LIG d   1       4.898  -6.661  -5.539  0.00  0.00     0.204 A 
ATOM     18  N   LIG d   1       6.014  -5.929  -5.706  0.00  0.00    -0.186 NA
BRANCH  17  19
ATOM     19  C   LIG d   1       4.785  -8.126  -5.740  0.00  0.00     0.041 A 
ATOM     20  C   LIG d   1       4.655  -8.654  -7.021  0.00  0.00     0.041 A 
ATOM     21  N   LIG d   1       4.560  -9.955  -7.206  0.00  0.00    -0.240 NA
ATOM     22  H   LIG d   1       4.637  -7.991  -7.874  0.00  0.00     0.084 H 
ATOM     23  C   LIG d   1       4.571 -10.806  -6.191  0.00  0.00     0.121 A 
ATOM     24  C   LIG d   1       4.691 -10.352  -4.880  0.00  0.00    -0.021 A 
ATOM     25  C   LIG d   1       4.800  -8.997  -4.644  0.00  0.00    -0.046 A 
ATOM     26  H   LIG d   1       4.700 -11.053  -4.058  0.00  0.00     0.065 H 
ATOM     27  H   LIG d   1       4.895  -8.617  -3.637  0.00  0.00     0.063 H 
BRANCH  23  28
ATOM     28  N   LIG d   1       4.462 -12.168  -6.437  0.00  0.00    -0.311 N 
ATOM     29  C   LIG d   1       5.658 -12.996  -6.653  0.00  0.00     0.037 C 
ATOM     30  C   LIG d   1       5.464 -13.812  -7.931  0.00  0.00     0.063 C 
ATOM     31  H   LIG d   1       6.534 -12.356  -6.758  0.00  0.00     0.049 H 
ATOM     32  H   LIG d   1       5.796 -13.671  -5.809  0.00  0.00     0.049 H 
ATOM     33  O   LIG d   1       4.215 -14.504  -7.864  0.00  0.00    -0.377 OA
ATOM     34  H   LIG d   1       6.274 -14.533  -8.033  0.00  0.00     0.058 H 
ATOM     35  H   LIG d   1       5.461 -13.142  -8.790  0.00  0.00     0.058 H 
ATOM     36  C   LIG d   1       3.073 -13.647  -7.786  0.00  0.00     0.063 C 
ATOM     37  C   LIG d   1       3.146 -12.825  -6.495  0.00  0.00     0.037 C 
ATOM     38  H   LIG d   1       2.165 -14.250  -7.783  0.00  0.00     0.058 H 
ATOM     39  H   LIG d   1       3.063 -12.976  -8.645  0.00  0.00     0.058 H 
ATOM     40  H   LIG d   1       3.026 -13.482  -5.634  0.00  0.00     0.049 H 
ATOM     41  H   LIG d   1       2.359 -12.071  -6.495  0.00  0.00     0.049 H 
ENDBRANCH  23  28
ENDBRANCH  17  19
ENDBRANCH   5  14
BRANCH   1  42
ATOM     42  C   LIG d   1       6.238  -1.280  -4.926  0.00  0.00    -0.002 C 
ATOM     43  H   LIG d   1       5.708  -1.377  -5.873  0.00  0.00     0.087 H 
ATOM     44  H   LIG d   1       7.163  -0.723  -5.083  0.00  0.00     0.087 H 
BRANCH  42  45
ATOM     45  C   LIG d   1       5.371  -0.546  -3.938  0.00  0.00     0.038 A 
ATOM     46  C   LIG d   1       4.082  -0.988  -3.682  0.00  0.00     0.125 A 
ATOM     47  C   LIG d   1       3.285  -0.310  -2.770  0.00  0.00    -0.020 A 
ATOM     48  C   LIG d   1       3.778   0.804  -2.119  0.00  0.00    -0.058 A 
ATOM     49  H   LIG d   1       2.281  -0.653  -2.570  0.00  0.00     0.065 H 
ATOM     50  C   LIG d   1       5.064   1.243  -2.375  0.00  0.00    -0.061 A 
ATOM     51  H   LIG d   1       3.159   1.332  -1.409  0.00  0.00     0.062 H 
ATOM     52  C   LIG d   1       5.860   0.569  -3.283  0.00  0.00    -0.050 A 
ATOM     53  H   LIG d   1       5.447   2.116  -1.867  0.00  0.00     0.062 H 
ATOM     54  H   LIG d   1       6.865   0.914  -3.481  0.00  0.00     0.062 H 
BRANCH  46  55
ATOM     55  O   LIG d   1       3.599  -2.085  -4.324  0.00  0.00    -0.506 OA
ATOM     56  H   LIG d   1       2.700  -1.977  -4.664  0.00  0.00     0.292 HD
ENDBRANCH  46  55
ENDBRANCH  42  45
ENDBRANCH   1  42
TORSDOF 6
ENDMDL
MODEL 5
REMARK VINA RESULT:      -7.3      4.423      9.540
REMARK  6 active torsions:
REMARK  status: ('A' for Active; 'I' for Inactive)
REMARK    1  A    between atoms: C_4  and  O_31 
REMARK    2  A    between atoms: C_5  and  C_7 
REMARK    3  A    between atoms: C_7  and  N_8 
REMARK    4  A    between atoms: C_12  and  C_14 
REMARK    5  A    between atoms: C_16  and  C_19 
REMARK    6  A    between atoms: C_22  and  N_25 
ROOT
ATOM      1  N   LIG d   1       6.703  -2.145  -4.713  0.00  0.00     0.247 N 
ATOM      2  C   LIG d   1       7.881  -3.012  -4.937  0.00  0.00    -0.031 C 
ATOM      3  C   LIG d   1       8.537  -2.460  -6.228  0.00  0.00    -0.007 C 
ATOM      4  C   LIG d   1       8.320  -0.933  -6.062  0.00  0.00     0.004 C 
ATOM      5  C   LIG d   1       6.940  -0.850  -5.377  0.00  0.00     0.060 C 
ATOM      6  H   LIG d   1       6.941  -0.049  -4.637  0.00  0.00     0.095 H 
ATOM      7  H   LIG d   1       8.572  -2.936  -4.097  0.00  0.00     0.082 H 
ATOM      8  H   LIG d   1       7.569  -4.046  -5.082  0.00  0.00     0.082 H 
ATOM      9  H   LIG d   1       9.600  -2.702  -6.259  0.00  0.00     0.032 H 
ATOM     10  H   LIG d   1       8.027  -2.833  -7.115  0.00  0.00     0.032 H 
ATOM     11  H   LIG d   1       9.093  -0.501  -5.427  0.00  0.00     0.033 H 
ATOM     12  H   LIG d   1       8.299  -0.439  -7.033  0.00  0.00     0.033 H 
ATOM     13  H   LIG d   1       5.883  -2.583  -5.106  0.00  0.00     0.204 HD
ENDROOT
BRANCH   5  14
ATOM     14  C   LIG d   1       5.870  -0.599  -6.408  0.00  0.00     0.276 A 
ATOM     15  O   LIG d   1       5.489   0.602  -6.864  0.00  0.00    -0.332 OA
ATOM     16  N   LIG d   1       4.464   0.362  -7.817  0.00  0.00    -0.056 NA
ATOM     17  C   LIG d   1       4.296  -0.938  -7.862  0.00  0.00     0.204 A 
ATOM     18  N   LIG d   1       5.156  -1.512  -7.001  0.00  0.00    -0.186 NA
BRANCH  17  19
ATOM     19  C   LIG d   1       3.321  -1.654  -8.718  0.00  0.00     0.041 A 
ATOM     20  C   LIG d   1       3.441  -3.024  -8.930  0.00  0.00     0.041 A 
ATOM     21  N   LIG d   1       2.573  -3.667  -9.685  0.00  0.00    -0.240 NA
ATOM     22  H   LIG d   1       4.250  -3.568  -8.465  0.00  0.00     0.084 H 
ATOM     23  C   LIG d   1       1.568  -3.041 -10.280  0.00  0.00     0.121 A 
ATOM     24  C   LIG d   1       1.388  -1.669 -10.121  0.00  0.00    -0.021 A 
ATOM     25  C   LIG d   1       2.271  -0.961  -9.332  0.00  0.00    -0.046 A 
ATOM     26  H   LIG d   1       0.565  -1.166 -10.609  0.00  0.00     0.065 H 
ATOM     27  H   LIG d   1       2.153   0.105  -9.191  0.00  0.00     0.063 H 
BRANCH  23  28
ATOM     28  N   LIG d   1       0.684  -3.761 -11.071  0.00  0.00    -0.311 N 
ATOM     29  C   LIG d   1       0.442  -3.385 -12.473  0.00  0.00     0.037 C 
ATOM     30  C   LIG d   1      -1.067  -3.290 -12.700  0.00  0.00     0.063 C 
ATOM     31  H   LIG d   1       0.904  -2.419 -12.679  0.00  0.00     0.049 H 
ATOM     32  H   LIG d   1       0.863  -4.141 -13.134  0.00  0.00     0.049 H 
ATOM     33  O   LIG d   1      -1.688  -4.496 -12.250  0.00  0.00    -0.377 OA
ATOM     34  H   LIG d   1      -1.269  -3.151 -13.762  0.00  0.00     0.058 H 
ATOM     35  H   LIG d   1      -1.464  -2.445 -12.139  0.00  0.00     0.058 H 
ATOM     36  C   LIG d   1      -1.533  -4.748 -10.851  0.00  0.00     0.063 C 
ATOM     37  C   LIG d   1      -0.044  -4.920 -10.531  0.00  0.00     0.037 C 
ATOM     38  H   LIG d   1      -2.071  -5.657 -10.582  0.00  0.00     0.058 H 
ATOM     39  H   LIG d   1      -1.933  -3.907 -10.283  0.00  0.00     0.058 H 
ATOM     40  H   LIG d   1       0.327  -5.835 -10.994  0.00  0.00     0.049 H 
ATOM     41  H   LIG d   1       0.096  -4.971  -9.451  0.00  0.00     0.049 H 
ENDBRANCH  23  28
ENDBRANCH  17  19
ENDBRANCH   5  14
BRANCH   1  42
ATOM     42  C   LIG d   1       6.511  -1.935  -3.272  0.00  0.00    -0.002 C 
ATOM     43  H   LIG d   1       7.362  -1.386  -2.868  0.00  0.00     0.087 H 
ATOM     44  H   LIG d   1       6.431  -2.900  -2.772  0.00  0.00     0.087 H 
BRANCH  42  45
ATOM     45  C   LIG d   1       5.249  -1.145  -3.043  0.00  0.00     0.038 A 
ATOM     46  C   LIG d   1       4.037  -1.618  -3.523  0.00  0.00     0.125 A 
ATOM     47  C   LIG d   1       2.876  -0.890  -3.310  0.00  0.00    -0.020 A 
ATOM     48  C   LIG d   1       2.930   0.306  -2.619  0.00  0.00    -0.058 A 
ATOM     49  H   LIG d   1       1.931  -1.256  -3.684  0.00  0.00     0.065 H 
ATOM     50  C   LIG d   1       4.139   0.775  -2.140  0.00  0.00    -0.061 A 
ATOM     51  H   LIG d   1       2.026   0.873  -2.453  0.00  0.00     0.062 H 
ATOM     52  C   LIG d   1       5.297   0.050  -2.352  0.00  0.00    -0.050 A 
ATOM     53  H   LIG d   1       4.179   1.711  -1.603  0.00  0.00     0.062 H 
ATOM     54  H   LIG d   1       6.241   0.419  -1.976  0.00  0.00     0.062 H 
BRANCH  46  55
ATOM     55  O   LIG d   1       3.987  -2.795  -4.203  0.00  0.00    -0.506 OA
ATOM     56  H   LIG d   1       4.646  -2.871  -4.906  0.00  0.00     0.292 HD
ENDBRANCH  46  55
ENDBRANCH  42  45
ENDBRANCH   1  42
TORSDOF 6
ENDMDL
MODEL 6
REMARK VINA RESULT:      -7.3      4.898      6.329
REMARK  6 active torsions:
REMARK  status: ('A' for Active; 'I' for Inactive)
REMARK    1  A    between atoms: C_4  and  O_31 
REMARK    2  A    between atoms: C_5  and  C_7 
REMARK    3  A    between atoms: C_7  and  N_8 
REMARK    4  A    between atoms: C_12  and  C_14 
REMARK    5  A    between atoms: C_16  and  C_19 
REMARK    6  A    between atoms: C_22  and  N_25 
ROOT
ATOM      1  N   LIG d   1       3.261   0.560  -6.310  0.00  0.00     0.247 N 
ATOM      2  C   LIG d   1       2.795   1.657  -7.186  0.00  0.00    -0.031 C 
ATOM      3  C   LIG d   1       3.150   1.195  -8.621  0.00  0.00    -0.007 C 
ATOM      4  C   LIG d   1       2.872  -0.329  -8.538  0.00  0.00     0.004 C 
ATOM      5  C   LIG d   1       3.308  -0.684  -7.101  0.00  0.00     0.060 C 
ATOM      6  H   LIG d   1       2.623  -1.418  -6.676  0.00  0.00     0.095 H 
ATOM      7  H   LIG d   1       1.717   1.791  -7.085  0.00  0.00     0.082 H 
ATOM      8  H   LIG d   1       3.317   2.583  -6.945  0.00  0.00     0.082 H 
ATOM      9  H   LIG d   1       2.499   1.671  -9.356  0.00  0.00     0.032 H 
ATOM     10  H   LIG d   1       4.198   1.389  -8.846  0.00  0.00     0.032 H 
ATOM     11  H   LIG d   1       1.811  -0.536  -8.681  0.00  0.00     0.033 H 
ATOM     12  H   LIG d   1       3.472  -0.871  -9.268  0.00  0.00     0.033 H 
ATOM     13  H   LIG d   1       4.183   0.776  -5.962  0.00  0.00     0.204 HD
ENDROOT
BRANCH   5  14
ATOM     14  C   LIG d   1       4.712  -1.232  -7.112  0.00  0.00     0.276 A 
ATOM     15  O   LIG d   1       5.569  -1.166  -8.139  0.00  0.00    -0.332 OA
ATOM     16  N   LIG d   1       6.763  -1.803  -7.705  0.00  0.00    -0.056 NA
ATOM     17  C   LIG d   1       6.543  -2.206  -6.477  0.00  0.00     0.204 A 
ATOM     18  N   LIG d   1       5.292  -1.854  -6.127  0.00  0.00    -0.186 NA
BRANCH  17  19
ATOM     19  C   LIG d   1       7.511  -2.931  -5.619  0.00  0.00     0.041 A 
ATOM     20  C   LIG d   1       7.560  -2.686  -4.250  0.00  0.00     0.041 A 
ATOM     21  N   LIG d   1       8.415  -3.331  -3.482  0.00  0.00    -0.240 NA
ATOM     22  H   LIG d   1       6.888  -1.964  -3.811  0.00  0.00     0.084 H 
ATOM     23  C   LIG d   1       9.263  -4.220  -3.976  0.00  0.00     0.121 A 
ATOM     24  C   LIG d   1       9.277  -4.513  -5.338  0.00  0.00    -0.021 A 
ATOM     25  C   LIG d   1       8.393  -3.865  -6.175  0.00  0.00    -0.046 A 
ATOM     26  H   LIG d   1       9.971  -5.241  -5.733  0.00  0.00     0.065 H 
ATOM     27  H   LIG d   1       8.382  -4.073  -7.236  0.00  0.00     0.063 H 
BRANCH  23  28
ATOM     28  N   LIG d   1      10.149  -4.870  -3.126  0.00  0.00    -0.311 N 
ATOM     29  C   LIG d   1      11.569  -5.015  -3.481  0.00  0.00     0.037 C 
ATOM     30  C   LIG d   1      11.966  -6.482  -3.313  0.00  0.00     0.063 C 
ATOM     31  H   LIG d   1      11.723  -4.711  -4.516  0.00  0.00     0.049 H 
ATOM     32  H   LIG d   1      12.177  -4.396  -2.822  0.00  0.00     0.049 H 
ATOM     33  O   LIG d   1      11.587  -6.928  -2.008  0.00  0.00    -0.377 OA
ATOM     34  H   LIG d   1      13.044  -6.585  -3.433  0.00  0.00     0.058 H 
ATOM     35  H   LIG d   1      11.455  -7.082  -4.065  0.00  0.00     0.058 H 
ATOM     36  C   LIG d   1      10.179  -6.888  -1.762  0.00  0.00     0.063 C 
ATOM     37  C   LIG d   1       9.693  -5.437  -1.848  0.00  0.00     0.037 C 
ATOM     38  H   LIG d   1       9.972  -7.283  -0.767  0.00  0.00     0.058 H 
ATOM     39  H   LIG d   1       9.662  -7.491  -2.509  0.00  0.00     0.058 H 
ATOM     40  H   LIG d   1      10.108  -4.861  -1.021  0.00  0.00     0.049 H 
ATOM     41  H   LIG d   1       8.603  -5.412  -1.802  0.00  0.00     0.049 H 
ENDBRANCH  23  28
ENDBRANCH  17  19
ENDBRANCH   5  14
BRANCH   1  42
ATOM     42  C   LIG d   1       2.331   0.397  -5.185  0.00  0.00    -0.002 C 
ATOM     43  H   LIG d   1       1.752  -0.516  -5.322  0.00  0.00     0.087 H 
ATOM     44  H   LIG d   1       1.657   1.252  -5.144  0.00  0.00     0.087 H 
BRANCH  42  45
ATOM     45  C   LIG d   1       3.110   0.310  -3.898  0.00  0.00     0.038 A 
ATOM     46  C   LIG d   1       3.494  -0.927  -3.401  0.00  0.00     0.125 A 
ATOM     47  C   LIG d   1       4.211  -1.005  -2.216  0.00  0.00    -0.020 A 
ATOM     48  C   LIG d   1       4.541   0.150  -1.534  0.00  0.00    -0.058 A 
ATOM     49  H   LIG d   1       4.510  -1.967  -1.828  0.00  0.00     0.065 H 
ATOM     50  C   LIG d   1       4.158   1.382  -2.031  0.00  0.00    -0.061 A 
ATOM     51  H   LIG d   1       5.100   0.090  -0.611  0.00  0.00     0.062 H 
ATOM     52  C   LIG d   1       3.444   1.461  -3.212  0.00  0.00    -0.050 A 
ATOM     53  H   LIG d   1       4.415   2.283  -1.494  0.00  0.00     0.062 H 
ATOM     54  H   LIG d   1       3.145   2.425  -3.599  0.00  0.00     0.062 H 
BRANCH  46  55
ATOM     55  O   LIG d   1       3.167  -2.063  -4.074  0.00  0.00    -0.506 OA
ATOM     56  H   LIG d   1       2.821  -2.768  -3.511  0.00  0.00     0.292 HD
ENDBRANCH  46  55
ENDBRANCH  42  45
ENDBRANCH   1  42
TORSDOF 6
ENDMDL
MODEL 7
REMARK VINA RESULT:      -7.1      3.466      4.876
REMARK  6 active torsions:
REMARK  status: ('A' for Active; 'I' for Inactive)
REMARK    1  A    between atoms: C_4  and  O_31 
REMARK    2  A    between atoms: C_5  and  C_7 
REMARK    3  A    between atoms: C_7  and  N_8 
REMARK    4  A    between atoms: C_12  and  C_14 
REMARK    5  A    between atoms: C_16  and  C_19 
REMARK    6  A    between atoms: C_22  and  N_25 
ROOT
ATOM      1  N   LIG d   1       7.443  -0.075  -4.779  0.00  0.00     0.247 N 
ATOM      2  C   LIG d   1       7.080  -0.654  -6.091  0.00  0.00    -0.031 C 
ATOM      3  C   LIG d   1       8.163  -0.131  -7.067  0.00  0.00    -0.007 C 
ATOM      4  C   LIG d   1       9.431  -0.160  -6.174  0.00  0.00     0.004 C 
ATOM      5  C   LIG d   1       8.886   0.229  -4.784  0.00  0.00     0.060 C 
ATOM      6  H   LIG d   1       9.389  -0.353  -4.012  0.00  0.00     0.095 H 
ATOM      7  H   LIG d   1       7.104  -1.743  -6.044  0.00  0.00     0.082 H 
ATOM      8  H   LIG d   1       6.092  -0.309  -6.398  0.00  0.00     0.082 H 
ATOM      9  H   LIG d   1       8.272  -0.799  -7.922  0.00  0.00     0.032 H 
ATOM     10  H   LIG d   1       7.938   0.883  -7.393  0.00  0.00     0.032 H 
ATOM     11  H   LIG d   1       9.864  -1.160  -6.152  0.00  0.00     0.033 H 
ATOM     12  H   LIG d   1      10.163   0.570  -6.519  0.00  0.00     0.033 H 
ATOM     13  H   LIG d   1       6.918   0.773  -4.628  0.00  0.00     0.204 HD
ENDROOT
BRANCH   5  14
ATOM     14  C   LIG d   1       9.100   1.702  -4.543  0.00  0.00     0.276 A 
ATOM     15  O   LIG d   1       9.229   2.287  -3.345  0.00  0.00    -0.332 OA
ATOM     16  N   LIG d   1       9.415   3.673  -3.594  0.00  0.00    -0.056 NA
ATOM     17  C   LIG d   1       9.378   3.823  -4.896  0.00  0.00     0.204 A 
ATOM     18  N   LIG d   1       9.186   2.618  -5.463  0.00  0.00    -0.186 NA
BRANCH  17  19
ATOM     19  C   LIG d   1       9.523   5.108  -5.622  0.00  0.00     0.041 A 
ATOM     20  C   LIG d   1       9.913   5.123  -6.958  0.00  0.00     0.041 A 
ATOM     21  N   LIG d   1      10.038   6.262  -7.610  0.00  0.00    -0.240 NA
ATOM     22  H   LIG d   1      10.110   4.192  -7.468  0.00  0.00     0.084 H 
ATOM     23  C   LIG d   1       9.814   7.429  -7.024  0.00  0.00     0.121 A 
ATOM     24  C   LIG d   1       9.427   7.493  -5.688  0.00  0.00    -0.021 A 
ATOM     25  C   LIG d   1       9.277   6.323  -4.972  0.00  0.00    -0.046 A 
ATOM     26  H   LIG d   1       9.244   8.449  -5.218  0.00  0.00     0.065 H 
ATOM     27  H   LIG d   1       8.978   6.345  -3.934  0.00  0.00     0.063 H 
BRANCH  23  28
ATOM     28  N   LIG d   1       9.964   8.601  -7.752  0.00  0.00    -0.311 N 
ATOM     29  C   LIG d   1      10.239   8.565  -9.196  0.00  0.00     0.037 C 
ATOM     30  C   LIG d   1      11.442   9.464  -9.487  0.00  0.00     0.063 C 
ATOM     31  H   LIG d   1      10.464   7.544  -9.502  0.00  0.00     0.049 H 
ATOM     32  H   LIG d   1       9.371   8.931  -9.745  0.00  0.00     0.049 H 
ATOM     33  O   LIG d   1      11.216  10.754  -8.914  0.00  0.00    -0.377 OA
ATOM     34  H   LIG d   1      11.573   9.562 -10.564  0.00  0.00     0.058 H 
ATOM     35  H   LIG d   1      12.336   9.023  -9.048  0.00  0.00     0.058 H 
ATOM     36  C   LIG d   1      11.086  10.748  -7.491  0.00  0.00     0.063 C 
ATOM     37  C   LIG d   1       9.860   9.916  -7.100  0.00  0.00     0.037 C 
ATOM     38  H   LIG d   1      10.961  11.770  -7.132  0.00  0.00     0.058 H 
ATOM     39  H   LIG d   1      11.980  10.312  -7.045  0.00  0.00     0.058 H 
ATOM     40  H   LIG d   1       8.952  10.420  -7.433  0.00  0.00     0.049 H 
ATOM     41  H   LIG d   1       9.833   9.788  -6.017  0.00  0.00     0.049 H 
ENDBRANCH  23  28
ENDBRANCH  17  19
ENDBRANCH   5  14
BRANCH   1  42
ATOM     42  C   LIG d   1       7.144  -1.040  -3.713  0.00  0.00    -0.002 C 
ATOM     43  H   LIG d   1       7.831  -0.886  -2.880  0.00  0.00     0.087 H 
ATOM     44  H   LIG d   1       7.260  -2.053  -4.097  0.00  0.00     0.087 H 
BRANCH  42  45
ATOM     45  C   LIG d   1       5.728  -0.842  -3.238  0.00  0.00     0.038 A 
ATOM     46  C   LIG d   1       5.309   0.407  -2.805  0.00  0.00     0.125 A 
ATOM     47  C   LIG d   1       4.005   0.587  -2.368  0.00  0.00    -0.020 A 
ATOM     48  C   LIG d   1       3.125  -0.479  -2.367  0.00  0.00    -0.058 A 
ATOM     49  H   LIG d   1       3.677   1.559  -2.030  0.00  0.00     0.065 H 
ATOM     50  C   LIG d   1       3.545  -1.723  -2.800  0.00  0.00    -0.061 A 
ATOM     51  H   LIG d   1       2.109  -0.339  -2.028  0.00  0.00     0.062 H 
ATOM     52  C   LIG d   1       4.844  -1.904  -3.235  0.00  0.00    -0.050 A 
ATOM     53  H   LIG d   1       2.857  -2.556  -2.795  0.00  0.00     0.062 H 
ATOM     54  H   LIG d   1       5.170  -2.878  -3.574  0.00  0.00     0.062 H 
BRANCH  46  55
ATOM     55  O   LIG d   1       6.176   1.455  -2.807  0.00  0.00    -0.506 OA
ATOM     56  H   LIG d   1       6.797   1.452  -2.065  0.00  0.00     0.292 HD
ENDBRANCH  46  55
ENDBRANCH  42  45
ENDBRANCH   1  42
TORSDOF 6
ENDMDL
MODEL 8
REMARK VINA RESULT:      -7.0      2.973      4.664
REMARK  6 active torsions:
REMARK  status: ('A' for Active; 'I' for Inactive)
REMARK    1  A    between atoms: C_4  and  O_31 
REMARK    2  A    between atoms: C_5  and  C_7 
REMARK    3  A    between atoms: C_7  and  N_8 
REMARK    4  A    between atoms: C_12  and  C_14 
REMARK    5  A    between atoms: C_16  and  C_19 
REMARK    6  A    between atoms: C_22  and  N_25 
ROOT
ATOM      1  N   LIG d   1       7.558   0.481  -4.941  0.00  0.00     0.247 N 
ATOM      2  C   LIG d   1       6.923   0.389  -6.274  0.00  0.00    -0.031 C 
ATOM      3  C   LIG d   1       7.758   1.332  -7.176  0.00  0.00    -0.007 C 
ATOM      4  C   LIG d   1       9.191   1.100  -6.631  0.00  0.00     0.004 C 
ATOM      5  C   LIG d   1       8.961   0.902  -5.119  0.00  0.00     0.060 C 
ATOM      6  H   LIG d   1       9.630   0.129  -4.739  0.00  0.00     0.095 H 
ATOM      7  H   LIG d   1       6.971  -0.635  -6.647  0.00  0.00     0.082 H 
ATOM      8  H   LIG d   1       5.888   0.727  -6.225  0.00  0.00     0.082 H 
ATOM      9  H   LIG d   1       7.685   1.035  -8.223  0.00  0.00     0.032 H 
ATOM     10  H   LIG d   1       7.453   2.369  -7.044  0.00  0.00     0.032 H 
ATOM     11  H   LIG d   1       9.632   0.206  -7.074  0.00  0.00     0.033 H 
ATOM     12  H   LIG d   1       9.820   1.971  -6.815  0.00  0.00     0.033 H 
ATOM     13  H   LIG d   1       7.068   1.162  -4.381  0.00  0.00     0.204 HD
ENDROOT
BRANCH   5  14
ATOM     14  C   LIG d   1       9.204   2.198  -4.389  0.00  0.00     0.276 A 
ATOM     15  O   LIG d   1       9.320   2.338  -3.062  0.00  0.00    -0.332 OA
ATOM     16  N   LIG d   1       9.543   3.720  -2.823  0.00  0.00    -0.056 NA
ATOM     17  C   LIG d   1       9.537   4.305  -3.997  0.00  0.00     0.204 A 
ATOM     18  N   LIG d   1       9.329   3.370  -4.942  0.00  0.00    -0.186 NA
BRANCH  17  19
ATOM     19  C   LIG d   1       9.726   5.755  -4.241  0.00  0.00     0.041 A 
ATOM     20  C   LIG d   1      10.453   6.533  -3.344  0.00  0.00     0.041 A 
ATOM     21  N   LIG d   1      10.629   7.821  -3.559  0.00  0.00    -0.240 NA
ATOM     22  H   LIG d   1      10.881   6.075  -2.465  0.00  0.00     0.084 H 
ATOM     23  C   LIG d   1      10.117   8.427  -4.620  0.00  0.00     0.121 A 
ATOM     24  C   LIG d   1       9.372   7.716  -5.558  0.00  0.00    -0.021 A 
ATOM     25  C   LIG d   1       9.171   6.363  -5.373  0.00  0.00    -0.046 A 
ATOM     26  H   LIG d   1       8.959   8.218  -6.421  0.00  0.00     0.065 H 
ATOM     27  H   LIG d   1       8.597   5.788  -6.086  0.00  0.00     0.063 H 
BRANCH  23  28
ATOM     28  N   LIG d   1      10.326   9.788  -4.799  0.00  0.00    -0.311 N 
ATOM     29  C   LIG d   1      10.040  10.746  -3.721  0.00  0.00     0.037 C 
ATOM     30  C   LIG d   1       9.168  11.869  -4.282  0.00  0.00     0.063 C 
ATOM     31  H   LIG d   1       9.511  10.242  -2.912  0.00  0.00     0.049 H 
ATOM     32  H   LIG d   1      10.974  11.164  -3.344  0.00  0.00     0.049 H 
ATOM     33  O   LIG d   1       9.783  12.400  -5.459  0.00  0.00    -0.377 OA
ATOM     34  H   LIG d   1       9.064  12.658  -3.539  0.00  0.00     0.058 H 
ATOM     35  H   LIG d   1       8.186  11.471  -4.534  0.00  0.00     0.058 H 
ATOM     36  C   LIG d   1       9.917  11.458  -6.526  0.00  0.00     0.063 C 
ATOM     37  C   LIG d   1      10.833  10.314  -6.076  0.00  0.00     0.037 C 
ATOM     38  H   LIG d   1      10.352  11.952  -7.395  0.00  0.00     0.058 H 
ATOM     39  H   LIG d   1       8.936  11.059  -6.785  0.00  0.00     0.058 H 
ATOM     40  H   LIG d   1      11.848  10.688  -5.941  0.00  0.00     0.049 H 
ATOM     41  H   LIG d   1      10.829   9.524  -6.827  0.00  0.00     0.049 H 
ENDBRANCH  23  28
ENDBRANCH  17  19
ENDBRANCH   5  14
BRANCH   1  42
ATOM     42  C   LIG d   1       7.514  -0.829  -4.280  0.00  0.00    -0.002 C 
ATOM     43  H   LIG d   1       8.319  -0.894  -3.548  0.00  0.00     0.087 H 
ATOM     44  H   LIG d   1       7.637  -1.616  -5.025  0.00  0.00     0.087 H 
BRANCH  42  45
ATOM     45  C   LIG d   1       6.188  -0.998  -3.586  0.00  0.00     0.038 A 
ATOM     46  C   LIG d   1       5.671   0.033  -2.817  0.00  0.00     0.125 A 
ATOM     47  C   LIG d   1       4.449  -0.124  -2.179  0.00  0.00    -0.020 A 
ATOM     48  C   LIG d   1       3.750  -1.308  -2.312  0.00  0.00    -0.058 A 
ATOM     49  H   LIG d   1       4.045   0.678  -1.579  0.00  0.00     0.065 H 
ATOM     50  C   LIG d   1       4.267  -2.335  -3.080  0.00  0.00    -0.061 A 
ATOM     51  H   LIG d   1       2.798  -1.431  -1.817  0.00  0.00     0.062 H 
ATOM     52  C   LIG d   1       5.484  -2.180  -3.717  0.00  0.00    -0.050 A 
ATOM     53  H   LIG d   1       3.720  -3.261  -3.181  0.00  0.00     0.062 H 
ATOM     54  H   LIG d   1       5.886  -2.984  -4.317  0.00  0.00     0.062 H 
BRANCH  46  55
ATOM     55  O   LIG d   1       6.361   1.198  -2.687  0.00  0.00    -0.506 OA
ATOM     56  H   LIG d   1       7.093   1.152  -2.058  0.00  0.00     0.292 HD
ENDBRANCH  46  55
ENDBRANCH  42  45
ENDBRANCH   1  42
TORSDOF 6
ENDMDL
MODEL 9
REMARK VINA RESULT:      -6.9      5.870     10.087
REMARK  6 active torsions:
REMARK  status: ('A' for Active; 'I' for Inactive)
REMARK    1  A    between atoms: C_4  and  O_31 
REMARK    2  A    between atoms: C_5  and  C_7 
REMARK    3  A    between atoms: C_7  and  N_8 
REMARK    4  A    between atoms: C_12  and  C_14 
REMARK    5  A    between atoms: C_16  and  C_19 
REMARK    6  A    between atoms: C_22  and  N_25 
ROOT
ATOM      1  N   LIG d   1       4.005  -0.503  -6.731  0.00  0.00     0.247 N 
ATOM      2  C   LIG d   1       4.429   0.715  -7.454  0.00  0.00    -0.031 C 
ATOM      3  C   LIG d   1       4.822   0.219  -8.868  0.00  0.00    -0.007 C 
ATOM      4  C   LIG d   1       3.763  -0.886  -9.119  0.00  0.00     0.004 C 
ATOM      5  C   LIG d   1       3.573  -1.509  -7.720  0.00  0.00     0.060 C 
ATOM      6  H   LIG d   1       2.522  -1.754  -7.562  0.00  0.00     0.095 H 
ATOM      7  H   LIG d   1       3.604   1.426  -7.516  0.00  0.00     0.082 H 
ATOM      8  H   LIG d   1       5.287   1.171  -6.959  0.00  0.00     0.082 H 
ATOM      9  H   LIG d   1       4.731   1.021  -9.602  0.00  0.00     0.032 H 
ATOM     10  H   LIG d   1       5.829  -0.197  -8.870  0.00  0.00     0.032 H 
ATOM     11  H   LIG d   1       2.829  -0.451  -9.477  0.00  0.00     0.033 H 
ATOM     12  H   LIG d   1       4.138  -1.627  -9.823  0.00  0.00     0.033 H 
ATOM     13  H   LIG d   1       4.781  -0.865  -6.196  0.00  0.00     0.204 HD
ENDROOT
BRANCH   5  14
ATOM     14  C   LIG d   1       4.418  -2.750  -7.592  0.00  0.00     0.276 A 
ATOM     15  O   LIG d   1       5.725  -2.839  -7.872  0.00  0.00    -0.332 OA
ATOM     16  N   LIG d   1       6.101  -4.182  -7.606  0.00  0.00    -0.056 NA
ATOM     17  C   LIG d   1       5.017  -4.797  -7.201  0.00  0.00     0.204 A 
ATOM     18  N   LIG d   1       3.999  -3.917  -7.196  0.00  0.00    -0.186 NA
BRANCH  17  19
ATOM     19  C   LIG d   1       4.928  -6.226  -6.813  0.00  0.00     0.041 A 
ATOM     20  C   LIG d   1       4.334  -7.153  -7.666  0.00  0.00     0.041 A 
ATOM     21  N   LIG d   1       4.258  -8.424  -7.328  0.00  0.00    -0.240 NA
ATOM     22  H   LIG d   1       3.938  -6.827  -8.616  0.00  0.00     0.084 H 
ATOM     23  C   LIG d   1       4.725  -8.868  -6.170  0.00  0.00     0.121 A 
ATOM     24  C   LIG d   1       5.325  -7.999  -5.263  0.00  0.00    -0.021 A 
ATOM     25  C   LIG d   1       5.432  -6.660  -5.582  0.00  0.00    -0.046 A 
ATOM     26  H   LIG d   1       5.704  -8.369  -4.321  0.00  0.00     0.065 H 
ATOM     27  H   LIG d   1       5.894  -5.964  -4.896  0.00  0.00     0.063 H 
BRANCH  23  28
ATOM     28  N   LIG d   1       4.615 -10.216  -5.859  0.00  0.00    -0.311 N 
ATOM     29  C   LIG d   1       4.803 -10.692  -4.480  0.00  0.00     0.037 C 
ATOM     30  C   LIG d   1       5.802 -11.849  -4.494  0.00  0.00     0.063 C 
ATOM     31  H   LIG d   1       5.191  -9.883  -3.861  0.00  0.00     0.049 H 
ATOM     32  H   LIG d   1       3.852 -11.038  -4.077  0.00  0.00     0.049 H 
ATOM     33  O   LIG d   1       5.381 -12.824  -5.451  0.00  0.00    -0.377 OA
ATOM     34  H   LIG d   1       5.848 -12.306  -3.506  0.00  0.00     0.058 H 
ATOM     35  H   LIG d   1       6.787 -11.473  -4.768  0.00  0.00     0.058 H 
ATOM     36  C   LIG d   1       5.341 -12.344  -6.797  0.00  0.00     0.063 C 
ATOM     37  C   LIG d   1       4.313 -11.212  -6.899  0.00  0.00     0.037 C 
ATOM     38  H   LIG d   1       5.055 -13.157  -7.465  0.00  0.00     0.058 H 
ATOM     39  H   LIG d   1       6.325 -11.970  -7.079  0.00  0.00     0.058 H 
ATOM     40  H   LIG d   1       3.310 -11.611  -6.745  0.00  0.00     0.049 H 
ATOM     41  H   LIG d   1       4.376 -10.746  -7.883  0.00  0.00     0.049 H 
ENDBRANCH  23  28
ENDBRANCH  17  19
ENDBRANCH   5  14
BRANCH   1  42
ATOM     42  C   LIG d   1       2.890  -0.182  -5.832  0.00  0.00    -0.002 C 
ATOM     43  H   LIG d   1       2.114  -0.941  -5.929  0.00  0.00     0.087 H 
ATOM     44  H   LIG d   1       2.479   0.793  -6.097  0.00  0.00     0.087 H 
BRANCH  42  45
ATOM     45  C   LIG d   1       3.384  -0.147  -4.409  0.00  0.00     0.038 A 
ATOM     46  C   LIG d   1       3.784  -1.319  -3.785  0.00  0.00     0.125 A 
ATOM     47  C   LIG d   1       4.239  -1.285  -2.475  0.00  0.00    -0.020 A 
ATOM     48  C   LIG d   1       4.294  -0.083  -1.795  0.00  0.00    -0.058 A 
ATOM     49  H   LIG d   1       4.551  -2.197  -1.987  0.00  0.00     0.065 H 
ATOM     50  C   LIG d   1       3.896   1.084  -2.420  0.00  0.00    -0.061 A 
ATOM     51  H   LIG d   1       4.649  -0.056  -0.776  0.00  0.00     0.062 H 
ATOM     52  C   LIG d   1       3.442   1.052  -3.725  0.00  0.00    -0.050 A 
ATOM     53  H   LIG d   1       3.936   2.022  -1.886  0.00  0.00     0.062 H 
ATOM     54  H   LIG d   1       3.131   1.966  -4.212  0.00  0.00     0.062 H 
BRANCH  46  55
ATOM     55  O   LIG d   1       3.729  -2.501  -4.455  0.00  0.00    -0.506 OA
ATOM     56  H   LIG d   1       2.846  -2.893  -4.489  0.00  0.00     0.292 HD
ENDBRANCH  46  55
ENDBRANCH  42  45
ENDBRANCH   1  42
TORSDOF 6
ENDMDL
