MODEL 1
REMARK VINA RESULT:      -5.2      0.000      0.000
REMARK  6 active torsions:
REMARK  status: ('A' for Active; 'I' for Inactive)
REMARK    1  A    between atoms: C_1  and  C_2 
REMARK    2  A    between atoms: C_2  and  C_20 
REMARK    3  A    between atoms: C_8  and  C_19 
REMARK    4  A    between atoms: C_15  and  C_17 
REMARK    5  A    between atoms: C_15  and  C_18 
REMARK    6  A    between atoms: C_19  and  N_39 
ROOT
ATOM      1  C   LIG d   1       4.626   0.464  -8.573  0.00  0.00     0.166 C 
ATOM      2  O   LIG d   1       4.350  -0.959  -8.523  0.00  0.00    -0.341 OA
ATOM      3  C   LIG d   1       4.307  -1.237  -7.120  0.00  0.00     0.114 C 
ATOM      4  H   LIG d   1       3.366  -0.904  -6.682  0.00  0.00     0.065 H 
ATOM      5  C   LIG d   1       4.630  -2.664  -6.706  0.00  0.00     0.080 C 
ATOM      6  O   LIG d   1       4.639  -2.652  -5.253  0.00  0.00    -0.340 OA
ATOM      7  C   LIG d   1       5.525  -1.771  -4.572  0.00  0.00     0.243 C 
ATOM      8  C   LIG d   1       5.485  -0.328  -5.137  0.00  0.00     0.149 C 
ATOM      9  H   LIG d   1       6.331   0.248  -4.766  0.00  0.00     0.068 H 
ATOM     10  C   LIG d   1       5.500  -0.366  -6.635  0.00  0.00     0.122 C 
ATOM     11  H   LIG d   1       6.430  -0.825  -6.969  0.00  0.00     0.065 H 
ATOM     12  O   LIG d   1       5.299   0.843  -7.349  0.00  0.00    -0.341 OA
ATOM     13  O   LIG d   1       4.254   0.188  -4.598  0.00  0.00    -0.338 OA
ATOM     14  C   LIG d   1       4.183  -0.375  -3.274  0.00  0.00     0.169 C 
ATOM     15  O   LIG d   1       4.969  -1.574  -3.239  0.00  0.00    -0.311 OA
ATOM     16  H   LIG d   1       3.863  -3.345  -7.077  0.00  0.00     0.059 H 
ATOM     17  H   LIG d   1       5.607  -2.954  -7.093  0.00  0.00     0.059 H 
ENDROOT
BRANCH   1  18
ATOM     18  C   LIG d   1       5.526   0.772  -9.771  0.00  0.00    -0.011 C 
ATOM     19  H   LIG d   1       6.478   0.254  -9.654  0.00  0.00     0.028 H 
ATOM     20  H   LIG d   1       5.039   0.435 -10.686  0.00  0.00     0.028 H 
ATOM     21  H   LIG d   1       5.702   1.847  -9.827  0.00  0.00     0.028 H 
ENDBRANCH   1  18
BRANCH   1  22
ATOM     22  C   LIG d   1       3.314   1.240  -8.702  0.00  0.00    -0.011 C 
ATOM     23  H   LIG d   1       3.529   2.305  -8.788  0.00  0.00     0.028 H 
ATOM     24  H   LIG d   1       2.779   0.903  -9.590  0.00  0.00     0.028 H 
ATOM     25  H   LIG d   1       2.700   1.064  -7.818  0.00  0.00     0.028 H 
ENDBRANCH   1  22
BRANCH   7  26
ATOM     26  C   LIG d   1       6.954  -2.315  -4.528  0.00  0.00     0.023 C 
ATOM     27  H   LIG d   1       6.932  -3.402  -4.587  0.00  0.00     0.087 H 
ATOM     28  H   LIG d   1       7.520  -1.917  -5.371  0.00  0.00     0.087 H 
BRANCH  26  29
ATOM     29  N   LIG d   1       7.596  -1.879  -3.275  0.00  0.00     0.222 N 
ATOM     30  H   LIG d   1       6.997  -2.103  -2.480  0.00  0.00     0.200 HD
ATOM     31  H   LIG d   1       8.495  -2.344  -3.163  0.00  0.00     0.200 HD
ATOM     32  H   LIG d   1       7.744  -0.863  -3.306  0.00  0.00     0.200 HD
ENDBRANCH  26  29
ENDBRANCH   7  26
BRANCH  14  33
ATOM     33  C   LIG d   1       4.734   0.630  -2.260  0.00  0.00    -0.011 C 
ATOM     34  H   LIG d   1       3.936   1.304  -1.947  0.00  0.00     0.028 H 
ATOM     35  H   LIG d   1       5.118   0.095  -1.392  0.00  0.00     0.028 H 
ATOM     36  H   LIG d   1       5.537   1.206  -2.717  0.00  0.00     0.028 H 
ENDBRANCH  14  33
BRANCH  14  37
ATOM     37  C   LIG d   1       2.729  -0.706  -2.933  0.00  0.00    -0.011 C 
ATOM     38  H   LIG d   1       2.702  -1.423  -2.113  0.00  0.00     0.028 H 
ATOM     39  H   LIG d   1       2.208   0.205  -2.637  0.00  0.00     0.028 H 
ATOM     40  H   LIG d   1       2.240  -1.135  -3.808  0.00  0.00     0.028 H 
ENDBRANCH  14  37
TORSDOF 6
ENDMDL
MODEL 2
REMARK VINA RESULT:      -5.1      2.085      4.966
REMARK  6 active torsions:
REMARK  status: ('A' for Active; 'I' for Inactive)
REMARK    1  A    between atoms: C_1  and  C_2 
REMARK    2  A    between atoms: C_2  and  C_20 
REMARK    3  A    between atoms: C_8  and  C_19 
REMARK    4  A    between atoms: C_15  and  C_17 
REMARK    5  A    between atoms: C_15  and  C_18 
REMARK    6  A    between atoms: C_19  and  N_39 
ROOT
ATOM      1  C   LIG d   1       4.608  -0.106  -3.205  0.00  0.00     0.166 C 
ATOM      2  O   LIG d   1       5.896  -0.521  -3.726  0.00  0.00    -0.341 OA
ATOM      3  C   LIG d   1       5.738  -0.386  -5.141  0.00  0.00     0.114 C 
ATOM      4  H   LIG d   1       5.803   0.659  -5.447  0.00  0.00     0.065 H 
ATOM      5  C   LIG d   1       6.627  -1.265  -6.006  0.00  0.00     0.080 C 
ATOM      6  O   LIG d   1       6.192  -1.031  -7.373  0.00  0.00    -0.340 OA
ATOM      7  C   LIG d   1       4.834  -1.279  -7.720  0.00  0.00     0.243 C 
ATOM      8  C   LIG d   1       3.836  -0.663  -6.707  0.00  0.00     0.149 C 
ATOM      9  H   LIG d   1       2.837  -1.070  -6.864  0.00  0.00     0.068 H 
ATOM     10  C   LIG d   1       4.294  -0.938  -5.307  0.00  0.00     0.122 C 
ATOM     11  H   LIG d   1       4.308  -2.015  -5.142  0.00  0.00     0.065 H 
ATOM     12  O   LIG d   1       3.610  -0.315  -4.232  0.00  0.00    -0.341 OA
ATOM     13  O   LIG d   1       3.864   0.735  -7.046  0.00  0.00    -0.338 OA
ATOM     14  C   LIG d   1       3.975   0.749  -8.482  0.00  0.00     0.169 C 
ATOM     15  O   LIG d   1       4.560  -0.488  -8.912  0.00  0.00    -0.311 OA
ATOM     16  H   LIG d   1       7.672  -0.976  -5.885  0.00  0.00     0.059 H 
ATOM     17  H   LIG d   1       6.495  -2.312  -5.736  0.00  0.00     0.059 H 
ENDROOT
BRANCH   1  18
ATOM     18  C   LIG d   1       4.259  -0.939  -1.970  0.00  0.00    -0.011 C 
ATOM     19  H   LIG d   1       3.175  -0.983  -1.856  0.00  0.00     0.028 H 
ATOM     20  H   LIG d   1       4.652  -1.949  -2.091  0.00  0.00     0.028 H 
ATOM     21  H   LIG d   1       4.699  -0.480  -1.085  0.00  0.00     0.028 H 
ENDBRANCH   1  18
BRANCH   1  22
ATOM     22  C   LIG d   1       4.657   1.376  -2.828  0.00  0.00    -0.011 C 
ATOM     23  H   LIG d   1       4.624   1.476  -1.743  0.00  0.00     0.028 H 
ATOM     24  H   LIG d   1       5.580   1.816  -3.206  0.00  0.00     0.028 H 
ATOM     25  H   LIG d   1       3.803   1.891  -3.267  0.00  0.00     0.028 H 
ENDBRANCH   1  22
BRANCH   7  26
ATOM     26  C   LIG d   1       4.561  -2.769  -7.939  0.00  0.00     0.023 C 
ATOM     27  H   LIG d   1       5.243  -3.156  -8.695  0.00  0.00     0.087 H 
ATOM     28  H   LIG d   1       4.713  -3.308  -7.003  0.00  0.00     0.087 H 
BRANCH  26  29
ATOM     29  N   LIG d   1       3.162  -2.943  -8.369  0.00  0.00     0.222 N 
ATOM     30  H   LIG d   1       2.751  -3.750  -7.901  0.00  0.00     0.200 HD
ATOM     31  H   LIG d   1       2.622  -2.110  -8.143  0.00  0.00     0.200 HD
ATOM     32  H   LIG d   1       3.137  -3.095  -9.384  0.00  0.00     0.200 HD
ENDBRANCH  26  29
ENDBRANCH   7  26
BRANCH  14  33
ATOM     33  C   LIG d   1       2.586   0.904  -9.103  0.00  0.00    -0.011 C 
ATOM     34  H   LIG d   1       2.635   0.670 -10.167  0.00  0.00     0.028 H 
ATOM     35  H   LIG d   1       1.891   0.223  -8.613  0.00  0.00     0.028 H 
ATOM     36  H   LIG d   1       2.241   1.930  -8.973  0.00  0.00     0.028 H 
ENDBRANCH  14  33
BRANCH  14  37
ATOM     37  C   LIG d   1       4.866   1.914  -8.917  0.00  0.00    -0.011 C 
ATOM     38  H   LIG d   1       4.517   2.834  -8.448  0.00  0.00     0.028 H 
ATOM     39  H   LIG d   1       5.895   1.720  -8.612  0.00  0.00     0.028 H 
ATOM     40  H   LIG d   1       4.822   2.020 -10.000  0.00  0.00     0.028 H 
ENDBRANCH  14  37
TORSDOF 6
ENDMDL
MODEL 3
REMARK VINA RESULT:      -5.0      2.297      4.624
REMARK  6 active torsions:
REMARK  status: ('A' for Active; 'I' for Inactive)
REMARK    1  A    between atoms: C_1  and  C_2 
REMARK    2  A    between atoms: C_2  and  C_20 
REMARK    3  A    between atoms: C_8  and  C_19 
REMARK    4  A    between atoms: C_15  and  C_17 
REMARK    5  A    between atoms: C_15  and  C_18 
REMARK    6  A    between atoms: C_19  and  N_39 
ROOT
ATOM      1  C   LIG d   1       8.323  -3.550  -4.535  0.00  0.00     0.166 C 
ATOM      2  O   LIG d   1       8.753  -2.262  -5.045  0.00  0.00    -0.341 OA
ATOM      3  C   LIG d   1       7.644  -1.406  -4.756  0.00  0.00     0.114 C 
ATOM      4  H   LIG d   1       7.625  -1.130  -3.701  0.00  0.00     0.065 H 
ATOM      5  C   LIG d   1       7.487  -0.183  -5.645  0.00  0.00     0.080 C 
ATOM      6  O   LIG d   1       6.241   0.440  -5.230  0.00  0.00    -0.340 OA
ATOM      7  C   LIG d   1       5.037  -0.317  -5.283  0.00  0.00     0.243 C 
ATOM      8  C   LIG d   1       5.188  -1.726  -4.656  0.00  0.00     0.149 C 
ATOM      9  H   LIG d   1       4.340  -2.355  -4.927  0.00  0.00     0.068 H 
ATOM     10  C   LIG d   1       6.467  -2.355  -5.116  0.00  0.00     0.122 C 
ATOM     11  H   LIG d   1       6.433  -2.479  -6.199  0.00  0.00     0.065 H 
ATOM     12  O   LIG d   1       6.877  -3.578  -4.525  0.00  0.00    -0.341 OA
ATOM     13  O   LIG d   1       5.173  -1.447  -3.244  0.00  0.00    -0.338 OA
ATOM     14  C   LIG d   1       4.212  -0.383  -3.104  0.00  0.00     0.169 C 
ATOM     15  O   LIG d   1       4.110   0.314  -4.353  0.00  0.00    -0.311 OA
ATOM     16  H   LIG d   1       8.323   0.501  -5.493  0.00  0.00     0.059 H 
ATOM     17  H   LIG d   1       7.435  -0.484  -6.691  0.00  0.00     0.059 H 
ENDROOT
BRANCH   1  18
ATOM     18  C   LIG d   1       8.854  -4.665  -5.438  0.00  0.00    -0.011 C 
ATOM     19  H   LIG d   1       8.152  -4.838  -6.253  0.00  0.00     0.028 H 
ATOM     20  H   LIG d   1       9.821  -4.371  -5.847  0.00  0.00     0.028 H 
ATOM     21  H   LIG d   1       8.968  -5.580  -4.856  0.00  0.00     0.028 H 
ENDBRANCH   1  18
BRANCH   1  22
ATOM     22  C   LIG d   1       8.852  -3.743  -3.113  0.00  0.00    -0.011 C 
ATOM     23  H   LIG d   1       9.422  -4.671  -3.060  0.00  0.00     0.028 H 
ATOM     24  H   LIG d   1       9.497  -2.905  -2.847  0.00  0.00     0.028 H 
ATOM     25  H   LIG d   1       8.014  -3.791  -2.417  0.00  0.00     0.028 H 
ENDBRANCH   1  22
BRANCH   7  26
ATOM     26  C   LIG d   1       4.470  -0.395  -6.702  0.00  0.00     0.023 C 
ATOM     27  H   LIG d   1       4.830   0.453  -7.285  0.00  0.00     0.087 H 
ATOM     28  H   LIG d   1       4.794  -1.323  -7.173  0.00  0.00     0.087 H 
BRANCH  26  29
ATOM     29  N   LIG d   1       2.998  -0.383  -6.633  0.00  0.00     0.222 N 
ATOM     30  H   LIG d   1       2.629  -1.296  -6.898  0.00  0.00     0.200 HD
ATOM     31  H   LIG d   1       2.695  -0.158  -5.687  0.00  0.00     0.200 HD
ATOM     32  H   LIG d   1       2.635   0.326  -7.281  0.00  0.00     0.200 HD
ENDBRANCH  26  29
ENDBRANCH   7  26
BRANCH  14  33
ATOM     33  C   LIG d   1       2.849  -0.967  -2.728  0.00  0.00    -0.011 C 
ATOM     34  H   LIG d   1       2.955  -2.033  -2.523  0.00  0.00     0.028 H 
ATOM     35  H   LIG d   1       2.471  -0.463  -1.840  0.00  0.00     0.028 H 
ATOM     36  H   LIG d   1       2.152  -0.824  -3.553  0.00  0.00     0.028 H 
ENDBRANCH  14  33
BRANCH  14  37
ATOM     37  C   LIG d   1       4.675   0.586  -2.014  0.00  0.00    -0.011 C 
ATOM     38  H   LIG d   1       5.134   0.026  -1.201  0.00  0.00     0.028 H 
ATOM     39  H   LIG d   1       5.401   1.283  -2.431  0.00  0.00     0.028 H 
ATOM     40  H   LIG d   1       3.817   1.141  -1.634  0.00  0.00     0.028 H 
ENDBRANCH  14  37
TORSDOF 6
ENDMDL
MODEL 4
REMARK VINA RESULT:      -4.7      2.785      4.151
REMARK  6 active torsions:
REMARK  status: ('A' for Active; 'I' for Inactive)
REMARK    1  A    between atoms: C_1  and  C_2 
REMARK    2  A    between atoms: C_2  and  C_20 
REMARK    3  A    between atoms: C_8  and  C_19 
REMARK    4  A    between atoms: C_15  and  C_17 
REMARK    5  A    between atoms: C_15  and  C_18 
REMARK    6  A    between atoms: C_19  and  N_39 
ROOT
ATOM      1  C   LIG d   1       8.633   1.706  -4.474  0.00  0.00     0.166 C 
ATOM      2  O   LIG d   1       8.982   0.298  -4.478  0.00  0.00    -0.341 OA
ATOM      3  C   LIG d   1       7.735  -0.349  -4.747  0.00  0.00     0.114 C 
ATOM      4  H   LIG d   1       7.473  -0.275  -5.803  0.00  0.00     0.065 H 
ATOM      5  C   LIG d   1       7.596  -1.778  -4.248  0.00  0.00     0.080 C 
ATOM      6  O   LIG d   1       6.222  -2.156  -4.533  0.00  0.00    -0.340 OA
ATOM      7  C   LIG d   1       5.162  -1.379  -3.987  0.00  0.00     0.243 C 
ATOM      8  C   LIG d   1       5.371   0.143  -4.187  0.00  0.00     0.149 C 
ATOM      9  H   LIG d   1       4.682   0.706  -3.558  0.00  0.00     0.068 H 
ATOM     10  C   LIG d   1       6.787   0.511  -3.865  0.00  0.00     0.122 C 
ATOM     11  H   LIG d   1       6.982   0.287  -2.816  0.00  0.00     0.065 H 
ATOM     12  O   LIG d   1       7.230   1.829  -4.146  0.00  0.00    -0.341 OA
ATOM     13  O   LIG d   1       5.042   0.327  -5.576  0.00  0.00    -0.338 OA
ATOM     14  C   LIG d   1       3.942  -0.575  -5.803  0.00  0.00     0.169 C 
ATOM     15  O   LIG d   1       3.995  -1.623  -4.826  0.00  0.00    -0.311 OA
ATOM     16  H   LIG d   1       8.289  -2.431  -4.780  0.00  0.00     0.059 H 
ATOM     17  H   LIG d   1       7.791  -1.821  -3.176  0.00  0.00     0.059 H 
ENDROOT
BRANCH   1  18
ATOM     18  C   LIG d   1       9.473   2.442  -3.427  0.00  0.00    -0.011 C 
ATOM     19  H   LIG d   1       9.050   3.431  -3.252  0.00  0.00     0.028 H 
ATOM     20  H   LIG d   1       9.470   1.875  -2.496  0.00  0.00     0.028 H 
ATOM     21  H   LIG d   1      10.497   2.543  -3.788  0.00  0.00     0.028 H 
ENDBRANCH   1  18
BRANCH   1  22
ATOM     22  C   LIG d   1       8.894   2.306  -5.857  0.00  0.00    -0.011 C 
ATOM     23  H   LIG d   1       8.484   1.646  -6.622  0.00  0.00     0.028 H 
ATOM     24  H   LIG d   1       8.416   3.283  -5.925  0.00  0.00     0.028 H 
ATOM     25  H   LIG d   1       9.968   2.415  -6.009  0.00  0.00     0.028 H 
ENDBRANCH   1  22
BRANCH   7  26
ATOM     26  C   LIG d   1       4.899  -1.719  -2.518  0.00  0.00     0.023 C 
ATOM     27  H   LIG d   1       5.729  -2.307  -2.127  0.00  0.00     0.087 H 
ATOM     28  H   LIG d   1       4.804  -0.797  -1.943  0.00  0.00     0.087 H 
BRANCH  26  29
ATOM     29  N   LIG d   1       3.640  -2.477  -2.418  0.00  0.00     0.222 N 
ATOM     30  H   LIG d   1       2.973  -1.970  -1.837  0.00  0.00     0.200 HD
ATOM     31  H   LIG d   1       3.242  -2.617  -3.345  0.00  0.00     0.200 HD
ATOM     32  H   LIG d   1       3.828  -3.392  -1.991  0.00  0.00     0.200 HD
ENDBRANCH  26  29
ENDBRANCH   7  26
BRANCH  14  33
ATOM     33  C   LIG d   1       2.621   0.185  -5.669  0.00  0.00    -0.011 C 
ATOM     34  H   LIG d   1       2.624   0.759  -4.742  0.00  0.00     0.028 H 
ATOM     35  H   LIG d   1       2.504   0.862  -6.515  0.00  0.00     0.028 H 
ATOM     36  H   LIG d   1       1.793  -0.524  -5.654  0.00  0.00     0.028 H 
ENDBRANCH  14  33
BRANCH  14  37
ATOM     37  C   LIG d   1       4.050  -1.176  -7.205  0.00  0.00    -0.011 C 
ATOM     38  H   LIG d   1       3.946  -0.386  -7.948  0.00  0.00     0.028 H 
ATOM     39  H   LIG d   1       5.021  -1.658  -7.320  0.00  0.00     0.028 H 
ATOM     40  H   LIG d   1       3.261  -1.914  -7.346  0.00  0.00     0.028 H 
ENDBRANCH  14  37
TORSDOF 6
ENDMDL
MODEL 5
REMARK VINA RESULT:      -4.7      1.731      2.303
REMARK  6 active torsions:
REMARK  status: ('A' for Active; 'I' for Inactive)
REMARK    1  A    between atoms: C_1  and  C_2 
REMARK    2  A    between atoms: C_2  and  C_20 
REMARK    3  A    between atoms: C_8  and  C_19 
REMARK    4  A    between atoms: C_15  and  C_17 
REMARK    5  A    between atoms: C_15  and  C_18 
REMARK    6  A    between atoms: C_19  and  N_39 
ROOT
ATOM      1  C   LIG d   1       3.174   0.631  -8.191  0.00  0.00     0.166 C 
ATOM      2  O   LIG d   1       4.550   0.325  -8.531  0.00  0.00    -0.341 OA
ATOM      3  C   LIG d   1       5.018  -0.401  -7.391  0.00  0.00     0.114 C 
ATOM      4  H   LIG d   1       4.649  -1.427  -7.399  0.00  0.00     0.065 H 
ATOM      5  C   LIG d   1       6.516  -0.360  -7.134  0.00  0.00     0.080 C 
ATOM      6  O   LIG d   1       6.712  -1.058  -5.874  0.00  0.00    -0.340 OA
ATOM      7  C   LIG d   1       6.039  -0.589  -4.711  0.00  0.00     0.243 C 
ATOM      8  C   LIG d   1       4.536  -0.310  -4.961  0.00  0.00     0.149 C 
ATOM      9  H   LIG d   1       4.115   0.266  -4.137  0.00  0.00     0.068 H 
ATOM     10  C   LIG d   1       4.363   0.430  -6.253  0.00  0.00     0.122 C 
ATOM     11  H   LIG d   1       4.869   1.392  -6.182  0.00  0.00     0.065 H 
ATOM     12  O   LIG d   1       3.049   0.635  -6.749  0.00  0.00    -0.341 OA
ATOM     13  O   LIG d   1       3.968  -1.632  -4.987  0.00  0.00    -0.338 OA
ATOM     14  C   LIG d   1       4.702  -2.352  -3.978  0.00  0.00     0.169 C 
ATOM     15  O   LIG d   1       5.973  -1.716  -3.789  0.00  0.00    -0.311 OA
ATOM     16  H   LIG d   1       7.048  -0.870  -7.938  0.00  0.00     0.059 H 
ATOM     17  H   LIG d   1       6.855   0.673  -7.057  0.00  0.00     0.059 H 
ENDROOT
BRANCH   1  18
ATOM     18  C   LIG d   1       2.801   2.008  -8.744  0.00  0.00    -0.011 C 
ATOM     19  H   LIG d   1       3.088   2.777  -8.027  0.00  0.00     0.028 H 
ATOM     20  H   LIG d   1       3.324   2.174  -9.685  0.00  0.00     0.028 H 
ATOM     21  H   LIG d   1       1.724   2.052  -8.913  0.00  0.00     0.028 H 
ENDBRANCH   1  18
BRANCH   1  22
ATOM     22  C   LIG d   1       2.248  -0.431  -8.786  0.00  0.00    -0.011 C 
ATOM     23  H   LIG d   1       1.895  -0.099  -9.762  0.00  0.00     0.028 H 
ATOM     24  H   LIG d   1       2.793  -1.369  -8.895  0.00  0.00     0.028 H 
ATOM     25  H   LIG d   1       1.395  -0.581  -8.123  0.00  0.00     0.028 H 
ENDBRANCH   1  22
BRANCH   7  26
ATOM     26  C   LIG d   1       6.739   0.623  -4.092  0.00  0.00     0.023 C 
ATOM     27  H   LIG d   1       6.685   1.465  -4.782  0.00  0.00     0.087 H 
ATOM     28  H   LIG d   1       6.246   0.888  -3.156  0.00  0.00     0.087 H 
BRANCH  26  29
ATOM     29  N   LIG d   1       8.143   0.276  -3.812  0.00  0.00     0.222 N 
ATOM     30  H   LIG d   1       8.609  -0.014  -4.671  0.00  0.00     0.200 HD
ATOM     31  H   LIG d   1       8.629   1.080  -3.418  0.00  0.00     0.200 HD
ATOM     32  H   LIG d   1       8.172  -0.498  -3.138  0.00  0.00     0.200 HD
ENDBRANCH  26  29
ENDBRANCH   7  26
BRANCH  14  33
ATOM     33  C   LIG d   1       3.918  -2.335  -2.664  0.00  0.00    -0.011 C 
ATOM     34  H   LIG d   1       3.374  -1.395  -2.578  0.00  0.00     0.028 H 
ATOM     35  H   LIG d   1       3.212  -3.166  -2.652  0.00  0.00     0.028 H 
ATOM     36  H   LIG d   1       4.609  -2.433  -1.827  0.00  0.00     0.028 H 
ENDBRANCH  14  33
BRANCH  14  37
ATOM     37  C   LIG d   1       4.915  -3.797  -4.432  0.00  0.00    -0.011 C 
ATOM     38  H   LIG d   1       5.855  -3.872  -4.977  0.00  0.00     0.028 H 
ATOM     39  H   LIG d   1       4.947  -4.451  -3.560  0.00  0.00     0.028 H 
ATOM     40  H   LIG d   1       4.093  -4.099  -5.081  0.00  0.00     0.028 H 
ENDBRANCH  14  37
TORSDOF 6
ENDMDL
MODEL 6
REMARK VINA RESULT:      -4.6      2.359      4.252
REMARK  6 active torsions:
REMARK  status: ('A' for Active; 'I' for Inactive)
REMARK    1  A    between atoms: C_1  and  C_2 
REMARK    2  A    between atoms: C_2  and  C_20 
REMARK    3  A    between atoms: C_8  and  C_19 
REMARK    4  A    between atoms: C_15  and  C_17 
REMARK    5  A    between atoms: C_15  and  C_18 
REMARK    6  A    between atoms: C_19  and  N_39 
ROOT
ATOM      1  C   LIG d   1       5.452  -4.615  -5.859  0.00  0.00     0.166 C 
ATOM      2  O   LIG d   1       5.789  -3.678  -6.913  0.00  0.00    -0.341 OA
ATOM      3  C   LIG d   1       5.683  -2.405  -6.269  0.00  0.00     0.114 C 
ATOM      4  H   LIG d   1       6.549  -2.211  -5.637  0.00  0.00     0.065 H 
ATOM      5  C   LIG d   1       5.383  -1.217  -7.169  0.00  0.00     0.080 C 
ATOM      6  O   LIG d   1       5.205  -0.087  -6.272  0.00  0.00    -0.340 OA
ATOM      7  C   LIG d   1       4.205  -0.155  -5.262  0.00  0.00     0.243 C 
ATOM      8  C   LIG d   1       4.241  -1.488  -4.473  0.00  0.00     0.149 C 
ATOM      9  H   LIG d   1       3.330  -1.606  -3.887  0.00  0.00     0.068 H 
ATOM     10  C   LIG d   1       4.401  -2.637  -5.420  0.00  0.00     0.122 C 
ATOM     11  H   LIG d   1       3.539  -2.672  -6.086  0.00  0.00     0.065 H 
ATOM     12  O   LIG d   1       4.625  -3.933  -4.887  0.00  0.00    -0.341 OA
ATOM     13  O   LIG d   1       5.374  -1.311  -3.604  0.00  0.00    -0.338 OA
ATOM     14  C   LIG d   1       5.318   0.078  -3.227  0.00  0.00     0.169 C 
ATOM     15  O   LIG d   1       4.593   0.800  -4.232  0.00  0.00    -0.311 OA
ATOM     16  H   LIG d   1       6.220  -1.039  -7.845  0.00  0.00     0.059 H 
ATOM     17  H   LIG d   1       4.473  -1.400  -7.740  0.00  0.00     0.059 H 
ENDROOT
BRANCH   1  18
ATOM     18  C   LIG d   1       4.683  -5.799  -6.449  0.00  0.00    -0.011 C 
ATOM     19  H   LIG d   1       4.017  -6.214  -5.691  0.00  0.00     0.028 H 
ATOM     20  H   LIG d   1       4.095  -5.461  -7.302  0.00  0.00     0.028 H 
ATOM     21  H   LIG d   1       5.387  -6.566  -6.773  0.00  0.00     0.028 H 
ENDBRANCH   1  18
BRANCH   1  22
ATOM     22  C   LIG d   1       6.731  -5.117  -5.186  0.00  0.00    -0.011 C 
ATOM     23  H   LIG d   1       7.280  -4.270  -4.774  0.00  0.00     0.028 H 
ATOM     24  H   LIG d   1       6.472  -5.808  -4.384  0.00  0.00     0.028 H 
ATOM     25  H   LIG d   1       7.351  -5.629  -5.921  0.00  0.00     0.028 H 
ENDBRANCH   1  22
BRANCH   7  26
ATOM     26  C   LIG d   1       2.808   0.129  -5.818  0.00  0.00     0.023 C 
ATOM     27  H   LIG d   1       2.417  -0.769  -6.295  0.00  0.00     0.087 H 
ATOM     28  H   LIG d   1       2.146   0.426  -5.003  0.00  0.00     0.087 H 
BRANCH  26  29
ATOM     29  N   LIG d   1       2.893   1.233  -6.790  0.00  0.00     0.222 N 
ATOM     30  H   LIG d   1       1.967   1.443  -7.161  0.00  0.00     0.200 HD
ATOM     31  H   LIG d   1       3.274   2.065  -6.341  0.00  0.00     0.200 HD
ATOM     32  H   LIG d   1       3.509   0.956  -7.563  0.00  0.00     0.200 HD
ENDBRANCH  26  29
ENDBRANCH   7  26
BRANCH  14  33
ATOM     33  C   LIG d   1       4.606   0.217  -1.880  0.00  0.00    -0.011 C 
ATOM     34  H   LIG d   1       4.952   1.120  -1.377  0.00  0.00     0.028 H 
ATOM     35  H   LIG d   1       3.531   0.281  -2.043  0.00  0.00     0.028 H 
ATOM     36  H   LIG d   1       4.829  -0.652  -1.260  0.00  0.00     0.028 H 
ENDBRANCH  14  33
BRANCH  14  37
ATOM     37  C   LIG d   1       6.737   0.639  -3.119  0.00  0.00    -0.011 C 
ATOM     38  H   LIG d   1       6.692   1.705  -2.900  0.00  0.00     0.028 H 
ATOM     39  H   LIG d   1       7.271   0.126  -2.319  0.00  0.00     0.028 H 
ATOM     40  H   LIG d   1       7.262   0.484  -4.062  0.00  0.00     0.028 H 
ENDBRANCH  14  37
TORSDOF 6
ENDMDL
MODEL 7
REMARK VINA RESULT:      -4.3      8.888     10.877
REMARK  6 active torsions:
REMARK  status: ('A' for Active; 'I' for Inactive)
REMARK    1  A    between atoms: C_1  and  C_2 
REMARK    2  A    between atoms: C_2  and  C_20 
REMARK    3  A    between atoms: C_8  and  C_19 
REMARK    4  A    between atoms: C_15  and  C_17 
REMARK    5  A    between atoms: C_15  and  C_18 
REMARK    6  A    between atoms: C_19  and  N_39 
ROOT
ATOM      1  C   LIG d   1      11.247   6.608   0.973  0.00  0.00     0.166 C 
ATOM      2  O   LIG d   1      12.537   6.156   0.489  0.00  0.00    -0.341 OA
ATOM      3  C   LIG d   1      12.346   6.071  -0.926  0.00  0.00     0.114 C 
ATOM      4  H   LIG d   1      12.370   7.059  -1.387  0.00  0.00     0.065 H 
ATOM      5  C   LIG d   1      13.246   5.097  -1.670  0.00  0.00     0.080 C 
ATOM      6  O   LIG d   1      12.776   5.108  -3.045  0.00  0.00    -0.340 OA
ATOM      7  C   LIG d   1      11.421   4.770  -3.316  0.00  0.00     0.243 C 
ATOM      8  C   LIG d   1      10.423   5.503  -2.384  0.00  0.00     0.149 C 
ATOM      9  H   LIG d   1       9.435   5.048  -2.453  0.00  0.00     0.068 H 
ATOM     10  C   LIG d   1      10.918   5.458  -0.971  0.00  0.00     0.122 C 
ATOM     11  H   LIG d   1      10.971   4.419  -0.646  0.00  0.00     0.065 H 
ATOM     12  O   LIG d   1      10.235   6.216   0.015  0.00  0.00    -0.341 OA
ATOM     13  O   LIG d   1      10.399   6.834  -2.931  0.00  0.00    -0.338 OA
ATOM     14  C   LIG d   1      10.481   6.634  -4.355  0.00  0.00     0.169 C 
ATOM     15  O   LIG d   1      11.097   5.363  -4.608  0.00  0.00    -0.311 OA
ATOM     16  H   LIG d   1      14.283   5.432  -1.619  0.00  0.00     0.059 H 
ATOM     17  H   LIG d   1      13.154   4.099  -1.241  0.00  0.00     0.059 H 
ENDROOT
BRANCH   1  18
ATOM     18  C   LIG d   1      10.950   5.961   2.328  0.00  0.00    -0.011 C 
ATOM     19  H   LIG d   1      10.329   6.632   2.922  0.00  0.00     0.028 H 
ATOM     20  H   LIG d   1      10.422   5.020   2.173  0.00  0.00     0.028 H 
ATOM     21  H   LIG d   1      11.886   5.772   2.853  0.00  0.00     0.028 H 
ENDBRANCH   1  18
BRANCH   1  22
ATOM     22  C   LIG d   1      11.255   8.130   1.121  0.00  0.00    -0.011 C 
ATOM     23  H   LIG d   1      10.580   8.421   1.926  0.00  0.00     0.028 H 
ATOM     24  H   LIG d   1      12.265   8.467   1.353  0.00  0.00     0.028 H 
ATOM     25  H   LIG d   1      10.925   8.587   0.187  0.00  0.00     0.028 H 
ENDBRANCH   1  22
BRANCH   7  26
ATOM     26  C   LIG d   1      11.192   3.257  -3.301  0.00  0.00     0.023 C 
ATOM     27  H   LIG d   1      11.654   2.811  -4.181  0.00  0.00     0.087 H 
ATOM     28  H   LIG d   1      11.638   2.832  -2.402  0.00  0.00     0.087 H 
BRANCH  26  29
ATOM     29  N   LIG d   1       9.743   2.990  -3.289  0.00  0.00     0.222 N 
ATOM     30  H   LIG d   1       9.244   3.794  -2.909  0.00  0.00     0.200 HD
ATOM     31  H   LIG d   1       9.414   2.803  -4.234  0.00  0.00     0.200 HD
ATOM     32  H   LIG d   1       9.556   2.171  -2.699  0.00  0.00     0.200 HD
ENDBRANCH  26  29
ENDBRANCH   7  26
BRANCH  14  33
ATOM     33  C   LIG d   1       9.075   6.651  -4.958  0.00  0.00    -0.011 C 
ATOM     34  H   LIG d   1       9.079   6.114  -5.906  0.00  0.00     0.028 H 
ATOM     35  H   LIG d   1       8.379   6.169  -4.271  0.00  0.00     0.028 H 
ATOM     36  H   LIG d   1       8.764   7.682  -5.126  0.00  0.00     0.028 H 
ENDBRANCH  14  33
BRANCH  14  37
ATOM     37  C   LIG d   1      11.324   7.745  -4.982  0.00  0.00    -0.011 C 
ATOM     38  H   LIG d   1      11.358   8.600  -4.308  0.00  0.00     0.028 H 
ATOM     39  H   LIG d   1      12.336   7.379  -5.157  0.00  0.00     0.028 H 
ATOM     40  H   LIG d   1      10.879   8.047  -5.930  0.00  0.00     0.028 H 
ENDBRANCH  14  37
TORSDOF 6
ENDMDL
MODEL 8
REMARK VINA RESULT:      -4.3     11.011     12.892
REMARK  6 active torsions:
REMARK  status: ('A' for Active; 'I' for Inactive)
REMARK    1  A    between atoms: C_1  and  C_2 
REMARK    2  A    between atoms: C_2  and  C_20 
REMARK    3  A    between atoms: C_8  and  C_19 
REMARK    4  A    between atoms: C_15  and  C_17 
REMARK    5  A    between atoms: C_15  and  C_18 
REMARK    6  A    between atoms: C_19  and  N_39 
ROOT
ATOM      1  C   LIG d   1      10.770   6.393  -0.794  0.00  0.00     0.166 C 
ATOM      2  O   LIG d   1       9.555   7.081  -0.401  0.00  0.00    -0.341 OA
ATOM      3  C   LIG d   1       9.527   8.220  -1.266  0.00  0.00     0.114 C 
ATOM      4  H   LIG d   1       9.203   7.943  -2.270  0.00  0.00     0.065 H 
ATOM      5  C   LIG d   1       8.763   9.432  -0.759  0.00  0.00     0.080 C 
ATOM      6  O   LIG d   1       8.987  10.473  -1.748  0.00  0.00    -0.340 OA
ATOM      7  C   LIG d   1      10.321  10.870  -2.047  0.00  0.00     0.243 C 
ATOM      8  C   LIG d   1      11.264   9.664  -2.288  0.00  0.00     0.149 C 
ATOM      9  H   LIG d   1      12.304   9.987  -2.271  0.00  0.00     0.068 H 
ATOM     10  C   LIG d   1      11.030   8.616  -1.243  0.00  0.00     0.122 C 
ATOM     11  H   LIG d   1      11.269   9.031  -0.264  0.00  0.00     0.065 H 
ATOM     12  O   LIG d   1      11.674   7.360  -1.381  0.00  0.00    -0.341 OA
ATOM     13  O   LIG d   1      10.895   9.234  -3.610  0.00  0.00    -0.338 OA
ATOM     14  C   LIG d   1      10.629  10.458  -4.320  0.00  0.00     0.169 C 
ATOM     15  O   LIG d   1      10.285  11.477  -3.371  0.00  0.00    -0.311 OA
ATOM     16  H   LIG d   1       7.700   9.201  -0.684  0.00  0.00     0.059 H 
ATOM     17  H   LIG d   1       9.149   9.738   0.214  0.00  0.00     0.059 H 
ENDROOT
BRANCH   1  18
ATOM     18  C   LIG d   1      11.424   5.759   0.435  0.00  0.00    -0.011 C 
ATOM     19  H   LIG d   1      11.893   6.536   1.039  0.00  0.00     0.028 H 
ATOM     20  H   LIG d   1      10.664   5.247   1.026  0.00  0.00     0.028 H 
ATOM     21  H   LIG d   1      12.180   5.041   0.115  0.00  0.00     0.028 H 
ENDBRANCH   1  18
BRANCH   1  22
ATOM     22  C   LIG d   1      10.440   5.307  -1.819  0.00  0.00    -0.011 C 
ATOM     23  H   LIG d   1      10.719   4.333  -1.419  0.00  0.00     0.028 H 
ATOM     24  H   LIG d   1       9.371   5.321  -2.031  0.00  0.00     0.028 H 
ATOM     25  H   LIG d   1      10.995   5.495  -2.739  0.00  0.00     0.028 H 
ENDBRANCH   1  22
BRANCH   7  26
ATOM     26  C   LIG d   1      10.887  11.820  -0.989  0.00  0.00     0.023 C 
ATOM     27  H   LIG d   1      11.055  11.274  -0.062  0.00  0.00     0.087 H 
ATOM     28  H   LIG d   1      11.831  12.236  -1.343  0.00  0.00     0.087 H 
BRANCH  26  29
ATOM     29  N   LIG d   1       9.932  12.921  -0.773  0.00  0.00     0.222 N 
ATOM     30  H   LIG d   1       9.526  12.852   0.160  0.00  0.00     0.200 HD
ATOM     31  H   LIG d   1      10.405  13.818  -0.870  0.00  0.00     0.200 HD
ATOM     32  H   LIG d   1       9.181  12.860  -1.470  0.00  0.00     0.200 HD
ENDBRANCH  26  29
ENDBRANCH   7  26
BRANCH  14  33
ATOM     33  C   LIG d   1      11.876  10.881  -5.099  0.00  0.00    -0.011 C 
ATOM     34  H   LIG d   1      11.646  10.912  -6.164  0.00  0.00     0.028 H 
ATOM     35  H   LIG d   1      12.192  11.870  -4.768  0.00  0.00     0.028 H 
ATOM     36  H   LIG d   1      12.677  10.164  -4.921  0.00  0.00     0.028 H 
ENDBRANCH  14  33
BRANCH  14  37
ATOM     37  C   LIG d   1       9.464  10.248  -5.289  0.00  0.00    -0.011 C 
ATOM     38  H   LIG d   1       9.760  10.567  -6.288  0.00  0.00     0.028 H 
ATOM     39  H   LIG d   1       9.194   9.192  -5.310  0.00  0.00     0.028 H 
ATOM     40  H   LIG d   1       8.607  10.835  -4.959  0.00  0.00     0.028 H 
ENDBRANCH  14  37
TORSDOF 6
ENDMDL
MODEL 9
REMARK VINA RESULT:      -4.3     10.085     11.738
REMARK  6 active torsions:
REMARK  status: ('A' for Active; 'I' for Inactive)
REMARK    1  A    between atoms: C_1  and  C_2 
REMARK    2  A    between atoms: C_2  and  C_20 
REMARK    3  A    between atoms: C_8  and  C_19 
REMARK    4  A    between atoms: C_15  and  C_17 
REMARK    5  A    between atoms: C_15  and  C_18 
REMARK    6  A    between atoms: C_19  and  N_39 
ROOT
ATOM      1  C   LIG d   1      10.674   4.915  -2.737  0.00  0.00     0.166 C 
ATOM      2  O   LIG d   1      10.609   6.031  -3.661  0.00  0.00    -0.341 OA
ATOM      3  C   LIG d   1      10.851   7.166  -2.824  0.00  0.00     0.114 C 
ATOM      4  H   LIG d   1      11.910   7.257  -2.580  0.00  0.00     0.065 H 
ATOM      5  C   LIG d   1      10.283   8.491  -3.306  0.00  0.00     0.080 C 
ATOM      6  O   LIG d   1      10.554   9.439  -2.238  0.00  0.00    -0.340 OA
ATOM      7  C   LIG d   1      10.048   9.177  -0.934  0.00  0.00     0.243 C 
ATOM      8  C   LIG d   1      10.321   7.725  -0.467  0.00  0.00     0.149 C 
ATOM      9  H   LIG d   1       9.722   7.489   0.412  0.00  0.00     0.068 H 
ATOM     10  C   LIG d   1      10.013   6.766  -1.577  0.00  0.00     0.122 C 
ATOM     11  H   LIG d   1       8.955   6.838  -1.825  0.00  0.00     0.065 H 
ATOM     12  O   LIG d   1      10.356   5.399  -1.411  0.00  0.00    -0.341 OA
ATOM     13  O   LIG d   1      11.718   7.760  -0.124  0.00  0.00    -0.338 OA
ATOM     14  C   LIG d   1      11.904   9.058   0.472  0.00  0.00     0.169 C 
ATOM     15  O   LIG d   1      10.877   9.937  -0.008  0.00  0.00    -0.311 OA
ATOM     16  H   LIG d   1      10.782   8.801  -4.225  0.00  0.00     0.059 H 
ATOM     17  H   LIG d   1       9.210   8.400  -3.474  0.00  0.00     0.059 H 
ENDROOT
BRANCH   1  18
ATOM     18  C   LIG d   1       9.662   3.844  -3.151  0.00  0.00    -0.011 C 
ATOM     19  H   LIG d   1       9.035   4.229  -3.955  0.00  0.00     0.028 H 
ATOM     20  H   LIG d   1      10.194   2.958  -3.496  0.00  0.00     0.028 H 
ATOM     21  H   LIG d   1       9.038   3.584  -2.295  0.00  0.00     0.028 H 
ENDBRANCH   1  18
BRANCH   1  22
ATOM     22  C   LIG d   1      12.084   4.321  -2.744  0.00  0.00    -0.011 C 
ATOM     23  H   LIG d   1      12.159   3.554  -1.973  0.00  0.00     0.028 H 
ATOM     24  H   LIG d   1      12.286   3.877  -3.719  0.00  0.00     0.028 H 
ATOM     25  H   LIG d   1      12.811   5.108  -2.546  0.00  0.00     0.028 H 
ENDBRANCH   1  22
BRANCH   7  26
ATOM     26  C   LIG d   1       8.566   9.534  -0.810  0.00  0.00     0.023 C 
ATOM     27  H   LIG d   1       7.960   8.656  -1.029  0.00  0.00     0.087 H 
ATOM     28  H   LIG d   1       8.358   9.876   0.205  0.00  0.00     0.087 H 
BRANCH  26  29
ATOM     29  N   LIG d   1       8.254  10.623  -1.753  0.00  0.00     0.222 N 
ATOM     30  H   LIG d   1       8.020  10.236  -2.667  0.00  0.00     0.200 HD
ATOM     31  H   LIG d   1       7.468  11.170  -1.407  0.00  0.00     0.200 HD
ATOM     32  H   LIG d   1       9.074  11.233  -1.848  0.00  0.00     0.200 HD
ENDBRANCH  26  29
ENDBRANCH   7  26
BRANCH  14  33
ATOM     33  C   LIG d   1      11.811   8.942   1.995  0.00  0.00    -0.011 C 
ATOM     34  H   LIG d   1      10.814   8.597   2.272  0.00  0.00     0.028 H 
ATOM     35  H   LIG d   1      12.554   8.228   2.350  0.00  0.00     0.028 H 
ATOM     36  H   LIG d   1      11.997   9.916   2.446  0.00  0.00     0.028 H 
ENDBRANCH  14  33
BRANCH  14  37
ATOM     37  C   LIG d   1      13.275   9.612   0.081  0.00  0.00    -0.011 C 
ATOM     38  H   LIG d   1      13.482  10.512   0.659  0.00  0.00     0.028 H 
ATOM     39  H   LIG d   1      14.042   8.864   0.287  0.00  0.00     0.028 H 
ATOM     40  H   LIG d   1      13.280   9.853  -0.982  0.00  0.00     0.028 H 
ENDBRANCH  14  37
TORSDOF 6
ENDMDL
MODEL 10
REMARK VINA RESULT:      -4.2      2.517      5.260
REMARK  6 active torsions:
REMARK  status: ('A' for Active; 'I' for Inactive)
REMARK    1  A    between atoms: C_1  and  C_2 
REMARK    2  A    between atoms: C_2  and  C_20 
REMARK    3  A    between atoms: C_8  and  C_19 
REMARK    4  A    between atoms: C_15  and  C_17 
REMARK    5  A    between atoms: C_15  and  C_18 
REMARK    6  A    between atoms: C_19  and  N_39 
ROOT
ATOM      1  C   LIG d   1       4.805   0.558  -2.883  0.00  0.00     0.166 C 
ATOM      2  O   LIG d   1       5.984   1.361  -2.623  0.00  0.00    -0.341 OA
ATOM      3  C   LIG d   1       6.701   1.303  -3.860  0.00  0.00     0.114 C 
ATOM      4  H   LIG d   1       6.254   1.962  -4.605  0.00  0.00     0.065 H 
ATOM      5  C   LIG d   1       8.205   1.509  -3.778  0.00  0.00     0.080 C 
ATOM      6  O   LIG d   1       8.701   1.282  -5.125  0.00  0.00    -0.340 OA
ATOM      7  C   LIG d   1       8.449   0.032  -5.756  0.00  0.00     0.243 C 
ATOM      8  C   LIG d   1       6.970  -0.415  -5.627  0.00  0.00     0.149 C 
ATOM      9  H   LIG d   1       6.867  -1.465  -5.900  0.00  0.00     0.068 H 
ATOM     10  C   LIG d   1       6.490  -0.193  -4.226  0.00  0.00     0.122 C 
ATOM     11  H   LIG d   1       7.080  -0.808  -3.546  0.00  0.00     0.065 H 
ATOM     12  O   LIG d   1       5.113  -0.381  -3.939  0.00  0.00    -0.341 OA
ATOM     13  O   LIG d   1       6.303   0.420  -6.591  0.00  0.00    -0.338 OA
ATOM     14  C   LIG d   1       7.233   0.510  -7.687  0.00  0.00     0.169 C 
ATOM     15  O   LIG d   1       8.556   0.262  -7.190  0.00  0.00    -0.311 OA
ATOM     16  H   LIG d   1       8.427   2.527  -3.456  0.00  0.00     0.059 H 
ATOM     17  H   LIG d   1       8.643   0.793  -3.082  0.00  0.00     0.059 H 
ENDROOT
BRANCH   1  18
ATOM     18  C   LIG d   1       4.410  -0.203  -1.616  0.00  0.00    -0.011 C 
ATOM     19  H   LIG d   1       4.350   0.492  -0.778  0.00  0.00     0.028 H 
ATOM     20  H   LIG d   1       3.440  -0.677  -1.765  0.00  0.00     0.028 H 
ATOM     21  H   LIG d   1       5.159  -0.966  -1.402  0.00  0.00     0.028 H 
ENDBRANCH   1  18
BRANCH   1  22
ATOM     22  C   LIG d   1       3.651   1.464  -3.319  0.00  0.00    -0.011 C 
ATOM     23  H   LIG d   1       2.754   1.205  -2.756  0.00  0.00     0.028 H 
ATOM     24  H   LIG d   1       3.913   2.504  -3.127  0.00  0.00     0.028 H 
ATOM     25  H   LIG d   1       3.464   1.326  -4.384  0.00  0.00     0.028 H 
ENDBRANCH   1  22
BRANCH   7  26
ATOM     26  C   LIG d   1       9.407  -1.059  -5.272  0.00  0.00     0.023 C 
ATOM     27  H   LIG d   1       8.984  -1.553  -4.397  0.00  0.00     0.087 H 
ATOM     28  H   LIG d   1       9.555  -1.791  -6.066  0.00  0.00     0.087 H 
BRANCH  26  29
ATOM     29  N   LIG d   1      10.704  -0.445  -4.939  0.00  0.00     0.222 N 
ATOM     30  H   LIG d   1      11.371  -0.610  -5.693  0.00  0.00     0.200 HD
ATOM     31  H   LIG d   1      10.592   0.557  -4.801  0.00  0.00     0.200 HD
ATOM     32  H   LIG d   1      11.066  -0.866  -4.075  0.00  0.00     0.200 HD
ENDBRANCH  26  29
ENDBRANCH   7  26
BRANCH  14  33
ATOM     33  C   LIG d   1       6.879  -0.534  -8.748  0.00  0.00    -0.011 C 
ATOM     34  H   LIG d   1       6.187  -0.098  -9.469  0.00  0.00     0.028 H 
ATOM     35  H   LIG d   1       7.786  -0.850  -9.262  0.00  0.00     0.028 H 
ATOM     36  H   LIG d   1       6.412  -1.394  -8.270  0.00  0.00     0.028 H 
ENDBRANCH  14  33
BRANCH  14  37
ATOM     37  C   LIG d   1       7.171   1.910  -8.300  0.00  0.00    -0.011 C 
ATOM     38  H   LIG d   1       7.819   2.582  -7.739  0.00  0.00     0.028 H 
ATOM     39  H   LIG d   1       7.502   1.868  -9.338  0.00  0.00     0.028 H 
ATOM     40  H   LIG d   1       6.146   2.277  -8.262  0.00  0.00     0.028 H 
ENDBRANCH  14  37
TORSDOF 6
ENDMDL
