MODEL 1
REMARK VINA RESULT:      -6.6      0.000      0.000
REMARK  8 active torsions:
REMARK  status: ('A' for Active; 'I' for Inactive)
REMARK    1  A    between atoms: C_3  and  C_7 
REMARK    2  A    between atoms: C_7  and  N_8 
REMARK       I    between atoms: N_8  and  C_9 
REMARK    3  A    between atoms: C_9  and  C_11 
REMARK    4  A    between atoms: C_11  and  C_12 
REMARK    5  A    between atoms: C_18  and  C_20 
REMARK    6  A    between atoms: C_20  and  C_21 
REMARK    7  A    between atoms: C_23  and  C_26 
REMARK    8  A    between atoms: C_26  and  N_27 
ROOT
ATOM      1  C   LIG d   1       4.519  -2.308  -7.305  0.00  0.00    -0.020 C 
ATOM      2  H   LIG d   1       3.467  -2.493  -7.042  0.00  0.00     0.031 H 
ATOM      3  C   LIG d   1       4.734  -2.584  -8.795  0.00  0.00    -0.009 C 
ATOM      4  C   LIG d   1       3.881  -1.616  -9.616  0.00  0.00    -0.033 C 
ATOM      5  N   LIG d   1       4.261  -0.233  -9.297  0.00  0.00     0.227 N 
ATOM      6  C   LIG d   1       4.019   0.069  -7.880  0.00  0.00    -0.030 C 
ATOM      7  C   LIG d   1       4.877  -0.849  -7.007  0.00  0.00     0.008 C 
ATOM      8  H   LIG d   1       4.686  -0.631  -5.945  0.00  0.00     0.036 H 
ATOM      9  H   LIG d   1       5.797  -2.443  -9.044  0.00  0.00     0.032 H 
ATOM     10  H   LIG d   1       4.439  -3.619  -9.022  0.00  0.00     0.032 H 
ATOM     11  H   LIG d   1       4.045  -1.801 -10.689  0.00  0.00     0.081 H 
ATOM     12  H   LIG d   1       2.819  -1.768  -9.376  0.00  0.00     0.081 H 
ATOM     13  H   LIG d   1       5.331  -0.090  -9.508  0.00  0.00     0.201 HD
ATOM     14  H   LIG d   1       4.283   1.118  -7.680  0.00  0.00     0.082 H 
ATOM     15  H   LIG d   1       2.956  -0.091  -7.647  0.00  0.00     0.082 H 
ATOM     16  H   LIG d   1       3.670   0.461  -9.911  0.00  0.00     0.201 HD
ENDROOT
BRANCH   7  17
ATOM     17  C   LIG d   1       6.356  -0.612  -7.315  0.00  0.00     0.001 C 
ATOM     18  H   LIG d   1       6.866  -1.580  -7.431  0.00  0.00     0.033 H 
ATOM     19  H   LIG d   1       6.449  -0.035  -8.247  0.00  0.00     0.033 H 
BRANCH  17  20
ATOM     20  C   LIG d   1       6.989   0.156  -6.184  0.00  0.00     0.084 A 
ATOM     21  N   LIG d   1       6.380   0.671  -5.154  0.00  0.00    -0.083 NA
ATOM     22  O   LIG d   1       7.155   1.227  -4.411  0.00  0.00    -0.358 OA
ATOM     23  C   LIG d   1       8.413   1.159  -4.870  0.00  0.00     0.151 A 
ATOM     24  C   LIG d   1       8.360   0.466  -6.033  0.00  0.00     0.005 A 
ATOM     25  H   LIG d   1       9.177   0.210  -6.691  0.00  0.00     0.067 H 
BRANCH  23  26
ATOM     26  C   LIG d   1       9.642   1.740  -4.220  0.00  0.00     0.060 C 
ATOM     27  H   LIG d   1       9.857   1.196  -3.289  0.00  0.00     0.051 H 
ATOM     28  H   LIG d   1      10.498   1.645  -4.906  0.00  0.00     0.051 H 
BRANCH  26  29
ATOM     29  N   LIG d   1       9.412   3.158  -3.917  0.00  0.00    -0.291 N 
ATOM     30  C   LIG d   1      10.288   3.613  -2.827  0.00  0.00     0.023 C 
ATOM     31  C   LIG d   1       9.974   5.076  -2.504  0.00  0.00     0.060 C 
ATOM     32  H   LIG d   1      10.116   2.994  -1.936  0.00  0.00     0.045 H 
ATOM     33  H   LIG d   1      11.339   3.523  -3.140  0.00  0.00     0.045 H 
ATOM     34  O   LIG d   1      10.128   5.865  -3.687  0.00  0.00    -0.377 OA
ATOM     35  H   LIG d   1      10.666   5.440  -1.730  0.00  0.00     0.057 H 
ATOM     36  H   LIG d   1       8.940   5.160  -2.140  0.00  0.00     0.057 H 
ATOM     37  C   LIG d   1       9.289   5.450  -4.769  0.00  0.00     0.060 C 
ATOM     38  C   LIG d   1       9.596   3.990  -5.115  0.00  0.00     0.023 C 
ATOM     39  H   LIG d   1       9.479   6.083  -5.647  0.00  0.00     0.057 H 
ATOM     40  H   LIG d   1       8.234   5.542  -4.472  0.00  0.00     0.057 H 
ATOM     41  H   LIG d   1      10.635   3.905  -5.465  0.00  0.00     0.045 H 
ATOM     42  H   LIG d   1       8.914   3.648  -5.908  0.00  0.00     0.045 H 
ENDBRANCH  26  29
ENDBRANCH  23  26
ENDBRANCH  17  20
ENDBRANCH   7  17
BRANCH   1  43
ATOM     43  C   LIG d   1       5.416  -3.232  -6.478  0.00  0.00     0.027 C 
ATOM     44  H   LIG d   1       6.464  -3.092  -6.777  0.00  0.00     0.036 H 
ATOM     45  H   LIG d   1       5.122  -4.278  -6.649  0.00  0.00     0.036 H 
BRANCH  43  46
ATOM     46  C   LIG d   1       5.263  -2.902  -5.014  0.00  0.00     0.214 C 
ATOM     47  N   LIG d   1       4.033  -2.778  -4.476  0.00  0.00    -0.311 N 
ATOM     48  H   LIG d   1       3.141  -2.918  -5.105  0.00  0.00     0.149 HD
ATOM     49  O   LIG d   1       6.247  -2.748  -4.322  0.00  0.00    -0.276 OA
BRANCH  47  50
ATOM     50  C   LIG d   1       3.885  -2.458  -3.055  0.00  0.00     0.038 C 
ATOM     51  H   LIG d   1       4.724  -2.892  -2.492  0.00  0.00     0.051 H 
ATOM     52  H   LIG d   1       2.938  -2.875  -2.683  0.00  0.00     0.051 H 
BRANCH  50  53
ATOM     53  C   LIG d   1       3.879  -0.962  -2.875  0.00  0.00    -0.012 A 
ATOM     54  C   LIG d   1       4.529  -0.382  -1.797  0.00  0.00    -0.054 A 
ATOM     55  C   LIG d   1       4.500   0.999  -1.672  0.00  0.00    -0.043 A 
ATOM     56  H   LIG d   1       5.047  -0.992  -1.071  0.00  0.00     0.062 H 
ATOM     57  C   LIG d   1       3.827   1.745  -2.621  0.00  0.00     0.028 A 
ATOM     58  H   LIG d   1       4.994   1.484  -0.844  0.00  0.00     0.063 H 
ATOM     59  N   LIG d   1       3.219   1.160  -3.633  0.00  0.00    -0.263 NA
ATOM     60  H   LIG d   1       3.799   2.822  -2.530  0.00  0.00     0.083 H 
ATOM     61  C   LIG d   1       3.232  -0.149  -3.787  0.00  0.00     0.032 A 
ATOM     62  H   LIG d   1       2.726  -0.593  -4.632  0.00  0.00     0.083 H 
ENDBRANCH  50  53
ENDBRANCH  47  50
ENDBRANCH  43  46
ENDBRANCH   1  43
TORSDOF 8
ENDMDL
MODEL 2
REMARK VINA RESULT:      -6.6      1.886      2.460
REMARK  8 active torsions:
REMARK  status: ('A' for Active; 'I' for Inactive)
REMARK    1  A    between atoms: C_3  and  C_7 
REMARK    2  A    between atoms: C_7  and  N_8 
REMARK       I    between atoms: N_8  and  C_9 
REMARK    3  A    between atoms: C_9  and  C_11 
REMARK    4  A    between atoms: C_11  and  C_12 
REMARK    5  A    between atoms: C_18  and  C_20 
REMARK    6  A    between atoms: C_20  and  C_21 
REMARK    7  A    between atoms: C_23  and  C_26 
REMARK    8  A    between atoms: C_26  and  N_27 
ROOT
ATOM      1  C   LIG d   1       3.521  -1.481  -7.926  0.00  0.00    -0.020 C 
ATOM      2  H   LIG d   1       2.777  -1.459  -7.116  0.00  0.00     0.031 H 
ATOM      3  C   LIG d   1       2.831  -1.815  -9.251  0.00  0.00    -0.009 C 
ATOM      4  C   LIG d   1       1.823  -0.715  -9.587  0.00  0.00    -0.033 C 
ATOM      5  N   LIG d   1       2.518   0.575  -9.688  0.00  0.00     0.227 N 
ATOM      6  C   LIG d   1       3.148   0.939  -8.413  0.00  0.00    -0.030 C 
ATOM      7  C   LIG d   1       4.197  -0.112  -8.042  0.00  0.00     0.008 C 
ATOM      8  H   LIG d   1       4.661   0.155  -7.080  0.00  0.00     0.036 H 
ATOM      9  H   LIG d   1       3.586  -1.881 -10.050  0.00  0.00     0.032 H 
ATOM     10  H   LIG d   1       2.309  -2.779  -9.159  0.00  0.00     0.032 H 
ATOM     11  H   LIG d   1       1.335  -0.944 -10.547  0.00  0.00     0.081 H 
ATOM     12  H   LIG d   1       1.062  -0.660  -8.794  0.00  0.00     0.081 H 
ATOM     13  H   LIG d   1       3.299   0.510 -10.460  0.00  0.00     0.201 HD
ATOM     14  H   LIG d   1       3.633   1.922  -8.512  0.00  0.00     0.082 H 
ATOM     15  H   LIG d   1       2.382   0.986  -7.625  0.00  0.00     0.082 H 
ATOM     16  H   LIG d   1       1.798   1.359  -9.961  0.00  0.00     0.201 HD
ENDROOT
BRANCH   7  17
ATOM     17  C   LIG d   1       5.274  -0.164  -9.127  0.00  0.00     0.001 C 
ATOM     18  H   LIG d   1       5.788  -1.136  -9.086  0.00  0.00     0.033 H 
ATOM     19  H   LIG d   1       4.807  -0.037 -10.115  0.00  0.00     0.033 H 
BRANCH  17  20
ATOM     20  C   LIG d   1       6.272   0.941  -8.898  0.00  0.00     0.084 A 
ATOM     21  N   LIG d   1       6.231   2.145  -9.394  0.00  0.00    -0.083 NA
ATOM     22  O   LIG d   1       7.171   2.810  -9.028  0.00  0.00    -0.358 OA
ATOM     23  C   LIG d   1       7.987   2.110  -8.226  0.00  0.00     0.151 A 
ATOM     24  C   LIG d   1       7.442   0.876  -8.108  0.00  0.00     0.005 A 
ATOM     25  H   LIG d   1       7.816   0.036  -7.541  0.00  0.00     0.067 H 
BRANCH  23  26
ATOM     26  C   LIG d   1       9.258   2.602  -7.583  0.00  0.00     0.060 C 
ATOM     27  H   LIG d   1      10.121   2.290  -8.189  0.00  0.00     0.051 H 
ATOM     28  H   LIG d   1       9.234   3.700  -7.517  0.00  0.00     0.051 H 
BRANCH  26  29
ATOM     29  N   LIG d   1       9.376   2.033  -6.233  0.00  0.00    -0.291 N 
ATOM     30  C   LIG d   1      10.785   1.940  -5.822  0.00  0.00     0.023 C 
ATOM     31  C   LIG d   1      10.865   1.289  -4.439  0.00  0.00     0.060 C 
ATOM     32  H   LIG d   1      11.339   1.330  -6.549  0.00  0.00     0.045 H 
ATOM     33  H   LIG d   1      11.221   2.949  -5.780  0.00  0.00     0.045 H 
ATOM     34  O   LIG d   1      10.080   2.047  -3.514  0.00  0.00    -0.377 OA
ATOM     35  H   LIG d   1      11.911   1.270  -4.100  0.00  0.00     0.057 H 
ATOM     36  H   LIG d   1      10.478   0.261  -4.492  0.00  0.00     0.057 H 
ATOM     37  C   LIG d   1       8.703   2.157  -3.883  0.00  0.00     0.060 C 
ATOM     38  C   LIG d   1       8.601   2.817  -5.261  0.00  0.00     0.023 C 
ATOM     39  H   LIG d   1       8.170   2.771  -3.142  0.00  0.00     0.057 H 
ATOM     40  H   LIG d   1       8.251   1.155  -3.923  0.00  0.00     0.057 H 
ATOM     41  H   LIG d   1       9.002   3.840  -5.211  0.00  0.00     0.045 H 
ATOM     42  H   LIG d   1       7.547   2.853  -5.576  0.00  0.00     0.045 H 
ENDBRANCH  26  29
ENDBRANCH  23  26
ENDBRANCH  17  20
ENDBRANCH   7  17
BRANCH   1  43
ATOM     43  C   LIG d   1       4.575  -2.546  -7.614  0.00  0.00     0.027 C 
ATOM     44  H   LIG d   1       5.461  -2.381  -8.244  0.00  0.00     0.036 H 
ATOM     45  H   LIG d   1       4.160  -3.543  -7.818  0.00  0.00     0.036 H 
BRANCH  43  46
ATOM     46  C   LIG d   1       4.968  -2.453  -6.161  0.00  0.00     0.214 C 
ATOM     47  N   LIG d   1       4.022  -2.515  -5.202  0.00  0.00    -0.311 N 
ATOM     48  H   LIG d   1       2.964  -2.634  -5.480  0.00  0.00     0.149 HD
ATOM     49  O   LIG d   1       6.134  -2.321  -5.855  0.00  0.00    -0.276 OA
BRANCH  47  50
ATOM     50  C   LIG d   1       4.403  -2.425  -3.791  0.00  0.00     0.038 C 
ATOM     51  H   LIG d   1       5.461  -2.705  -3.678  0.00  0.00     0.051 H 
ATOM     52  H   LIG d   1       3.778  -3.109  -3.198  0.00  0.00     0.051 H 
BRANCH  50  53
ATOM     53  C   LIG d   1       4.203  -1.013  -3.306  0.00  0.00    -0.012 A 
ATOM     54  C   LIG d   1       4.680  -0.622  -2.064  0.00  0.00    -0.054 A 
ATOM     55  C   LIG d   1       4.474   0.688  -1.659  0.00  0.00    -0.043 A 
ATOM     56  H   LIG d   1       5.199  -1.323  -1.427  0.00  0.00     0.062 H 
ATOM     57  C   LIG d   1       3.804   1.555  -2.501  0.00  0.00     0.028 A 
ATOM     58  H   LIG d   1       4.831   1.025  -0.697  0.00  0.00     0.063 H 
ATOM     59  N   LIG d   1       3.364   1.149  -3.676  0.00  0.00    -0.263 NA
ATOM     60  H   LIG d   1       3.639   2.577  -2.193  0.00  0.00     0.083 H 
ATOM     61  C   LIG d   1       3.546  -0.088  -4.095  0.00  0.00     0.032 A 
ATOM     62  H   LIG d   1       3.175  -0.383  -5.066  0.00  0.00     0.083 H 
ENDBRANCH  50  53
ENDBRANCH  47  50
ENDBRANCH  43  46
ENDBRANCH   1  43
TORSDOF 8
ENDMDL
MODEL 3
REMARK VINA RESULT:      -6.5      2.038      3.578
REMARK  8 active torsions:
REMARK  status: ('A' for Active; 'I' for Inactive)
REMARK    1  A    between atoms: C_3  and  C_7 
REMARK    2  A    between atoms: C_7  and  N_8 
REMARK       I    between atoms: N_8  and  C_9 
REMARK    3  A    between atoms: C_9  and  C_11 
REMARK    4  A    between atoms: C_11  and  C_12 
REMARK    5  A    between atoms: C_18  and  C_20 
REMARK    6  A    between atoms: C_20  and  C_21 
REMARK    7  A    between atoms: C_23  and  C_26 
REMARK    8  A    between atoms: C_26  and  N_27 
ROOT
ATOM      1  C   LIG d   1       3.369   0.126  -9.691  0.00  0.00    -0.020 C 
ATOM      2  H   LIG d   1       3.253   1.213  -9.819  0.00  0.00     0.031 H 
ATOM      3  C   LIG d   1       3.011  -0.587 -10.998  0.00  0.00    -0.009 C 
ATOM      4  C   LIG d   1       3.985  -0.149 -12.094  0.00  0.00    -0.033 C 
ATOM      5  N   LIG d   1       5.358  -0.483 -11.694  0.00  0.00     0.227 N 
ATOM      6  C   LIG d   1       5.739   0.227 -10.467  0.00  0.00    -0.030 C 
ATOM      7  C   LIG d   1       4.818  -0.199  -9.321  0.00  0.00     0.008 C 
ATOM      8  H   LIG d   1       5.097   0.342  -8.405  0.00  0.00     0.036 H 
ATOM      9  H   LIG d   1       3.083  -1.675 -10.853  0.00  0.00     0.032 H 
ATOM     10  H   LIG d   1       1.984  -0.323 -11.290  0.00  0.00     0.032 H 
ATOM     11  H   LIG d   1       3.740  -0.671 -13.032  0.00  0.00     0.081 H 
ATOM     12  H   LIG d   1       3.902   0.937 -12.248  0.00  0.00     0.081 H 
ATOM     13  H   LIG d   1       5.433  -1.565 -11.511  0.00  0.00     0.201 HD
ATOM     14  H   LIG d   1       6.781  -0.019 -10.210  0.00  0.00     0.082 H 
ATOM     15  H   LIG d   1       5.648   1.311 -10.627  0.00  0.00     0.082 H 
ATOM     16  H   LIG d   1       6.053  -0.198 -12.496  0.00  0.00     0.201 HD
ENDROOT
BRANCH   7  17
ATOM     17  C   LIG d   1       4.960  -1.704  -9.085  0.00  0.00     0.001 C 
ATOM     18  H   LIG d   1       3.972  -2.182  -9.166  0.00  0.00     0.033 H 
ATOM     19  H   LIG d   1       5.637  -2.132  -9.838  0.00  0.00     0.033 H 
BRANCH  17  20
ATOM     20  C   LIG d   1       5.523  -1.946  -7.709  0.00  0.00     0.084 A 
ATOM     21  N   LIG d   1       5.613  -3.090  -7.093  0.00  0.00    -0.083 NA
ATOM     22  O   LIG d   1       6.113  -2.969  -5.999  0.00  0.00    -0.358 OA
ATOM     23  C   LIG d   1       6.420  -1.690  -5.736  0.00  0.00     0.151 A 
ATOM     24  C   LIG d   1       6.053  -0.976  -6.827  0.00  0.00     0.005 A 
ATOM     25  H   LIG d   1       6.144   0.088  -6.986  0.00  0.00     0.067 H 
BRANCH  23  26
ATOM     26  C   LIG d   1       7.050  -1.154  -4.476  0.00  0.00     0.060 C 
ATOM     27  H   LIG d   1       6.266  -0.941  -3.736  0.00  0.00     0.051 H 
ATOM     28  H   LIG d   1       7.746  -1.903  -4.068  0.00  0.00     0.051 H 
BRANCH  26  29
ATOM     29  N   LIG d   1       7.784   0.080  -4.782  0.00  0.00    -0.291 N 
ATOM     30  C   LIG d   1       7.636   1.064  -3.699  0.00  0.00     0.023 C 
ATOM     31  C   LIG d   1       8.365   2.354  -4.085  0.00  0.00     0.060 C 
ATOM     32  H   LIG d   1       6.569   1.277  -3.541  0.00  0.00     0.045 H 
ATOM     33  H   LIG d   1       8.071   0.658  -2.774  0.00  0.00     0.045 H 
ATOM     34  O   LIG d   1       9.736   2.057  -4.362  0.00  0.00    -0.377 OA
ATOM     35  H   LIG d   1       8.307   3.072  -3.255  0.00  0.00     0.057 H 
ATOM     36  H   LIG d   1       7.896   2.789  -4.980  0.00  0.00     0.057 H 
ATOM     37  C   LIG d   1       9.917   1.103  -5.412  0.00  0.00     0.060 C 
ATOM     38  C   LIG d   1       9.204  -0.200  -5.040  0.00  0.00     0.023 C 
ATOM     39  H   LIG d   1      10.991   0.907  -5.551  0.00  0.00     0.057 H 
ATOM     40  H   LIG d   1       9.493   1.498  -6.346  0.00  0.00     0.057 H 
ATOM     41  H   LIG d   1       9.663  -0.627  -4.136  0.00  0.00     0.045 H 
ATOM     42  H   LIG d   1       9.292  -0.919  -5.869  0.00  0.00     0.045 H 
ENDBRANCH  26  29
ENDBRANCH  23  26
ENDBRANCH  17  20
ENDBRANCH   7  17
BRANCH   1  43
ATOM     43  C   LIG d   1       2.437  -0.352  -8.575  0.00  0.00     0.027 C 
ATOM     44  H   LIG d   1       2.669  -1.398  -8.327  0.00  0.00     0.036 H 
ATOM     45  H   LIG d   1       1.393  -0.278  -8.912  0.00  0.00     0.036 H 
BRANCH  43  46
ATOM     46  C   LIG d   1       2.633   0.510  -7.354  0.00  0.00     0.214 C 
ATOM     47  N   LIG d   1       2.489  -0.022  -6.124  0.00  0.00    -0.311 N 
ATOM     48  H   LIG d   1       2.228  -1.085  -6.012  0.00  0.00     0.149 HD
ATOM     49  O   LIG d   1       2.921   1.681  -7.479  0.00  0.00    -0.276 OA
BRANCH  47  50
ATOM     50  C   LIG d   1       2.679   0.815  -4.937  0.00  0.00     0.038 C 
ATOM     51  H   LIG d   1       1.706   1.206  -4.604  0.00  0.00     0.051 H 
ATOM     52  H   LIG d   1       3.346   1.654  -5.184  0.00  0.00     0.051 H 
BRANCH  50  53
ATOM     53  C   LIG d   1       3.294  -0.008  -3.836  0.00  0.00    -0.012 A 
ATOM     54  C   LIG d   1       3.891   0.609  -2.747  0.00  0.00    -0.054 A 
ATOM     55  C   LIG d   1       4.443  -0.189  -1.756  0.00  0.00    -0.043 A 
ATOM     56  H   LIG d   1       3.926   1.686  -2.673  0.00  0.00     0.062 H 
ATOM     57  C   LIG d   1       4.380  -1.563  -1.886  0.00  0.00     0.028 A 
ATOM     58  H   LIG d   1       4.917   0.259  -0.895  0.00  0.00     0.063 H 
ATOM     59  N   LIG d   1       3.804  -2.116  -2.935  0.00  0.00    -0.263 NA
ATOM     60  H   LIG d   1       4.808  -2.191  -1.118  0.00  0.00     0.083 H 
ATOM     61  C   LIG d   1       3.265  -1.389  -3.893  0.00  0.00     0.032 A 
ATOM     62  H   LIG d   1       2.798  -1.878  -4.736  0.00  0.00     0.083 H 
ENDBRANCH  50  53
ENDBRANCH  47  50
ENDBRANCH  43  46
ENDBRANCH   1  43
TORSDOF 8
ENDMDL
MODEL 4
REMARK VINA RESULT:      -6.5      3.658      6.999
REMARK  8 active torsions:
REMARK  status: ('A' for Active; 'I' for Inactive)
REMARK    1  A    between atoms: C_3  and  C_7 
REMARK    2  A    between atoms: C_7  and  N_8 
REMARK       I    between atoms: N_8  and  C_9 
REMARK    3  A    between atoms: C_9  and  C_11 
REMARK    4  A    between atoms: C_11  and  C_12 
REMARK    5  A    between atoms: C_18  and  C_20 
REMARK    6  A    between atoms: C_20  and  C_21 
REMARK    7  A    between atoms: C_23  and  C_26 
REMARK    8  A    between atoms: C_26  and  N_27 
ROOT
ATOM      1  C   LIG d   1       9.477   3.362  -4.641  0.00  0.00    -0.020 C 
ATOM      2  H   LIG d   1       8.897   3.453  -5.572  0.00  0.00     0.031 H 
ATOM      3  C   LIG d   1      10.821   2.690  -4.934  0.00  0.00    -0.009 C 
ATOM      4  C   LIG d   1      11.627   3.571  -5.891  0.00  0.00    -0.033 C 
ATOM      5  N   LIG d   1      11.842   4.890  -5.281  0.00  0.00     0.227 N 
ATOM      6  C   LIG d   1      10.566   5.574  -5.034  0.00  0.00    -0.030 C 
ATOM      7  C   LIG d   1       9.727   4.753  -4.052  0.00  0.00     0.008 C 
ATOM      8  H   LIG d   1       8.766   5.259  -3.876  0.00  0.00     0.036 H 
ATOM      9  H   LIG d   1      11.378   2.560  -3.994  0.00  0.00     0.032 H 
ATOM     10  H   LIG d   1      10.646   1.708  -5.396  0.00  0.00     0.032 H 
ATOM     11  H   LIG d   1      12.600   3.098  -6.092  0.00  0.00     0.081 H 
ATOM     12  H   LIG d   1      11.075   3.689  -6.835  0.00  0.00     0.081 H 
ATOM     13  H   LIG d   1      12.366   4.769  -4.322  0.00  0.00     0.201 HD
ATOM     14  H   LIG d   1      10.760   6.569  -4.608  0.00  0.00     0.082 H 
ATOM     15  H   LIG d   1      10.018   5.682  -5.982  0.00  0.00     0.082 H 
ATOM     16  H   LIG d   1      12.449   5.511  -5.956  0.00  0.00     0.201 HD
ENDROOT
BRANCH   7  17
ATOM     17  C   LIG d   1      10.480   4.618  -2.727  0.00  0.00     0.001 C 
ATOM     18  H   LIG d   1      10.191   3.677  -2.236  0.00  0.00     0.033 H 
ATOM     19  H   LIG d   1      11.563   4.616  -2.918  0.00  0.00     0.033 H 
BRANCH  17  20
ATOM     20  C   LIG d   1      10.131   5.778  -1.831  0.00  0.00     0.084 A 
ATOM     21  N   LIG d   1      10.405   5.894  -0.562  0.00  0.00    -0.083 NA
ATOM     22  O   LIG d   1      10.000   6.941  -0.113  0.00  0.00    -0.358 OA
ATOM     23  C   LIG d   1       9.379   7.672  -1.050  0.00  0.00     0.151 A 
ATOM     24  C   LIG d   1       9.436   6.953  -2.197  0.00  0.00     0.005 A 
ATOM     25  H   LIG d   1       9.042   7.219  -3.167  0.00  0.00     0.067 H 
BRANCH  23  26
ATOM     26  C   LIG d   1       8.742   9.025  -0.863  0.00  0.00     0.060 C 
ATOM     27  H   LIG d   1       7.962   9.173  -1.623  0.00  0.00     0.051 H 
ATOM     28  H   LIG d   1       8.293   9.082   0.140  0.00  0.00     0.051 H 
BRANCH  26  29
ATOM     29  N   LIG d   1       9.765  10.071  -1.001  0.00  0.00    -0.291 N 
ATOM     30  C   LIG d   1       9.405  11.023  -2.062  0.00  0.00     0.023 C 
ATOM     31  C   LIG d   1      10.523  12.058  -2.212  0.00  0.00     0.060 C 
ATOM     32  H   LIG d   1       9.273  10.482  -3.010  0.00  0.00     0.045 H 
ATOM     33  H   LIG d   1       8.466  11.531  -1.795  0.00  0.00     0.045 H 
ATOM     34  O   LIG d   1      10.740  12.705  -0.955  0.00  0.00    -0.377 OA
ATOM     35  H   LIG d   1      10.233  12.807  -2.964  0.00  0.00     0.057 H 
ATOM     36  H   LIG d   1      11.448  11.557  -2.532  0.00  0.00     0.057 H 
ATOM     37  C   LIG d   1      11.093  11.807   0.100  0.00  0.00     0.060 C 
ATOM     38  C   LIG d   1       9.981  10.769   0.274  0.00  0.00     0.023 C 
ATOM     39  H   LIG d   1      11.219  12.370   1.037  0.00  0.00     0.057 H 
ATOM     40  H   LIG d   1      12.034  11.296  -0.150  0.00  0.00     0.057 H 
ATOM     41  H   LIG d   1       9.051  11.272   0.579  0.00  0.00     0.045 H 
ATOM     42  H   LIG d   1      10.272  10.041   1.046  0.00  0.00     0.045 H 
ENDBRANCH  26  29
ENDBRANCH  23  26
ENDBRANCH  17  20
ENDBRANCH   7  17
BRANCH   1  43
ATOM     43  C   LIG d   1       8.689   2.517  -3.637  0.00  0.00     0.027 C 
ATOM     44  H   LIG d   1       7.945   3.148  -3.130  0.00  0.00     0.036 H 
ATOM     45  H   LIG d   1       9.380   2.093  -2.893  0.00  0.00     0.036 H 
BRANCH  43  46
ATOM     46  C   LIG d   1       7.987   1.398  -4.364  0.00  0.00     0.214 C 
ATOM     47  N   LIG d   1       7.864   0.188  -3.782  0.00  0.00    -0.311 N 
ATOM     48  H   LIG d   1       8.277   0.018  -2.776  0.00  0.00     0.149 HD
ATOM     49  O   LIG d   1       7.534   1.587  -5.473  0.00  0.00    -0.276 OA
BRANCH  47  50
ATOM     50  C   LIG d   1       7.182  -0.898  -4.489  0.00  0.00     0.038 C 
ATOM     51  H   LIG d   1       7.859  -1.762  -4.573  0.00  0.00     0.051 H 
ATOM     52  H   LIG d   1       6.895  -0.558  -5.494  0.00  0.00     0.051 H 
BRANCH  50  53
ATOM     53  C   LIG d   1       5.949  -1.299  -3.722  0.00  0.00    -0.012 A 
ATOM     54  C   LIG d   1       5.495  -0.524  -2.666  0.00  0.00    -0.054 A 
ATOM     55  C   LIG d   1       4.355  -0.930  -1.990  0.00  0.00    -0.043 A 
ATOM     56  H   LIG d   1       6.019   0.376  -2.378  0.00  0.00     0.062 H 
ATOM     57  C   LIG d   1       3.714  -2.088  -2.388  0.00  0.00     0.028 A 
ATOM     58  H   LIG d   1       3.975  -0.350  -1.162  0.00  0.00     0.063 H 
ATOM     59  N   LIG d   1       4.173  -2.800  -3.397  0.00  0.00    -0.263 NA
ATOM     60  H   LIG d   1       2.825  -2.411  -1.866  0.00  0.00     0.083 H 
ATOM     61  C   LIG d   1       5.251  -2.442  -4.066  0.00  0.00     0.032 A 
ATOM     62  H   LIG d   1       5.596  -3.049  -4.890  0.00  0.00     0.083 H 
ENDBRANCH  50  53
ENDBRANCH  47  50
ENDBRANCH  43  46
ENDBRANCH   1  43
TORSDOF 8
ENDMDL
MODEL 5
REMARK VINA RESULT:      -6.4      4.624      9.215
REMARK  8 active torsions:
REMARK  status: ('A' for Active; 'I' for Inactive)
REMARK    1  A    between atoms: C_3  and  C_7 
REMARK    2  A    between atoms: C_7  and  N_8 
REMARK       I    between atoms: N_8  and  C_9 
REMARK    3  A    between atoms: C_9  and  C_11 
REMARK    4  A    between atoms: C_11  and  C_12 
REMARK    5  A    between atoms: C_18  and  C_20 
REMARK    6  A    between atoms: C_20  and  C_21 
REMARK    7  A    between atoms: C_23  and  C_26 
REMARK    8  A    between atoms: C_26  and  N_27 
ROOT
ATOM      1  C   LIG d   1       4.317  -0.598  -9.099  0.00  0.00    -0.020 C 
ATOM      2  H   LIG d   1       5.400  -0.673  -9.280  0.00  0.00     0.031 H 
ATOM      3  C   LIG d   1       4.016   0.671  -8.297  0.00  0.00    -0.009 C 
ATOM      4  C   LIG d   1       4.427   1.896  -9.117  0.00  0.00    -0.033 C 
ATOM      5  N   LIG d   1       3.687   1.910 -10.385  0.00  0.00     0.227 N 
ATOM      6  C   LIG d   1       3.997   0.723 -11.193  0.00  0.00    -0.030 C 
ATOM      7  C   LIG d   1       3.572  -0.537 -10.435  0.00  0.00     0.008 C 
ATOM      8  H   LIG d   1       3.816  -1.427 -11.035  0.00  0.00     0.036 H 
ATOM      9  H   LIG d   1       2.939   0.719  -8.078  0.00  0.00     0.032 H 
ATOM     10  H   LIG d   1       4.582   0.652  -7.354  0.00  0.00     0.032 H 
ATOM     11  H   LIG d   1       4.198   2.811  -8.550  0.00  0.00     0.081 H 
ATOM     12  H   LIG d   1       5.507   1.854  -9.323  0.00  0.00     0.081 H 
ATOM     13  H   LIG d   1       2.607   1.920 -10.178  0.00  0.00     0.201 HD
ATOM     14  H   LIG d   1       3.453   0.777 -12.147  0.00  0.00     0.082 H 
ATOM     15  H   LIG d   1       5.078   0.685 -11.390  0.00  0.00     0.082 H 
ATOM     16  H   LIG d   1       3.959   2.807 -10.959  0.00  0.00     0.201 HD
ENDROOT
BRANCH   7  17
ATOM     17  C   LIG d   1       2.065  -0.495 -10.178  0.00  0.00     0.001 C 
ATOM     18  H   LIG d   1       1.872  -0.641  -9.105  0.00  0.00     0.033 H 
ATOM     19  H   LIG d   1       1.666   0.480 -10.495  0.00  0.00     0.033 H 
BRANCH  17  20
ATOM     20  C   LIG d   1       1.391  -1.592 -10.962  0.00  0.00     0.084 A 
ATOM     21  N   LIG d   1       0.954  -1.519 -12.187  0.00  0.00    -0.083 NA
ATOM     22  O   LIG d   1       0.462  -2.564 -12.546  0.00  0.00    -0.358 OA
ATOM     23  C   LIG d   1       0.501  -3.487 -11.575  0.00  0.00     0.151 A 
ATOM     24  C   LIG d   1       1.101  -2.900 -10.512  0.00  0.00     0.005 A 
ATOM     25  H   LIG d   1       1.310  -3.332  -9.544  0.00  0.00     0.067 H 
BRANCH  23  26
ATOM     26  C   LIG d   1      -0.020  -4.899 -11.651  0.00  0.00     0.060 C 
ATOM     27  H   LIG d   1      -0.467  -5.073 -12.641  0.00  0.00     0.051 H 
ATOM     28  H   LIG d   1       0.810  -5.604 -11.495  0.00  0.00     0.051 H 
BRANCH  26  29
ATOM     29  N   LIG d   1      -1.038  -5.102 -10.612  0.00  0.00    -0.291 N 
ATOM     30  C   LIG d   1      -2.383  -4.802 -11.125  0.00  0.00     0.023 C 
ATOM     31  C   LIG d   1      -3.403  -4.969  -9.996  0.00  0.00     0.060 C 
ATOM     32  H   LIG d   1      -2.411  -3.769 -11.498  0.00  0.00     0.045 H 
ATOM     33  H   LIG d   1      -2.625  -5.495 -11.945  0.00  0.00     0.045 H 
ATOM     34  O   LIG d   1      -3.309  -6.294  -9.466  0.00  0.00    -0.377 OA
ATOM     35  H   LIG d   1      -4.417  -4.803 -10.388  0.00  0.00     0.057 H 
ATOM     36  H   LIG d   1      -3.194  -4.240  -9.200  0.00  0.00     0.057 H 
ATOM     37  C   LIG d   1      -2.013  -6.619  -8.956  0.00  0.00     0.060 C 
ATOM     38  C   LIG d   1      -0.978  -6.469 -10.075  0.00  0.00     0.023 C 
ATOM     39  H   LIG d   1      -2.010  -7.656  -8.591  0.00  0.00     0.057 H 
ATOM     40  H   LIG d   1      -1.760  -5.938  -8.131  0.00  0.00     0.057 H 
ATOM     41  H   LIG d   1      -1.197  -7.188 -10.878  0.00  0.00     0.045 H 
ATOM     42  H   LIG d   1       0.029  -6.663  -9.675  0.00  0.00     0.045 H 
ENDBRANCH  26  29
ENDBRANCH  23  26
ENDBRANCH  17  20
ENDBRANCH   7  17
BRANCH   1  43
ATOM     43  C   LIG d   1       3.852  -1.824  -8.310  0.00  0.00     0.027 C 
ATOM     44  H   LIG d   1       4.032  -2.732  -8.904  0.00  0.00     0.036 H 
ATOM     45  H   LIG d   1       2.778  -1.735  -8.093  0.00  0.00     0.036 H 
BRANCH  43  46
ATOM     46  C   LIG d   1       4.620  -1.910  -7.016  0.00  0.00     0.214 C 
ATOM     47  N   LIG d   1       3.960  -2.011  -5.845  0.00  0.00    -0.311 N 
ATOM     48  H   LIG d   1       2.859  -2.031  -5.835  0.00  0.00     0.149 HD
ATOM     49  O   LIG d   1       5.833  -1.887  -7.028  0.00  0.00    -0.276 OA
BRANCH  47  50
ATOM     50  C   LIG d   1       4.706  -2.094  -4.588  0.00  0.00     0.038 C 
ATOM     51  H   LIG d   1       5.784  -2.130  -4.803  0.00  0.00     0.051 H 
ATOM     52  H   LIG d   1       4.410  -3.004  -4.046  0.00  0.00     0.051 H 
BRANCH  50  53
ATOM     53  C   LIG d   1       4.402  -0.885  -3.743  0.00  0.00    -0.012 A 
ATOM     54  C   LIG d   1       4.797  -0.838  -2.415  0.00  0.00    -0.054 A 
ATOM     55  C   LIG d   1       4.498   0.296  -1.675  0.00  0.00    -0.043 A 
ATOM     56  H   LIG d   1       5.326  -1.667  -1.967  0.00  0.00     0.062 H 
ATOM     57  C   LIG d   1       3.819   1.335  -2.283  0.00  0.00     0.028 A 
ATOM     58  H   LIG d   1       4.789   0.365  -0.638  0.00  0.00     0.063 H 
ATOM     59  N   LIG d   1       3.458   1.257  -3.548  0.00  0.00    -0.263 NA
ATOM     60  H   LIG d   1       3.581   2.222  -1.713  0.00  0.00     0.083 H 
ATOM     61  C   LIG d   1       3.731   0.196  -4.283  0.00  0.00     0.032 A 
ATOM     62  H   LIG d   1       3.423   0.170  -5.318  0.00  0.00     0.083 H 
ENDBRANCH  50  53
ENDBRANCH  47  50
ENDBRANCH  43  46
ENDBRANCH   1  43
TORSDOF 8
ENDMDL
MODEL 6
REMARK VINA RESULT:      -6.4      4.463      9.288
REMARK  8 active torsions:
REMARK  status: ('A' for Active; 'I' for Inactive)
REMARK    1  A    between atoms: C_3  and  C_7 
REMARK    2  A    between atoms: C_7  and  N_8 
REMARK       I    between atoms: N_8  and  C_9 
REMARK    3  A    between atoms: C_9  and  C_11 
REMARK    4  A    between atoms: C_11  and  C_12 
REMARK    5  A    between atoms: C_18  and  C_20 
REMARK    6  A    between atoms: C_20  and  C_21 
REMARK    7  A    between atoms: C_23  and  C_26 
REMARK    8  A    between atoms: C_26  and  N_27 
ROOT
ATOM      1  C   LIG d   1       3.447   0.767  -7.830  0.00  0.00    -0.020 C 
ATOM      2  H   LIG d   1       4.428   0.919  -7.358  0.00  0.00     0.031 H 
ATOM      3  C   LIG d   1       2.945   2.090  -8.415  0.00  0.00    -0.009 C 
ATOM      4  C   LIG d   1       3.910   2.558  -9.506  0.00  0.00    -0.033 C 
ATOM      5  N   LIG d   1       3.992   1.538 -10.559  0.00  0.00     0.227 N 
ATOM      6  C   LIG d   1       4.517   0.272 -10.031  0.00  0.00    -0.030 C 
ATOM      7  C   LIG d   1       3.570  -0.264  -8.955  0.00  0.00     0.008 C 
ATOM      8  H   LIG d   1       3.969  -1.207  -8.551  0.00  0.00     0.036 H 
ATOM      9  H   LIG d   1       1.943   1.944  -8.845  0.00  0.00     0.032 H 
ATOM     10  H   LIG d   1       2.895   2.847  -7.618  0.00  0.00     0.032 H 
ATOM     11  H   LIG d   1       3.544   3.502  -9.939  0.00  0.00     0.081 H 
ATOM     12  H   LIG d   1       4.907   2.717  -9.071  0.00  0.00     0.081 H 
ATOM     13  H   LIG d   1       2.990   1.357 -10.973  0.00  0.00     0.201 HD
ATOM     14  H   LIG d   1       4.596  -0.460 -10.848  0.00  0.00     0.082 H 
ATOM     15  H   LIG d   1       5.511   0.441  -9.593  0.00  0.00     0.082 H 
ATOM     16  H   LIG d   1       4.661   1.889 -11.358  0.00  0.00     0.201 HD
ENDROOT
BRANCH   7  17
ATOM     17  C   LIG d   1       2.192  -0.519  -9.568  0.00  0.00     0.001 C 
ATOM     18  H   LIG d   1       1.412  -0.179  -8.871  0.00  0.00     0.033 H 
ATOM     19  H   LIG d   1       2.103   0.034 -10.515  0.00  0.00     0.033 H 
BRANCH  17  20
ATOM     20  C   LIG d   1       2.022  -1.993  -9.830  0.00  0.00     0.084 A 
ATOM     21  N   LIG d   1       2.831  -2.948  -9.466  0.00  0.00    -0.083 NA
ATOM     22  O   LIG d   1       2.426  -4.031  -9.817  0.00  0.00    -0.358 OA
ATOM     23  C   LIG d   1       1.268  -3.932 -10.487  0.00  0.00     0.151 A 
ATOM     24  C   LIG d   1       0.959  -2.614 -10.524  0.00  0.00     0.005 A 
ATOM     25  H   LIG d   1       0.098  -2.146 -10.978  0.00  0.00     0.067 H 
BRANCH  23  26
ATOM     26  C   LIG d   1       0.470  -5.064 -11.080  0.00  0.00     0.060 C 
ATOM     27  H   LIG d   1       0.178  -4.808 -12.110  0.00  0.00     0.051 H 
ATOM     28  H   LIG d   1       1.083  -5.978 -11.090  0.00  0.00     0.051 H 
BRANCH  26  29
ATOM     29  N   LIG d   1      -0.735  -5.291 -10.272  0.00  0.00    -0.291 N 
ATOM     30  C   LIG d   1      -1.943  -4.866 -10.995  0.00  0.00     0.023 C 
ATOM     31  C   LIG d   1      -3.166  -5.064 -10.095  0.00  0.00     0.060 C 
ATOM     32  H   LIG d   1      -1.853  -3.805 -11.267  0.00  0.00     0.045 H 
ATOM     33  H   LIG d   1      -2.055  -5.471 -11.906  0.00  0.00     0.045 H 
ATOM     34  O   LIG d   1      -3.234  -6.432  -9.684  0.00  0.00    -0.377 OA
ATOM     35  H   LIG d   1      -4.078  -4.803 -10.650  0.00  0.00     0.057 H 
ATOM     36  H   LIG d   1      -3.079  -4.419  -9.208  0.00  0.00     0.057 H 
ATOM     37  C   LIG d   1      -2.074  -6.879  -8.976  0.00  0.00     0.060 C 
ATOM     38  C   LIG d   1      -0.840  -6.699  -9.865  0.00  0.00     0.023 C 
ATOM     39  H   LIG d   1      -2.187  -7.941  -8.716  0.00  0.00     0.057 H 
ATOM     40  H   LIG d   1      -1.952  -6.287  -8.057  0.00  0.00     0.057 H 
ATOM     41  H   LIG d   1      -0.934  -7.333 -10.759  0.00  0.00     0.045 H 
ATOM     42  H   LIG d   1       0.063  -6.988  -9.305  0.00  0.00     0.045 H 
ENDBRANCH  26  29
ENDBRANCH  23  26
ENDBRANCH  17  20
ENDBRANCH   7  17
BRANCH   1  43
ATOM     43  C   LIG d   1       2.455   0.262  -6.780  0.00  0.00     0.027 C 
ATOM     44  H   LIG d   1       2.015  -0.688  -7.118  0.00  0.00     0.036 H 
ATOM     45  H   LIG d   1       1.657   1.006  -6.641  0.00  0.00     0.036 H 
BRANCH  43  46
ATOM     46  C   LIG d   1       3.174   0.047  -5.473  0.00  0.00     0.214 C 
ATOM     47  N   LIG d   1       3.589  -1.188  -5.127  0.00  0.00    -0.311 N 
ATOM     48  H   LIG d   1       3.403  -2.039  -5.800  0.00  0.00     0.149 HD
ATOM     49  O   LIG d   1       3.378   0.985  -4.732  0.00  0.00    -0.276 OA
BRANCH  47  50
ATOM     50  C   LIG d   1       4.288  -1.398  -3.857  0.00  0.00     0.038 C 
ATOM     51  H   LIG d   1       3.616  -1.903  -3.148  0.00  0.00     0.051 H 
ATOM     52  H   LIG d   1       4.594  -0.426  -3.444  0.00  0.00     0.051 H 
BRANCH  50  53
ATOM     53  C   LIG d   1       5.507  -2.251  -4.090  0.00  0.00    -0.012 A 
ATOM     54  C   LIG d   1       6.716  -1.927  -3.494  0.00  0.00    -0.054 A 
ATOM     55  C   LIG d   1       7.812  -2.742  -3.735  0.00  0.00    -0.043 A 
ATOM     56  H   LIG d   1       6.802  -1.058  -2.858  0.00  0.00     0.062 H 
ATOM     57  C   LIG d   1       7.663  -3.843  -4.556  0.00  0.00     0.028 A 
ATOM     58  H   LIG d   1       8.769  -2.517  -3.289  0.00  0.00     0.063 H 
ATOM     59  N   LIG d   1       6.498  -4.122  -5.106  0.00  0.00    -0.263 NA
ATOM     60  H   LIG d   1       8.512  -4.483  -4.749  0.00  0.00     0.083 H 
ATOM     61  C   LIG d   1       5.434  -3.373  -4.895  0.00  0.00     0.032 A 
ATOM     62  H   LIG d   1       4.494  -3.635  -5.359  0.00  0.00     0.083 H 
ENDBRANCH  50  53
ENDBRANCH  47  50
ENDBRANCH  43  46
ENDBRANCH   1  43
TORSDOF 8
ENDMDL
MODEL 7
REMARK VINA RESULT:      -6.1      4.461      9.281
REMARK  8 active torsions:
REMARK  status: ('A' for Active; 'I' for Inactive)
REMARK    1  A    between atoms: C_3  and  C_7 
REMARK    2  A    between atoms: C_7  and  N_8 
REMARK       I    between atoms: N_8  and  C_9 
REMARK    3  A    between atoms: C_9  and  C_11 
REMARK    4  A    between atoms: C_11  and  C_12 
REMARK    5  A    between atoms: C_18  and  C_20 
REMARK    6  A    between atoms: C_20  and  C_21 
REMARK    7  A    between atoms: C_23  and  C_26 
REMARK    8  A    between atoms: C_26  and  N_27 
ROOT
ATOM      1  C   LIG d   1       3.390   0.651  -8.101  0.00  0.00    -0.020 C 
ATOM      2  H   LIG d   1       4.380   0.765  -7.635  0.00  0.00     0.031 H 
ATOM      3  C   LIG d   1       2.873   2.019  -8.553  0.00  0.00    -0.009 C 
ATOM      4  C   LIG d   1       3.814   2.588  -9.616  0.00  0.00    -0.033 C 
ATOM      5  N   LIG d   1       3.879   1.668 -10.759  0.00  0.00     0.227 N 
ATOM      6  C   LIG d   1       4.418   0.362 -10.357  0.00  0.00    -0.030 C 
ATOM      7  C   LIG d   1       3.494  -0.274  -9.316  0.00  0.00     0.008 C 
ATOM      8  H   LIG d   1       3.903  -1.247  -9.006  0.00  0.00     0.036 H 
ATOM      9  H   LIG d   1       1.863   1.907  -8.976  0.00  0.00     0.032 H 
ATOM     10  H   LIG d   1       2.836   2.700  -7.691  0.00  0.00     0.032 H 
ATOM     11  H   LIG d   1       3.438   3.565  -9.955  0.00  0.00     0.081 H 
ATOM     12  H   LIG d   1       4.820   2.712  -9.188  0.00  0.00     0.081 H 
ATOM     13  H   LIG d   1       2.869   1.520 -11.168  0.00  0.00     0.201 HD
ATOM     14  H   LIG d   1       4.483  -0.294 -11.238  0.00  0.00     0.082 H 
ATOM     15  H   LIG d   1       5.420   0.495  -9.925  0.00  0.00     0.082 H 
ATOM     16  H   LIG d   1       4.531   2.093 -11.536  0.00  0.00     0.201 HD
ENDROOT
BRANCH   7  17
ATOM     17  C   LIG d   1       2.105  -0.479  -9.923  0.00  0.00     0.001 C 
ATOM     18  H   LIG d   1       1.341  -0.108  -9.223  0.00  0.00     0.033 H 
ATOM     19  H   LIG d   1       2.033   0.074 -10.871  0.00  0.00     0.033 H 
BRANCH  17  20
ATOM     20  C   LIG d   1       1.879  -1.946 -10.180  0.00  0.00     0.084 A 
ATOM     21  N   LIG d   1       2.462  -2.942  -9.575  0.00  0.00    -0.083 NA
ATOM     22  O   LIG d   1       2.073  -4.007  -9.995  0.00  0.00    -0.358 OA
ATOM     23  C   LIG d   1       1.162  -3.850 -10.967  0.00  0.00     0.151 A 
ATOM     24  C   LIG d   1       0.999  -2.516 -11.128  0.00  0.00     0.005 A 
ATOM     25  H   LIG d   1       0.345  -2.005 -11.820  0.00  0.00     0.067 H 
BRANCH  23  26
ATOM     26  C   LIG d   1       0.460  -4.945 -11.729  0.00  0.00     0.060 C 
ATOM     27  H   LIG d   1      -0.339  -4.508 -12.347  0.00  0.00     0.051 H 
ATOM     28  H   LIG d   1       1.184  -5.462 -12.377  0.00  0.00     0.051 H 
BRANCH  26  29
ATOM     29  N   LIG d   1      -0.123  -5.905 -10.783  0.00  0.00    -0.291 N 
ATOM     30  C   LIG d   1      -1.325  -5.351 -10.143  0.00  0.00     0.023 C 
ATOM     31  C   LIG d   1      -1.864  -6.358  -9.123  0.00  0.00     0.060 C 
ATOM     32  H   LIG d   1      -1.070  -4.412  -9.633  0.00  0.00     0.045 H 
ATOM     33  H   LIG d   1      -2.091  -5.158 -10.909  0.00  0.00     0.045 H 
ATOM     34  O   LIG d   1      -2.124  -7.603  -9.779  0.00  0.00    -0.377 OA
ATOM     35  H   LIG d   1      -2.797  -5.975  -8.684  0.00  0.00     0.057 H 
ATOM     36  H   LIG d   1      -1.120  -6.512  -8.328  0.00  0.00     0.057 H 
ATOM     37  C   LIG d   1      -0.974  -8.170 -10.412  0.00  0.00     0.060 C 
ATOM     38  C   LIG d   1      -0.426  -7.181 -11.445  0.00  0.00     0.023 C 
ATOM     39  H   LIG d   1      -1.254  -9.107 -10.914  0.00  0.00     0.057 H 
ATOM     40  H   LIG d   1      -0.201  -8.376  -9.657  0.00  0.00     0.057 H 
ATOM     41  H   LIG d   1      -1.176  -7.017 -12.232  0.00  0.00     0.045 H 
ATOM     42  H   LIG d   1       0.492  -7.589 -11.895  0.00  0.00     0.045 H 
ENDBRANCH  26  29
ENDBRANCH  23  26
ENDBRANCH  17  20
ENDBRANCH   7  17
BRANCH   1  43
ATOM     43  C   LIG d   1       2.420   0.048  -7.082  0.00  0.00     0.027 C 
ATOM     44  H   LIG d   1       2.238  -1.008  -7.328  0.00  0.00     0.036 H 
ATOM     45  H   LIG d   1       1.469   0.601  -7.109  0.00  0.00     0.036 H 
BRANCH  43  46
ATOM     46  C   LIG d   1       3.018   0.146  -5.701  0.00  0.00     0.214 C 
ATOM     47  N   LIG d   1       3.768  -0.865  -5.218  0.00  0.00    -0.311 N 
ATOM     48  H   LIG d   1       3.943  -1.761  -5.832  0.00  0.00     0.149 HD
ATOM     49  O   LIG d   1       2.824   1.134  -5.025  0.00  0.00    -0.276 OA
BRANCH  47  50
ATOM     50  C   LIG d   1       4.349  -0.770  -3.877  0.00  0.00     0.038 C 
ATOM     51  H   LIG d   1       4.452  -1.779  -3.451  0.00  0.00     0.051 H 
ATOM     52  H   LIG d   1       3.691  -0.166  -3.235  0.00  0.00     0.051 H 
BRANCH  50  53
ATOM     53  C   LIG d   1       5.704  -0.119  -3.962  0.00  0.00    -0.012 A 
ATOM     54  C   LIG d   1       6.682  -0.638  -4.798  0.00  0.00    -0.054 A 
ATOM     55  C   LIG d   1       7.915  -0.005  -4.845  0.00  0.00    -0.043 A 
ATOM     56  H   LIG d   1       6.487  -1.515  -5.397  0.00  0.00     0.062 H 
ATOM     57  C   LIG d   1       8.127   1.114  -4.063  0.00  0.00     0.028 A 
ATOM     58  H   LIG d   1       8.699  -0.383  -5.484  0.00  0.00     0.063 H 
ATOM     59  N   LIG d   1       7.175   1.580  -3.280  0.00  0.00    -0.263 NA
ATOM     60  H   LIG d   1       9.085   1.612  -4.094  0.00  0.00     0.083 H 
ATOM     61  C   LIG d   1       5.989   1.007  -3.213  0.00  0.00     0.032 A 
ATOM     62  H   LIG d   1       5.231   1.421  -2.563  0.00  0.00     0.083 H 
ENDBRANCH  50  53
ENDBRANCH  47  50
ENDBRANCH  43  46
ENDBRANCH   1  43
TORSDOF 8
ENDMDL
MODEL 8
REMARK VINA RESULT:      -6.0      3.293      7.040
REMARK  8 active torsions:
REMARK  status: ('A' for Active; 'I' for Inactive)
REMARK    1  A    between atoms: C_3  and  C_7 
REMARK    2  A    between atoms: C_7  and  N_8 
REMARK       I    between atoms: N_8  and  C_9 
REMARK    3  A    between atoms: C_9  and  C_11 
REMARK    4  A    between atoms: C_11  and  C_12 
REMARK    5  A    between atoms: C_18  and  C_20 
REMARK    6  A    between atoms: C_20  and  C_21 
REMARK    7  A    between atoms: C_23  and  C_26 
REMARK    8  A    between atoms: C_26  and  N_27 
ROOT
ATOM      1  C   LIG d   1      10.211   3.080  -4.127  0.00  0.00    -0.020 C 
ATOM      2  H   LIG d   1      10.316   3.059  -5.222  0.00  0.00     0.031 H 
ATOM      3  C   LIG d   1      11.052   1.962  -3.507  0.00  0.00    -0.009 C 
ATOM      4  C   LIG d   1      12.528   2.203  -3.828  0.00  0.00    -0.033 C 
ATOM      5  N   LIG d   1      12.942   3.506  -3.290  0.00  0.00     0.227 N 
ATOM      6  C   LIG d   1      12.180   4.599  -3.907  0.00  0.00    -0.030 C 
ATOM      7  C   LIG d   1      10.692   4.430  -3.589  0.00  0.00     0.008 C 
ATOM      8  H   LIG d   1      10.120   5.243  -4.061  0.00  0.00     0.036 H 
ATOM      9  H   LIG d   1      10.907   1.958  -2.416  0.00  0.00     0.032 H 
ATOM     10  H   LIG d   1      10.738   0.993  -3.922  0.00  0.00     0.032 H 
ATOM     11  H   LIG d   1      13.138   1.409  -3.370  0.00  0.00     0.081 H 
ATOM     12  H   LIG d   1      12.673   2.194  -4.918  0.00  0.00     0.081 H 
ATOM     13  H   LIG d   1      12.768   3.527  -2.205  0.00  0.00     0.201 HD
ATOM     14  H   LIG d   1      12.533   5.562  -3.509  0.00  0.00     0.082 H 
ATOM     15  H   LIG d   1      12.325   4.579  -4.997  0.00  0.00     0.082 H 
ATOM     16  H   LIG d   1      14.011   3.664  -3.494  0.00  0.00     0.201 HD
ENDROOT
BRANCH   7  17
ATOM     17  C   LIG d   1      10.486   4.479  -2.074  0.00  0.00     0.001 C 
ATOM     18  H   LIG d   1       9.611   3.869  -1.803  0.00  0.00     0.033 H 
ATOM     19  H   LIG d   1      11.379   4.083  -1.568  0.00  0.00     0.033 H 
BRANCH  17  20
ATOM     20  C   LIG d   1      10.256   5.904  -1.643  0.00  0.00     0.084 A 
ATOM     21  N   LIG d   1      10.108   6.336  -0.423  0.00  0.00    -0.083 NA
ATOM     22  O   LIG d   1       9.941   7.533  -0.391  0.00  0.00    -0.358 OA
ATOM     23  C   LIG d   1       9.948   8.064  -1.623  0.00  0.00     0.151 A 
ATOM     24  C   LIG d   1      10.151   7.036  -2.482  0.00  0.00     0.005 A 
ATOM     25  H   LIG d   1      10.217   7.075  -3.559  0.00  0.00     0.067 H 
BRANCH  23  26
ATOM     26  C   LIG d   1       9.766   9.517  -1.979  0.00  0.00     0.060 C 
ATOM     27  H   LIG d   1       8.707   9.793  -1.867  0.00  0.00     0.051 H 
ATOM     28  H   LIG d   1      10.380  10.137  -1.309  0.00  0.00     0.051 H 
BRANCH  26  29
ATOM     29  N   LIG d   1      10.185   9.736  -3.369  0.00  0.00    -0.291 N 
ATOM     30  C   LIG d   1       9.227  10.598  -4.078  0.00  0.00     0.023 C 
ATOM     31  C   LIG d   1       9.670  10.752  -5.536  0.00  0.00     0.060 C 
ATOM     32  H   LIG d   1       8.228  10.142  -4.043  0.00  0.00     0.045 H 
ATOM     33  H   LIG d   1       9.198  11.586  -3.597  0.00  0.00     0.045 H 
ATOM     34  O   LIG d   1      11.000  11.275  -5.574  0.00  0.00    -0.377 OA
ATOM     35  H   LIG d   1       8.990  11.442  -6.057  0.00  0.00     0.057 H 
ATOM     36  H   LIG d   1       9.648   9.771  -6.033  0.00  0.00     0.057 H 
ATOM     37  C   LIG d   1      11.958  10.461  -4.894  0.00  0.00     0.060 C 
ATOM     38  C   LIG d   1      11.539  10.304  -3.429  0.00  0.00     0.023 C 
ATOM     39  H   LIG d   1      12.948  10.937  -4.943  0.00  0.00     0.057 H 
ATOM     40  H   LIG d   1      12.004   9.470  -5.369  0.00  0.00     0.057 H 
ATOM     41  H   LIG d   1      11.547  11.287  -2.936  0.00  0.00     0.045 H 
ATOM     42  H   LIG d   1      12.242   9.632  -2.914  0.00  0.00     0.045 H 
ENDBRANCH  26  29
ENDBRANCH  23  26
ENDBRANCH  17  20
ENDBRANCH   7  17
BRANCH   1  43
ATOM     43  C   LIG d   1       8.739   2.879  -3.759  0.00  0.00     0.027 C 
ATOM     44  H   LIG d   1       8.154   3.747  -4.097  0.00  0.00     0.036 H 
ATOM     45  H   LIG d   1       8.645   2.776  -2.668  0.00  0.00     0.036 H 
BRANCH  43  46
ATOM     46  C   LIG d   1       8.220   1.632  -4.428  0.00  0.00     0.214 C 
ATOM     47  N   LIG d   1       7.765   0.606  -3.682  0.00  0.00    -0.311 N 
ATOM     48  H   LIG d   1       7.773   0.679  -2.584  0.00  0.00     0.149 HD
ATOM     49  O   LIG d   1       8.213   1.552  -5.639  0.00  0.00    -0.276 OA
BRANCH  47  50
ATOM     50  C   LIG d   1       7.261  -0.606  -4.332  0.00  0.00     0.038 C 
ATOM     51  H   LIG d   1       8.025  -1.396  -4.277  0.00  0.00     0.051 H 
ATOM     52  H   LIG d   1       7.033  -0.388  -5.385  0.00  0.00     0.051 H 
BRANCH  50  53
ATOM     53  C   LIG d   1       6.010  -1.067  -3.632  0.00  0.00    -0.012 A 
ATOM     54  C   LIG d   1       5.459  -0.313  -2.607  0.00  0.00    -0.054 A 
ATOM     55  C   LIG d   1       4.305  -0.775  -1.992  0.00  0.00    -0.043 A 
ATOM     56  H   LIG d   1       5.918   0.614  -2.296  0.00  0.00     0.062 H 
ATOM     57  C   LIG d   1       3.748  -1.966  -2.417  0.00  0.00     0.028 A 
ATOM     58  H   LIG d   1       3.850  -0.213  -1.190  0.00  0.00     0.063 H 
ATOM     59  N   LIG d   1       4.299  -2.658  -3.395  0.00  0.00    -0.263 NA
ATOM     60  H   LIG d   1       2.849  -2.334  -1.942  0.00  0.00     0.083 H 
ATOM     61  C   LIG d   1       5.392  -2.246  -4.006  0.00  0.00     0.032 A 
ATOM     62  H   LIG d   1       5.812  -2.838  -4.806  0.00  0.00     0.083 H 
ENDBRANCH  50  53
ENDBRANCH  47  50
ENDBRANCH  43  46
ENDBRANCH   1  43
TORSDOF 8
ENDMDL
MODEL 9
REMARK VINA RESULT:      -6.0      2.926      8.408
REMARK  8 active torsions:
REMARK  status: ('A' for Active; 'I' for Inactive)
REMARK    1  A    between atoms: C_3  and  C_7 
REMARK    2  A    between atoms: C_7  and  N_8 
REMARK       I    between atoms: N_8  and  C_9 
REMARK    3  A    between atoms: C_9  and  C_11 
REMARK    4  A    between atoms: C_11  and  C_12 
REMARK    5  A    between atoms: C_18  and  C_20 
REMARK    6  A    between atoms: C_20  and  C_21 
REMARK    7  A    between atoms: C_23  and  C_26 
REMARK    8  A    between atoms: C_26  and  N_27 
ROOT
ATOM      1  C   LIG d   1       5.646   0.706  -3.476  0.00  0.00    -0.020 C 
ATOM      2  H   LIG d   1       5.542   1.597  -4.114  0.00  0.00     0.031 H 
ATOM      3  C   LIG d   1       4.963   0.955  -2.129  0.00  0.00    -0.009 C 
ATOM      4  C   LIG d   1       3.467   1.180  -2.356  0.00  0.00    -0.033 C 
ATOM      5  N   LIG d   1       2.885   0.001  -3.009  0.00  0.00     0.227 N 
ATOM      6  C   LIG d   1       3.494  -0.229  -4.326  0.00  0.00    -0.030 C 
ATOM      7  C   LIG d   1       4.991  -0.497  -4.158  0.00  0.00     0.008 C 
ATOM      8  H   LIG d   1       5.449  -0.658  -5.146  0.00  0.00     0.036 H 
ATOM      9  H   LIG d   1       5.110   0.080  -1.477  0.00  0.00     0.032 H 
ATOM     10  H   LIG d   1       5.402   1.844  -1.654  0.00  0.00     0.032 H 
ATOM     11  H   LIG d   1       2.970   1.344  -1.388  0.00  0.00     0.081 H 
ATOM     12  H   LIG d   1       3.321   2.063  -2.996  0.00  0.00     0.081 H 
ATOM     13  H   LIG d   1       3.058  -0.887  -2.384  0.00  0.00     0.201 HD
ATOM     14  H   LIG d   1       3.017  -1.099  -4.803  0.00  0.00     0.082 H 
ATOM     15  H   LIG d   1       3.349   0.660  -4.958  0.00  0.00     0.082 H 
ATOM     16  H   LIG d   1       1.804   0.151  -3.143  0.00  0.00     0.201 HD
ENDROOT
BRANCH   7  17
ATOM     17  C   LIG d   1       5.193  -1.745  -3.297  0.00  0.00     0.001 C 
ATOM     18  H   LIG d   1       5.889  -1.515  -2.477  0.00  0.00     0.033 H 
ATOM     19  H   LIG d   1       4.227  -2.064  -2.880  0.00  0.00     0.033 H 
BRANCH  17  20
ATOM     20  C   LIG d   1       5.764  -2.853  -4.143  0.00  0.00     0.084 A 
ATOM     21  N   LIG d   1       7.025  -3.129  -4.320  0.00  0.00    -0.083 NA
ATOM     22  O   LIG d   1       7.175  -4.079  -5.051  0.00  0.00    -0.358 OA
ATOM     23  C   LIG d   1       5.999  -4.565  -5.475  0.00  0.00     0.151 A 
ATOM     24  C   LIG d   1       5.040  -3.795  -4.908  0.00  0.00     0.005 A 
ATOM     25  H   LIG d   1       3.969  -3.883  -5.016  0.00  0.00     0.067 H 
BRANCH  23  26
ATOM     26  C   LIG d   1       5.788  -5.736  -6.400  0.00  0.00     0.060 C 
ATOM     27  H   LIG d   1       4.737  -5.766  -6.722  0.00  0.00     0.051 H 
ATOM     28  H   LIG d   1       6.439  -5.629  -7.281  0.00  0.00     0.051 H 
BRANCH  26  29
ATOM     29  N   LIG d   1       6.120  -6.982  -5.696  0.00  0.00    -0.291 N 
ATOM     30  C   LIG d   1       4.926  -7.821  -5.518  0.00  0.00     0.023 C 
ATOM     31  C   LIG d   1       5.305  -9.078  -4.730  0.00  0.00     0.060 C 
ATOM     32  H   LIG d   1       4.161  -7.257  -4.966  0.00  0.00     0.045 H 
ATOM     33  H   LIG d   1       4.531  -8.110  -6.503  0.00  0.00     0.045 H 
ATOM     34  O   LIG d   1       6.353  -9.768  -5.415  0.00  0.00    -0.377 OA
ATOM     35  H   LIG d   1       4.429  -9.737  -4.643  0.00  0.00     0.057 H 
ATOM     36  H   LIG d   1       5.649  -8.793  -3.725  0.00  0.00     0.057 H 
ATOM     37  C   LIG d   1       7.532  -8.980  -5.606  0.00  0.00     0.060 C 
ATOM     38  C   LIG d   1       7.175  -7.722  -6.403  0.00  0.00     0.023 C 
ATOM     39  H   LIG d   1       8.281  -9.565  -6.159  0.00  0.00     0.057 H 
ATOM     40  H   LIG d   1       7.942  -8.689  -4.628  0.00  0.00     0.057 H 
ATOM     41  H   LIG d   1       6.817  -8.008  -7.402  0.00  0.00     0.045 H 
ATOM     42  H   LIG d   1       8.067  -7.084  -6.503  0.00  0.00     0.045 H 
ENDBRANCH  26  29
ENDBRANCH  23  26
ENDBRANCH  17  20
ENDBRANCH   7  17
BRANCH   1  43
ATOM     43  C   LIG d   1       7.133   0.419  -3.252  0.00  0.00     0.027 C 
ATOM     44  H   LIG d   1       7.356  -0.615  -3.549  0.00  0.00     0.036 H 
ATOM     45  H   LIG d   1       7.376   0.557  -2.188  0.00  0.00     0.036 H 
BRANCH  43  46
ATOM     46  C   LIG d   1       7.958   1.370  -4.082  0.00  0.00     0.214 C 
ATOM     47  N   LIG d   1       9.187   1.734  -3.666  0.00  0.00    -0.311 N 
ATOM     48  H   LIG d   1       9.588   1.338  -2.721  0.00  0.00     0.149 HD
ATOM     49  O   LIG d   1       7.516   1.806  -5.124  0.00  0.00    -0.276 OA
BRANCH  47  50
ATOM     50  C   LIG d   1       9.990   2.657  -4.473  0.00  0.00     0.038 C 
ATOM     51  H   LIG d   1       9.646   2.625  -5.517  0.00  0.00     0.051 H 
ATOM     52  H   LIG d   1      11.047   2.360  -4.425  0.00  0.00     0.051 H 
BRANCH  50  53
ATOM     53  C   LIG d   1       9.836   4.056  -3.936  0.00  0.00    -0.012 A 
ATOM     54  C   LIG d   1       9.377   5.076  -4.755  0.00  0.00    -0.054 A 
ATOM     55  C   LIG d   1       9.250   6.349  -4.219  0.00  0.00    -0.043 A 
ATOM     56  H   LIG d   1       9.125   4.884  -5.788  0.00  0.00     0.062 H 
ATOM     57  C   LIG d   1       9.584   6.556  -2.894  0.00  0.00     0.028 A 
ATOM     58  H   LIG d   1       8.897   7.167  -4.829  0.00  0.00     0.063 H 
ATOM     59  N   LIG d   1      10.017   5.562  -2.144  0.00  0.00    -0.263 NA
ATOM     60  H   LIG d   1       9.488   7.545  -2.468  0.00  0.00     0.083 H 
ATOM     61  C   LIG d   1      10.145   4.339  -2.619  0.00  0.00     0.032 A 
ATOM     62  H   LIG d   1      10.499   3.549  -1.973  0.00  0.00     0.083 H 
ENDBRANCH  50  53
ENDBRANCH  47  50
ENDBRANCH  43  46
ENDBRANCH   1  43
TORSDOF 8
ENDMDL
