MODEL 1
REMARK VINA RESULT:      -6.4      0.000      0.000
REMARK  7 active torsions:
REMARK  status: ('A' for Active; 'I' for Inactive)
REMARK    1  A    between atoms: C_1  and  C_2 
REMARK    2  A    between atoms: C_4  and  C_25 
REMARK    3  A    between atoms: C_5  and  C_9 
REMARK    4  A    between atoms: C_6  and  C_8 
REMARK    5  A    between atoms: C_9  and  C_24 
REMARK    6  A    between atoms: C_11  and  C_13 
REMARK    7  A    between atoms: C_13  and  C_15 
ROOT
ATOM      1  C   LIG d   1       3.380  -0.827 -10.481  0.00  0.00    -0.005 C 
ATOM      2  C   LIG d   1       3.382   0.708 -10.566  0.00  0.00    -0.034 C 
ATOM      3  C   LIG d   1       2.976   0.712  -9.082  0.00  0.00     0.027 C 
ATOM      4  C   LIG d   1       2.378  -0.683  -9.324  0.00  0.00    -0.034 C 
ATOM      5  H   LIG d   1       2.616   1.111 -11.229  0.00  0.00     0.028 H 
ATOM      6  H   LIG d   1       4.369   1.133 -10.750  0.00  0.00     0.028 H 
ATOM      7  H   LIG d   1       2.400   1.508  -8.897  0.00  0.00     0.038 H 
ATOM      8  H   LIG d   1       2.553  -1.382  -8.505  0.00  0.00     0.028 H 
ATOM      9  H   LIG d   1       1.337  -0.662  -9.647  0.00  0.00     0.028 H 
ENDROOT
BRANCH   1  10
ATOM     10  C   LIG d   1       2.802  -1.498 -11.700  0.00  0.00    -0.036 A 
ATOM     11  C   LIG d   1       3.308  -1.210 -12.953  0.00  0.00    -0.046 A 
ATOM     12  C   LIG d   1       2.778  -1.825 -14.072  0.00  0.00    -0.056 A 
ATOM     13  C   LIG d   1       1.742  -2.729 -13.938  0.00  0.00    -0.050 A 
ATOM     14  H   LIG d   1       3.174  -1.600 -15.051  0.00  0.00     0.062 H 
ATOM     15  C   LIG d   1       1.235  -3.018 -12.684  0.00  0.00    -0.056 A 
ATOM     16  C   LIG d   1       1.769  -2.407 -11.565  0.00  0.00    -0.046 A 
ATOM     17  H   LIG d   1       0.425  -3.724 -12.578  0.00  0.00     0.062 H 
BRANCH  11  18
ATOM     18  C   LIG d   1       4.440  -0.224 -13.100  0.00  0.00    -0.039 C 
ATOM     19  H   LIG d   1       5.110  -0.556 -13.892  0.00  0.00     0.028 H 
ATOM     20  H   LIG d   1       4.036   0.757 -13.354  0.00  0.00     0.028 H 
ATOM     21  H   LIG d   1       4.989  -0.159 -12.161  0.00  0.00     0.028 H 
ENDBRANCH  11  18
BRANCH  13  22
ATOM     22  C   LIG d   1       1.163  -3.400 -15.156  0.00  0.00    -0.040 C 
ATOM     23  H   LIG d   1       1.968  -3.837 -15.747  0.00  0.00     0.028 H 
ATOM     24  H   LIG d   1       0.472  -4.184 -14.846  0.00  0.00     0.028 H 
ATOM     25  H   LIG d   1       0.631  -2.663 -15.757  0.00  0.00     0.028 H 
ENDBRANCH  13  22
BRANCH  16  26
ATOM     26  C   LIG d   1       1.221  -2.726 -10.198  0.00  0.00    -0.039 C 
ATOM     27  H   LIG d   1       0.237  -2.270 -10.085  0.00  0.00     0.028 H 
ATOM     28  H   LIG d   1       1.135  -3.806 -10.085  0.00  0.00     0.028 H 
ATOM     29  H   LIG d   1       1.892  -2.332  -9.435  0.00  0.00     0.028 H 
ENDBRANCH  16  26
ENDBRANCH   1  10
BRANCH   1  30
ATOM     30  C   LIG d   1       4.725  -1.420 -10.056  0.00  0.00    -0.056 C 
ATOM     31  H   LIG d   1       4.636  -2.503  -9.976  0.00  0.00     0.024 H 
ATOM     32  H   LIG d   1       5.483  -1.171 -10.798  0.00  0.00     0.024 H 
ATOM     33  H   LIG d   1       5.014  -1.007  -9.089  0.00  0.00     0.024 H 
ENDBRANCH   1  30
BRANCH   3  34
ATOM     34  C   LIG d   1       4.149   0.710  -8.136  0.00  0.00     0.201 C 
ATOM     35  O   LIG d   1       5.192   1.241  -8.460  0.00  0.00    -0.288 OA
BRANCH  34  36
ATOM     36  C   LIG d   1       4.034   0.091  -6.866  0.00  0.00     0.172 A 
ATOM     37  O   LIG d   1       3.227   0.505  -5.864  0.00  0.00    -0.452 OA
ATOM     38  C   LIG d   1       3.364  -0.309  -4.799  0.00  0.00     0.136 A 
ATOM     39  C   LIG d   1       4.307  -1.297  -5.138  0.00  0.00     0.021 A 
ATOM     40  C   LIG d   1       2.779  -0.331  -3.539  0.00  0.00    -0.019 A 
ATOM     41  C   LIG d   1       4.719  -1.016  -6.466  0.00  0.00    -0.005 A 
ATOM     42  C   LIG d   1       4.646  -2.286  -4.209  0.00  0.00    -0.051 A 
ATOM     43  H   LIG d   1       5.439  -1.573  -7.048  0.00  0.00     0.066 H 
ATOM     44  C   LIG d   1       4.059  -2.288  -2.976  0.00  0.00    -0.061 A 
ATOM     45  H   LIG d   1       5.370  -3.046  -4.466  0.00  0.00     0.062 H 
ATOM     46  C   LIG d   1       3.128  -1.315  -2.638  0.00  0.00    -0.058 A 
ATOM     47  H   LIG d   1       4.322  -3.051  -2.259  0.00  0.00     0.062 H 
ATOM     48  H   LIG d   1       2.672  -1.329  -1.659  0.00  0.00     0.062 H 
ATOM     49  H   LIG d   1       2.054   0.421  -3.265  0.00  0.00     0.065 H 
ENDBRANCH  34  36
ENDBRANCH   3  34
TORSDOF 7
ENDMDL
MODEL 2
REMARK VINA RESULT:      -6.4      0.013      1.709
REMARK  7 active torsions:
REMARK  status: ('A' for Active; 'I' for Inactive)
REMARK    1  A    between atoms: C_1  and  C_2 
REMARK    2  A    between atoms: C_4  and  C_25 
REMARK    3  A    between atoms: C_5  and  C_9 
REMARK    4  A    between atoms: C_6  and  C_8 
REMARK    5  A    between atoms: C_9  and  C_24 
REMARK    6  A    between atoms: C_11  and  C_13 
REMARK    7  A    between atoms: C_13  and  C_15 
ROOT
ATOM      1  C   LIG d   1       3.380  -0.834 -10.477  0.00  0.00    -0.005 C 
ATOM      2  C   LIG d   1       3.373   0.702 -10.556  0.00  0.00    -0.034 C 
ATOM      3  C   LIG d   1       2.969   0.697  -9.072  0.00  0.00     0.027 C 
ATOM      4  C   LIG d   1       2.378  -0.700  -9.318  0.00  0.00    -0.034 C 
ATOM      5  H   LIG d   1       2.604   1.102 -11.216  0.00  0.00     0.028 H 
ATOM      6  H   LIG d   1       4.357   1.133 -10.739  0.00  0.00     0.028 H 
ATOM      7  H   LIG d   1       2.388   1.489  -8.882  0.00  0.00     0.038 H 
ATOM      8  H   LIG d   1       2.558  -1.401  -8.502  0.00  0.00     0.028 H 
ATOM      9  H   LIG d   1       1.337  -0.684  -9.640  0.00  0.00     0.028 H 
ENDROOT
BRANCH   1  10
ATOM     10  C   LIG d   1       2.804  -1.504 -11.697  0.00  0.00    -0.036 A 
ATOM     11  C   LIG d   1       1.768  -2.409 -11.565  0.00  0.00    -0.046 A 
ATOM     12  C   LIG d   1       1.240  -3.025 -12.685  0.00  0.00    -0.056 A 
ATOM     13  C   LIG d   1       1.748  -2.735 -13.937  0.00  0.00    -0.050 A 
ATOM     14  H   LIG d   1       0.430  -3.731 -12.581  0.00  0.00     0.062 H 
ATOM     15  C   LIG d   1       2.785  -1.830 -14.070  0.00  0.00    -0.056 A 
ATOM     16  C   LIG d   1       3.309  -1.210 -12.951  0.00  0.00    -0.046 A 
ATOM     17  H   LIG d   1       3.182  -1.604 -15.047  0.00  0.00     0.062 H 
BRANCH  11  18
ATOM     18  C   LIG d   1       1.213  -2.725 -10.199  0.00  0.00    -0.039 C 
ATOM     19  H   LIG d   1       1.889  -2.341  -9.436  0.00  0.00     0.028 H 
ATOM     20  H   LIG d   1       0.235  -2.257 -10.088  0.00  0.00     0.028 H 
ATOM     21  H   LIG d   1       1.115  -3.805 -10.088  0.00  0.00     0.028 H 
ENDBRANCH  11  18
BRANCH  13  22
ATOM     22  C   LIG d   1       1.174  -3.406 -15.157  0.00  0.00    -0.040 C 
ATOM     23  H   LIG d   1       0.193  -3.819 -14.917  0.00  0.00     0.028 H 
ATOM     24  H   LIG d   1       1.074  -2.676 -15.961  0.00  0.00     0.028 H 
ATOM     25  H   LIG d   1       1.837  -4.209 -15.476  0.00  0.00     0.028 H 
ENDBRANCH  13  22
BRANCH  16  26
ATOM     26  C   LIG d   1       4.435  -0.219 -13.096  0.00  0.00    -0.039 C 
ATOM     27  H   LIG d   1       4.083   0.774 -12.817  0.00  0.00     0.028 H 
ATOM     28  H   LIG d   1       5.259  -0.509 -12.444  0.00  0.00     0.028 H 
ATOM     29  H   LIG d   1       4.777  -0.206 -14.131  0.00  0.00     0.028 H 
ENDBRANCH  16  26
ENDBRANCH   1  10
BRANCH   1  30
ATOM     30  C   LIG d   1       4.729  -1.421 -10.056  0.00  0.00    -0.056 C 
ATOM     31  H   LIG d   1       5.534  -0.813 -10.467  0.00  0.00     0.024 H 
ATOM     32  H   LIG d   1       4.798  -1.428  -8.968  0.00  0.00     0.024 H 
ATOM     33  H   LIG d   1       4.814  -2.441 -10.431  0.00  0.00     0.024 H 
ENDBRANCH   1  30
BRANCH   3  34
ATOM     34  C   LIG d   1       4.143   0.699  -8.127  0.00  0.00     0.201 C 
ATOM     35  O   LIG d   1       5.184   1.230  -8.453  0.00  0.00    -0.288 OA
BRANCH  34  36
ATOM     36  C   LIG d   1       4.030   0.081  -6.856  0.00  0.00     0.172 A 
ATOM     37  O   LIG d   1       3.225   0.495  -5.853  0.00  0.00    -0.452 OA
ATOM     38  C   LIG d   1       3.364  -0.317  -4.787  0.00  0.00     0.136 A 
ATOM     39  C   LIG d   1       4.308  -1.305  -5.127  0.00  0.00     0.021 A 
ATOM     40  C   LIG d   1       2.782  -0.338  -3.526  0.00  0.00    -0.019 A 
ATOM     41  C   LIG d   1       4.717  -1.025  -6.455  0.00  0.00    -0.005 A 
ATOM     42  C   LIG d   1       4.649  -2.293  -4.197  0.00  0.00    -0.051 A 
ATOM     43  H   LIG d   1       5.437  -1.582  -7.038  0.00  0.00     0.066 H 
ATOM     44  C   LIG d   1       4.064  -2.294  -2.963  0.00  0.00    -0.061 A 
ATOM     45  H   LIG d   1       5.372  -3.053  -4.454  0.00  0.00     0.062 H 
ATOM     46  C   LIG d   1       3.132  -1.321  -2.625  0.00  0.00    -0.058 A 
ATOM     47  H   LIG d   1       4.328  -3.056  -2.245  0.00  0.00     0.062 H 
ATOM     48  H   LIG d   1       2.678  -1.334  -1.645  0.00  0.00     0.062 H 
ATOM     49  H   LIG d   1       2.057   0.413  -3.252  0.00  0.00     0.065 H 
ENDBRANCH  34  36
ENDBRANCH   3  34
TORSDOF 7
ENDMDL
MODEL 3
REMARK VINA RESULT:      -6.0      0.764      2.355
REMARK  7 active torsions:
REMARK  status: ('A' for Active; 'I' for Inactive)
REMARK    1  A    between atoms: C_1  and  C_2 
REMARK    2  A    between atoms: C_4  and  C_25 
REMARK    3  A    between atoms: C_5  and  C_9 
REMARK    4  A    between atoms: C_6  and  C_8 
REMARK    5  A    between atoms: C_9  and  C_24 
REMARK    6  A    between atoms: C_11  and  C_13 
REMARK    7  A    between atoms: C_13  and  C_15 
ROOT
ATOM      1  C   LIG d   1       3.340  -0.900 -10.422  0.00  0.00    -0.005 C 
ATOM      2  C   LIG d   1       3.849  -1.918  -9.388  0.00  0.00    -0.034 C 
ATOM      3  C   LIG d   1       5.035  -0.968  -9.154  0.00  0.00     0.027 C 
ATOM      4  C   LIG d   1       4.802  -0.450 -10.582  0.00  0.00    -0.034 C 
ATOM      5  H   LIG d   1       4.135  -2.875  -9.823  0.00  0.00     0.028 H 
ATOM      6  H   LIG d   1       3.196  -2.023  -8.523  0.00  0.00     0.028 H 
ATOM      7  H   LIG d   1       5.846  -1.501  -8.913  0.00  0.00     0.038 H 
ATOM      8  H   LIG d   1       4.919   0.630 -10.680  0.00  0.00     0.028 H 
ATOM      9  H   LIG d   1       5.349  -1.006 -11.344  0.00  0.00     0.028 H 
ENDROOT
BRANCH   1  10
ATOM     10  C   LIG d   1       2.765  -1.534 -11.662  0.00  0.00    -0.036 A 
ATOM     11  C   LIG d   1       1.716  -2.428 -11.558  0.00  0.00    -0.046 A 
ATOM     12  C   LIG d   1       1.188  -3.010 -12.695  0.00  0.00    -0.056 A 
ATOM     13  C   LIG d   1       1.709  -2.698 -13.937  0.00  0.00    -0.050 A 
ATOM     14  H   LIG d   1       0.369  -3.709 -12.613  0.00  0.00     0.062 H 
ATOM     15  C   LIG d   1       2.758  -1.803 -14.042  0.00  0.00    -0.056 A 
ATOM     16  C   LIG d   1       3.282  -1.217 -12.905  0.00  0.00    -0.046 A 
ATOM     17  H   LIG d   1       3.165  -1.560 -15.011  0.00  0.00     0.062 H 
BRANCH  11  18
ATOM     18  C   LIG d   1       1.148  -2.768 -10.204  0.00  0.00    -0.039 C 
ATOM     19  H   LIG d   1       0.365  -3.517 -10.317  0.00  0.00     0.028 H 
ATOM     20  H   LIG d   1       1.940  -3.163  -9.566  0.00  0.00     0.028 H 
ATOM     21  H   LIG d   1       0.730  -1.870  -9.749  0.00  0.00     0.028 H 
ENDBRANCH  11  18
BRANCH  13  22
ATOM     22  C   LIG d   1       1.134  -3.333 -15.176  0.00  0.00    -0.040 C 
ATOM     23  H   LIG d   1       1.834  -3.212 -16.004  0.00  0.00     0.028 H 
ATOM     24  H   LIG d   1       0.964  -4.395 -14.997  0.00  0.00     0.028 H 
ATOM     25  H   LIG d   1       0.190  -2.851 -15.427  0.00  0.00     0.028 H 
ENDBRANCH  13  22
BRANCH  16  26
ATOM     26  C   LIG d   1       4.421  -0.238 -13.019  0.00  0.00    -0.039 C 
ATOM     27  H   LIG d   1       4.533   0.070 -14.058  0.00  0.00     0.028 H 
ATOM     28  H   LIG d   1       4.211   0.636 -12.402  0.00  0.00     0.028 H 
ATOM     29  H   LIG d   1       5.343  -0.710 -12.679  0.00  0.00     0.028 H 
ENDBRANCH  16  26
ENDBRANCH   1  10
BRANCH   1  30
ATOM     30  C   LIG d   1       2.430   0.177  -9.827  0.00  0.00    -0.056 C 
ATOM     31  H   LIG d   1       2.370   0.046  -8.747  0.00  0.00     0.024 H 
ATOM     32  H   LIG d   1       2.838   1.162 -10.051  0.00  0.00     0.024 H 
ATOM     33  H   LIG d   1       1.434   0.090 -10.260  0.00  0.00     0.024 H 
ENDBRANCH   1  30
BRANCH   3  34
ATOM     34  C   LIG d   1       4.780   0.065  -8.087  0.00  0.00     0.201 C 
ATOM     35  O   LIG d   1       4.863   1.247  -8.354  0.00  0.00    -0.288 OA
BRANCH  34  36
ATOM     36  C   LIG d   1       4.442  -0.342  -6.772  0.00  0.00     0.172 A 
ATOM     37  O   LIG d   1       5.093  -1.283  -6.054  0.00  0.00    -0.452 OA
ATOM     38  C   LIG d   1       4.511  -1.423  -4.847  0.00  0.00     0.136 A 
ATOM     39  C   LIG d   1       3.430  -0.523  -4.790  0.00  0.00     0.021 A 
ATOM     40  C   LIG d   1       4.778  -2.235  -3.751  0.00  0.00    -0.019 A 
ATOM     41  C   LIG d   1       3.410   0.155  -6.035  0.00  0.00    -0.005 A 
ATOM     42  C   LIG d   1       2.640  -0.453  -3.637  0.00  0.00    -0.051 A 
ATOM     43  H   LIG d   1       2.709   0.919  -6.341  0.00  0.00     0.066 H 
ATOM     44  C   LIG d   1       2.922  -1.261  -2.573  0.00  0.00    -0.061 A 
ATOM     45  H   LIG d   1       1.810   0.237  -3.590  0.00  0.00     0.062 H 
ATOM     46  C   LIG d   1       3.987  -2.150  -2.625  0.00  0.00    -0.058 A 
ATOM     47  H   LIG d   1       2.311  -1.207  -1.683  0.00  0.00     0.062 H 
ATOM     48  H   LIG d   1       4.198  -2.782  -1.775  0.00  0.00     0.062 H 
ATOM     49  H   LIG d   1       5.604  -2.930  -3.781  0.00  0.00     0.065 H 
ENDBRANCH  34  36
ENDBRANCH   3  34
TORSDOF 7
ENDMDL
MODEL 4
REMARK VINA RESULT:      -5.8      1.681      7.638
REMARK  7 active torsions:
REMARK  status: ('A' for Active; 'I' for Inactive)
REMARK    1  A    between atoms: C_1  and  C_2 
REMARK    2  A    between atoms: C_4  and  C_25 
REMARK    3  A    between atoms: C_5  and  C_9 
REMARK    4  A    between atoms: C_6  and  C_8 
REMARK    5  A    between atoms: C_9  and  C_24 
REMARK    6  A    between atoms: C_11  and  C_13 
REMARK    7  A    between atoms: C_13  and  C_15 
ROOT
ATOM      1  C   LIG d   1       3.782  -0.013  -7.424  0.00  0.00    -0.005 C 
ATOM      2  C   LIG d   1       2.894  -0.805  -8.398  0.00  0.00    -0.034 C 
ATOM      3  C   LIG d   1       2.444   0.552  -8.966  0.00  0.00     0.027 C 
ATOM      4  C   LIG d   1       2.795   1.153  -7.595  0.00  0.00    -0.034 C 
ATOM      5  H   LIG d   1       2.094  -1.360  -7.908  0.00  0.00     0.028 H 
ATOM      6  H   LIG d   1       3.458  -1.410  -9.108  0.00  0.00     0.028 H 
ATOM      7  H   LIG d   1       1.499   0.483  -9.284  0.00  0.00     0.038 H 
ATOM      8  H   LIG d   1       3.278   2.129  -7.656  0.00  0.00     0.028 H 
ATOM      9  H   LIG d   1       1.968   1.134  -6.885  0.00  0.00     0.028 H 
ENDROOT
BRANCH   1  10
ATOM     10  C   LIG d   1       3.806  -0.583  -6.029  0.00  0.00    -0.036 A 
ATOM     11  C   LIG d   1       3.142   0.066  -5.006  0.00  0.00    -0.046 A 
ATOM     12  C   LIG d   1       3.164  -0.457  -3.726  0.00  0.00    -0.056 A 
ATOM     13  C   LIG d   1       3.850  -1.628  -3.470  0.00  0.00    -0.050 A 
ATOM     14  H   LIG d   1       2.645   0.051  -2.927  0.00  0.00     0.062 H 
ATOM     15  C   LIG d   1       4.515  -2.279  -4.493  0.00  0.00    -0.056 A 
ATOM     16  C   LIG d   1       4.488  -1.759  -5.774  0.00  0.00    -0.046 A 
ATOM     17  H   LIG d   1       5.051  -3.194  -4.294  0.00  0.00     0.062 H 
BRANCH  11  18
ATOM     18  C   LIG d   1       2.393   1.344  -5.285  0.00  0.00    -0.039 C 
ATOM     19  H   LIG d   1       1.322   1.157  -5.226  0.00  0.00     0.028 H 
ATOM     20  H   LIG d   1       2.672   2.097  -4.547  0.00  0.00     0.028 H 
ATOM     21  H   LIG d   1       2.646   1.703  -6.283  0.00  0.00     0.028 H 
ENDBRANCH  11  18
BRANCH  13  22
ATOM     22  C   LIG d   1       3.875  -2.198  -2.075  0.00  0.00    -0.040 C 
ATOM     23  H   LIG d   1       2.855  -2.301  -1.706  0.00  0.00     0.028 H 
ATOM     24  H   LIG d   1       4.357  -3.176  -2.090  0.00  0.00     0.028 H 
ATOM     25  H   LIG d   1       4.433  -1.529  -1.420  0.00  0.00     0.028 H 
ENDBRANCH  13  22
BRANCH  16  26
ATOM     26  C   LIG d   1       5.207  -2.470  -6.891  0.00  0.00    -0.039 C 
ATOM     27  H   LIG d   1       4.530  -3.182  -7.363  0.00  0.00     0.028 H 
ATOM     28  H   LIG d   1       5.540  -1.741  -7.631  0.00  0.00     0.028 H 
ATOM     29  H   LIG d   1       6.070  -3.001  -6.489  0.00  0.00     0.028 H 
ENDBRANCH  16  26
ENDBRANCH   1  10
BRANCH   1  30
ATOM     30  C   LIG d   1       5.180   0.283  -7.970  0.00  0.00    -0.056 C 
ATOM     31  H   LIG d   1       5.775   0.774  -7.200  0.00  0.00     0.024 H 
ATOM     32  H   LIG d   1       5.662  -0.650  -8.262  0.00  0.00     0.024 H 
ATOM     33  H   LIG d   1       5.100   0.937  -8.839  0.00  0.00     0.024 H 
ENDBRANCH   1  30
BRANCH   3  34
ATOM     34  C   LIG d   1       3.315   1.056 -10.087  0.00  0.00     0.201 C 
ATOM     35  O   LIG d   1       3.775   2.179 -10.041  0.00  0.00    -0.288 OA
BRANCH  34  36
ATOM     36  C   LIG d   1       3.598   0.220 -11.196  0.00  0.00     0.172 A 
ATOM     37  O   LIG d   1       2.684  -0.489 -11.894  0.00  0.00    -0.452 OA
ATOM     38  C   LIG d   1       3.292  -1.175 -12.881  0.00  0.00     0.136 A 
ATOM     39  C   LIG d   1       4.668  -0.889 -12.811  0.00  0.00     0.021 A 
ATOM     40  C   LIG d   1       2.826  -2.038 -13.866  0.00  0.00    -0.019 A 
ATOM     41  C   LIG d   1       4.835   0.005 -11.724  0.00  0.00    -0.005 A 
ATOM     42  C   LIG d   1       5.549  -1.473 -13.729  0.00  0.00    -0.051 A 
ATOM     43  H   LIG d   1       5.766   0.433 -11.379  0.00  0.00     0.066 H 
ATOM     44  C   LIG d   1       5.069  -2.318 -14.688  0.00  0.00    -0.061 A 
ATOM     45  H   LIG d   1       6.606  -1.256 -13.678  0.00  0.00     0.062 H 
ATOM     46  C   LIG d   1       3.711  -2.601 -14.760  0.00  0.00    -0.058 A 
ATOM     47  H   LIG d   1       5.749  -2.768 -15.395  0.00  0.00     0.062 H 
ATOM     48  H   LIG d   1       3.345  -3.271 -15.524  0.00  0.00     0.062 H 
ATOM     49  H   LIG d   1       1.772  -2.265 -13.931  0.00  0.00     0.065 H 
ENDBRANCH  34  36
ENDBRANCH   3  34
TORSDOF 7
ENDMDL
MODEL 5
REMARK VINA RESULT:      -5.8      7.730     11.112
REMARK  7 active torsions:
REMARK  status: ('A' for Active; 'I' for Inactive)
REMARK    1  A    between atoms: C_1  and  C_2 
REMARK    2  A    between atoms: C_4  and  C_25 
REMARK    3  A    between atoms: C_5  and  C_9 
REMARK    4  A    between atoms: C_6  and  C_8 
REMARK    5  A    between atoms: C_9  and  C_24 
REMARK    6  A    between atoms: C_11  and  C_13 
REMARK    7  A    between atoms: C_13  and  C_15 
ROOT
ATOM      1  C   LIG d   1      10.489   4.037  -4.192  0.00  0.00    -0.005 C 
ATOM      2  C   LIG d   1      11.117   2.871  -4.974  0.00  0.00    -0.034 C 
ATOM      3  C   LIG d   1      10.154   1.945  -4.211  0.00  0.00     0.027 C 
ATOM      4  C   LIG d   1      10.132   3.011  -3.104  0.00  0.00    -0.034 C 
ATOM      5  H   LIG d   1      12.167   2.701  -4.737  0.00  0.00     0.028 H 
ATOM      6  H   LIG d   1      10.925   2.913  -6.046  0.00  0.00     0.028 H 
ATOM      7  H   LIG d   1      10.587   1.054  -4.076  0.00  0.00     0.038 H 
ATOM      8  H   LIG d   1       9.145   3.164  -2.665  0.00  0.00     0.028 H 
ATOM      9  H   LIG d   1      10.913   2.879  -2.355  0.00  0.00     0.028 H 
ENDROOT
BRANCH   1  10
ATOM     10  C   LIG d   1      11.489   5.070  -3.742  0.00  0.00    -0.036 A 
ATOM     11  C   LIG d   1      11.309   5.729  -2.540  0.00  0.00    -0.046 A 
ATOM     12  C   LIG d   1      12.226   6.677  -2.127  0.00  0.00    -0.056 A 
ATOM     13  C   LIG d   1      13.323   6.967  -2.915  0.00  0.00    -0.050 A 
ATOM     14  H   LIG d   1      12.085   7.191  -1.188  0.00  0.00     0.062 H 
ATOM     15  C   LIG d   1      13.504   6.308  -4.117  0.00  0.00    -0.056 A 
ATOM     16  C   LIG d   1      12.590   5.356  -4.528  0.00  0.00    -0.046 A 
ATOM     17  H   LIG d   1      14.361   6.535  -4.733  0.00  0.00     0.062 H 
BRANCH  11  18
ATOM     18  C   LIG d   1      10.112   5.412  -1.679  0.00  0.00    -0.039 C 
ATOM     19  H   LIG d   1      10.314   4.518  -1.092  0.00  0.00     0.028 H 
ATOM     20  H   LIG d   1       9.915   6.250  -1.010  0.00  0.00     0.028 H 
ATOM     21  H   LIG d   1       9.243   5.242  -2.315  0.00  0.00     0.028 H 
ENDBRANCH  11  18
BRANCH  13  22
ATOM     22  C   LIG d   1      14.323   8.001  -2.466  0.00  0.00    -0.040 C 
ATOM     23  H   LIG d   1      14.084   8.961  -2.924  0.00  0.00     0.028 H 
ATOM     24  H   LIG d   1      14.285   8.097  -1.380  0.00  0.00     0.028 H 
ATOM     25  H   LIG d   1      15.324   7.693  -2.768  0.00  0.00     0.028 H 
ENDBRANCH  13  22
BRANCH  16  26
ATOM     26  C   LIG d   1      12.790   4.634  -5.835  0.00  0.00    -0.039 C 
ATOM     27  H   LIG d   1      13.116   5.343  -6.596  0.00  0.00     0.028 H 
ATOM     28  H   LIG d   1      13.548   3.861  -5.710  0.00  0.00     0.028 H 
ATOM     29  H   LIG d   1      11.850   4.175  -6.145  0.00  0.00     0.028 H 
ENDBRANCH  16  26
ENDBRANCH   1  10
BRANCH   1  30
ATOM     30  C   LIG d   1       9.268   4.650  -4.879  0.00  0.00    -0.056 C 
ATOM     31  H   LIG d   1       9.377   4.565  -5.960  0.00  0.00     0.024 H 
ATOM     32  H   LIG d   1       8.369   4.122  -4.562  0.00  0.00     0.024 H 
ATOM     33  H   LIG d   1       9.186   5.702  -4.604  0.00  0.00     0.024 H 
ENDBRANCH   1  30
BRANCH   3  34
ATOM     34  C   LIG d   1       8.826   1.759  -4.897  0.00  0.00     0.201 C 
ATOM     35  O   LIG d   1       8.676   2.132  -6.042  0.00  0.00    -0.288 OA
BRANCH  34  36
ATOM     36  C   LIG d   1       7.751   1.146  -4.205  0.00  0.00     0.172 A 
ATOM     37  O   LIG d   1       6.803   1.800  -3.498  0.00  0.00    -0.452 OA
ATOM     38  C   LIG d   1       5.934   0.916  -2.970  0.00  0.00     0.136 A 
ATOM     39  C   LIG d   1       6.347  -0.371  -3.361  0.00  0.00     0.021 A 
ATOM     40  C   LIG d   1       4.801   1.055  -2.177  0.00  0.00    -0.019 A 
ATOM     41  C   LIG d   1       7.512  -0.194  -4.149  0.00  0.00    -0.005 A 
ATOM     42  C   LIG d   1       5.619  -1.493  -2.950  0.00  0.00    -0.051 A 
ATOM     43  H   LIG d   1       8.099  -0.972  -4.616  0.00  0.00     0.066 H 
ATOM     44  C   LIG d   1       4.508  -1.332  -2.171  0.00  0.00    -0.061 A 
ATOM     45  H   LIG d   1       5.933  -2.482  -3.248  0.00  0.00     0.062 H 
ATOM     46  C   LIG d   1       4.098  -0.064  -1.784  0.00  0.00    -0.058 A 
ATOM     47  H   LIG d   1       3.947  -2.199  -1.854  0.00  0.00     0.062 H 
ATOM     48  H   LIG d   1       3.218   0.048  -1.168  0.00  0.00     0.062 H 
ATOM     49  H   LIG d   1       4.472   2.036  -1.870  0.00  0.00     0.065 H 
ENDBRANCH  34  36
ENDBRANCH   3  34
TORSDOF 7
ENDMDL
MODEL 6
REMARK VINA RESULT:      -5.8      1.681      7.606
REMARK  7 active torsions:
REMARK  status: ('A' for Active; 'I' for Inactive)
REMARK    1  A    between atoms: C_1  and  C_2 
REMARK    2  A    between atoms: C_4  and  C_25 
REMARK    3  A    between atoms: C_5  and  C_9 
REMARK    4  A    between atoms: C_6  and  C_8 
REMARK    5  A    between atoms: C_9  and  C_24 
REMARK    6  A    between atoms: C_11  and  C_13 
REMARK    7  A    between atoms: C_13  and  C_15 
ROOT
ATOM      1  C   LIG d   1       3.782  -0.013  -7.427  0.00  0.00    -0.005 C 
ATOM      2  C   LIG d   1       2.896  -0.807  -8.401  0.00  0.00    -0.034 C 
ATOM      3  C   LIG d   1       2.443   0.549  -8.969  0.00  0.00     0.027 C 
ATOM      4  C   LIG d   1       2.792   1.151  -7.599  0.00  0.00    -0.034 C 
ATOM      5  H   LIG d   1       2.097  -1.363  -7.911  0.00  0.00     0.028 H 
ATOM      6  H   LIG d   1       3.460  -1.411  -9.110  0.00  0.00     0.028 H 
ATOM      7  H   LIG d   1       1.498   0.477  -9.288  0.00  0.00     0.038 H 
ATOM      8  H   LIG d   1       3.273   2.128  -7.661  0.00  0.00     0.028 H 
ATOM      9  H   LIG d   1       1.965   1.131  -6.889  0.00  0.00     0.028 H 
ENDROOT
BRANCH   1  10
ATOM     10  C   LIG d   1       3.806  -0.582  -6.032  0.00  0.00    -0.036 A 
ATOM     11  C   LIG d   1       4.499  -1.750  -5.775  0.00  0.00    -0.046 A 
ATOM     12  C   LIG d   1       4.522  -2.273  -4.495  0.00  0.00    -0.056 A 
ATOM     13  C   LIG d   1       3.852  -1.629  -3.473  0.00  0.00    -0.050 A 
ATOM     14  H   LIG d   1       5.064  -3.186  -4.294  0.00  0.00     0.062 H 
ATOM     15  C   LIG d   1       3.159  -0.460  -3.730  0.00  0.00    -0.056 A 
ATOM     16  C   LIG d   1       3.140   0.066  -5.008  0.00  0.00    -0.046 A 
ATOM     17  H   LIG d   1       2.635   0.044  -2.932  0.00  0.00     0.062 H 
BRANCH  11  18
ATOM     18  C   LIG d   1       5.231  -2.454  -6.890  0.00  0.00    -0.039 C 
ATOM     19  H   LIG d   1       4.940  -2.019  -7.845  0.00  0.00     0.028 H 
ATOM     20  H   LIG d   1       6.306  -2.338  -6.749  0.00  0.00     0.028 H 
ATOM     21  H   LIG d   1       4.975  -3.514  -6.879  0.00  0.00     0.028 H 
ENDBRANCH  11  18
BRANCH  13  22
ATOM     22  C   LIG d   1       3.876  -2.198  -2.078  0.00  0.00    -0.040 C 
ATOM     23  H   LIG d   1       3.134  -2.993  -1.998  0.00  0.00     0.028 H 
ATOM     24  H   LIG d   1       4.866  -2.602  -1.867  0.00  0.00     0.028 H 
ATOM     25  H   LIG d   1       3.644  -1.411  -1.361  0.00  0.00     0.028 H 
ENDBRANCH  13  22
BRANCH  16  26
ATOM     26  C   LIG d   1       2.390   1.342  -5.288  0.00  0.00    -0.039 C 
ATOM     27  H   LIG d   1       2.447   1.572  -6.351  0.00  0.00     0.028 H 
ATOM     28  H   LIG d   1       1.346   1.220  -4.998  0.00  0.00     0.028 H 
ATOM     29  H   LIG d   1       2.833   2.158  -4.716  0.00  0.00     0.028 H 
ENDBRANCH  16  26
ENDBRANCH   1  10
BRANCH   1  30
ATOM     30  C   LIG d   1       5.179   0.285  -7.973  0.00  0.00    -0.056 C 
ATOM     31  H   LIG d   1       5.929  -0.055  -7.260  0.00  0.00     0.024 H 
ATOM     32  H   LIG d   1       5.317  -0.233  -8.922  0.00  0.00     0.024 H 
ATOM     33  H   LIG d   1       5.287   1.359  -8.128  0.00  0.00     0.024 H 
ENDBRANCH   1  30
BRANCH   3  34
ATOM     34  C   LIG d   1       3.313   1.054 -10.091  0.00  0.00     0.201 C 
ATOM     35  O   LIG d   1       3.771   2.177 -10.045  0.00  0.00    -0.288 OA
BRANCH  34  36
ATOM     36  C   LIG d   1       3.598   0.217 -11.199  0.00  0.00     0.172 A 
ATOM     37  O   LIG d   1       2.684  -0.488 -11.902  0.00  0.00    -0.452 OA
ATOM     38  C   LIG d   1       3.293  -1.175 -12.887  0.00  0.00     0.136 A 
ATOM     39  C   LIG d   1       4.670  -0.895 -12.811  0.00  0.00     0.021 A 
ATOM     40  C   LIG d   1       2.827  -2.035 -13.875  0.00  0.00    -0.019 A 
ATOM     41  C   LIG d   1       4.836  -0.002 -11.722  0.00  0.00    -0.005 A 
ATOM     42  C   LIG d   1       5.552  -1.481 -13.726  0.00  0.00    -0.051 A 
ATOM     43  H   LIG d   1       5.767   0.422 -11.374  0.00  0.00     0.066 H 
ATOM     44  C   LIG d   1       5.072  -2.323 -14.688  0.00  0.00    -0.061 A 
ATOM     45  H   LIG d   1       6.610  -1.268 -13.671  0.00  0.00     0.062 H 
ATOM     46  C   LIG d   1       3.714  -2.601 -14.765  0.00  0.00    -0.058 A 
ATOM     47  H   LIG d   1       5.754  -2.775 -15.392  0.00  0.00     0.062 H 
ATOM     48  H   LIG d   1       3.349  -3.269 -15.531  0.00  0.00     0.062 H 
ATOM     49  H   LIG d   1       1.773  -2.259 -13.944  0.00  0.00     0.065 H 
ENDBRANCH  34  36
ENDBRANCH   3  34
TORSDOF 7
ENDMDL
MODEL 7
REMARK VINA RESULT:      -5.8      3.023      4.726
REMARK  7 active torsions:
REMARK  status: ('A' for Active; 'I' for Inactive)
REMARK    1  A    between atoms: C_1  and  C_2 
REMARK    2  A    between atoms: C_4  and  C_25 
REMARK    3  A    between atoms: C_5  and  C_9 
REMARK    4  A    between atoms: C_6  and  C_8 
REMARK    5  A    between atoms: C_9  and  C_24 
REMARK    6  A    between atoms: C_11  and  C_13 
REMARK    7  A    between atoms: C_13  and  C_15 
ROOT
ATOM      1  C   LIG d   1       4.237  -0.695  -7.041  0.00  0.00    -0.005 C 
ATOM      2  C   LIG d   1       3.479  -0.085  -5.851  0.00  0.00    -0.034 C 
ATOM      3  C   LIG d   1       4.293  -1.030  -4.951  0.00  0.00     0.027 C 
ATOM      4  C   LIG d   1       4.431  -1.950  -6.174  0.00  0.00    -0.034 C 
ATOM      5  H   LIG d   1       2.410  -0.301  -5.856  0.00  0.00     0.028 H 
ATOM      6  H   LIG d   1       3.698   0.970  -5.688  0.00  0.00     0.028 H 
ATOM      7  H   LIG d   1       3.743  -1.289  -4.156  0.00  0.00     0.038 H 
ATOM      8  H   LIG d   1       5.419  -2.401  -6.273  0.00  0.00     0.028 H 
ATOM      9  H   LIG d   1       3.623  -2.676  -6.269  0.00  0.00     0.028 H 
ENDROOT
BRANCH   1  10
ATOM     10  C   LIG d   1       3.372  -0.927  -8.253  0.00  0.00    -0.036 A 
ATOM     11  C   LIG d   1       2.681   0.127  -8.820  0.00  0.00    -0.046 A 
ATOM     12  C   LIG d   1       1.886  -0.085  -9.932  0.00  0.00    -0.056 A 
ATOM     13  C   LIG d   1       1.783  -1.351 -10.476  0.00  0.00    -0.050 A 
ATOM     14  H   LIG d   1       1.347   0.738 -10.375  0.00  0.00     0.062 H 
ATOM     15  C   LIG d   1       2.475  -2.406  -9.909  0.00  0.00    -0.056 A 
ATOM     16  C   LIG d   1       3.273  -2.192  -8.801  0.00  0.00    -0.046 A 
ATOM     17  H   LIG d   1       2.395  -3.395 -10.334  0.00  0.00     0.062 H 
BRANCH  11  18
ATOM     18  C   LIG d   1       2.793   1.508  -8.227  0.00  0.00    -0.039 C 
ATOM     19  H   LIG d   1       2.787   1.438  -7.140  0.00  0.00     0.028 H 
ATOM     20  H   LIG d   1       3.724   1.971  -8.557  0.00  0.00     0.028 H 
ATOM     21  H   LIG d   1       1.949   2.115  -8.557  0.00  0.00     0.028 H 
ENDBRANCH  11  18
BRANCH  13  22
ATOM     22  C   LIG d   1       0.918  -1.583 -11.688  0.00  0.00    -0.040 C 
ATOM     23  H   LIG d   1       1.061  -2.603 -12.046  0.00  0.00     0.028 H 
ATOM     24  H   LIG d   1      -0.129  -1.435 -11.421  0.00  0.00     0.028 H 
ATOM     25  H   LIG d   1       1.196  -0.880 -12.472  0.00  0.00     0.028 H 
ENDBRANCH  13  22
BRANCH  16  26
ATOM     26  C   LIG d   1       4.031  -3.340  -8.186  0.00  0.00    -0.039 C 
ATOM     27  H   LIG d   1       4.442  -3.969  -8.976  0.00  0.00     0.028 H 
ATOM     28  H   LIG d   1       4.844  -2.951  -7.572  0.00  0.00     0.028 H 
ATOM     29  H   LIG d   1       3.357  -3.931  -7.565  0.00  0.00     0.028 H 
ENDBRANCH  16  26
ENDBRANCH   1  10
BRANCH   1  30
ATOM     30  C   LIG d   1       5.544   0.029  -7.372  0.00  0.00    -0.056 C 
ATOM     31  H   LIG d   1       6.105  -0.551  -8.104  0.00  0.00     0.024 H 
ATOM     32  H   LIG d   1       5.320   1.014  -7.782  0.00  0.00     0.024 H 
ATOM     33  H   LIG d   1       6.137   0.139  -6.464  0.00  0.00     0.024 H 
ENDBRANCH   1  30
BRANCH   3  34
ATOM     34  C   LIG d   1       5.600  -0.443  -4.486  0.00  0.00     0.201 C 
ATOM     35  O   LIG d   1       5.671   0.736  -4.206  0.00  0.00    -0.288 OA
BRANCH  34  36
ATOM     36  C   LIG d   1       6.748  -1.268  -4.374  0.00  0.00     0.172 A 
ATOM     37  O   LIG d   1       7.831  -1.213  -5.180  0.00  0.00    -0.452 OA
ATOM     38  C   LIG d   1       8.736  -2.135  -4.795  0.00  0.00     0.136 A 
ATOM     39  C   LIG d   1       8.203  -2.814  -3.684  0.00  0.00     0.021 A 
ATOM     40  C   LIG d   1       9.992  -2.490  -5.271  0.00  0.00    -0.019 A 
ATOM     41  C   LIG d   1       6.931  -2.239  -3.437  0.00  0.00    -0.005 A 
ATOM     42  C   LIG d   1       8.938  -3.835  -3.072  0.00  0.00    -0.051 A 
ATOM     43  H   LIG d   1       6.238  -2.519  -2.656  0.00  0.00     0.066 H 
ATOM     44  C   LIG d   1      10.171  -4.168  -3.557  0.00  0.00    -0.061 A 
ATOM     45  H   LIG d   1       8.533  -4.359  -2.219  0.00  0.00     0.062 H 
ATOM     46  C   LIG d   1      10.700  -3.499  -4.653  0.00  0.00    -0.058 A 
ATOM     47  H   LIG d   1      10.738  -4.956  -3.085  0.00  0.00     0.062 H 
ATOM     48  H   LIG d   1      11.676  -3.773  -5.026  0.00  0.00     0.062 H 
ATOM     49  H   LIG d   1      10.413  -1.977  -6.123  0.00  0.00     0.065 H 
ENDBRANCH  34  36
ENDBRANCH   3  34
TORSDOF 7
ENDMDL
MODEL 8
REMARK VINA RESULT:      -5.8      3.040      4.833
REMARK  7 active torsions:
REMARK  status: ('A' for Active; 'I' for Inactive)
REMARK    1  A    between atoms: C_1  and  C_2 
REMARK    2  A    between atoms: C_4  and  C_25 
REMARK    3  A    between atoms: C_5  and  C_9 
REMARK    4  A    between atoms: C_6  and  C_8 
REMARK    5  A    between atoms: C_9  and  C_24 
REMARK    6  A    between atoms: C_11  and  C_13 
REMARK    7  A    between atoms: C_13  and  C_15 
ROOT
ATOM      1  C   LIG d   1       4.258  -0.686  -7.077  0.00  0.00    -0.005 C 
ATOM      2  C   LIG d   1       3.515  -0.076  -5.877  0.00  0.00    -0.034 C 
ATOM      3  C   LIG d   1       4.332  -1.029  -4.988  0.00  0.00     0.027 C 
ATOM      4  C   LIG d   1       4.453  -1.945  -6.216  0.00  0.00    -0.034 C 
ATOM      5  H   LIG d   1       2.445  -0.285  -5.874  0.00  0.00     0.028 H 
ATOM      6  H   LIG d   1       3.742   0.977  -5.713  0.00  0.00     0.028 H 
ATOM      7  H   LIG d   1       3.787  -1.288  -4.189  0.00  0.00     0.038 H 
ATOM      8  H   LIG d   1       5.437  -2.401  -6.325  0.00  0.00     0.028 H 
ATOM      9  H   LIG d   1       3.640  -2.665  -6.306  0.00  0.00     0.028 H 
ENDROOT
BRANCH   1  10
ATOM     10  C   LIG d   1       3.381  -0.908  -8.282  0.00  0.00    -0.036 A 
ATOM     11  C   LIG d   1       3.255  -2.174  -8.820  0.00  0.00    -0.046 A 
ATOM     12  C   LIG d   1       2.451  -2.378  -9.926  0.00  0.00    -0.056 A 
ATOM     13  C   LIG d   1       1.773  -1.316 -10.493  0.00  0.00    -0.050 A 
ATOM     14  H   LIG d   1       2.352  -3.368 -10.346  0.00  0.00     0.062 H 
ATOM     15  C   LIG d   1       1.899  -0.049  -9.955  0.00  0.00    -0.056 A 
ATOM     16  C   LIG d   1       2.699   0.154  -8.846  0.00  0.00    -0.046 A 
ATOM     17  H   LIG d   1       1.370   0.781 -10.398  0.00  0.00     0.062 H 
BRANCH  11  18
ATOM     18  C   LIG d   1       3.994  -3.333  -8.201  0.00  0.00    -0.039 C 
ATOM     19  H   LIG d   1       3.942  -4.194  -8.867  0.00  0.00     0.028 H 
ATOM     20  H   LIG d   1       5.037  -3.057  -8.044  0.00  0.00     0.028 H 
ATOM     21  H   LIG d   1       3.537  -3.586  -7.244  0.00  0.00     0.028 H 
ENDBRANCH  11  18
BRANCH  13  22
ATOM     22  C   LIG d   1       0.897  -1.538 -11.699  0.00  0.00    -0.040 C 
ATOM     23  H   LIG d   1       0.500  -0.582 -12.040  0.00  0.00     0.028 H 
ATOM     24  H   LIG d   1       1.483  -1.994 -12.496  0.00  0.00     0.028 H 
ATOM     25  H   LIG d   1       0.072  -2.198 -11.431  0.00  0.00     0.028 H 
ENDBRANCH  13  22
BRANCH  16  26
ATOM     26  C   LIG d   1       2.832   1.534  -8.255  0.00  0.00    -0.039 C 
ATOM     27  H   LIG d   1       2.635   1.491  -7.184  0.00  0.00     0.028 H 
ATOM     28  H   LIG d   1       3.843   1.905  -8.423  0.00  0.00     0.028 H 
ATOM     29  H   LIG d   1       2.115   2.204  -8.730  0.00  0.00     0.028 H 
ENDBRANCH  16  26
ENDBRANCH   1  10
BRANCH   1  30
ATOM     30  C   LIG d   1       5.567   0.032  -7.417  0.00  0.00    -0.056 C 
ATOM     31  H   LIG d   1       6.148  -0.580  -8.106  0.00  0.00     0.024 H 
ATOM     32  H   LIG d   1       5.345   0.992  -7.881  0.00  0.00     0.024 H 
ATOM     33  H   LIG d   1       6.140   0.194  -6.503  0.00  0.00     0.024 H 
ENDBRANCH   1  30
BRANCH   3  34
ATOM     34  C   LIG d   1       5.647  -0.451  -4.532  0.00  0.00     0.201 C 
ATOM     35  O   LIG d   1       5.728   0.727  -4.252  0.00  0.00    -0.288 OA
BRANCH  34  36
ATOM     36  C   LIG d   1       6.789  -1.284  -4.431  0.00  0.00     0.172 A 
ATOM     37  O   LIG d   1       7.873  -1.225  -5.236  0.00  0.00    -0.452 OA
ATOM     38  C   LIG d   1       8.773  -2.156  -4.864  0.00  0.00     0.136 A 
ATOM     39  C   LIG d   1       8.236  -2.847  -3.761  0.00  0.00     0.021 A 
ATOM     40  C   LIG d   1      10.027  -2.512  -5.344  0.00  0.00    -0.019 A 
ATOM     41  C   LIG d   1       6.967  -2.268  -3.507  0.00  0.00    -0.005 A 
ATOM     42  C   LIG d   1       8.965  -3.880  -3.163  0.00  0.00    -0.051 A 
ATOM     43  H   LIG d   1       6.272  -2.554  -2.730  0.00  0.00     0.066 H 
ATOM     44  C   LIG d   1      10.196  -4.213  -3.652  0.00  0.00    -0.061 A 
ATOM     45  H   LIG d   1       8.557  -4.413  -2.316  0.00  0.00     0.062 H 
ATOM     46  C   LIG d   1      10.729  -3.533  -4.739  0.00  0.00    -0.058 A 
ATOM     47  H   LIG d   1      10.758  -5.011  -3.190  0.00  0.00     0.062 H 
ATOM     48  H   LIG d   1      11.703  -3.807  -5.116  0.00  0.00     0.062 H 
ATOM     49  H   LIG d   1      10.451  -1.991  -6.189  0.00  0.00     0.065 H 
ENDBRANCH  34  36
ENDBRANCH   3  34
TORSDOF 7
ENDMDL
MODEL 9
REMARK VINA RESULT:      -5.8      7.792     11.071
REMARK  7 active torsions:
REMARK  status: ('A' for Active; 'I' for Inactive)
REMARK    1  A    between atoms: C_1  and  C_2 
REMARK    2  A    between atoms: C_4  and  C_25 
REMARK    3  A    between atoms: C_5  and  C_9 
REMARK    4  A    between atoms: C_6  and  C_8 
REMARK    5  A    between atoms: C_9  and  C_24 
REMARK    6  A    between atoms: C_11  and  C_13 
REMARK    7  A    between atoms: C_13  and  C_15 
ROOT
ATOM      1  C   LIG d   1      10.427   4.265  -4.171  0.00  0.00    -0.005 C 
ATOM      2  C   LIG d   1      11.083   3.103  -4.934  0.00  0.00    -0.034 C 
ATOM      3  C   LIG d   1      10.128   2.168  -4.173  0.00  0.00     0.027 C 
ATOM      4  C   LIG d   1      10.074   3.244  -3.077  0.00  0.00    -0.034 C 
ATOM      5  H   LIG d   1      12.133   2.953  -4.682  0.00  0.00     0.028 H 
ATOM      6  H   LIG d   1      10.904   3.130  -6.008  0.00  0.00     0.028 H 
ATOM      7  H   LIG d   1      10.575   1.285  -4.023  0.00  0.00     0.038 H 
ATOM      8  H   LIG d   1       9.079   3.385  -2.651  0.00  0.00     0.028 H 
ATOM      9  H   LIG d   1      10.847   3.133  -2.317  0.00  0.00     0.028 H 
ENDROOT
BRANCH   1  10
ATOM     10  C   LIG d   1      11.403   5.320  -3.719  0.00  0.00    -0.036 A 
ATOM     11  C   LIG d   1      12.461   5.676  -4.534  0.00  0.00    -0.046 A 
ATOM     12  C   LIG d   1      13.358   6.643  -4.120  0.00  0.00    -0.056 A 
ATOM     13  C   LIG d   1      13.196   7.255  -2.892  0.00  0.00    -0.050 A 
ATOM     14  H   LIG d   1      14.184   6.921  -4.757  0.00  0.00     0.062 H 
ATOM     15  C   LIG d   1      12.138   6.899  -2.076  0.00  0.00    -0.056 A 
ATOM     16  C   LIG d   1      11.238   5.935  -2.492  0.00  0.00    -0.046 A 
ATOM     17  H   LIG d   1      12.012   7.376  -1.116  0.00  0.00     0.062 H 
BRANCH  11  18
ATOM     18  C   LIG d   1      12.637   5.009  -5.875  0.00  0.00    -0.039 C 
ATOM     19  H   LIG d   1      13.680   4.723  -6.003  0.00  0.00     0.028 H 
ATOM     20  H   LIG d   1      12.008   4.120  -5.924  0.00  0.00     0.028 H 
ATOM     21  H   LIG d   1      12.350   5.702  -6.666  0.00  0.00     0.028 H 
ENDBRANCH  11  18
BRANCH  13  22
ATOM     22  C   LIG d   1      14.173   8.309  -2.440  0.00  0.00    -0.040 C 
ATOM     23  H   LIG d   1      15.124   8.167  -2.954  0.00  0.00     0.028 H 
ATOM     24  H   LIG d   1      13.777   9.297  -2.674  0.00  0.00     0.028 H 
ATOM     25  H   LIG d   1      14.326   8.224  -1.364  0.00  0.00     0.028 H 
ENDBRANCH  13  22
BRANCH  16  26
ATOM     26  C   LIG d   1      10.082   5.551  -1.607  0.00  0.00    -0.039 C 
ATOM     27  H   LIG d   1       9.187   6.088  -1.924  0.00  0.00     0.028 H 
ATOM     28  H   LIG d   1       9.907   4.478  -1.682  0.00  0.00     0.028 H 
ATOM     29  H   LIG d   1      10.312   5.810  -0.573  0.00  0.00     0.028 H 
ENDBRANCH  16  26
ENDBRANCH   1  10
BRANCH   1  30
ATOM     30  C   LIG d   1       9.203   4.850  -4.879  0.00  0.00    -0.056 C 
ATOM     31  H   LIG d   1       8.642   5.473  -4.183  0.00  0.00     0.024 H 
ATOM     32  H   LIG d   1       9.528   5.454  -5.726  0.00  0.00     0.024 H 
ATOM     33  H   LIG d   1       8.567   4.039  -5.235  0.00  0.00     0.024 H 
ENDBRANCH   1  30
BRANCH   3  34
ATOM     34  C   LIG d   1       8.811   1.951  -4.873  0.00  0.00     0.201 C 
ATOM     35  O   LIG d   1       8.659   2.338  -6.014  0.00  0.00    -0.288 OA
BRANCH  34  36
ATOM     36  C   LIG d   1       7.750   1.296  -4.199  0.00  0.00     0.172 A 
ATOM     37  O   LIG d   1       6.791   1.907  -3.470  0.00  0.00    -0.452 OA
ATOM     38  C   LIG d   1       5.940   0.990  -2.970  0.00  0.00     0.136 A 
ATOM     39  C   LIG d   1       6.379  -0.276  -3.402  0.00  0.00     0.021 A 
ATOM     40  C   LIG d   1       4.806   1.081  -2.172  0.00  0.00    -0.019 A 
ATOM     41  C   LIG d   1       7.538  -0.050  -4.186  0.00  0.00    -0.005 A 
ATOM     42  C   LIG d   1       5.673  -1.424  -3.026  0.00  0.00    -0.051 A 
ATOM     43  H   LIG d   1       8.139  -0.801  -4.678  0.00  0.00     0.066 H 
ATOM     44  C   LIG d   1       4.562  -1.311  -2.241  0.00  0.00    -0.061 A 
ATOM     45  H   LIG d   1       6.007  -2.397  -3.357  0.00  0.00     0.062 H 
ATOM     46  C   LIG d   1       4.126  -0.064  -1.813  0.00  0.00    -0.058 A 
ATOM     47  H   LIG d   1       4.018  -2.198  -1.951  0.00  0.00     0.062 H 
ATOM     48  H   LIG d   1       3.245   0.010  -1.193  0.00  0.00     0.062 H 
ATOM     49  H   LIG d   1       4.459   2.045  -1.833  0.00  0.00     0.065 H 
ENDBRANCH  34  36
ENDBRANCH   3  34
TORSDOF 7
ENDMDL
MODEL 10
REMARK VINA RESULT:      -5.7      7.836     11.287
REMARK  7 active torsions:
REMARK  status: ('A' for Active; 'I' for Inactive)
REMARK    1  A    between atoms: C_1  and  C_2 
REMARK    2  A    between atoms: C_4  and  C_25 
REMARK    3  A    between atoms: C_5  and  C_9 
REMARK    4  A    between atoms: C_6  and  C_8 
REMARK    5  A    between atoms: C_9  and  C_24 
REMARK    6  A    between atoms: C_11  and  C_13 
REMARK    7  A    between atoms: C_13  and  C_15 
ROOT
ATOM      1  C   LIG d   1      10.995   3.283  -3.698  0.00  0.00    -0.005 C 
ATOM      2  C   LIG d   1       9.585   3.598  -3.172  0.00  0.00    -0.034 C 
ATOM      3  C   LIG d   1       9.117   3.564  -4.637  0.00  0.00     0.027 C 
ATOM      4  C   LIG d   1      10.559   3.928  -5.024  0.00  0.00    -0.034 C 
ATOM      5  H   LIG d   1       9.501   4.581  -2.709  0.00  0.00     0.028 H 
ATOM      6  H   LIG d   1       9.161   2.803  -2.559  0.00  0.00     0.028 H 
ATOM      7  H   LIG d   1       8.361   4.207  -4.759  0.00  0.00     0.038 H 
ATOM      8  H   LIG d   1      10.922   3.400  -5.907  0.00  0.00     0.028 H 
ATOM      9  H   LIG d   1      10.742   5.002  -5.068  0.00  0.00     0.028 H 
ENDROOT
BRANCH   1  10
ATOM     10  C   LIG d   1      12.088   4.040  -2.989  0.00  0.00    -0.036 A 
ATOM     11  C   LIG d   1      13.410   3.822  -3.325  0.00  0.00    -0.046 A 
ATOM     12  C   LIG d   1      14.413   4.516  -2.674  0.00  0.00    -0.056 A 
ATOM     13  C   LIG d   1      14.094   5.428  -1.687  0.00  0.00    -0.050 A 
ATOM     14  H   LIG d   1      15.446   4.345  -2.938  0.00  0.00     0.062 H 
ATOM     15  C   LIG d   1      12.771   5.647  -1.350  0.00  0.00    -0.056 A 
ATOM     16  C   LIG d   1      11.768   4.957  -2.004  0.00  0.00    -0.046 A 
ATOM     17  H   LIG d   1      12.521   6.359  -0.578  0.00  0.00     0.062 H 
BRANCH  11  18
ATOM     18  C   LIG d   1      13.759   2.827  -4.403  0.00  0.00    -0.039 C 
ATOM     19  H   LIG d   1      14.363   3.316  -5.166  0.00  0.00     0.028 H 
ATOM     20  H   LIG d   1      14.323   2.002  -3.966  0.00  0.00     0.028 H 
ATOM     21  H   LIG d   1      12.844   2.443  -4.853  0.00  0.00     0.028 H 
ENDBRANCH  11  18
BRANCH  13  22
ATOM     22  C   LIG d   1      15.186   6.185  -0.977  0.00  0.00    -0.040 C 
ATOM     23  H   LIG d   1      15.982   6.422  -1.683  0.00  0.00     0.028 H 
ATOM     24  H   LIG d   1      14.780   7.108  -0.563  0.00  0.00     0.028 H 
ATOM     25  H   LIG d   1      15.587   5.571  -0.170  0.00  0.00     0.028 H 
ENDBRANCH  13  22
BRANCH  16  26
ATOM     26  C   LIG d   1      10.325   5.199  -1.641  0.00  0.00    -0.039 C 
ATOM     27  H   LIG d   1       9.936   4.335  -1.104  0.00  0.00     0.028 H 
ATOM     28  H   LIG d   1      10.254   6.083  -1.008  0.00  0.00     0.028 H 
ATOM     29  H   LIG d   1       9.743   5.355  -2.550  0.00  0.00     0.028 H 
ENDBRANCH  16  26
ENDBRANCH   1  10
BRANCH   1  30
ATOM     30  C   LIG d   1      11.287   1.785  -3.813  0.00  0.00    -0.056 C 
ATOM     31  H   LIG d   1      11.617   1.556  -4.826  0.00  0.00     0.024 H 
ATOM     32  H   LIG d   1      12.069   1.512  -3.105  0.00  0.00     0.024 H 
ATOM     33  H   LIG d   1      10.381   1.221  -3.589  0.00  0.00     0.024 H 
ENDBRANCH   1  30
BRANCH   3  34
ATOM     34  C   LIG d   1       8.694   2.195  -5.104  0.00  0.00     0.201 C 
ATOM     35  O   LIG d   1       9.183   1.718  -6.106  0.00  0.00    -0.288 OA
BRANCH  34  36
ATOM     36  C   LIG d   1       7.724   1.466  -4.372  0.00  0.00     0.172 A 
ATOM     37  O   LIG d   1       6.745   2.008  -3.614  0.00  0.00    -0.452 OA
ATOM     38  C   LIG d   1       6.001   1.032  -3.058  0.00  0.00     0.136 A 
ATOM     39  C   LIG d   1       6.531  -0.201  -3.484  0.00  0.00     0.021 A 
ATOM     40  C   LIG d   1       4.898   1.042  -2.214  0.00  0.00    -0.019 A 
ATOM     41  C   LIG d   1       7.633   0.107  -4.323  0.00  0.00    -0.005 A 
ATOM     42  C   LIG d   1       5.946  -1.397  -3.056  0.00  0.00    -0.051 A 
ATOM     43  H   LIG d   1       8.277  -0.599  -4.826  0.00  0.00     0.066 H 
ATOM     44  C   LIG d   1       4.863  -1.363  -2.225  0.00  0.00    -0.061 A 
ATOM     45  H   LIG d   1       6.351  -2.345  -3.381  0.00  0.00     0.062 H 
ATOM     46  C   LIG d   1       4.337  -0.149  -1.804  0.00  0.00    -0.058 A 
ATOM     47  H   LIG d   1       4.412  -2.287  -1.894  0.00  0.00     0.062 H 
ATOM     48  H   LIG d   1       3.480  -0.138  -1.147  0.00  0.00     0.062 H 
ATOM     49  H   LIG d   1       4.481   1.980  -1.879  0.00  0.00     0.065 H 
ENDBRANCH  34  36
ENDBRANCH   3  34
TORSDOF 7
ENDMDL
