MODEL 1
REMARK VINA RESULT:      -6.1      0.000      0.000
REMARK  7 active torsions:
REMARK  status: ('A' for Active; 'I' for Inactive)
REMARK    1  A    between atoms: C_1  and  C_2 
REMARK    2  A    between atoms: C_2  and  C_3 
REMARK       I    between atoms: N_5  and  C_6 
REMARK       I    between atoms: C_6  and  N_8 
REMARK    3  A    between atoms: N_8  and  C_9 
REMARK    4  A    between atoms: C_11  and  C_22 
REMARK    5  A    between atoms: C_15  and  O_19 
REMARK    6  A    between atoms: O_19  and  C_20 
REMARK    7  A    between atoms: C_20  and  C_21 
ROOT
ATOM      1  C   LIG d   1       5.147  -4.910  -6.239  0.00  0.00     0.293 A 
ATOM      2  N   LIG d   1       6.473  -4.815  -6.299  0.00  0.00    -0.203 NA
ATOM      3  C   LIG d   1       7.143  -4.000  -5.512  0.00  0.00     0.052 A 
ATOM      4  C   LIG d   1       6.426  -3.217  -4.589  0.00  0.00     0.022 A 
ATOM      5  C   LIG d   1       7.068  -2.325  -3.717  0.00  0.00    -0.047 A 
ATOM      6  C   LIG d   1       6.330  -1.587  -2.843  0.00  0.00    -0.019 A 
ATOM      7  C   LIG d   1       4.936  -1.707  -2.800  0.00  0.00     0.122 A 
ATOM      8  C   LIG d   1       4.277  -2.575  -3.643  0.00  0.00     0.006 A 
ATOM      9  C   LIG d   1       5.013  -3.344  -4.554  0.00  0.00     0.081 A 
ATOM     10  N   LIG d   1       4.421  -4.198  -5.400  0.00  0.00    -0.198 NA
ATOM     11  H   LIG d   1       8.143  -2.222  -3.740  0.00  0.00     0.063 H 
ATOM     12  H   LIG d   1       6.827  -0.902  -2.173  0.00  0.00     0.065 H 
ATOM     13  H   LIG d   1       3.201  -2.661  -3.602  0.00  0.00     0.068 H 
ENDROOT
BRANCH   1  14
ATOM     14  N   LIG d   1       4.502  -5.787  -7.097  0.00  0.00    -0.208 N 
ATOM     15  C   LIG d   1       4.406  -7.127  -6.772  0.00  0.00     0.425 C 
ATOM     16  N   LIG d   1       4.848  -7.567  -5.564  0.00  0.00    -0.090 NA
ATOM     17  N   LIG d   1       3.892  -7.971  -7.626  0.00  0.00    -0.126 NA
ATOM     18  C   LIG d   1       4.759  -8.832  -5.258  0.00  0.00     0.049 C 
ATOM     19  O   LIG d   1       4.229  -9.700  -6.136  0.00  0.00    -0.851 OA
ATOM     20  H   LIG d   1       3.510  -7.648  -8.457  0.00  0.00     0.306 HD
ATOM     21  H   LIG d   1       4.118  -5.460  -7.926  0.00  0.00     0.268 HD
BRANCH  18  22
ATOM     22  C   LIG d   1       5.249  -9.320  -3.918  0.00  0.00    -0.011 C 
ATOM     23  H   LIG d   1       5.494  -8.465  -3.288  0.00  0.00     0.033 H 
ATOM     24  H   LIG d   1       6.138  -9.935  -4.058  0.00  0.00     0.033 H 
BRANCH  22  25
ATOM     25  C   LIG d   1       4.154 -10.150  -3.246  0.00  0.00    -0.060 C 
ATOM     26  H   LIG d   1       4.578 -10.704  -2.409  0.00  0.00     0.023 H 
ATOM     27  H   LIG d   1       3.367  -9.489  -2.883  0.00  0.00     0.023 H 
ATOM     28  H   LIG d   1       3.734 -10.851  -3.969  0.00  0.00     0.023 H 
ENDBRANCH  22  25
ENDBRANCH  18  22
ENDBRANCH   1  14
BRANCH   3  29
ATOM     29  C   LIG d   1       8.645  -3.908  -5.597  0.00  0.00    -0.021 C 
ATOM     30  H   LIG d   1       8.986  -3.023  -5.060  0.00  0.00     0.029 H 
ATOM     31  H   LIG d   1       9.089  -4.798  -5.151  0.00  0.00     0.029 H 
ATOM     32  H   LIG d   1       8.947  -3.837  -6.642  0.00  0.00     0.029 H 
ENDBRANCH   3  29
BRANCH   7  33
ATOM     33  O   LIG d   1       4.227  -0.960  -1.917  0.00  0.00    -0.492 OA
BRANCH  33  34
ATOM     34  C   LIG d   1       4.632   0.399  -1.742  0.00  0.00     0.087 C 
ATOM     35  H   LIG d   1       4.668   0.633  -0.678  0.00  0.00     0.069 H 
ATOM     36  H   LIG d   1       5.621   0.542  -2.178  0.00  0.00     0.069 H 
BRANCH  34  37
ATOM     37  C   LIG d   1       3.630   1.323  -2.435  0.00  0.00    -0.031 C 
ATOM     38  H   LIG d   1       4.068   2.315  -2.547  0.00  0.00     0.026 H 
ATOM     39  H   LIG d   1       3.384   0.921  -3.418  0.00  0.00     0.026 H 
ATOM     40  H   LIG d   1       2.723   1.393  -1.834  0.00  0.00     0.026 H 
ENDBRANCH  34  37
ENDBRANCH  33  34
ENDBRANCH   7  33
TORSDOF 7
ENDMDL
MODEL 2
REMARK VINA RESULT:      -5.9      2.697      4.120
REMARK  7 active torsions:
REMARK  status: ('A' for Active; 'I' for Inactive)
REMARK    1  A    between atoms: C_1  and  C_2 
REMARK    2  A    between atoms: C_2  and  C_3 
REMARK       I    between atoms: N_5  and  C_6 
REMARK       I    between atoms: C_6  and  N_8 
REMARK    3  A    between atoms: N_8  and  C_9 
REMARK    4  A    between atoms: C_11  and  C_22 
REMARK    5  A    between atoms: C_15  and  O_19 
REMARK    6  A    between atoms: O_19  and  C_20 
REMARK    7  A    between atoms: C_20  and  C_21 
ROOT
ATOM      1  C   LIG d   1       4.881  -4.608  -6.080  0.00  0.00     0.293 A 
ATOM      2  N   LIG d   1       6.201  -4.538  -6.244  0.00  0.00    -0.203 NA
ATOM      3  C   LIG d   1       6.948  -3.750  -5.499  0.00  0.00     0.052 A 
ATOM      4  C   LIG d   1       6.323  -2.971  -4.509  0.00  0.00     0.022 A 
ATOM      5  C   LIG d   1       7.050  -2.108  -3.676  0.00  0.00    -0.047 A 
ATOM      6  C   LIG d   1       6.399  -1.372  -2.734  0.00  0.00    -0.019 A 
ATOM      7  C   LIG d   1       5.012  -1.466  -2.582  0.00  0.00     0.122 A 
ATOM      8  C   LIG d   1       4.269  -2.305  -3.384  0.00  0.00     0.006 A 
ATOM      9  C   LIG d   1       4.914  -3.072  -4.363  0.00  0.00     0.081 A 
ATOM     10  N   LIG d   1       4.240  -3.897  -5.174  0.00  0.00    -0.198 NA
ATOM     11  H   LIG d   1       8.122  -2.026  -3.783  0.00  0.00     0.063 H 
ATOM     12  H   LIG d   1       6.962  -0.709  -2.094  0.00  0.00     0.065 H 
ATOM     13  H   LIG d   1       3.199  -2.371  -3.259  0.00  0.00     0.068 H 
ENDROOT
BRANCH   1  14
ATOM     14  N   LIG d   1       4.152  -5.457  -6.898  0.00  0.00    -0.208 N 
ATOM     15  C   LIG d   1       3.466  -4.948  -7.985  0.00  0.00     0.425 C 
ATOM     16  N   LIG d   1       3.592  -3.635  -8.315  0.00  0.00    -0.090 NA
ATOM     17  N   LIG d   1       2.696  -5.729  -8.694  0.00  0.00    -0.126 NA
ATOM     18  C   LIG d   1       2.943  -3.155  -9.340  0.00  0.00     0.049 C 
ATOM     19  O   LIG d   1       2.151  -3.959 -10.070  0.00  0.00    -0.851 OA
ATOM     20  H   LIG d   1       2.662  -6.680  -8.505  0.00  0.00     0.306 HD
ATOM     21  H   LIG d   1       4.124  -6.408  -6.708  0.00  0.00     0.268 HD
BRANCH  18  22
ATOM     22  C   LIG d   1       3.082  -1.700  -9.706  0.00  0.00    -0.011 C 
ATOM     23  H   LIG d   1       3.552  -1.616 -10.685  0.00  0.00     0.033 H 
ATOM     24  H   LIG d   1       3.698  -1.195  -8.962  0.00  0.00     0.033 H 
BRANCH  22  25
ATOM     25  C   LIG d   1       1.698  -1.050  -9.747  0.00  0.00    -0.060 C 
ATOM     26  H   LIG d   1       0.960  -1.786 -10.068  0.00  0.00     0.023 H 
ATOM     27  H   LIG d   1       1.437  -0.684  -8.754  0.00  0.00     0.023 H 
ATOM     28  H   LIG d   1       1.708  -0.216 -10.450  0.00  0.00     0.023 H 
ENDBRANCH  22  25
ENDBRANCH  18  22
ENDBRANCH   1  14
BRANCH   3  29
ATOM     29  C   LIG d   1       8.440  -3.686  -5.702  0.00  0.00    -0.021 C 
ATOM     30  H   LIG d   1       8.910  -4.540  -5.215  0.00  0.00     0.029 H 
ATOM     31  H   LIG d   1       8.663  -3.708  -6.769  0.00  0.00     0.029 H 
ATOM     32  H   LIG d   1       8.826  -2.763  -5.270  0.00  0.00     0.029 H 
ENDBRANCH   3  29
BRANCH   7  33
ATOM     33  O   LIG d   1       4.390  -0.721  -1.632  0.00  0.00    -0.492 OA
BRANCH  33  34
ATOM     34  C   LIG d   1       4.631   0.687  -1.650  0.00  0.00     0.087 C 
ATOM     35  H   LIG d   1       4.526   1.086  -0.640  0.00  0.00     0.069 H 
ATOM     36  H   LIG d   1       5.642   0.877  -2.011  0.00  0.00     0.069 H 
BRANCH  34  37
ATOM     37  C   LIG d   1       3.621   1.366  -2.575  0.00  0.00    -0.031 C 
ATOM     38  H   LIG d   1       2.975   2.020  -1.990  0.00  0.00     0.026 H 
ATOM     39  H   LIG d   1       4.152   1.956  -3.323  0.00  0.00     0.026 H 
ATOM     40  H   LIG d   1       3.017   0.609  -3.073  0.00  0.00     0.026 H 
ENDBRANCH  34  37
ENDBRANCH  33  34
ENDBRANCH   7  33
TORSDOF 7
ENDMDL
MODEL 3
REMARK VINA RESULT:      -5.9      4.994      8.120
REMARK  7 active torsions:
REMARK  status: ('A' for Active; 'I' for Inactive)
REMARK    1  A    between atoms: C_1  and  C_2 
REMARK    2  A    between atoms: C_2  and  C_3 
REMARK       I    between atoms: N_5  and  C_6 
REMARK       I    between atoms: C_6  and  N_8 
REMARK    3  A    between atoms: N_8  and  C_9 
REMARK    4  A    between atoms: C_11  and  C_22 
REMARK    5  A    between atoms: C_15  and  O_19 
REMARK    6  A    between atoms: O_19  and  C_20 
REMARK    7  A    between atoms: C_20  and  C_21 
ROOT
ATOM      1  C   LIG d   1       5.175  -0.336  -7.304  0.00  0.00     0.293 A 
ATOM      2  N   LIG d   1       4.579   0.816  -7.604  0.00  0.00    -0.203 NA
ATOM      3  C   LIG d   1       3.515   0.861  -8.377  0.00  0.00     0.052 A 
ATOM      4  C   LIG d   1       3.006  -0.345  -8.891  0.00  0.00     0.022 A 
ATOM      5  C   LIG d   1       1.877  -0.379  -9.722  0.00  0.00    -0.047 A 
ATOM      6  C   LIG d   1       1.424  -1.572 -10.196  0.00  0.00    -0.019 A 
ATOM      7  C   LIG d   1       2.068  -2.768  -9.864  0.00  0.00     0.122 A 
ATOM      8  C   LIG d   1       3.180  -2.768  -9.050  0.00  0.00     0.006 A 
ATOM      9  C   LIG d   1       3.668  -1.554  -8.550  0.00  0.00     0.081 A 
ATOM     10  N   LIG d   1       4.748  -1.497  -7.760  0.00  0.00    -0.198 NA
ATOM     11  H   LIG d   1       1.369   0.537  -9.986  0.00  0.00     0.063 H 
ATOM     12  H   LIG d   1       0.553  -1.595 -10.835  0.00  0.00     0.065 H 
ATOM     13  H   LIG d   1       3.671  -3.697  -8.799  0.00  0.00     0.068 H 
ENDROOT
BRANCH   1  14
ATOM     14  N   LIG d   1       6.294  -0.315  -6.484  0.00  0.00    -0.208 N 
ATOM     15  C   LIG d   1       6.154  -0.070  -5.131  0.00  0.00     0.425 C 
ATOM     16  N   LIG d   1       4.914   0.043  -4.584  0.00  0.00    -0.090 NA
ATOM     17  N   LIG d   1       7.214   0.054  -4.377  0.00  0.00    -0.126 NA
ATOM     18  C   LIG d   1       4.783   0.275  -3.308  0.00  0.00     0.049 C 
ATOM     19  O   LIG d   1       5.873   0.402  -2.532  0.00  0.00    -0.851 OA
ATOM     20  H   LIG d   1       8.096  -0.098  -4.752  0.00  0.00     0.306 HD
ATOM     21  H   LIG d   1       7.174  -0.471  -6.861  0.00  0.00     0.268 HD
BRANCH  18  22
ATOM     22  C   LIG d   1       3.408   0.400  -2.701  0.00  0.00    -0.011 C 
ATOM     23  H   LIG d   1       2.956   1.339  -3.019  0.00  0.00     0.033 H 
ATOM     24  H   LIG d   1       3.487   0.383  -1.614  0.00  0.00     0.033 H 
BRANCH  22  25
ATOM     25  C   LIG d   1       2.538  -0.769  -3.168  0.00  0.00    -0.060 C 
ATOM     26  H   LIG d   1       1.824  -1.026  -2.385  0.00  0.00     0.023 H 
ATOM     27  H   LIG d   1       1.998  -0.483  -4.071  0.00  0.00     0.023 H 
ATOM     28  H   LIG d   1       3.170  -1.631  -3.380  0.00  0.00     0.023 H 
ENDBRANCH  22  25
ENDBRANCH  18  22
ENDBRANCH   1  14
BRANCH   3  29
ATOM     29  C   LIG d   1       2.856   2.176  -8.704  0.00  0.00    -0.021 C 
ATOM     30  H   LIG d   1       3.617   2.949  -8.809  0.00  0.00     0.029 H 
ATOM     31  H   LIG d   1       2.301   2.083  -9.638  0.00  0.00     0.029 H 
ATOM     32  H   LIG d   1       2.170   2.449  -7.902  0.00  0.00     0.029 H 
ENDBRANCH   3  29
BRANCH   7  33
ATOM     33  O   LIG d   1       1.593  -3.943 -10.351  0.00  0.00    -0.492 OA
BRANCH  33  34
ATOM     34  C   LIG d   1       0.382  -3.891 -11.106  0.00  0.00     0.087 C 
ATOM     35  H   LIG d   1       0.022  -2.862 -11.146  0.00  0.00     0.069 H 
ATOM     36  H   LIG d   1       0.569  -4.248 -12.118  0.00  0.00     0.069 H 
BRANCH  34  37
ATOM     37  C   LIG d   1      -0.674  -4.774 -10.440  0.00  0.00    -0.031 C 
ATOM     38  H   LIG d   1      -0.664  -5.762 -10.900  0.00  0.00     0.026 H 
ATOM     39  H   LIG d   1      -0.452  -4.866  -9.376  0.00  0.00     0.026 H 
ATOM     40  H   LIG d   1      -1.658  -4.324 -10.567  0.00  0.00     0.026 H 
ENDBRANCH  34  37
ENDBRANCH  33  34
ENDBRANCH   7  33
TORSDOF 7
ENDMDL
MODEL 4
REMARK VINA RESULT:      -5.8      4.628      7.936
REMARK  7 active torsions:
REMARK  status: ('A' for Active; 'I' for Inactive)
REMARK    1  A    between atoms: C_1  and  C_2 
REMARK    2  A    between atoms: C_2  and  C_3 
REMARK       I    between atoms: N_5  and  C_6 
REMARK       I    between atoms: C_6  and  N_8 
REMARK    3  A    between atoms: N_8  and  C_9 
REMARK    4  A    between atoms: C_11  and  C_22 
REMARK    5  A    between atoms: C_15  and  O_19 
REMARK    6  A    between atoms: O_19  and  C_20 
REMARK    7  A    between atoms: C_20  and  C_21 
ROOT
ATOM      1  C   LIG d   1       7.181   0.821  -4.286  0.00  0.00     0.293 A 
ATOM      2  N   LIG d   1       6.452   1.345  -3.303  0.00  0.00    -0.203 NA
ATOM      3  C   LIG d   1       5.476   0.670  -2.733  0.00  0.00     0.052 A 
ATOM      4  C   LIG d   1       5.210  -0.636  -3.183  0.00  0.00     0.022 A 
ATOM      5  C   LIG d   1       4.188  -1.418  -2.626  0.00  0.00    -0.047 A 
ATOM      6  C   LIG d   1       3.968  -2.676  -3.098  0.00  0.00    -0.019 A 
ATOM      7  C   LIG d   1       4.750  -3.203  -4.131  0.00  0.00     0.122 A 
ATOM      8  C   LIG d   1       5.762  -2.459  -4.698  0.00  0.00     0.006 A 
ATOM      9  C   LIG d   1       6.008  -1.161  -4.233  0.00  0.00     0.081 A 
ATOM     10  N   LIG d   1       6.975  -0.394  -4.754  0.00  0.00    -0.198 NA
ATOM     11  H   LIG d   1       3.576  -1.024  -1.828  0.00  0.00     0.063 H 
ATOM     12  H   LIG d   1       3.180  -3.276  -2.667  0.00  0.00     0.065 H 
ATOM     13  H   LIG d   1       6.362  -2.875  -5.495  0.00  0.00     0.068 H 
ENDROOT
BRANCH   1  14
ATOM     14  N   LIG d   1       8.194   1.586  -4.845  0.00  0.00    -0.208 N 
ATOM     15  C   LIG d   1       8.194   1.847  -6.202  0.00  0.00     0.425 C 
ATOM     16  N   LIG d   1       7.147   1.447  -6.972  0.00  0.00    -0.090 NA
ATOM     17  N   LIG d   1       9.200   2.478  -6.745  0.00  0.00    -0.126 NA
ATOM     18  C   LIG d   1       7.148   1.693  -8.253  0.00  0.00     0.049 C 
ATOM     19  O   LIG d   1       8.183   2.343  -8.812  0.00  0.00    -0.851 OA
ATOM     20  H   LIG d   1       9.912   2.828  -6.187  0.00  0.00     0.306 HD
ATOM     21  H   LIG d   1       8.903   1.937  -4.283  0.00  0.00     0.268 HD
BRANCH  18  22
ATOM     22  C   LIG d   1       5.987   1.249  -9.106  0.00  0.00    -0.011 C 
ATOM     23  H   LIG d   1       5.523   0.371  -8.659  0.00  0.00     0.033 H 
ATOM     24  H   LIG d   1       6.344   1.004 -10.106  0.00  0.00     0.033 H 
BRANCH  22  25
ATOM     25  C   LIG d   1       4.959   2.379  -9.194  0.00  0.00    -0.060 C 
ATOM     26  H   LIG d   1       4.810   2.814  -8.206  0.00  0.00     0.023 H 
ATOM     27  H   LIG d   1       5.320   3.148  -9.879  0.00  0.00     0.023 H 
ATOM     28  H   LIG d   1       4.012   1.982  -9.562  0.00  0.00     0.023 H 
ENDBRANCH  22  25
ENDBRANCH  18  22
ENDBRANCH   1  14
BRANCH   3  29
ATOM     29  C   LIG d   1       4.663   1.282  -1.622  0.00  0.00    -0.021 C 
ATOM     30  H   LIG d   1       5.158   1.103  -0.668  0.00  0.00     0.029 H 
ATOM     31  H   LIG d   1       4.570   2.356  -1.788  0.00  0.00     0.029 H 
ATOM     32  H   LIG d   1       3.670   0.831  -1.607  0.00  0.00     0.029 H 
ENDBRANCH   3  29
BRANCH   7  33
ATOM     33  O   LIG d   1       4.509  -4.461  -4.580  0.00  0.00    -0.492 OA
BRANCH  33  34
ATOM     34  C   LIG d   1       5.031  -4.804  -5.864  0.00  0.00     0.087 C 
ATOM     35  H   LIG d   1       5.589  -3.958  -6.267  0.00  0.00     0.069 H 
ATOM     36  H   LIG d   1       5.695  -5.663  -5.769  0.00  0.00     0.069 H 
BRANCH  34  37
ATOM     37  C   LIG d   1       3.879  -5.151  -6.808  0.00  0.00    -0.031 C 
ATOM     38  H   LIG d   1       3.740  -6.232  -6.830  0.00  0.00     0.026 H 
ATOM     39  H   LIG d   1       2.963  -4.675  -6.455  0.00  0.00     0.026 H 
ATOM     40  H   LIG d   1       4.109  -4.794  -7.811  0.00  0.00     0.026 H 
ENDBRANCH  34  37
ENDBRANCH  33  34
ENDBRANCH   7  33
TORSDOF 7
ENDMDL
MODEL 5
REMARK VINA RESULT:      -5.6      3.801      5.669
REMARK  7 active torsions:
REMARK  status: ('A' for Active; 'I' for Inactive)
REMARK    1  A    between atoms: C_1  and  C_2 
REMARK    2  A    between atoms: C_2  and  C_3 
REMARK       I    between atoms: N_5  and  C_6 
REMARK       I    between atoms: C_6  and  N_8 
REMARK    3  A    between atoms: N_8  and  C_9 
REMARK    4  A    between atoms: C_11  and  C_22 
REMARK    5  A    between atoms: C_15  and  O_19 
REMARK    6  A    between atoms: O_19  and  C_20 
REMARK    7  A    between atoms: C_20  and  C_21 
ROOT
ATOM      1  C   LIG d   1       6.943  -0.828  -4.082  0.00  0.00     0.293 A 
ATOM      2  N   LIG d   1       6.369  -0.380  -2.967  0.00  0.00    -0.203 NA
ATOM      3  C   LIG d   1       5.127   0.054  -2.957  0.00  0.00     0.052 A 
ATOM      4  C   LIG d   1       4.400   0.037  -4.161  0.00  0.00     0.022 A 
ATOM      5  C   LIG d   1       3.072   0.483  -4.232  0.00  0.00    -0.047 A 
ATOM      6  C   LIG d   1       2.411   0.449  -5.421  0.00  0.00    -0.019 A 
ATOM      7  C   LIG d   1       3.037  -0.029  -6.578  0.00  0.00     0.122 A 
ATOM      8  C   LIG d   1       4.341  -0.474  -6.541  0.00  0.00     0.006 A 
ATOM      9  C   LIG d   1       5.044  -0.447  -5.330  0.00  0.00     0.081 A 
ATOM     10  N   LIG d   1       6.315  -0.862  -5.240  0.00  0.00    -0.198 NA
ATOM     11  H   LIG d   1       2.576   0.854  -3.347  0.00  0.00     0.063 H 
ATOM     12  H   LIG d   1       1.388   0.792  -5.472  0.00  0.00     0.065 H 
ATOM     13  H   LIG d   1       4.816  -0.841  -7.438  0.00  0.00     0.068 H 
ENDROOT
BRANCH   1  14
ATOM     14  N   LIG d   1       8.257  -1.270  -4.024  0.00  0.00    -0.208 N 
ATOM     15  C   LIG d   1       8.552  -2.594  -4.289  0.00  0.00     0.425 C 
ATOM     16  N   LIG d   1       7.573  -3.439  -4.711  0.00  0.00    -0.090 NA
ATOM     17  N   LIG d   1       9.772  -3.034  -4.134  0.00  0.00    -0.126 NA
ATOM     18  C   LIG d   1       7.852  -4.688  -4.959  0.00  0.00     0.049 C 
ATOM     19  O   LIG d   1       9.108  -5.141  -4.800  0.00  0.00    -0.851 OA
ATOM     20  H   LIG d   1      10.485  -2.417  -3.903  0.00  0.00     0.306 HD
ATOM     21  H   LIG d   1       8.967  -0.650  -3.797  0.00  0.00     0.268 HD
BRANCH  18  22
ATOM     22  C   LIG d   1       6.767  -5.624  -5.427  0.00  0.00    -0.011 C 
ATOM     23  H   LIG d   1       6.042  -5.768  -4.627  0.00  0.00     0.033 H 
ATOM     24  H   LIG d   1       7.207  -6.585  -5.697  0.00  0.00     0.033 H 
BRANCH  22  25
ATOM     25  C   LIG d   1       6.067  -5.023  -6.647  0.00  0.00    -0.060 C 
ATOM     26  H   LIG d   1       5.021  -5.329  -6.654  0.00  0.00     0.023 H 
ATOM     27  H   LIG d   1       6.127  -3.935  -6.603  0.00  0.00     0.023 H 
ATOM     28  H   LIG d   1       6.554  -5.376  -7.557  0.00  0.00     0.023 H 
ENDBRANCH  22  25
ENDBRANCH  18  22
ENDBRANCH   1  14
BRANCH   3  29
ATOM     29  C   LIG d   1       4.496   0.557  -1.684  0.00  0.00    -0.021 C 
ATOM     30  H   LIG d   1       5.258   1.028  -1.063  0.00  0.00     0.029 H 
ATOM     31  H   LIG d   1       3.722   1.286  -1.925  0.00  0.00     0.029 H 
ATOM     32  H   LIG d   1       4.052  -0.278  -1.144  0.00  0.00     0.029 H 
ENDBRANCH   3  29
BRANCH   7  33
ATOM     33  O   LIG d   1       2.353  -0.052  -7.749  0.00  0.00    -0.492 OA
BRANCH  33  34
ATOM     34  C   LIG d   1       2.958   0.596  -8.869  0.00  0.00     0.087 C 
ATOM     35  H   LIG d   1       4.013   0.324  -8.920  0.00  0.00     0.069 H 
ATOM     36  H   LIG d   1       2.458   0.282  -9.785  0.00  0.00     0.069 H 
BRANCH  34  37
ATOM     37  C   LIG d   1       2.830   2.112  -8.711  0.00  0.00    -0.031 C 
ATOM     38  H   LIG d   1       2.498   2.346  -7.700  0.00  0.00     0.026 H 
ATOM     39  H   LIG d   1       3.798   2.580  -8.893  0.00  0.00     0.026 H 
ATOM     40  H   LIG d   1       2.103   2.493  -9.429  0.00  0.00     0.026 H 
ENDBRANCH  34  37
ENDBRANCH  33  34
ENDBRANCH   7  33
TORSDOF 7
ENDMDL
MODEL 6
REMARK VINA RESULT:      -5.6      5.805      8.635
REMARK  7 active torsions:
REMARK  status: ('A' for Active; 'I' for Inactive)
REMARK    1  A    between atoms: C_1  and  C_2 
REMARK    2  A    between atoms: C_2  and  C_3 
REMARK       I    between atoms: N_5  and  C_6 
REMARK       I    between atoms: C_6  and  N_8 
REMARK    3  A    between atoms: N_8  and  C_9 
REMARK    4  A    between atoms: C_11  and  C_22 
REMARK    5  A    between atoms: C_15  and  O_19 
REMARK    6  A    between atoms: O_19  and  C_20 
REMARK    7  A    between atoms: C_20  and  C_21 
ROOT
ATOM      1  C   LIG d   1       2.862   0.189  -7.216  0.00  0.00     0.293 A 
ATOM      2  N   LIG d   1       3.222   1.420  -7.573  0.00  0.00    -0.203 NA
ATOM      3  C   LIG d   1       3.606   1.697  -8.801  0.00  0.00     0.052 A 
ATOM      4  C   LIG d   1       3.631   0.658  -9.748  0.00  0.00     0.022 A 
ATOM      5  C   LIG d   1       4.029   0.873 -11.076  0.00  0.00    -0.047 A 
ATOM      6  C   LIG d   1       4.039  -0.166 -11.955  0.00  0.00    -0.019 A 
ATOM      7  C   LIG d   1       3.655  -1.450 -11.553  0.00  0.00     0.122 A 
ATOM      8  C   LIG d   1       3.259  -1.694 -10.256  0.00  0.00     0.006 A 
ATOM      9  C   LIG d   1       3.242  -0.642  -9.331  0.00  0.00     0.081 A 
ATOM     10  N   LIG d   1       2.872  -0.826  -8.057  0.00  0.00    -0.198 NA
ATOM     11  H   LIG d   1       4.327   1.860 -11.400  0.00  0.00     0.063 H 
ATOM     12  H   LIG d   1       4.345   0.004 -12.977  0.00  0.00     0.065 H 
ATOM     13  H   LIG d   1       2.964  -2.688  -9.955  0.00  0.00     0.068 H 
ENDROOT
BRANCH   1  14
ATOM     14  N   LIG d   1       2.468  -0.036  -5.905  0.00  0.00    -0.208 N 
ATOM     15  C   LIG d   1       3.419  -0.162  -4.911  0.00  0.00     0.425 C 
ATOM     16  N   LIG d   1       4.733   0.041  -5.195  0.00  0.00    -0.090 NA
ATOM     17  N   LIG d   1       3.055  -0.477  -3.696  0.00  0.00    -0.126 NA
ATOM     18  C   LIG d   1       5.630  -0.079  -4.256  0.00  0.00     0.049 C 
ATOM     19  O   LIG d   1       5.256  -0.403  -3.006  0.00  0.00    -0.851 OA
ATOM     20  H   LIG d   1       2.113  -0.551  -3.476  0.00  0.00     0.306 HD
ATOM     21  H   LIG d   1       1.526  -0.105  -5.688  0.00  0.00     0.268 HD
BRANCH  18  22
ATOM     22  C   LIG d   1       7.087   0.146  -4.572  0.00  0.00    -0.011 C 
ATOM     23  H   LIG d   1       7.211   0.261  -5.648  0.00  0.00     0.033 H 
ATOM     24  H   LIG d   1       7.670  -0.708  -4.227  0.00  0.00     0.033 H 
BRANCH  22  25
ATOM     25  C   LIG d   1       7.571   1.414  -3.865  0.00  0.00    -0.060 C 
ATOM     26  H   LIG d   1       8.380   1.162  -3.179  0.00  0.00     0.023 H 
ATOM     27  H   LIG d   1       7.933   2.128  -4.605  0.00  0.00     0.023 H 
ATOM     28  H   LIG d   1       6.746   1.857  -3.306  0.00  0.00     0.023 H 
ENDBRANCH  22  25
ENDBRANCH  18  22
ENDBRANCH   1  14
BRANCH   3  29
ATOM     29  C   LIG d   1       4.008   3.098  -9.185  0.00  0.00    -0.021 C 
ATOM     30  H   LIG d   1       4.050   3.180 -10.271  0.00  0.00     0.029 H 
ATOM     31  H   LIG d   1       3.277   3.807  -8.795  0.00  0.00     0.029 H 
ATOM     32  H   LIG d   1       4.989   3.323  -8.766  0.00  0.00     0.029 H 
ENDBRANCH   3  29
BRANCH   7  33
ATOM     33  O   LIG d   1       3.673  -2.467 -12.452  0.00  0.00    -0.492 OA
BRANCH  33  34
ATOM     34  C   LIG d   1       2.458  -3.195 -12.635  0.00  0.00     0.087 C 
ATOM     35  H   LIG d   1       2.669  -4.130 -13.153  0.00  0.00     0.069 H 
ATOM     36  H   LIG d   1       2.014  -3.411 -11.663  0.00  0.00     0.069 H 
BRANCH  34  37
ATOM     37  C   LIG d   1       1.483  -2.360 -13.467  0.00  0.00    -0.031 C 
ATOM     38  H   LIG d   1       0.460  -2.620 -13.197  0.00  0.00     0.026 H 
ATOM     39  H   LIG d   1       1.652  -1.301 -13.270  0.00  0.00     0.026 H 
ATOM     40  H   LIG d   1       1.643  -2.562 -14.526  0.00  0.00     0.026 H 
ENDBRANCH  34  37
ENDBRANCH  33  34
ENDBRANCH   7  33
TORSDOF 7
ENDMDL
MODEL 7
REMARK VINA RESULT:      -5.4      6.740      9.091
REMARK  7 active torsions:
REMARK  status: ('A' for Active; 'I' for Inactive)
REMARK    1  A    between atoms: C_1  and  C_2 
REMARK    2  A    between atoms: C_2  and  C_3 
REMARK       I    between atoms: N_5  and  C_6 
REMARK       I    between atoms: C_6  and  N_8 
REMARK    3  A    between atoms: N_8  and  C_9 
REMARK    4  A    between atoms: C_11  and  C_22 
REMARK    5  A    between atoms: C_15  and  O_19 
REMARK    6  A    between atoms: O_19  and  C_20 
REMARK    7  A    between atoms: C_20  and  C_21 
ROOT
ATOM      1  C   LIG d   1       9.289   1.863  -4.594  0.00  0.00     0.293 A 
ATOM      2  N   LIG d   1       9.304   2.395  -5.814  0.00  0.00    -0.203 NA
ATOM      3  C   LIG d   1       9.521   3.679  -6.004  0.00  0.00     0.052 A 
ATOM      4  C   LIG d   1       9.741   4.496  -4.880  0.00  0.00     0.022 A 
ATOM      5  C   LIG d   1       9.980   5.874  -5.000  0.00  0.00    -0.047 A 
ATOM      6  C   LIG d   1      10.186   6.623  -3.883  0.00  0.00    -0.019 A 
ATOM      7  C   LIG d   1      10.165   6.037  -2.612  0.00  0.00     0.122 A 
ATOM      8  C   LIG d   1       9.934   4.687  -2.461  0.00  0.00     0.006 A 
ATOM      9  C   LIG d   1       9.718   3.894  -3.595  0.00  0.00     0.081 A 
ATOM     10  N   LIG d   1       9.482   2.579  -3.504  0.00  0.00    -0.198 NA
ATOM     11  H   LIG d   1       9.998   6.338  -5.975  0.00  0.00     0.063 H 
ATOM     12  H   LIG d   1      10.369   7.683  -3.979  0.00  0.00     0.065 H 
ATOM     13  H   LIG d   1       9.921   4.244  -1.476  0.00  0.00     0.068 H 
ENDROOT
BRANCH   1  14
ATOM     14  N   LIG d   1       9.053   0.502  -4.463  0.00  0.00    -0.208 N 
ATOM     15  C   LIG d   1       7.871   0.057  -3.901  0.00  0.00     0.425 C 
ATOM     16  N   LIG d   1       6.895   0.945  -3.576  0.00  0.00    -0.090 NA
ATOM     17  N   LIG d   1       7.693  -1.219  -3.683  0.00  0.00    -0.126 NA
ATOM     18  C   LIG d   1       5.781   0.525  -3.045  0.00  0.00     0.049 C 
ATOM     19  O   LIG d   1       5.596  -0.788  -2.820  0.00  0.00    -0.851 OA
ATOM     20  H   LIG d   1       8.357  -1.860  -3.981  0.00  0.00     0.306 HD
ATOM     21  H   LIG d   1       9.718  -0.136  -4.765  0.00  0.00     0.268 HD
BRANCH  18  22
ATOM     22  C   LIG d   1       4.698   1.510  -2.684  0.00  0.00    -0.011 C 
ATOM     23  H   LIG d   1       4.567   2.220  -3.500  0.00  0.00     0.033 H 
ATOM     24  H   LIG d   1       4.981   2.046  -1.778  0.00  0.00     0.033 H 
BRANCH  22  25
ATOM     25  C   LIG d   1       3.386   0.761  -2.445  0.00  0.00    -0.060 C 
ATOM     26  H   LIG d   1       3.473   0.153  -1.544  0.00  0.00     0.023 H 
ATOM     27  H   LIG d   1       2.574   1.478  -2.323  0.00  0.00     0.023 H 
ATOM     28  H   LIG d   1       3.175   0.116  -3.298  0.00  0.00     0.023 H 
ENDBRANCH  22  25
ENDBRANCH  18  22
ENDBRANCH   1  14
BRANCH   3  29
ATOM     29  C   LIG d   1       9.534   4.261  -7.394  0.00  0.00    -0.021 C 
ATOM     30  H   LIG d   1      10.401   3.885  -7.937  0.00  0.00     0.029 H 
ATOM     31  H   LIG d   1       8.623   3.972  -7.918  0.00  0.00     0.029 H 
ATOM     32  H   LIG d   1       9.588   5.348  -7.332  0.00  0.00     0.029 H 
ENDBRANCH   3  29
BRANCH   7  33
ATOM     33  O   LIG d   1      10.375   6.809  -1.516  0.00  0.00    -0.492 OA
BRANCH  33  34
ATOM     34  C   LIG d   1       9.428   7.848  -1.261  0.00  0.00     0.087 C 
ATOM     35  H   LIG d   1       9.070   8.253  -2.208  0.00  0.00     0.069 H 
ATOM     36  H   LIG d   1       8.586   7.441  -0.700  0.00  0.00     0.069 H 
BRANCH  34  37
ATOM     37  C   LIG d   1      10.094   8.959  -0.449  0.00  0.00    -0.031 C 
ATOM     38  H   LIG d   1       9.711   8.944   0.571  0.00  0.00     0.026 H 
ATOM     39  H   LIG d   1      11.173   8.802  -0.434  0.00  0.00     0.026 H 
ATOM     40  H   LIG d   1       9.875   9.924  -0.905  0.00  0.00     0.026 H 
ENDBRANCH  34  37
ENDBRANCH  33  34
ENDBRANCH   7  33
TORSDOF 7
ENDMDL
MODEL 8
REMARK VINA RESULT:      -5.4      4.771      6.924
REMARK  7 active torsions:
REMARK  status: ('A' for Active; 'I' for Inactive)
REMARK    1  A    between atoms: C_1  and  C_2 
REMARK    2  A    between atoms: C_2  and  C_3 
REMARK       I    between atoms: N_5  and  C_6 
REMARK       I    between atoms: C_6  and  N_8 
REMARK    3  A    between atoms: N_8  and  C_9 
REMARK    4  A    between atoms: C_11  and  C_22 
REMARK    5  A    between atoms: C_15  and  O_19 
REMARK    6  A    between atoms: O_19  and  C_20 
REMARK    7  A    between atoms: C_20  and  C_21 
ROOT
ATOM      1  C   LIG d   1       6.600  -0.340  -6.111  0.00  0.00     0.293 A 
ATOM      2  N   LIG d   1       6.891   0.201  -7.293  0.00  0.00    -0.203 NA
ATOM      3  C   LIG d   1       7.664   1.261  -7.394  0.00  0.00     0.052 A 
ATOM      4  C   LIG d   1       8.189   1.825  -6.217  0.00  0.00     0.022 A 
ATOM      5  C   LIG d   1       9.020   2.955  -6.243  0.00  0.00    -0.047 A 
ATOM      6  C   LIG d   1       9.502   3.465  -5.077  0.00  0.00    -0.019 A 
ATOM      7  C   LIG d   1       9.181   2.876  -3.849  0.00  0.00     0.122 A 
ATOM      8  C   LIG d   1       8.368   1.765  -3.790  0.00  0.00     0.006 A 
ATOM      9  C   LIG d   1       7.857   1.221  -4.976  0.00  0.00     0.081 A 
ATOM     10  N   LIG d   1       7.058   0.147  -4.975  0.00  0.00    -0.198 NA
ATOM     11  H   LIG d   1       9.275   3.420  -7.184  0.00  0.00     0.063 H 
ATOM     12  H   LIG d   1      10.141   4.335  -5.100  0.00  0.00     0.065 H 
ATOM     13  H   LIG d   1       8.127   1.317  -2.838  0.00  0.00     0.068 H 
ENDROOT
BRANCH   1  14
ATOM     14  N   LIG d   1       5.779  -1.457  -6.074  0.00  0.00    -0.208 N 
ATOM     15  C   LIG d   1       4.786  -1.552  -5.117  0.00  0.00     0.425 C 
ATOM     16  N   LIG d   1       4.543  -0.507  -4.282  0.00  0.00    -0.090 NA
ATOM     17  N   LIG d   1       4.081  -2.647  -5.015  0.00  0.00    -0.126 NA
ATOM     18  C   LIG d   1       3.607  -0.598  -3.378  0.00  0.00     0.049 C 
ATOM     19  O   LIG d   1       2.881  -1.725  -3.274  0.00  0.00    -0.851 OA
ATOM     20  H   LIG d   1       4.204  -3.365  -5.657  0.00  0.00     0.306 HD
ATOM     21  H   LIG d   1       5.902  -2.171  -6.719  0.00  0.00     0.268 HD
BRANCH  18  22
ATOM     22  C   LIG d   1       3.338   0.561  -2.452  0.00  0.00    -0.011 C 
ATOM     23  H   LIG d   1       2.563   0.282  -1.739  0.00  0.00     0.033 H 
ATOM     24  H   LIG d   1       3.004   1.420  -3.034  0.00  0.00     0.033 H 
BRANCH  22  25
ATOM     25  C   LIG d   1       4.620   0.920  -1.700  0.00  0.00    -0.060 C 
ATOM     26  H   LIG d   1       5.485   0.659  -2.309  0.00  0.00     0.023 H 
ATOM     27  H   LIG d   1       4.633   1.990  -1.491  0.00  0.00     0.023 H 
ATOM     28  H   LIG d   1       4.658   0.367  -0.761  0.00  0.00     0.023 H 
ENDBRANCH  22  25
ENDBRANCH  18  22
ENDBRANCH   1  14
BRANCH   3  29
ATOM     29  C   LIG d   1       7.980   1.858  -8.741  0.00  0.00    -0.021 C 
ATOM     30  H   LIG d   1       8.335   1.075  -9.411  0.00  0.00     0.029 H 
ATOM     31  H   LIG d   1       7.081   2.313  -9.158  0.00  0.00     0.029 H 
ATOM     32  H   LIG d   1       8.753   2.618  -8.630  0.00  0.00     0.029 H 
ENDBRANCH   3  29
BRANCH   7  33
ATOM     33  O   LIG d   1       9.678   3.406  -2.702  0.00  0.00    -0.492 OA
BRANCH  33  34
ATOM     34  C   LIG d   1      10.092   4.772  -2.743  0.00  0.00     0.087 C 
ATOM     35  H   LIG d   1      10.284   5.062  -3.777  0.00  0.00     0.069 H 
ATOM     36  H   LIG d   1       9.306   5.403  -2.330  0.00  0.00     0.069 H 
BRANCH  34  37
ATOM     37  C   LIG d   1      11.370   4.943  -1.920  0.00  0.00    -0.031 C 
ATOM     38  H   LIG d   1      12.233   4.949  -2.586  0.00  0.00     0.026 H 
ATOM     39  H   LIG d   1      11.327   5.886  -1.374  0.00  0.00     0.026 H 
ATOM     40  H   LIG d   1      11.461   4.118  -1.214  0.00  0.00     0.026 H 
ENDBRANCH  34  37
ENDBRANCH  33  34
ENDBRANCH   7  33
TORSDOF 7
ENDMDL
MODEL 9
REMARK VINA RESULT:      -5.3     11.671     15.655
REMARK  7 active torsions:
REMARK  status: ('A' for Active; 'I' for Inactive)
REMARK    1  A    between atoms: C_1  and  C_2 
REMARK    2  A    between atoms: C_2  and  C_3 
REMARK       I    between atoms: N_5  and  C_6 
REMARK       I    between atoms: C_6  and  N_8 
REMARK    3  A    between atoms: N_8  and  C_9 
REMARK    4  A    between atoms: C_11  and  C_22 
REMARK    5  A    between atoms: C_15  and  O_19 
REMARK    6  A    between atoms: O_19  and  C_20 
REMARK    7  A    between atoms: C_20  and  C_21 
ROOT
ATOM      1  C   LIG d   1       9.220   9.451  -1.078  0.00  0.00     0.293 A 
ATOM      2  N   LIG d   1      10.020   9.746  -0.056  0.00  0.00    -0.203 NA
ATOM      3  C   LIG d   1      10.867   8.866   0.434  0.00  0.00     0.052 A 
ATOM      4  C   LIG d   1      10.918   7.586  -0.149  0.00  0.00     0.022 A 
ATOM      5  C   LIG d   1      11.793   6.594   0.316  0.00  0.00    -0.047 A 
ATOM      6  C   LIG d   1      11.803   5.370  -0.280  0.00  0.00    -0.019 A 
ATOM      7  C   LIG d   1      10.952   5.087  -1.354  0.00  0.00     0.122 A 
ATOM      8  C   LIG d   1      10.081   6.041  -1.833  0.00  0.00     0.006 A 
ATOM      9  C   LIG d   1      10.049   7.308  -1.237  0.00  0.00     0.081 A 
ATOM     10  N   LIG d   1       9.218   8.269  -1.660  0.00  0.00    -0.198 NA
ATOM     11  H   LIG d   1      12.456   6.799   1.144  0.00  0.00     0.063 H 
ATOM     12  H   LIG d   1      12.479   4.608   0.080  0.00  0.00     0.065 H 
ATOM     13  H   LIG d   1       9.428   5.813  -2.663  0.00  0.00     0.068 H 
ENDROOT
BRANCH   1  14
ATOM     14  N   LIG d   1       8.349  10.425  -1.545  0.00  0.00    -0.208 N 
ATOM     15  C   LIG d   1       8.662  11.143  -2.683  0.00  0.00     0.425 C 
ATOM     16  N   LIG d   1       9.769  10.825  -3.406  0.00  0.00    -0.090 NA
ATOM     17  N   LIG d   1       7.895  12.129  -3.064  0.00  0.00    -0.126 NA
ATOM     18  C   LIG d   1      10.065  11.504  -4.479  0.00  0.00     0.049 C 
ATOM     19  O   LIG d   1       9.275  12.518  -4.872  0.00  0.00    -0.851 OA
ATOM     20  H   LIG d   1       7.067  12.310  -2.592  0.00  0.00     0.306 HD
ATOM     21  H   LIG d   1       7.521  10.600  -1.072  0.00  0.00     0.268 HD
BRANCH  18  22
ATOM     22  C   LIG d   1      11.292  11.151  -5.281  0.00  0.00    -0.011 C 
ATOM     23  H   LIG d   1      12.080  10.814  -4.608  0.00  0.00     0.033 H 
ATOM     24  H   LIG d   1      11.633  12.028  -5.830  0.00  0.00     0.033 H 
BRANCH  22  25
ATOM     25  C   LIG d   1      10.952  10.032  -6.267  0.00  0.00    -0.060 C 
ATOM     26  H   LIG d   1      10.901   9.081  -5.735  0.00  0.00     0.023 H 
ATOM     27  H   LIG d   1       9.988  10.238  -6.734  0.00  0.00     0.023 H 
ATOM     28  H   LIG d   1      11.723   9.976  -7.035  0.00  0.00     0.023 H 
ENDBRANCH  22  25
ENDBRANCH  18  22
ENDBRANCH   1  14
BRANCH   3  29
ATOM     29  C   LIG d   1      11.765   9.220   1.591  0.00  0.00    -0.021 C 
ATOM     30  H   LIG d   1      11.724   8.428   2.338  0.00  0.00     0.029 H 
ATOM     31  H   LIG d   1      12.789   9.333   1.236  0.00  0.00     0.029 H 
ATOM     32  H   LIG d   1      11.431  10.157   2.037  0.00  0.00     0.029 H 
ENDBRANCH   3  29
BRANCH   7  33
ATOM     33  O   LIG d   1      10.985   3.858  -1.929  0.00  0.00    -0.492 OA
BRANCH  33  34
ATOM     34  C   LIG d   1      10.080   3.621  -3.009  0.00  0.00     0.087 C 
ATOM     35  H   LIG d   1       9.148   3.211  -2.618  0.00  0.00     0.069 H 
ATOM     36  H   LIG d   1       9.876   4.560  -3.523  0.00  0.00     0.069 H 
BRANCH  34  37
ATOM     37  C   LIG d   1      10.704   2.627  -3.989  0.00  0.00    -0.031 C 
ATOM     38  H   LIG d   1       9.915   2.079  -4.503  0.00  0.00     0.026 H 
ATOM     39  H   LIG d   1      11.307   3.166  -4.720  0.00  0.00     0.026 H 
ATOM     40  H   LIG d   1      11.337   1.926  -3.444  0.00  0.00     0.026 H 
ENDBRANCH  34  37
ENDBRANCH  33  34
ENDBRANCH   7  33
TORSDOF 7
ENDMDL
MODEL 10
REMARK VINA RESULT:      -5.3      3.007      5.049
REMARK  7 active torsions:
REMARK  status: ('A' for Active; 'I' for Inactive)
REMARK    1  A    between atoms: C_1  and  C_2 
REMARK    2  A    between atoms: C_2  and  C_3 
REMARK       I    between atoms: N_5  and  C_6 
REMARK       I    between atoms: C_6  and  N_8 
REMARK    3  A    between atoms: N_8  and  C_9 
REMARK    4  A    between atoms: C_11  and  C_22 
REMARK    5  A    between atoms: C_15  and  O_19 
REMARK    6  A    between atoms: O_19  and  C_20 
REMARK    7  A    between atoms: C_20  and  C_21 
ROOT
ATOM      1  C   LIG d   1       4.897  -3.275  -4.507  0.00  0.00     0.293 A 
ATOM      2  N   LIG d   1       3.918  -2.645  -3.860  0.00  0.00    -0.203 NA
ATOM      3  C   LIG d   1       4.064  -1.414  -3.417  0.00  0.00     0.052 A 
ATOM      4  C   LIG d   1       5.290  -0.761  -3.640  0.00  0.00     0.022 A 
ATOM      5  C   LIG d   1       5.522   0.550  -3.198  0.00  0.00    -0.047 A 
ATOM      6  C   LIG d   1       6.726   1.139  -3.437  0.00  0.00    -0.019 A 
ATOM      7  C   LIG d   1       7.737   0.455  -4.121  0.00  0.00     0.122 A 
ATOM      8  C   LIG d   1       7.539  -0.834  -4.567  0.00  0.00     0.006 A 
ATOM      9  C   LIG d   1       6.310  -1.463  -4.333  0.00  0.00     0.081 A 
ATOM     10  N   LIG d   1       6.068  -2.716  -4.740  0.00  0.00    -0.198 NA
ATOM     11  H   LIG d   1       4.751   1.090  -2.670  0.00  0.00     0.063 H 
ATOM     12  H   LIG d   1       6.902   2.148  -3.096  0.00  0.00     0.065 H 
ATOM     13  H   LIG d   1       8.325  -1.354  -5.094  0.00  0.00     0.068 H 
ENDROOT
BRANCH   1  14
ATOM     14  N   LIG d   1       4.678  -4.571  -4.947  0.00  0.00    -0.208 N 
ATOM     15  C   LIG d   1       4.223  -4.797  -6.232  0.00  0.00     0.425 C 
ATOM     16  N   LIG d   1       4.091  -3.759  -7.100  0.00  0.00    -0.090 NA
ATOM     17  N   LIG d   1       3.918  -6.009  -6.613  0.00  0.00    -0.126 NA
ATOM     18  C   LIG d   1       3.660  -3.972  -8.312  0.00  0.00     0.049 C 
ATOM     19  O   LIG d   1       3.347  -5.220  -8.704  0.00  0.00    -0.851 OA
ATOM     20  H   LIG d   1       4.080  -6.759  -6.019  0.00  0.00     0.306 HD
ATOM     21  H   LIG d   1       4.845  -5.319  -4.352  0.00  0.00     0.268 HD
BRANCH  18  22
ATOM     22  C   LIG d   1       3.514  -2.821  -9.274  0.00  0.00    -0.011 C 
ATOM     23  H   LIG d   1       2.701  -3.030  -9.969  0.00  0.00     0.033 H 
ATOM     24  H   LIG d   1       4.443  -2.691  -9.829  0.00  0.00     0.033 H 
BRANCH  22  25
ATOM     25  C   LIG d   1       3.202  -1.542  -8.495  0.00  0.00    -0.060 C 
ATOM     26  H   LIG d   1       2.504  -0.929  -9.065  0.00  0.00     0.023 H 
ATOM     27  H   LIG d   1       2.757  -1.801  -7.533  0.00  0.00     0.023 H 
ATOM     28  H   LIG d   1       4.124  -0.983  -8.329  0.00  0.00     0.023 H 
ENDBRANCH  22  25
ENDBRANCH  18  22
ENDBRANCH   1  14
BRANCH   3  29
ATOM     29  C   LIG d   1       2.943  -0.720  -2.687  0.00  0.00    -0.021 C 
ATOM     30  H   LIG d   1       3.103   0.358  -2.715  0.00  0.00     0.029 H 
ATOM     31  H   LIG d   1       1.994  -0.959  -3.167  0.00  0.00     0.029 H 
ATOM     32  H   LIG d   1       2.920  -1.056  -1.651  0.00  0.00     0.029 H 
ENDBRANCH   3  29
BRANCH   7  33
ATOM     33  O   LIG d   1       8.927   1.068  -4.345  0.00  0.00    -0.492 OA
BRANCH  33  34
ATOM     34  C   LIG d   1       9.747   0.533  -5.386  0.00  0.00     0.087 C 
ATOM     35  H   LIG d   1      10.734   0.298  -4.986  0.00  0.00     0.069 H 
ATOM     36  H   LIG d   1       9.290  -0.374  -5.779  0.00  0.00     0.069 H 
BRANCH  34  37
ATOM     37  C   LIG d   1       9.884   1.564  -6.508  0.00  0.00    -0.031 C 
ATOM     38  H   LIG d   1      10.862   1.461  -6.978  0.00  0.00     0.026 H 
ATOM     39  H   LIG d   1       9.104   1.397  -7.252  0.00  0.00     0.026 H 
ATOM     40  H   LIG d   1       9.784   2.567  -6.095  0.00  0.00     0.026 H 
ENDBRANCH  34  37
ENDBRANCH  33  34
ENDBRANCH   7  33
TORSDOF 7
ENDMDL
