MODEL 1
REMARK VINA RESULT:      -8.0      0.000      0.000
REMARK  6 active torsions:
REMARK  status: ('A' for Active; 'I' for Inactive)
REMARK    1  A    between atoms: C_4  and  C_7 
REMARK    2  A    between atoms: C_7  and  C_8 
REMARK    3  A    between atoms: C_8  and  C_10 
REMARK    4  A    between atoms: C_8  and  N_29 
REMARK       I    between atoms: C_10  and  N_12 
REMARK    5  A    between atoms: C_16  and  C_18 
REMARK       I    between atoms: C_18  and  N_20 
REMARK    6  A    between atoms: C_23  and  C_26 
ROOT
ATOM      1  C   LIG d   1       6.600   0.358  -8.366  0.00  0.00     0.240 C 
ATOM      2  O   LIG d   1       6.879   1.112  -7.457  0.00  0.00    -0.273 OA
ATOM      3  N   LIG d   1       7.473   0.167  -9.375  0.00  0.00    -0.288 N 
ATOM      4  C   LIG d   1       7.230  -0.642 -10.579  0.00  0.00     0.016 C 
ATOM      5  C   LIG d   1       8.497  -0.550 -11.456  0.00  0.00    -0.035 C 
ATOM      6  C   LIG d   1       9.164   0.763 -10.967  0.00  0.00    -0.024 C 
ATOM      7  C   LIG d   1       8.831   0.734  -9.454  0.00  0.00     0.102 C 
ATOM      8  H   LIG d   1       9.533   0.139  -8.852  0.00  0.00     0.060 H 
ATOM      9  H   LIG d   1       7.038  -1.686 -10.287  0.00  0.00     0.046 H 
ATOM     10  H   LIG d   1       6.357  -0.245 -11.118  0.00  0.00     0.046 H 
ATOM     11  H   LIG d   1       9.127  -1.435 -11.285  0.00  0.00     0.028 H 
ATOM     12  H   LIG d   1       8.206  -0.508 -12.516  0.00  0.00     0.028 H 
ATOM     13  H   LIG d   1      10.244   0.725 -11.176  0.00  0.00     0.029 H 
ATOM     14  H   LIG d   1       8.718   1.619 -11.494  0.00  0.00     0.029 H 
ENDROOT
BRANCH   1  15
ATOM     15  C   LIG d   1       5.278  -0.363  -8.367  0.00  0.00     0.122 C 
ATOM     16  H   LIG d   1       5.306  -1.193  -9.088  0.00  0.00     0.063 H 
BRANCH  15  17
ATOM     17  C   LIG d   1       4.159   0.623  -8.709  0.00  0.00     0.002 C 
ATOM     18  H   LIG d   1       4.597   1.551  -9.107  0.00  0.00     0.034 H 
ATOM     19  H   LIG d   1       3.580   0.852  -7.802  0.00  0.00     0.034 H 
BRANCH  17  20
ATOM     20  C   LIG d   1       3.250   0.013  -9.745  0.00  0.00    -0.045 A 
ATOM     21  C   LIG d   1       2.001  -0.454  -9.379  0.00  0.00    -0.059 A 
ATOM     22  C   LIG d   1       1.167  -1.014 -10.328  0.00  0.00    -0.061 A 
ATOM     23  H   LIG d   1       1.678  -0.382  -8.351  0.00  0.00     0.062 H 
ATOM     24  C   LIG d   1       1.581  -1.106 -11.644  0.00  0.00    -0.062 A 
ATOM     25  H   LIG d   1       0.192  -1.379 -10.042  0.00  0.00     0.062 H 
ATOM     26  C   LIG d   1       2.829  -0.638 -12.010  0.00  0.00    -0.061 A 
ATOM     27  H   LIG d   1       0.929  -1.544 -12.386  0.00  0.00     0.062 H 
ATOM     28  C   LIG d   1       3.662  -0.074 -11.061  0.00  0.00    -0.059 A 
ATOM     29  H   LIG d   1       3.153  -0.711 -13.038  0.00  0.00     0.062 H 
ATOM     30  H   LIG d   1       4.636   0.294 -11.348  0.00  0.00     0.062 H 
ENDBRANCH  17  20
ENDBRANCH  15  17
BRANCH  15  31
ATOM     31  N   LIG d   1       5.033  -0.937  -7.042  0.00  0.00    -0.248 N 
ATOM     32  C   LIG d   1       5.630  -2.091  -6.703  0.00  0.00     0.331 A 
ATOM     33  N   LIG d   1       5.459  -2.677  -5.506  0.00  0.00    -0.307 N 
ATOM     34  O   LIG d   1       6.362  -2.626  -7.513  0.00  0.00    -0.246 OA
ATOM     35  C   LIG d   1       4.629  -2.105  -4.552  0.00  0.00     0.056 A 
ATOM     36  H   LIG d   1       5.983  -3.617  -5.286  0.00  0.00     0.170 HD
ATOM     37  C   LIG d   1       3.976  -0.899  -4.859  0.00  0.00     0.063 A 
ATOM     38  C   LIG d   1       4.433  -2.694  -3.312  0.00  0.00    -0.037 A 
ATOM     39  C   LIG d   1       4.206  -0.299  -6.185  0.00  0.00     0.265 A 
ATOM     40  C   LIG d   1       3.136  -0.302  -3.920  0.00  0.00    -0.047 A 
ATOM     41  O   LIG d   1       3.665   0.744  -6.501  0.00  0.00    -0.267 OA
ATOM     42  C   LIG d   1       2.954  -0.903  -2.693  0.00  0.00    -0.061 A 
ATOM     43  H   LIG d   1       2.633   0.625  -4.152  0.00  0.00     0.063 H 
ATOM     44  C   LIG d   1       3.599  -2.093  -2.391  0.00  0.00    -0.060 A 
ATOM     45  H   LIG d   1       2.304  -0.445  -1.962  0.00  0.00     0.062 H 
ATOM     46  H   LIG d   1       3.448  -2.554  -1.426  0.00  0.00     0.062 H 
ATOM     47  H   LIG d   1       4.932  -3.621  -3.069  0.00  0.00     0.064 H 
ENDBRANCH  15  31
ENDBRANCH   1  15
BRANCH   7  48
ATOM     48  C   LIG d   1       8.850   2.131  -8.888  0.00  0.00     0.236 C 
ATOM     49  O   LIG d   1       8.210   3.011  -9.422  0.00  0.00    -0.274 OA
ATOM     50  N   LIG d   1       9.574   2.400  -7.783  0.00  0.00    -0.300 N 
ATOM     51  C   LIG d   1       9.598   3.755  -7.215  0.00  0.00     0.015 C 
ATOM     52  C   LIG d   1      10.350   1.343  -7.120  0.00  0.00     0.015 C 
ATOM     53  C   LIG d   1       9.213   3.675  -5.734  0.00  0.00    -0.029 C 
ATOM     54  H   LIG d   1      10.608   4.177  -7.316  0.00  0.00     0.046 H 
ATOM     55  H   LIG d   1       8.878   4.390  -7.753  0.00  0.00     0.046 H 
ATOM     56  C   LIG d   1      10.134   2.680  -5.025  0.00  0.00     0.001 C 
ATOM     57  H   LIG d   1       8.170   3.339  -5.642  0.00  0.00     0.029 H 
ATOM     58  H   LIG d   1       9.319   4.668  -5.272  0.00  0.00     0.029 H 
ATOM     59  C   LIG d   1       9.961   1.292  -5.644  0.00  0.00    -0.029 C 
ATOM     60  H   LIG d   1      11.180   3.006  -5.123  0.00  0.00     0.036 H 
ATOM     61  H   LIG d   1       8.911   0.976  -5.551  0.00  0.00     0.029 H 
ATOM     62  H   LIG d   1      10.608   0.572  -5.120  0.00  0.00     0.029 H 
ATOM     63  H   LIG d   1      10.131   0.375  -7.595  0.00  0.00     0.046 H 
ATOM     64  H   LIG d   1      11.423   1.562  -7.214  0.00  0.00     0.046 H 
BRANCH  56  65
ATOM     65  C   LIG d   1       9.781   2.625  -3.561  0.00  0.00     0.045 C 
ATOM     66  O   LIG d   1       8.635   2.452  -3.221  0.00  0.00    -0.549 OA
ATOM     67  O   LIG d   1      10.741   2.769  -2.633  0.00  0.00    -0.549 OA
ENDBRANCH  56  65
ENDBRANCH   7  48
TORSDOF 6
ENDMDL
MODEL 2
REMARK VINA RESULT:      -7.7      3.833      7.766
REMARK  6 active torsions:
REMARK  status: ('A' for Active; 'I' for Inactive)
REMARK    1  A    between atoms: C_4  and  C_7 
REMARK    2  A    between atoms: C_7  and  C_8 
REMARK    3  A    between atoms: C_8  and  C_10 
REMARK    4  A    between atoms: C_8  and  N_29 
REMARK       I    between atoms: C_10  and  N_12 
REMARK    5  A    between atoms: C_16  and  C_18 
REMARK       I    between atoms: C_18  and  N_20 
REMARK    6  A    between atoms: C_23  and  C_26 
ROOT
ATOM      1  C   LIG d   1       6.964  -3.439  -5.461  0.00  0.00     0.240 C 
ATOM      2  O   LIG d   1       6.596  -4.528  -5.072  0.00  0.00    -0.273 OA
ATOM      3  N   LIG d   1       8.062  -3.335  -6.233  0.00  0.00    -0.288 N 
ATOM      4  C   LIG d   1       8.670  -2.078  -6.697  0.00  0.00     0.016 C 
ATOM      5  C   LIG d   1       9.916  -2.451  -7.529  0.00  0.00    -0.035 C 
ATOM      6  C   LIG d   1      10.264  -3.873  -7.014  0.00  0.00    -0.024 C 
ATOM      7  C   LIG d   1       8.856  -4.462  -6.754  0.00  0.00     0.102 C 
ATOM      8  H   LIG d   1       8.377  -4.890  -7.647  0.00  0.00     0.060 H 
ATOM      9  H   LIG d   1       7.946  -1.526  -7.314  0.00  0.00     0.046 H 
ATOM     10  H   LIG d   1       8.955  -1.465  -5.829  0.00  0.00     0.046 H 
ATOM     11  H   LIG d   1       9.661  -2.438  -8.599  0.00  0.00     0.028 H 
ATOM     12  H   LIG d   1      10.717  -1.722  -7.336  0.00  0.00     0.028 H 
ATOM     13  H   LIG d   1      10.827  -4.415  -7.789  0.00  0.00     0.029 H 
ATOM     14  H   LIG d   1      10.878  -3.793  -6.104  0.00  0.00     0.029 H 
ENDROOT
BRANCH   1  15
ATOM     15  C   LIG d   1       6.191  -2.203  -5.078  0.00  0.00     0.122 C 
ATOM     16  H   LIG d   1       6.886  -1.372  -4.893  0.00  0.00     0.063 H 
BRANCH  15  17
ATOM     17  C   LIG d   1       5.341  -2.496  -3.840  0.00  0.00     0.002 C 
ATOM     18  H   LIG d   1       5.959  -3.001  -3.082  0.00  0.00     0.034 H 
ATOM     19  H   LIG d   1       4.499  -3.146  -4.118  0.00  0.00     0.034 H 
BRANCH  17  20
ATOM     20  C   LIG d   1       4.813  -1.202  -3.275  0.00  0.00    -0.045 A 
ATOM     21  C   LIG d   1       3.449  -0.992  -3.187  0.00  0.00    -0.059 A 
ATOM     22  C   LIG d   1       2.965   0.194  -2.670  0.00  0.00    -0.061 A 
ATOM     23  H   LIG d   1       2.763  -1.755  -3.524  0.00  0.00     0.062 H 
ATOM     24  C   LIG d   1       3.843   1.171  -2.240  0.00  0.00    -0.062 A 
ATOM     25  H   LIG d   1       1.899   0.358  -2.601  0.00  0.00     0.062 H 
ATOM     26  C   LIG d   1       5.207   0.961  -2.328  0.00  0.00    -0.061 A 
ATOM     27  H   LIG d   1       3.464   2.099  -1.836  0.00  0.00     0.062 H 
ATOM     28  C   LIG d   1       5.692  -0.228  -2.841  0.00  0.00    -0.059 A 
ATOM     29  H   LIG d   1       5.893   1.724  -1.992  0.00  0.00     0.062 H 
ATOM     30  H   LIG d   1       6.757  -0.393  -2.906  0.00  0.00     0.062 H 
ENDBRANCH  17  20
ENDBRANCH  15  17
BRANCH  15  31
ATOM     31  N   LIG d   1       5.318  -1.810  -6.187  0.00  0.00    -0.248 N 
ATOM     32  C   LIG d   1       4.440  -2.698  -6.682  0.00  0.00     0.331 A 
ATOM     33  N   LIG d   1       3.604  -2.410  -7.694  0.00  0.00    -0.307 N 
ATOM     34  O   LIG d   1       4.397  -3.809  -6.189  0.00  0.00    -0.246 OA
ATOM     35  C   LIG d   1       3.621  -1.157  -8.289  0.00  0.00     0.056 A 
ATOM     36  H   LIG d   1       2.902  -3.178  -8.048  0.00  0.00     0.170 HD
ATOM     37  C   LIG d   1       4.526  -0.193  -7.812  0.00  0.00     0.063 A 
ATOM     38  C   LIG d   1       2.772  -0.840  -9.338  0.00  0.00    -0.037 A 
ATOM     39  C   LIG d   1       5.415  -0.563  -6.696  0.00  0.00     0.265 A 
ATOM     40  C   LIG d   1       4.566   1.074  -8.392  0.00  0.00    -0.047 A 
ATOM     41  O   LIG d   1       6.215   0.235  -6.246  0.00  0.00    -0.267 OA
ATOM     42  C   LIG d   1       3.712   1.371  -9.434  0.00  0.00    -0.061 A 
ATOM     43  H   LIG d   1       5.258   1.817  -8.027  0.00  0.00     0.063 H 
ATOM     44  C   LIG d   1       2.821   0.419  -9.904  0.00  0.00    -0.060 A 
ATOM     45  H   LIG d   1       3.740   2.351  -9.887  0.00  0.00     0.062 H 
ATOM     46  H   LIG d   1       2.158   0.664 -10.721  0.00  0.00     0.062 H 
ATOM     47  H   LIG d   1       2.074  -1.575  -9.711  0.00  0.00     0.064 H 
ENDBRANCH  15  31
ENDBRANCH   1  15
BRANCH   7  48
ATOM     48  C   LIG d   1       8.932  -5.567  -5.732  0.00  0.00     0.236 C 
ATOM     49  O   LIG d   1       9.537  -5.395  -4.696  0.00  0.00    -0.274 OA
ATOM     50  N   LIG d   1       8.320  -6.746  -5.966  0.00  0.00    -0.300 N 
ATOM     51  C   LIG d   1       8.379  -7.829  -4.977  0.00  0.00     0.015 C 
ATOM     52  C   LIG d   1       7.576  -6.968  -7.214  0.00  0.00     0.015 C 
ATOM     53  C   LIG d   1       6.951  -8.286  -4.659  0.00  0.00    -0.029 C 
ATOM     54  H   LIG d   1       8.957  -8.671  -5.388  0.00  0.00     0.046 H 
ATOM     55  H   LIG d   1       8.865  -7.463  -4.060  0.00  0.00     0.046 H 
ATOM     56  C   LIG d   1       6.239  -8.661  -5.961  0.00  0.00     0.001 C 
ATOM     57  H   LIG d   1       6.405  -7.470  -4.165  0.00  0.00     0.029 H 
ATOM     58  H   LIG d   1       6.984  -9.161  -3.993  0.00  0.00     0.029 H 
ATOM     59  C   LIG d   1       6.163  -7.435  -6.874  0.00  0.00    -0.029 C 
ATOM     60  H   LIG d   1       6.787  -9.470  -6.466  0.00  0.00     0.036 H 
ATOM     61  H   LIG d   1       5.622  -6.627  -6.360  0.00  0.00     0.029 H 
ATOM     62  H   LIG d   1       5.632  -7.700  -7.801  0.00  0.00     0.029 H 
ATOM     63  H   LIG d   1       7.529  -6.029  -7.784  0.00  0.00     0.046 H 
ATOM     64  H   LIG d   1       8.088  -7.735  -7.813  0.00  0.00     0.046 H 
BRANCH  56  65
ATOM     65  C   LIG d   1       4.846  -9.143  -5.649  0.00  0.00     0.045 C 
ATOM     66  O   LIG d   1       4.273  -8.741  -4.665  0.00  0.00    -0.549 OA
ATOM     67  O   LIG d   1       4.241 -10.019  -6.467  0.00  0.00    -0.549 OA
ENDBRANCH  56  65
ENDBRANCH   7  48
TORSDOF 6
ENDMDL
MODEL 3
REMARK VINA RESULT:      -7.3      3.169      6.428
REMARK  6 active torsions:
REMARK  status: ('A' for Active; 'I' for Inactive)
REMARK    1  A    between atoms: C_4  and  C_7 
REMARK    2  A    between atoms: C_7  and  C_8 
REMARK    3  A    between atoms: C_8  and  C_10 
REMARK    4  A    between atoms: C_8  and  N_29 
REMARK       I    between atoms: C_10  and  N_12 
REMARK    5  A    between atoms: C_16  and  C_18 
REMARK       I    between atoms: C_18  and  N_20 
REMARK    6  A    between atoms: C_23  and  C_26 
ROOT
ATOM      1  C   LIG d   1       6.482  -2.925  -7.666  0.00  0.00     0.240 C 
ATOM      2  O   LIG d   1       5.565  -2.167  -7.900  0.00  0.00    -0.273 OA
ATOM      3  N   LIG d   1       7.288  -3.336  -8.665  0.00  0.00    -0.288 N 
ATOM      4  C   LIG d   1       8.375  -4.319  -8.542  0.00  0.00     0.016 C 
ATOM      5  C   LIG d   1       9.002  -4.488  -9.942  0.00  0.00    -0.035 C 
ATOM      6  C   LIG d   1       7.866  -4.017 -10.889  0.00  0.00    -0.024 C 
ATOM      7  C   LIG d   1       7.227  -2.874 -10.063  0.00  0.00     0.102 C 
ATOM      8  H   LIG d   1       7.735  -1.905 -10.171  0.00  0.00     0.060 H 
ATOM      9  H   LIG d   1       9.125  -3.950  -7.826  0.00  0.00     0.046 H 
ATOM     10  H   LIG d   1       7.967  -5.276  -8.184  0.00  0.00     0.046 H 
ATOM     11  H   LIG d   1       9.904  -3.863 -10.019  0.00  0.00     0.028 H 
ATOM     12  H   LIG d   1       9.273  -5.543 -10.098  0.00  0.00     0.028 H 
ATOM     13  H   LIG d   1       8.301  -3.676 -11.841  0.00  0.00     0.029 H 
ATOM     14  H   LIG d   1       7.178  -4.854 -11.080  0.00  0.00     0.029 H 
ENDROOT
BRANCH   1  15
ATOM     15  C   LIG d   1       6.719  -3.408  -6.259  0.00  0.00     0.122 C 
ATOM     16  H   LIG d   1       7.771  -3.244  -5.981  0.00  0.00     0.063 H 
BRANCH  15  17
ATOM     17  C   LIG d   1       6.349  -4.889  -6.159  0.00  0.00     0.002 C 
ATOM     18  H   LIG d   1       6.316  -5.328  -7.168  0.00  0.00     0.034 H 
ATOM     19  H   LIG d   1       5.362  -4.990  -5.684  0.00  0.00     0.034 H 
BRANCH  17  20
ATOM     20  C   LIG d   1       7.381  -5.611  -5.331  0.00  0.00    -0.045 A 
ATOM     21  C   LIG d   1       7.391  -6.993  -5.291  0.00  0.00    -0.059 A 
ATOM     22  C   LIG d   1       8.336  -7.656  -4.531  0.00  0.00    -0.061 A 
ATOM     23  H   LIG d   1       6.658  -7.555  -5.851  0.00  0.00     0.062 H 
ATOM     24  C   LIG d   1       9.274  -6.937  -3.813  0.00  0.00    -0.062 A 
ATOM     25  H   LIG d   1       8.344  -8.735  -4.499  0.00  0.00     0.062 H 
ATOM     26  C   LIG d   1       9.264  -5.555  -3.854  0.00  0.00    -0.061 A 
ATOM     27  H   LIG d   1      10.013  -7.455  -3.219  0.00  0.00     0.062 H 
ATOM     28  C   LIG d   1       8.320  -4.892  -4.617  0.00  0.00    -0.059 A 
ATOM     29  H   LIG d   1       9.996  -4.993  -3.292  0.00  0.00     0.062 H 
ATOM     30  H   LIG d   1       8.316  -3.813  -4.651  0.00  0.00     0.062 H 
ENDBRANCH  17  20
ENDBRANCH  15  17
BRANCH  15  31
ATOM     31  N   LIG d   1       5.892  -2.635  -5.330  0.00  0.00    -0.248 N 
ATOM     32  C   LIG d   1       4.638  -3.040  -5.071  0.00  0.00     0.331 A 
ATOM     33  N   LIG d   1       3.821  -2.386  -4.228  0.00  0.00    -0.307 N 
ATOM     34  O   LIG d   1       4.227  -4.044  -5.619  0.00  0.00    -0.246 OA
ATOM     35  C   LIG d   1       4.246  -1.232  -3.584  0.00  0.00     0.056 A 
ATOM     36  H   LIG d   1       2.808  -2.773  -4.050  0.00  0.00     0.170 HD
ATOM     37  C   LIG d   1       5.548  -0.763  -3.826  0.00  0.00     0.063 A 
ATOM     38  C   LIG d   1       3.418  -0.539  -2.715  0.00  0.00    -0.037 A 
ATOM     39  C   LIG d   1       6.402  -1.524  -4.755  0.00  0.00     0.265 A 
ATOM     40  C   LIG d   1       6.002   0.393  -3.194  0.00  0.00    -0.047 A 
ATOM     41  O   LIG d   1       7.538  -1.161  -4.999  0.00  0.00    -0.267 OA
ATOM     42  C   LIG d   1       5.164   1.069  -2.332  0.00  0.00    -0.061 A 
ATOM     43  H   LIG d   1       7.003   0.756  -3.376  0.00  0.00     0.063 H 
ATOM     44  C   LIG d   1       3.879   0.606  -2.094  0.00  0.00    -0.060 A 
ATOM     45  H   LIG d   1       5.511   1.966  -1.840  0.00  0.00     0.062 H 
ATOM     46  H   LIG d   1       3.232   1.145  -1.418  0.00  0.00     0.062 H 
ATOM     47  H   LIG d   1       2.415  -0.892  -2.524  0.00  0.00     0.064 H 
ENDBRANCH  15  31
ENDBRANCH   1  15
BRANCH   7  48
ATOM     48  C   LIG d   1       5.795  -2.663 -10.483  0.00  0.00     0.236 C 
ATOM     49  O   LIG d   1       5.034  -3.604 -10.541  0.00  0.00    -0.274 OA
ATOM     50  N   LIG d   1       5.358  -1.424 -10.787  0.00  0.00    -0.300 N 
ATOM     51  C   LIG d   1       3.964  -1.201 -11.192  0.00  0.00     0.015 C 
ATOM     52  C   LIG d   1       6.265  -0.271 -10.714  0.00  0.00     0.015 C 
ATOM     53  C   LIG d   1       3.358  -0.114 -10.296  0.00  0.00    -0.029 C 
ATOM     54  H   LIG d   1       3.934  -0.876 -12.243  0.00  0.00     0.046 H 
ATOM     55  H   LIG d   1       3.395  -2.135 -11.080  0.00  0.00     0.046 H 
ATOM     56  C   LIG d   1       4.237   1.136 -10.353  0.00  0.00     0.001 C 
ATOM     57  H   LIG d   1       3.306  -0.479  -9.260  0.00  0.00     0.029 H 
ATOM     58  H   LIG d   1       2.346   0.132 -10.649  0.00  0.00     0.029 H 
ATOM     59  C   LIG d   1       5.636   0.803  -9.830  0.00  0.00    -0.029 C 
ATOM     60  H   LIG d   1       4.303   1.500 -11.389  0.00  0.00     0.036 H 
ATOM     61  H   LIG d   1       5.564   0.432  -8.797  0.00  0.00     0.029 H 
ATOM     62  H   LIG d   1       6.262   1.708  -9.851  0.00  0.00     0.029 H 
ATOM     63  H   LIG d   1       7.227  -0.588 -10.285  0.00  0.00     0.046 H 
ATOM     64  H   LIG d   1       6.430   0.130 -11.725  0.00  0.00     0.046 H 
BRANCH  56  65
ATOM     65  C   LIG d   1       3.627   2.218  -9.500  0.00  0.00     0.045 C 
ATOM     66  O   LIG d   1       4.254   3.220  -9.253  0.00  0.00    -0.549 OA
ATOM     67  O   LIG d   1       2.384   2.068  -9.014  0.00  0.00    -0.549 OA
ENDBRANCH  56  65
ENDBRANCH   7  48
TORSDOF 6
ENDMDL
MODEL 4
REMARK VINA RESULT:      -7.3      4.290      7.425
REMARK  6 active torsions:
REMARK  status: ('A' for Active; 'I' for Inactive)
REMARK    1  A    between atoms: C_4  and  C_7 
REMARK    2  A    between atoms: C_7  and  C_8 
REMARK    3  A    between atoms: C_8  and  C_10 
REMARK    4  A    between atoms: C_8  and  N_29 
REMARK       I    between atoms: C_10  and  N_12 
REMARK    5  A    between atoms: C_16  and  C_18 
REMARK       I    between atoms: C_18  and  N_20 
REMARK    6  A    between atoms: C_23  and  C_26 
ROOT
ATOM      1  C   LIG d   1       8.071  -2.720  -4.351  0.00  0.00     0.240 C 
ATOM      2  O   LIG d   1       8.039  -3.735  -3.688  0.00  0.00    -0.273 OA
ATOM      3  N   LIG d   1       9.139  -2.456  -5.129  0.00  0.00    -0.288 N 
ATOM      4  C   LIG d   1       9.350  -1.227  -5.909  0.00  0.00     0.016 C 
ATOM      5  C   LIG d   1      10.713  -1.364  -6.620  0.00  0.00    -0.035 C 
ATOM      6  C   LIG d   1      11.454  -2.416  -5.752  0.00  0.00    -0.024 C 
ATOM      7  C   LIG d   1      10.291  -3.351  -5.340  0.00  0.00     0.102 C 
ATOM      8  H   LIG d   1      10.047  -4.121  -6.086  0.00  0.00     0.060 H 
ATOM      9  H   LIG d   1       8.541  -1.116  -6.646  0.00  0.00     0.046 H 
ATOM     10  H   LIG d   1       9.353  -0.358  -5.234  0.00  0.00     0.046 H 
ATOM     11  H   LIG d   1      10.556  -1.703  -7.655  0.00  0.00     0.028 H 
ATOM     12  H   LIG d   1      11.222  -0.388  -6.629  0.00  0.00     0.028 H 
ATOM     13  H   LIG d   1      12.221  -2.918  -6.360  0.00  0.00     0.029 H 
ATOM     14  H   LIG d   1      11.933  -1.914  -4.898  0.00  0.00     0.029 H 
ENDROOT
BRANCH   1  15
ATOM     15  C   LIG d   1       6.916  -1.753  -4.302  0.00  0.00     0.122 C 
ATOM     16  H   LIG d   1       7.294  -0.720  -4.308  0.00  0.00     0.063 H 
BRANCH  15  17
ATOM     17  C   LIG d   1       6.076  -2.024  -3.052  0.00  0.00     0.002 C 
ATOM     18  H   LIG d   1       6.735  -2.081  -2.173  0.00  0.00     0.034 H 
ATOM     19  H   LIG d   1       5.540  -2.977  -3.170  0.00  0.00     0.034 H 
BRANCH  17  20
ATOM     20  C   LIG d   1       5.082  -0.907  -2.863  0.00  0.00    -0.045 A 
ATOM     21  C   LIG d   1       3.727  -1.182  -2.860  0.00  0.00    -0.059 A 
ATOM     22  C   LIG d   1       2.815  -0.159  -2.687  0.00  0.00    -0.061 A 
ATOM     23  H   LIG d   1       3.381  -2.196  -2.995  0.00  0.00     0.062 H 
ATOM     24  C   LIG d   1       3.256   1.140  -2.516  0.00  0.00    -0.062 A 
ATOM     25  H   LIG d   1       1.756  -0.373  -2.686  0.00  0.00     0.062 H 
ATOM     26  C   LIG d   1       4.612   1.415  -2.518  0.00  0.00    -0.061 A 
ATOM     27  H   LIG d   1       2.543   1.940  -2.380  0.00  0.00     0.062 H 
ATOM     28  C   LIG d   1       5.525   0.390  -2.687  0.00  0.00    -0.059 A 
ATOM     29  H   LIG d   1       4.957   2.429  -2.384  0.00  0.00     0.062 H 
ATOM     30  H   LIG d   1       6.583   0.604  -2.685  0.00  0.00     0.062 H 
ENDBRANCH  17  20
ENDBRANCH  15  17
BRANCH  15  31
ATOM     31  N   LIG d   1       6.084  -1.925  -5.496  0.00  0.00    -0.248 N 
ATOM     32  C   LIG d   1       5.858  -0.873  -6.298  0.00  0.00     0.331 A 
ATOM     33  N   LIG d   1       5.110  -0.954  -7.412  0.00  0.00    -0.307 N 
ATOM     34  O   LIG d   1       6.355   0.198  -6.007  0.00  0.00    -0.246 OA
ATOM     35  C   LIG d   1       4.519  -2.153  -7.781  0.00  0.00     0.056 A 
ATOM     36  H   LIG d   1       4.969  -0.057  -8.033  0.00  0.00     0.170 HD
ATOM     37  C   LIG d   1       4.721  -3.284  -6.972  0.00  0.00     0.063 A 
ATOM     38  C   LIG d   1       3.739  -2.258  -8.923  0.00  0.00    -0.037 A 
ATOM     39  C   LIG d   1       5.555  -3.138  -5.765  0.00  0.00     0.265 A 
ATOM     40  C   LIG d   1       4.139  -4.503  -7.317  0.00  0.00    -0.047 A 
ATOM     41  O   LIG d   1       5.761  -4.086  -5.031  0.00  0.00    -0.267 OA
ATOM     42  C   LIG d   1       3.367  -4.587  -8.457  0.00  0.00    -0.061 A 
ATOM     43  H   LIG d   1       4.293  -5.374  -6.698  0.00  0.00     0.063 H 
ATOM     44  C   LIG d   1       3.168  -3.471  -9.254  0.00  0.00    -0.060 A 
ATOM     45  H   LIG d   1       2.913  -5.529  -8.729  0.00  0.00     0.062 H 
ATOM     46  H   LIG d   1       2.561  -3.550 -10.144  0.00  0.00     0.062 H 
ATOM     47  H   LIG d   1       3.579  -1.393  -9.550  0.00  0.00     0.064 H 
ENDBRANCH  15  31
ENDBRANCH   1  15
BRANCH   7  48
ATOM     48  C   LIG d   1      10.630  -4.077  -4.063  0.00  0.00     0.236 C 
ATOM     49  O   LIG d   1      11.042  -3.460  -3.105  0.00  0.00    -0.274 OA
ATOM     50  N   LIG d   1      10.470  -5.414  -3.985  0.00  0.00    -0.300 N 
ATOM     51  C   LIG d   1      10.790  -6.135  -2.746  0.00  0.00     0.015 C 
ATOM     52  C   LIG d   1       9.965  -6.176  -5.135  0.00  0.00     0.015 C 
ATOM     53  C   LIG d   1       9.571  -6.965  -2.329  0.00  0.00    -0.029 C 
ATOM     54  H   LIG d   1      11.651  -6.798  -2.920  0.00  0.00     0.046 H 
ATOM     55  H   LIG d   1      11.037  -5.412  -1.955  0.00  0.00     0.046 H 
ATOM     56  C   LIG d   1       9.153  -7.868  -3.492  0.00  0.00     0.001 C 
ATOM     57  H   LIG d   1       8.740  -6.294  -2.068  0.00  0.00     0.029 H 
ATOM     58  H   LIG d   1       9.828  -7.584  -1.458  0.00  0.00     0.029 H 
ATOM     59  C   LIG d   1       8.761  -7.005  -4.694  0.00  0.00    -0.029 C 
ATOM     60  H   LIG d   1       9.983  -8.535  -3.764  0.00  0.00     0.036 H 
ATOM     61  H   LIG d   1       7.936  -6.334  -4.412  0.00  0.00     0.029 H 
ATOM     62  H   LIG d   1       8.440  -7.654  -5.523  0.00  0.00     0.029 H 
ATOM     63  H   LIG d   1       9.664  -5.480  -5.932  0.00  0.00     0.046 H 
ATOM     64  H   LIG d   1      10.757  -6.841  -5.510  0.00  0.00     0.046 H 
BRANCH  56  65
ATOM     65  C   LIG d   1       7.975  -8.710  -3.073  0.00  0.00     0.045 C 
ATOM     66  O   LIG d   1       7.152  -9.047  -3.890  0.00  0.00    -0.549 OA
ATOM     67  O   LIG d   1       7.841  -9.087  -1.792  0.00  0.00    -0.549 OA
ENDBRANCH  56  65
ENDBRANCH   7  48
TORSDOF 6
ENDMDL
MODEL 5
REMARK VINA RESULT:      -7.1      2.728      6.655
REMARK  6 active torsions:
REMARK  status: ('A' for Active; 'I' for Inactive)
REMARK    1  A    between atoms: C_4  and  C_7 
REMARK    2  A    between atoms: C_7  and  C_8 
REMARK    3  A    between atoms: C_8  and  C_10 
REMARK    4  A    between atoms: C_8  and  N_29 
REMARK       I    between atoms: C_10  and  N_12 
REMARK    5  A    between atoms: C_16  and  C_18 
REMARK       I    between atoms: C_18  and  N_20 
REMARK    6  A    between atoms: C_23  and  C_26 
ROOT
ATOM      1  C   LIG d   1       5.695  -1.132  -6.545  0.00  0.00     0.240 C 
ATOM      2  O   LIG d   1       5.967  -2.140  -5.927  0.00  0.00    -0.273 OA
ATOM      3  N   LIG d   1       6.599  -0.591  -7.384  0.00  0.00    -0.288 N 
ATOM      4  C   LIG d   1       6.439   0.671  -8.123  0.00  0.00     0.016 C 
ATOM      5  C   LIG d   1       7.733   0.896  -8.933  0.00  0.00    -0.035 C 
ATOM      6  C   LIG d   1       8.776   0.040  -8.166  0.00  0.00    -0.024 C 
ATOM      7  C   LIG d   1       7.916  -1.166  -7.715  0.00  0.00     0.102 C 
ATOM      8  H   LIG d   1       7.812  -1.953  -8.475  0.00  0.00     0.060 H 
ATOM      9  H   LIG d   1       5.571   0.594  -8.795  0.00  0.00     0.046 H 
ATOM     10  H   LIG d   1       6.280   1.495  -7.411  0.00  0.00     0.046 H 
ATOM     11  H   LIG d   1       7.582   0.554  -9.968  0.00  0.00     0.028 H 
ATOM     12  H   LIG d   1       7.983   1.967  -8.934  0.00  0.00     0.028 H 
ATOM     13  H   LIG d   1       9.593  -0.239  -8.849  0.00  0.00     0.029 H 
ATOM     14  H   LIG d   1       9.183   0.624  -7.327  0.00  0.00     0.029 H 
ENDROOT
BRANCH   1  15
ATOM     15  C   LIG d   1       4.345  -0.486  -6.373  0.00  0.00     0.122 C 
ATOM     16  H   LIG d   1       4.469   0.589  -6.178  0.00  0.00     0.063 H 
BRANCH  15  17
ATOM     17  C   LIG d   1       3.594  -1.169  -5.228  0.00  0.00     0.002 C 
ATOM     18  H   LIG d   1       3.941  -2.209  -5.130  0.00  0.00     0.034 H 
ATOM     19  H   LIG d   1       2.515  -1.162  -5.440  0.00  0.00     0.034 H 
BRANCH  17  20
ATOM     20  C   LIG d   1       3.859  -0.430  -3.941  0.00  0.00    -0.045 A 
ATOM     21  C   LIG d   1       4.421  -1.093  -2.866  0.00  0.00    -0.059 A 
ATOM     22  C   LIG d   1       4.663  -0.416  -1.686  0.00  0.00    -0.061 A 
ATOM     23  H   LIG d   1       4.669  -2.142  -2.948  0.00  0.00     0.062 H 
ATOM     24  C   LIG d   1       4.345   0.925  -1.580  0.00  0.00    -0.062 A 
ATOM     25  H   LIG d   1       5.102  -0.935  -0.846  0.00  0.00     0.062 H 
ATOM     26  C   LIG d   1       3.784   1.589  -2.656  0.00  0.00    -0.061 A 
ATOM     27  H   LIG d   1       4.535   1.454  -0.658  0.00  0.00     0.062 H 
ATOM     28  C   LIG d   1       3.545   0.912  -3.838  0.00  0.00    -0.059 A 
ATOM     29  H   LIG d   1       3.535   2.637  -2.574  0.00  0.00     0.062 H 
ATOM     30  H   LIG d   1       3.110   1.432  -4.679  0.00  0.00     0.062 H 
ENDBRANCH  17  20
ENDBRANCH  15  17
BRANCH  15  31
ATOM     31  N   LIG d   1       3.575  -0.624  -7.611  0.00  0.00    -0.248 N 
ATOM     32  C   LIG d   1       2.992   0.459  -8.149  0.00  0.00     0.331 A 
ATOM     33  N   LIG d   1       2.275   0.413  -9.285  0.00  0.00    -0.307 N 
ATOM     34  O   LIG d   1       3.123   1.529  -7.587  0.00  0.00    -0.246 OA
ATOM     35  C   LIG d   1       2.094  -0.787  -9.958  0.00  0.00     0.056 A 
ATOM     36  H   LIG d   1       1.830   1.337  -9.679  0.00  0.00     0.170 HD
ATOM     37  C   LIG d   1       2.680  -1.952  -9.433  0.00  0.00     0.063 A 
ATOM     38  C   LIG d   1       1.353  -0.859 -11.127  0.00  0.00    -0.037 A 
ATOM     39  C   LIG d   1       3.461  -1.840  -8.188  0.00  0.00     0.265 A 
ATOM     40  C   LIG d   1       2.515  -3.171 -10.088  0.00  0.00    -0.047 A 
ATOM     41  O   LIG d   1       3.988  -2.818  -7.693  0.00  0.00    -0.267 OA
ATOM     42  C   LIG d   1       1.775  -3.223 -11.250  0.00  0.00    -0.061 A 
ATOM     43  H   LIG d   1       2.964  -4.068  -9.688  0.00  0.00     0.063 H 
ATOM     44  C   LIG d   1       1.197  -2.073 -11.767  0.00  0.00    -0.060 A 
ATOM     45  H   LIG d   1       1.643  -4.165 -11.761  0.00  0.00     0.062 H 
ATOM     46  H   LIG d   1       0.620  -2.127 -12.678  0.00  0.00     0.062 H 
ATOM     47  H   LIG d   1       0.900   0.032 -11.537  0.00  0.00     0.064 H 
ENDBRANCH  15  31
ENDBRANCH   1  15
BRANCH   7  48
ATOM     48  C   LIG d   1       8.524  -1.816  -6.499  0.00  0.00     0.236 C 
ATOM     49  O   LIG d   1       8.872  -1.137  -5.557  0.00  0.00    -0.274 OA
ATOM     50  N   LIG d   1       8.676  -3.155  -6.456  0.00  0.00    -0.300 N 
ATOM     51  C   LIG d   1       9.262  -3.804  -5.275  0.00  0.00     0.015 C 
ATOM     52  C   LIG d   1       8.254  -3.993  -7.586  0.00  0.00     0.015 C 
ATOM     53  C   LIG d   1       8.304  -4.896  -4.787  0.00  0.00    -0.029 C 
ATOM     54  H   LIG d   1      10.230  -4.251  -5.544  0.00  0.00     0.046 H 
ATOM     55  H   LIG d   1       9.411  -3.057  -4.481  0.00  0.00     0.046 H 
ATOM     56  C   LIG d   1       7.995  -5.851  -5.941  0.00  0.00     0.001 C 
ATOM     57  H   LIG d   1       7.370  -4.435  -4.432  0.00  0.00     0.029 H 
ATOM     58  H   LIG d   1       8.771  -5.455  -3.963  0.00  0.00     0.029 H 
ATOM     59  C   LIG d   1       7.313  -5.081  -7.074  0.00  0.00    -0.029 C 
ATOM     60  H   LIG d   1       8.926  -6.308  -6.307  0.00  0.00     0.036 H 
ATOM     61  H   LIG d   1       6.387  -4.620  -6.700  0.00  0.00     0.029 H 
ATOM     62  H   LIG d   1       7.071  -5.773  -7.896  0.00  0.00     0.029 H 
ATOM     63  H   LIG d   1       7.733  -3.372  -8.329  0.00  0.00     0.046 H 
ATOM     64  H   LIG d   1       9.138  -4.455  -8.050  0.00  0.00     0.046 H 
BRANCH  56  65
ATOM     65  C   LIG d   1       7.080  -6.946  -5.455  0.00  0.00     0.045 C 
ATOM     66  O   LIG d   1       5.931  -6.983  -5.826  0.00  0.00    -0.549 OA
ATOM     67  O   LIG d   1       7.542  -7.881  -4.610  0.00  0.00    -0.549 OA
ENDBRANCH  56  65
ENDBRANCH   7  48
TORSDOF 6
ENDMDL
MODEL 6
REMARK VINA RESULT:      -7.1      2.669      4.371
REMARK  6 active torsions:
REMARK  status: ('A' for Active; 'I' for Inactive)
REMARK    1  A    between atoms: C_4  and  C_7 
REMARK    2  A    between atoms: C_7  and  C_8 
REMARK    3  A    between atoms: C_8  and  C_10 
REMARK    4  A    between atoms: C_8  and  N_29 
REMARK       I    between atoms: C_10  and  N_12 
REMARK    5  A    between atoms: C_16  and  C_18 
REMARK       I    between atoms: C_18  and  N_20 
REMARK    6  A    between atoms: C_23  and  C_26 
ROOT
ATOM      1  C   LIG d   1       9.730   1.179  -5.614  0.00  0.00     0.240 C 
ATOM      2  O   LIG d   1       9.792   2.383  -5.482  0.00  0.00    -0.273 OA
ATOM      3  N   LIG d   1      10.677   0.391  -5.068  0.00  0.00    -0.288 N 
ATOM      4  C   LIG d   1      10.776  -1.068  -5.225  0.00  0.00     0.016 C 
ATOM      5  C   LIG d   1      12.024  -1.530  -4.444  0.00  0.00    -0.035 C 
ATOM      6  C   LIG d   1      12.880  -0.238  -4.362  0.00  0.00    -0.024 C 
ATOM      7  C   LIG d   1      11.787   0.849  -4.213  0.00  0.00     0.102 C 
ATOM      8  H   LIG d   1      11.441   0.999  -3.180  0.00  0.00     0.060 H 
ATOM      9  H   LIG d   1       9.870  -1.543  -4.819  0.00  0.00     0.046 H 
ATOM     10  H   LIG d   1      10.873  -1.317  -6.292  0.00  0.00     0.046 H 
ATOM     11  H   LIG d   1      11.722  -1.901  -3.454  0.00  0.00     0.028 H 
ATOM     12  H   LIG d   1      12.526  -2.336  -4.999  0.00  0.00     0.028 H 
ATOM     13  H   LIG d   1      13.554  -0.300  -3.494  0.00  0.00     0.029 H 
ATOM     14  H   LIG d   1      13.475  -0.134  -5.281  0.00  0.00     0.029 H 
ENDROOT
BRANCH   1  15
ATOM     15  C   LIG d   1       8.593   0.565  -6.389  0.00  0.00     0.122 C 
ATOM     16  H   LIG d   1       8.972  -0.251  -7.023  0.00  0.00     0.063 H 
BRANCH  15  17
ATOM     17  C   LIG d   1       7.909   1.643  -7.232  0.00  0.00     0.002 C 
ATOM     18  H   LIG d   1       8.660   2.370  -7.578  0.00  0.00     0.034 H 
ATOM     19  H   LIG d   1       7.153   2.160  -6.623  0.00  0.00     0.034 H 
BRANCH  17  20
ATOM     20  C   LIG d   1       7.244   1.004  -8.424  0.00  0.00    -0.045 A 
ATOM     21  C   LIG d   1       5.866   1.016  -8.535  0.00  0.00    -0.059 A 
ATOM     22  C   LIG d   1       5.256   0.429  -9.627  0.00  0.00    -0.061 A 
ATOM     23  H   LIG d   1       5.266   1.483  -7.768  0.00  0.00     0.062 H 
ATOM     24  C   LIG d   1       6.023  -0.169 -10.609  0.00  0.00    -0.062 A 
ATOM     25  H   LIG d   1       4.179   0.438  -9.714  0.00  0.00     0.062 H 
ATOM     26  C   LIG d   1       7.401  -0.181 -10.499  0.00  0.00    -0.061 A 
ATOM     27  H   LIG d   1       5.546  -0.628 -11.464  0.00  0.00     0.062 H 
ATOM     28  C   LIG d   1       8.012   0.410  -9.408  0.00  0.00    -0.059 A 
ATOM     29  H   LIG d   1       8.001  -0.648 -11.266  0.00  0.00     0.062 H 
ATOM     30  H   LIG d   1       9.088   0.404  -9.324  0.00  0.00     0.062 H 
ENDBRANCH  17  20
ENDBRANCH  15  17
BRANCH  15  31
ATOM     31  N   LIG d   1       7.623  -0.015  -5.458  0.00  0.00    -0.248 N 
ATOM     32  C   LIG d   1       7.317  -1.319  -5.553  0.00  0.00     0.331 A 
ATOM     33  N   LIG d   1       6.441  -1.923  -4.732  0.00  0.00    -0.307 N 
ATOM     34  O   LIG d   1       7.860  -1.982  -6.415  0.00  0.00    -0.246 OA
ATOM     35  C   LIG d   1       5.793  -1.205  -3.737  0.00  0.00     0.056 A 
ATOM     36  H   LIG d   1       6.239  -2.997  -4.855  0.00  0.00     0.170 HD
ATOM     37  C   LIG d   1       6.075   0.165  -3.599  0.00  0.00     0.063 A 
ATOM     38  C   LIG d   1       4.881  -1.807  -2.883  0.00  0.00    -0.037 A 
ATOM     39  C   LIG d   1       7.049   0.773  -4.523  0.00  0.00     0.265 A 
ATOM     40  C   LIG d   1       5.439   0.912  -2.609  0.00  0.00    -0.047 A 
ATOM     41  O   LIG d   1       7.328   1.955  -4.447  0.00  0.00    -0.267 OA
ATOM     42  C   LIG d   1       4.536   0.296  -1.769  0.00  0.00    -0.061 A 
ATOM     43  H   LIG d   1       5.654   1.965  -2.500  0.00  0.00     0.063 H 
ATOM     44  C   LIG d   1       4.258  -1.056  -1.906  0.00  0.00    -0.060 A 
ATOM     45  H   LIG d   1       4.040   0.870  -1.000  0.00  0.00     0.062 H 
ATOM     46  H   LIG d   1       3.548  -1.526  -1.242  0.00  0.00     0.062 H 
ATOM     47  H   LIG d   1       4.659  -2.859  -2.983  0.00  0.00     0.064 H 
ENDBRANCH  15  31
ENDBRANCH   1  15
BRANCH   7  48
ATOM     48  C   LIG d   1      12.304   2.181  -4.694  0.00  0.00     0.236 C 
ATOM     49  O   LIG d   1      12.888   2.258  -5.753  0.00  0.00    -0.274 OA
ATOM     50  N   LIG d   1      12.111   3.288  -3.949  0.00  0.00    -0.300 N 
ATOM     51  C   LIG d   1      12.603   4.593  -4.407  0.00  0.00     0.015 C 
ATOM     52  C   LIG d   1      11.398   3.212  -2.666  0.00  0.00     0.015 C 
ATOM     53  C   LIG d   1      11.440   5.591  -4.396  0.00  0.00    -0.029 C 
ATOM     54  H   LIG d   1      13.400   4.942  -3.733  0.00  0.00     0.046 H 
ATOM     55  H   LIG d   1      13.002   4.498  -5.428  0.00  0.00     0.046 H 
ATOM     56  C   LIG d   1      10.805   5.611  -3.003  0.00  0.00     0.001 C 
ATOM     57  H   LIG d   1      10.687   5.287  -5.137  0.00  0.00     0.029 H 
ATOM     58  H   LIG d   1      11.813   6.595  -4.644  0.00  0.00     0.029 H 
ATOM     59  C   LIG d   1      10.254   4.223  -2.672  0.00  0.00    -0.029 C 
ATOM     60  H   LIG d   1      11.556   5.904  -2.255  0.00  0.00     0.036 H 
ATOM     61  H   LIG d   1       9.510   3.931  -3.428  0.00  0.00     0.029 H 
ATOM     62  H   LIG d   1       9.779   4.243  -1.679  0.00  0.00     0.029 H 
ATOM     63  H   LIG d   1      10.996   2.197  -2.530  0.00  0.00     0.046 H 
ATOM     64  H   LIG d   1      12.095   3.443  -1.846  0.00  0.00     0.046 H 
BRANCH  56  65
ATOM     65  C   LIG d   1       9.682   6.616  -2.979  0.00  0.00     0.045 C 
ATOM     66  O   LIG d   1       9.187   6.944  -1.928  0.00  0.00    -0.549 OA
ATOM     67  O   LIG d   1       9.232   7.147  -4.127  0.00  0.00    -0.549 OA
ENDBRANCH  56  65
ENDBRANCH   7  48
TORSDOF 6
ENDMDL
MODEL 7
REMARK VINA RESULT:      -7.1      3.523      8.058
REMARK  6 active torsions:
REMARK  status: ('A' for Active; 'I' for Inactive)
REMARK    1  A    between atoms: C_4  and  C_7 
REMARK    2  A    between atoms: C_7  and  C_8 
REMARK    3  A    between atoms: C_8  and  C_10 
REMARK    4  A    between atoms: C_8  and  N_29 
REMARK       I    between atoms: C_10  and  N_12 
REMARK    5  A    between atoms: C_16  and  C_18 
REMARK       I    between atoms: C_18  and  N_20 
REMARK    6  A    between atoms: C_23  and  C_26 
ROOT
ATOM      1  C   LIG d   1       6.270  -3.373  -6.044  0.00  0.00     0.240 C 
ATOM      2  O   LIG d   1       5.476  -4.261  -6.270  0.00  0.00    -0.273 OA
ATOM      3  N   LIG d   1       7.582  -3.564  -6.286  0.00  0.00    -0.288 N 
ATOM      4  C   LIG d   1       8.660  -2.613  -5.976  0.00  0.00     0.016 C 
ATOM      5  C   LIG d   1       9.989  -3.270  -6.407  0.00  0.00    -0.035 C 
ATOM      6  C   LIG d   1       9.643  -4.782  -6.413  0.00  0.00    -0.024 C 
ATOM      7  C   LIG d   1       8.175  -4.763  -6.906  0.00  0.00     0.102 C 
ATOM      8  H   LIG d   1       8.069  -4.722  -8.000  0.00  0.00     0.060 H 
ATOM      9  H   LIG d   1       8.495  -1.678  -6.530  0.00  0.00     0.046 H 
ATOM     10  H   LIG d   1       8.666  -2.404  -4.895  0.00  0.00     0.046 H 
ATOM     11  H   LIG d   1      10.277  -2.897  -7.401  0.00  0.00     0.028 H 
ATOM     12  H   LIG d   1      10.775  -3.018  -5.679  0.00  0.00     0.028 H 
ATOM     13  H   LIG d   1      10.325  -5.311  -7.096  0.00  0.00     0.029 H 
ATOM     14  H   LIG d   1       9.755  -5.188  -5.396  0.00  0.00     0.029 H 
ENDROOT
BRANCH   1  15
ATOM     15  C   LIG d   1       5.790  -2.056  -5.492  0.00  0.00     0.122 C 
ATOM     16  H   LIG d   1       6.570  -1.610  -4.858  0.00  0.00     0.063 H 
BRANCH  15  17
ATOM     17  C   LIG d   1       4.498  -2.274  -4.702  0.00  0.00     0.002 C 
ATOM     18  H   LIG d   1       4.590  -3.187  -4.094  0.00  0.00     0.034 H 
ATOM     19  H   LIG d   1       3.655  -2.383  -5.400  0.00  0.00     0.034 H 
BRANCH  17  20
ATOM     20  C   LIG d   1       4.254  -1.092  -3.800  0.00  0.00    -0.045 A 
ATOM     21  C   LIG d   1       4.827  -1.053  -2.542  0.00  0.00    -0.059 A 
ATOM     22  C   LIG d   1       4.604   0.031  -1.714  0.00  0.00    -0.061 A 
ATOM     23  H   LIG d   1       5.448  -1.870  -2.206  0.00  0.00     0.062 H 
ATOM     24  C   LIG d   1       3.808   1.076  -2.143  0.00  0.00    -0.062 A 
ATOM     25  H   LIG d   1       5.051   0.061  -0.731  0.00  0.00     0.062 H 
ATOM     26  C   LIG d   1       3.236   1.038  -3.402  0.00  0.00    -0.061 A 
ATOM     27  H   LIG d   1       3.633   1.924  -1.496  0.00  0.00     0.062 H 
ATOM     28  C   LIG d   1       3.463  -0.044  -4.232  0.00  0.00    -0.059 A 
ATOM     29  H   LIG d   1       2.614   1.855  -3.737  0.00  0.00     0.062 H 
ATOM     30  H   LIG d   1       3.018  -0.072  -5.215  0.00  0.00     0.062 H 
ENDBRANCH  17  20
ENDBRANCH  15  17
BRANCH  15  31
ATOM     31  N   LIG d   1       5.535  -1.127  -6.596  0.00  0.00    -0.248 N 
ATOM     32  C   LIG d   1       6.253   0.005  -6.684  0.00  0.00     0.331 A 
ATOM     33  N   LIG d   1       6.081   0.902  -7.669  0.00  0.00    -0.307 N 
ATOM     34  O   LIG d   1       7.098   0.224  -5.838  0.00  0.00    -0.246 OA
ATOM     35  C   LIG d   1       5.125   0.697  -8.653  0.00  0.00     0.056 A 
ATOM     36  H   LIG d   1       6.707   1.806  -7.690  0.00  0.00     0.170 HD
ATOM     37  C   LIG d   1       4.343  -0.470  -8.604  0.00  0.00     0.063 A 
ATOM     38  C   LIG d   1       4.926   1.612  -9.675  0.00  0.00    -0.037 A 
ATOM     39  C   LIG d   1       4.579  -1.422  -7.504  0.00  0.00     0.265 A 
ATOM     40  C   LIG d   1       3.374  -0.703  -9.578  0.00  0.00    -0.047 A 
ATOM     41  O   LIG d   1       3.930  -2.447  -7.415  0.00  0.00    -0.267 OA
ATOM     42  C   LIG d   1       3.191   0.219 -10.588  0.00  0.00    -0.061 A 
ATOM     43  H   LIG d   1       2.772  -1.599  -9.544  0.00  0.00     0.063 H 
ATOM     44  C   LIG d   1       3.963   1.370 -10.635  0.00  0.00    -0.060 A 
ATOM     45  H   LIG d   1       2.442   0.044 -11.345  0.00  0.00     0.062 H 
ATOM     46  H   LIG d   1       3.810   2.085 -11.431  0.00  0.00     0.062 H 
ATOM     47  H   LIG d   1       5.522   2.512  -9.720  0.00  0.00     0.064 H 
ENDBRANCH  15  31
ENDBRANCH   1  15
BRANCH   7  48
ATOM     48  C   LIG d   1       7.452  -6.003  -6.446  0.00  0.00     0.236 C 
ATOM     49  O   LIG d   1       7.472  -6.319  -5.276  0.00  0.00    -0.274 OA
ATOM     50  N   LIG d   1       6.776  -6.757  -7.336  0.00  0.00    -0.300 N 
ATOM     51  C   LIG d   1       6.061  -7.965  -6.903  0.00  0.00     0.015 C 
ATOM     52  C   LIG d   1       6.735  -6.384  -8.756  0.00  0.00     0.015 C 
ATOM     53  C   LIG d   1       4.607  -7.874  -7.377  0.00  0.00    -0.029 C 
ATOM     54  H   LIG d   1       6.541  -8.853  -7.340  0.00  0.00     0.046 H 
ATOM     55  H   LIG d   1       6.091  -8.035  -5.805  0.00  0.00     0.046 H 
ATOM     56  C   LIG d   1       4.582  -7.638  -8.889  0.00  0.00     0.001 C 
ATOM     57  H   LIG d   1       4.104  -7.040  -6.867  0.00  0.00     0.029 H 
ATOM     58  H   LIG d   1       4.084  -8.814  -7.144  0.00  0.00     0.029 H 
ATOM     59  C   LIG d   1       5.279  -6.314  -9.211  0.00  0.00    -0.029 C 
ATOM     60  H   LIG d   1       5.093  -8.464  -9.404  0.00  0.00     0.036 H 
ATOM     61  H   LIG d   1       4.769  -5.492  -8.685  0.00  0.00     0.029 H 
ATOM     62  H   LIG d   1       5.242  -6.133 -10.296  0.00  0.00     0.029 H 
ATOM     63  H   LIG d   1       7.213  -5.403  -8.891  0.00  0.00     0.046 H 
ATOM     64  H   LIG d   1       7.273  -7.138  -9.349  0.00  0.00     0.046 H 
BRANCH  56  65
ATOM     65  C   LIG d   1       3.153  -7.582  -9.365  0.00  0.00     0.045 C 
ATOM     66  O   LIG d   1       2.666  -8.532  -9.929  0.00  0.00    -0.549 OA
ATOM     67  O   LIG d   1       2.421  -6.476  -9.160  0.00  0.00    -0.549 OA
ENDBRANCH  56  65
ENDBRANCH   7  48
TORSDOF 6
ENDMDL
MODEL 8
REMARK VINA RESULT:      -7.1      1.865      2.566
REMARK  6 active torsions:
REMARK  status: ('A' for Active; 'I' for Inactive)
REMARK    1  A    between atoms: C_4  and  C_7 
REMARK    2  A    between atoms: C_7  and  C_8 
REMARK    3  A    between atoms: C_8  and  C_10 
REMARK    4  A    between atoms: C_8  and  N_29 
REMARK       I    between atoms: C_10  and  N_12 
REMARK    5  A    between atoms: C_16  and  C_18 
REMARK       I    between atoms: C_18  and  N_20 
REMARK    6  A    between atoms: C_23  and  C_26 
ROOT
ATOM      1  C   LIG d   1       5.558  -1.463  -8.583  0.00  0.00     0.240 C 
ATOM      2  O   LIG d   1       5.994  -0.345  -8.408  0.00  0.00    -0.273 OA
ATOM      3  N   LIG d   1       6.288  -2.374  -9.255  0.00  0.00    -0.288 N 
ATOM      4  C   LIG d   1       5.849  -3.730  -9.617  0.00  0.00     0.016 C 
ATOM      5  C   LIG d   1       7.004  -4.395 -10.395  0.00  0.00    -0.035 C 
ATOM      6  C   LIG d   1       7.813  -3.179 -10.921  0.00  0.00    -0.024 C 
ATOM      7  C   LIG d   1       7.663  -2.177  -9.751  0.00  0.00     0.102 C 
ATOM      8  H   LIG d   1       8.390  -2.323  -8.939  0.00  0.00     0.060 H 
ATOM      9  H   LIG d   1       5.623  -4.299  -8.702  0.00  0.00     0.046 H 
ATOM     10  H   LIG d   1       4.946  -3.669 -10.243  0.00  0.00     0.046 H 
ATOM     11  H   LIG d   1       7.589  -5.029  -9.713  0.00  0.00     0.028 H 
ATOM     12  H   LIG d   1       6.592  -5.013 -11.206  0.00  0.00     0.028 H 
ATOM     13  H   LIG d   1       8.854  -3.484 -11.104  0.00  0.00     0.029 H 
ATOM     14  H   LIG d   1       7.366  -2.822 -11.861  0.00  0.00     0.029 H 
ENDROOT
BRANCH   1  15
ATOM     15  C   LIG d   1       4.199  -1.832  -8.048  0.00  0.00     0.122 C 
ATOM     16  H   LIG d   1       3.939  -2.853  -8.365  0.00  0.00     0.063 H 
BRANCH  15  17
ATOM     17  C   LIG d   1       3.163  -0.821  -8.544  0.00  0.00     0.002 C 
ATOM     18  H   LIG d   1       3.677   0.084  -8.903  0.00  0.00     0.034 H 
ATOM     19  H   LIG d   1       2.486  -0.555  -7.720  0.00  0.00     0.034 H 
BRANCH  17  20
ATOM     20  C   LIG d   1       2.369  -1.428  -9.672  0.00  0.00    -0.045 A 
ATOM     21  C   LIG d   1       1.751  -0.609 -10.600  0.00  0.00    -0.059 A 
ATOM     22  C   LIG d   1       1.022  -1.165 -11.634  0.00  0.00    -0.061 A 
ATOM     23  H   LIG d   1       1.838   0.464 -10.516  0.00  0.00     0.062 H 
ATOM     24  C   LIG d   1       0.911  -2.538 -11.742  0.00  0.00    -0.062 A 
ATOM     25  H   LIG d   1       0.539  -0.525 -12.359  0.00  0.00     0.062 H 
ATOM     26  C   LIG d   1       1.529  -3.357 -10.815  0.00  0.00    -0.061 A 
ATOM     27  H   LIG d   1       0.341  -2.973 -12.551  0.00  0.00     0.062 H 
ATOM     28  C   LIG d   1       2.262  -2.801  -9.782  0.00  0.00    -0.059 A 
ATOM     29  H   LIG d   1       1.442  -4.430 -10.899  0.00  0.00     0.062 H 
ATOM     30  H   LIG d   1       2.747  -3.441  -9.060  0.00  0.00     0.062 H 
ENDBRANCH  17  20
ENDBRANCH  15  17
BRANCH  15  31
ATOM     31  N   LIG d   1       4.230  -1.820  -6.583  0.00  0.00    -0.248 N 
ATOM     32  C   LIG d   1       4.383  -2.976  -5.918  0.00  0.00     0.331 A 
ATOM     33  N   LIG d   1       4.425  -3.045  -4.576  0.00  0.00    -0.307 N 
ATOM     34  O   LIG d   1       4.492  -4.005  -6.557  0.00  0.00    -0.246 OA
ATOM     35  C   LIG d   1       4.299  -1.898  -3.806  0.00  0.00     0.056 A 
ATOM     36  H   LIG d   1       4.561  -4.022  -4.091  0.00  0.00     0.170 HD
ATOM     37  C   LIG d   1       4.132  -0.662  -4.454  0.00  0.00     0.063 A 
ATOM     38  C   LIG d   1       4.334  -1.946  -2.421  0.00  0.00    -0.037 A 
ATOM     39  C   LIG d   1       4.099  -0.647  -5.928  0.00  0.00     0.265 A 
ATOM     40  C   LIG d   1       4.002   0.506  -3.706  0.00  0.00    -0.047 A 
ATOM     41  O   LIG d   1       3.956   0.397  -6.537  0.00  0.00    -0.267 OA
ATOM     42  C   LIG d   1       4.040   0.438  -2.329  0.00  0.00    -0.061 A 
ATOM     43  H   LIG d   1       3.875   1.457  -4.201  0.00  0.00     0.063 H 
ATOM     44  C   LIG d   1       4.205  -0.781  -1.691  0.00  0.00    -0.060 A 
ATOM     45  H   LIG d   1       3.940   1.341  -1.745  0.00  0.00     0.062 H 
ATOM     46  H   LIG d   1       4.233  -0.821  -0.611  0.00  0.00     0.062 H 
ATOM     47  H   LIG d   1       4.462  -2.892  -1.915  0.00  0.00     0.064 H 
ENDBRANCH  15  31
ENDBRANCH   1  15
BRANCH   7  48
ATOM     48  C   LIG d   1       7.844  -0.764 -10.245  0.00  0.00     0.236 C 
ATOM     49  O   LIG d   1       7.222  -0.374 -11.210  0.00  0.00    -0.274 OA
ATOM     50  N   LIG d   1       8.693   0.068  -9.609  0.00  0.00    -0.300 N 
ATOM     51  C   LIG d   1       8.876   1.449 -10.075  0.00  0.00     0.015 C 
ATOM     52  C   LIG d   1       9.449  -0.387  -8.435  0.00  0.00     0.015 C 
ATOM     53  C   LIG d   1       8.637   2.402  -8.899  0.00  0.00    -0.029 C 
ATOM     54  H   LIG d   1       9.901   1.576 -10.455  0.00  0.00     0.046 H 
ATOM     55  H   LIG d   1       8.157   1.663 -10.880  0.00  0.00     0.046 H 
ATOM     56  C   LIG d   1       9.546   2.006  -7.734  0.00  0.00     0.001 C 
ATOM     57  H   LIG d   1       7.585   2.339  -8.581  0.00  0.00     0.029 H 
ATOM     58  H   LIG d   1       8.864   3.433  -9.208  0.00  0.00     0.029 H 
ATOM     59  C   LIG d   1       9.207   0.584  -7.281  0.00  0.00    -0.029 C 
ATOM     60  H   LIG d   1      10.599   2.057  -8.048  0.00  0.00     0.036 H 
ATOM     61  H   LIG d   1       8.151   0.537  -6.976  0.00  0.00     0.029 H 
ATOM     62  H   LIG d   1       9.847   0.307  -6.429  0.00  0.00     0.029 H 
ATOM     63  H   LIG d   1       9.111  -1.394  -8.149  0.00  0.00     0.046 H 
ATOM     64  H   LIG d   1      10.521  -0.416  -8.677  0.00  0.00     0.046 H 
BRANCH  56  65
ATOM     65  C   LIG d   1       9.338   2.962  -6.587  0.00  0.00     0.045 C 
ATOM     66  O   LIG d   1       9.624   4.128  -6.713  0.00  0.00    -0.549 OA
ATOM     67  O   LIG d   1       8.833   2.516  -5.426  0.00  0.00    -0.549 OA
ENDBRANCH  56  65
ENDBRANCH   7  48
TORSDOF 6
ENDMDL
MODEL 9
REMARK VINA RESULT:      -7.0      2.537      6.795
REMARK  6 active torsions:
REMARK  status: ('A' for Active; 'I' for Inactive)
REMARK    1  A    between atoms: C_4  and  C_7 
REMARK    2  A    between atoms: C_7  and  C_8 
REMARK    3  A    between atoms: C_8  and  C_10 
REMARK    4  A    between atoms: C_8  and  N_29 
REMARK       I    between atoms: C_10  and  N_12 
REMARK    5  A    between atoms: C_16  and  C_18 
REMARK       I    between atoms: C_18  and  N_20 
REMARK    6  A    between atoms: C_23  and  C_26 
ROOT
ATOM      1  C   LIG d   1       8.335   0.416  -7.219  0.00  0.00     0.240 C 
ATOM      2  O   LIG d   1       7.415  -0.286  -7.584  0.00  0.00    -0.273 OA
ATOM      3  N   LIG d   1       8.842   1.347  -8.049  0.00  0.00    -0.288 N 
ATOM      4  C   LIG d   1      10.009   2.200  -7.774  0.00  0.00     0.016 C 
ATOM      5  C   LIG d   1      10.230   3.091  -9.015  0.00  0.00    -0.035 C 
ATOM      6  C   LIG d   1       9.523   2.294 -10.144  0.00  0.00    -0.024 C 
ATOM      7  C   LIG d   1       8.319   1.683  -9.386  0.00  0.00     0.102 C 
ATOM      8  H   LIG d   1       7.453   2.356  -9.303  0.00  0.00     0.060 H 
ATOM      9  H   LIG d   1       9.811   2.818  -6.886  0.00  0.00     0.046 H 
ATOM     10  H   LIG d   1      10.891   1.567  -7.591  0.00  0.00     0.046 H 
ATOM     11  H   LIG d   1       9.775   4.077  -8.844  0.00  0.00     0.028 H 
ATOM     12  H   LIG d   1      11.309   3.211  -9.193  0.00  0.00     0.028 H 
ATOM     13  H   LIG d   1       9.227   2.984 -10.949  0.00  0.00     0.029 H 
ATOM     14  H   LIG d   1      10.214   1.538 -10.546  0.00  0.00     0.029 H 
ENDROOT
BRANCH   1  15
ATOM     15  C   LIG d   1       8.911   0.243  -5.838  0.00  0.00     0.122 C 
ATOM     16  H   LIG d   1       9.631   1.049  -5.631  0.00  0.00     0.063 H 
BRANCH  15  17
ATOM     17  C   LIG d   1       9.577  -1.130  -5.730  0.00  0.00     0.002 C 
ATOM     18  H   LIG d   1       9.699  -1.558  -6.737  0.00  0.00     0.034 H 
ATOM     19  H   LIG d   1       8.948  -1.796  -5.122  0.00  0.00     0.034 H 
BRANCH  17  20
ATOM     20  C   LIG d   1      10.929  -0.983  -5.080  0.00  0.00    -0.045 A 
ATOM     21  C   LIG d   1      11.418   0.274  -4.779  0.00  0.00    -0.059 A 
ATOM     22  C   LIG d   1      12.658   0.410  -4.184  0.00  0.00    -0.061 A 
ATOM     23  H   LIG d   1      10.832   1.152  -5.010  0.00  0.00     0.062 H 
ATOM     24  C   LIG d   1      13.410  -0.712  -3.889  0.00  0.00    -0.062 A 
ATOM     25  H   LIG d   1      13.040   1.392  -3.949  0.00  0.00     0.062 H 
ATOM     26  C   LIG d   1      12.920  -1.970  -4.190  0.00  0.00    -0.061 A 
ATOM     27  H   LIG d   1      14.379  -0.607  -3.424  0.00  0.00     0.062 H 
ATOM     28  C   LIG d   1      11.678  -2.106  -4.781  0.00  0.00    -0.059 A 
ATOM     29  H   LIG d   1      13.507  -2.847  -3.959  0.00  0.00     0.062 H 
ATOM     30  H   LIG d   1      11.295  -3.088  -5.012  0.00  0.00     0.062 H 
ENDBRANCH  17  20
ENDBRANCH  15  17
BRANCH  15  31
ATOM     31  N   LIG d   1       7.839   0.344  -4.845  0.00  0.00    -0.248 N 
ATOM     32  C   LIG d   1       7.513   1.548  -4.347  0.00  0.00     0.331 A 
ATOM     33  N   LIG d   1       6.539   1.721  -3.437  0.00  0.00    -0.307 N 
ATOM     34  O   LIG d   1       8.123   2.524  -4.739  0.00  0.00    -0.246 OA
ATOM     35  C   LIG d   1       5.820   0.636  -2.957  0.00  0.00     0.056 A 
ATOM     36  H   LIG d   1       6.314   2.734  -3.075  0.00  0.00     0.170 HD
ATOM     37  C   LIG d   1       6.126  -0.647  -3.442  0.00  0.00     0.063 A 
ATOM     38  C   LIG d   1       4.815   0.791  -2.014  0.00  0.00    -0.037 A 
ATOM     39  C   LIG d   1       7.200  -0.776  -4.443  0.00  0.00     0.265 A 
ATOM     40  C   LIG d   1       5.420  -1.755  -2.977  0.00  0.00    -0.047 A 
ATOM     41  O   LIG d   1       7.503  -1.864  -4.896  0.00  0.00    -0.267 OA
ATOM     42  C   LIG d   1       4.423  -1.581  -2.040  0.00  0.00    -0.061 A 
ATOM     43  H   LIG d   1       5.652  -2.742  -3.349  0.00  0.00     0.063 H 
ATOM     44  C   LIG d   1       4.123  -0.316  -1.562  0.00  0.00    -0.060 A 
ATOM     45  H   LIG d   1       3.874  -2.437  -1.676  0.00  0.00     0.062 H 
ATOM     46  H   LIG d   1       3.340  -0.193  -0.827  0.00  0.00     0.062 H 
ATOM     47  H   LIG d   1       4.574   1.773  -1.636  0.00  0.00     0.064 H 
ENDBRANCH  15  31
ENDBRANCH   1  15
BRANCH   7  48
ATOM     48  C   LIG d   1       7.836   0.439 -10.087  0.00  0.00     0.236 C 
ATOM     49  O   LIG d   1       8.626  -0.421 -10.410  0.00  0.00    -0.274 OA
ATOM     50  N   LIG d   1       6.523   0.280 -10.349  0.00  0.00    -0.300 N 
ATOM     51  C   LIG d   1       6.036  -0.929 -11.025  0.00  0.00     0.015 C 
ATOM     52  C   LIG d   1       5.551   1.310  -9.957  0.00  0.00     0.015 C 
ATOM     53  C   LIG d   1       4.924  -1.555 -10.177  0.00  0.00    -0.029 C 
ATOM     54  H   LIG d   1       5.642  -0.661 -12.017  0.00  0.00     0.046 H 
ATOM     55  H   LIG d   1       6.864  -1.644 -11.140  0.00  0.00     0.046 H 
ATOM     56  C   LIG d   1       3.842  -0.507  -9.907  0.00  0.00     0.001 C 
ATOM     57  H   LIG d   1       5.342  -1.905  -9.221  0.00  0.00     0.029 H 
ATOM     58  H   LIG d   1       4.484  -2.406 -10.716  0.00  0.00     0.029 H 
ATOM     59  C   LIG d   1       4.447   0.662  -9.125  0.00  0.00    -0.029 C 
ATOM     60  H   LIG d   1       3.427  -0.145 -10.859  0.00  0.00     0.036 H 
ATOM     61  H   LIG d   1       4.868   0.293  -8.179  0.00  0.00     0.029 H 
ATOM     62  H   LIG d   1       3.664   1.406  -8.913  0.00  0.00     0.029 H 
ATOM     63  H   LIG d   1       6.058   2.084  -9.362  0.00  0.00     0.046 H 
ATOM     64  H   LIG d   1       5.118   1.767 -10.859  0.00  0.00     0.046 H 
BRANCH  56  65
ATOM     65  C   LIG d   1       2.731  -1.129  -9.101  0.00  0.00     0.045 C 
ATOM     66  O   LIG d   1       2.111  -0.460  -8.309  0.00  0.00    -0.549 OA
ATOM     67  O   LIG d   1       2.429  -2.426  -9.264  0.00  0.00    -0.549 OA
ENDBRANCH  56  65
ENDBRANCH   7  48
TORSDOF 6
ENDMDL
MODEL 10
REMARK VINA RESULT:      -6.9      4.130      7.677
REMARK  6 active torsions:
REMARK  status: ('A' for Active; 'I' for Inactive)
REMARK    1  A    between atoms: C_4  and  C_7 
REMARK    2  A    between atoms: C_7  and  C_8 
REMARK    3  A    between atoms: C_8  and  C_10 
REMARK    4  A    between atoms: C_8  and  N_29 
REMARK       I    between atoms: C_10  and  N_12 
REMARK    5  A    between atoms: C_16  and  C_18 
REMARK       I    between atoms: C_18  and  N_20 
REMARK    6  A    between atoms: C_23  and  C_26 
ROOT
ATOM      1  C   LIG d   1       7.002  -3.213  -4.960  0.00  0.00     0.240 C 
ATOM      2  O   LIG d   1       6.960  -4.375  -4.614  0.00  0.00    -0.273 OA
ATOM      3  N   LIG d   1       8.188  -2.622  -5.198  0.00  0.00    -0.288 N 
ATOM      4  C   LIG d   1       8.391  -1.204  -5.533  0.00  0.00     0.016 C 
ATOM      5  C   LIG d   1       9.910  -0.983  -5.695  0.00  0.00    -0.035 C 
ATOM      6  C   LIG d   1      10.520  -2.157  -4.885  0.00  0.00    -0.024 C 
ATOM      7  C   LIG d   1       9.502  -3.290  -5.167  0.00  0.00     0.102 C 
ATOM      8  H   LIG d   1       9.682  -3.831  -6.108  0.00  0.00     0.060 H 
ATOM      9  H   LIG d   1       7.866  -0.970  -6.472  0.00  0.00     0.046 H 
ATOM     10  H   LIG d   1       7.993  -0.575  -4.723  0.00  0.00     0.046 H 
ATOM     11  H   LIG d   1      10.175  -1.021  -6.761  0.00  0.00     0.028 H 
ATOM     12  H   LIG d   1      10.182   0.001  -5.285  0.00  0.00     0.028 H 
ATOM     13  H   LIG d   1      11.530  -2.376  -5.261  0.00  0.00     0.029 H 
ATOM     14  H   LIG d   1      10.577  -1.879  -3.822  0.00  0.00     0.029 H 
ENDROOT
BRANCH   1  15
ATOM     15  C   LIG d   1       5.724  -2.431  -5.123  0.00  0.00     0.122 C 
ATOM     16  H   LIG d   1       5.956  -1.368  -5.285  0.00  0.00     0.063 H 
BRANCH  15  17
ATOM     17  C   LIG d   1       4.849  -2.619  -3.881  0.00  0.00     0.002 C 
ATOM     18  H   LIG d   1       5.425  -3.142  -3.103  0.00  0.00     0.034 H 
ATOM     19  H   LIG d   1       3.963  -3.216  -4.144  0.00  0.00     0.034 H 
BRANCH  17  20
ATOM     20  C   LIG d   1       4.413  -1.272  -3.364  0.00  0.00    -0.045 A 
ATOM     21  C   LIG d   1       3.522  -0.508  -4.093  0.00  0.00    -0.059 A 
ATOM     22  C   LIG d   1       3.122   0.727  -3.620  0.00  0.00    -0.061 A 
ATOM     23  H   LIG d   1       3.138  -0.875  -5.034  0.00  0.00     0.062 H 
ATOM     24  C   LIG d   1       3.613   1.199  -2.417  0.00  0.00    -0.062 A 
ATOM     25  H   LIG d   1       2.425   1.325  -4.190  0.00  0.00     0.062 H 
ATOM     26  C   LIG d   1       4.504   0.434  -1.687  0.00  0.00    -0.061 A 
ATOM     27  H   LIG d   1       3.300   2.165  -2.047  0.00  0.00     0.062 H 
ATOM     28  C   LIG d   1       4.901  -0.804  -2.159  0.00  0.00    -0.059 A 
ATOM     29  H   LIG d   1       4.888   0.802  -0.747  0.00  0.00     0.062 H 
ATOM     30  H   LIG d   1       5.594  -1.402  -1.587  0.00  0.00     0.062 H 
ENDBRANCH  17  20
ENDBRANCH  15  17
BRANCH  15  31
ATOM     31  N   LIG d   1       5.004  -2.910  -6.304  0.00  0.00    -0.248 N 
ATOM     32  C   LIG d   1       4.260  -4.025  -6.215  0.00  0.00     0.331 A 
ATOM     33  N   LIG d   1       3.567  -4.523  -7.254  0.00  0.00    -0.307 N 
ATOM     34  O   LIG d   1       4.207  -4.605  -5.148  0.00  0.00    -0.246 OA
ATOM     35  C   LIG d   1       3.602  -3.898  -8.492  0.00  0.00     0.056 A 
ATOM     36  H   LIG d   1       2.970  -5.435  -7.115  0.00  0.00     0.170 HD
ATOM     37  C   LIG d   1       4.370  -2.731  -8.639  0.00  0.00     0.063 A 
ATOM     38  C   LIG d   1       2.900  -4.398  -9.578  0.00  0.00    -0.037 A 
ATOM     39  C   LIG d   1       5.104  -2.226  -7.465  0.00  0.00     0.265 A 
ATOM     40  C   LIG d   1       4.424  -2.082  -9.871  0.00  0.00    -0.047 A 
ATOM     41  O   LIG d   1       5.784  -1.219  -7.539  0.00  0.00    -0.267 OA
ATOM     42  C   LIG d   1       3.719  -2.594 -10.940  0.00  0.00    -0.061 A 
ATOM     43  H   LIG d   1       5.013  -1.184  -9.988  0.00  0.00     0.063 H 
ATOM     44  C   LIG d   1       2.962  -3.746 -10.793  0.00  0.00    -0.060 A 
ATOM     45  H   LIG d   1       3.758  -2.095 -11.897  0.00  0.00     0.062 H 
ATOM     46  H   LIG d   1       2.414  -4.137 -11.638  0.00  0.00     0.062 H 
ATOM     47  H   LIG d   1       2.308  -5.295  -9.473  0.00  0.00     0.064 H 
ENDBRANCH  15  31
ENDBRANCH   1  15
BRANCH   7  48
ATOM     48  C   LIG d   1       9.542  -4.316  -4.064  0.00  0.00     0.236 C 
ATOM     49  O   LIG d   1       9.438  -3.969  -2.907  0.00  0.00    -0.274 OA
ATOM     50  N   LIG d   1       9.686  -5.623  -4.364  0.00  0.00    -0.300 N 
ATOM     51  C   LIG d   1       9.720  -6.636  -3.300  0.00  0.00     0.015 C 
ATOM     52  C   LIG d   1       9.805  -6.062  -5.761  0.00  0.00     0.015 C 
ATOM     53  C   LIG d   1       8.665  -7.706  -3.604  0.00  0.00    -0.029 C 
ATOM     54  H   LIG d   1      10.718  -7.096  -3.264  0.00  0.00     0.046 H 
ATOM     55  H   LIG d   1       9.499  -6.160  -2.333  0.00  0.00     0.046 H 
ATOM     56  C   LIG d   1       8.900  -8.262  -5.010  0.00  0.00     0.001 C 
ATOM     57  H   LIG d   1       7.661  -7.259  -3.549  0.00  0.00     0.029 H 
ATOM     58  H   LIG d   1       8.744  -8.520  -2.869  0.00  0.00     0.029 H 
ATOM     59  C   LIG d   1       8.756  -7.136  -6.036  0.00  0.00    -0.029 C 
ATOM     60  H   LIG d   1       9.906  -8.700  -5.074  0.00  0.00     0.036 H 
ATOM     61  H   LIG d   1       7.750  -6.696  -5.961  0.00  0.00     0.029 H 
ATOM     62  H   LIG d   1       8.903  -7.541  -7.049  0.00  0.00     0.029 H 
ATOM     63  H   LIG d   1       9.642  -5.204  -6.429  0.00  0.00     0.046 H 
ATOM     64  H   LIG d   1      10.811  -6.473  -5.931  0.00  0.00     0.046 H 
BRANCH  56  65
ATOM     65  C   LIG d   1       7.885  -9.339  -5.299  0.00  0.00     0.045 C 
ATOM     66  O   LIG d   1       7.838  -9.847  -6.393  0.00  0.00    -0.549 OA
ATOM     67  O   LIG d   1       7.034  -9.733  -4.338  0.00  0.00    -0.549 OA
ENDBRANCH  56  65
ENDBRANCH   7  48
TORSDOF 6
ENDMDL
