MODEL 1
REMARK VINA RESULT:      -6.1      0.000      0.000
REMARK  11 active torsions:
REMARK  status: ('A' for Active; 'I' for Inactive)
REMARK    1  A    between atoms: C_1  and  C_2 
REMARK       I    between atoms: C_2  and  N_4 
REMARK    2  A    between atoms: N_4  and  C_5 
REMARK    3  A    between atoms: C_8  and  C_11 
REMARK    4  A    between atoms: C_11  and  N_12 
REMARK    5  A    between atoms: C_16  and  C_18 
REMARK    6  A    between atoms: C_20  and  C_23 
REMARK    7  A    between atoms: C_28  and  O_29 
REMARK    8  A    between atoms: O_29  and  C_30 
REMARK    9  A    between atoms: C_30  and  C_31 
REMARK   10  A    between atoms: C_31  and  O_32 
REMARK   11  A    between atoms: O_32  and  C_33 
ROOT
ATOM      1  N   LIG d   1       4.692  -0.940  -3.660  0.00  0.00     0.247 N 
ATOM      2  C   LIG d   1       5.387  -0.359  -2.491  0.00  0.00    -0.031 C 
ATOM      3  C   LIG d   1       4.658   0.981  -2.223  0.00  0.00    -0.007 C 
ATOM      4  C   LIG d   1       3.186   0.607  -2.545  0.00  0.00     0.004 C 
ATOM      5  C   LIG d   1       3.328  -0.382  -3.720  0.00  0.00     0.060 C 
ATOM      6  H   LIG d   1       2.596  -1.183  -3.620  0.00  0.00     0.095 H 
ATOM      7  H   LIG d   1       5.296  -1.020  -1.629  0.00  0.00     0.082 H 
ATOM      8  H   LIG d   1       6.436  -0.180  -2.724  0.00  0.00     0.082 H 
ATOM      9  H   LIG d   1       4.765   1.283  -1.181  0.00  0.00     0.032 H 
ATOM     10  H   LIG d   1       5.017   1.762  -2.893  0.00  0.00     0.032 H 
ATOM     11  H   LIG d   1       2.716   0.124  -1.688  0.00  0.00     0.033 H 
ATOM     12  H   LIG d   1       2.623   1.489  -2.849  0.00  0.00     0.033 H 
ATOM     13  H   LIG d   1       5.193  -0.702  -4.503  0.00  0.00     0.204 HD
ENDROOT
BRANCH   5  14
ATOM     14  C   LIG d   1       3.127   0.341  -5.027  0.00  0.00     0.276 A 
ATOM     15  O   LIG d   1       2.473   1.498  -5.188  0.00  0.00    -0.332 OA
ATOM     16  N   LIG d   1       2.533   1.804  -6.573  0.00  0.00    -0.056 NA
ATOM     17  C   LIG d   1       3.198   0.827  -7.139  0.00  0.00     0.207 A 
ATOM     18  N   LIG d   1       3.555  -0.058  -6.190  0.00  0.00    -0.186 NA
BRANCH  17  19
ATOM     19  C   LIG d   1       3.507   0.715  -8.586  0.00  0.00     0.084 A 
ATOM     20  C   LIG d   1       4.730   1.172  -9.090  0.00  0.00     0.226 A 
ATOM     21  N   LIG d   1       5.006   1.066 -10.378  0.00  0.00    -0.221 NA
ATOM     22  C   LIG d   1       4.146   0.543 -11.232  0.00  0.00     0.031 A 
ATOM     23  C   LIG d   1       2.916   0.076 -10.810  0.00  0.00    -0.043 A 
ATOM     24  H   LIG d   1       4.408   0.479 -12.278  0.00  0.00     0.083 H 
ATOM     25  C   LIG d   1       2.580   0.158  -9.468  0.00  0.00    -0.044 A 
ATOM     26  H   LIG d   1       2.222  -0.350 -11.520  0.00  0.00     0.063 H 
ATOM     27  H   LIG d   1       1.625  -0.201  -9.114  0.00  0.00     0.063 H 
BRANCH  20  28
ATOM     28  O   LIG d   1       5.641   1.722  -8.250  0.00  0.00    -0.474 OA
BRANCH  28  29
ATOM     29  C   LIG d   1       6.912   1.076  -8.156  0.00  0.00     0.115 C 
ATOM     30  H   LIG d   1       7.169   0.639  -9.121  0.00  0.00     0.072 H 
ATOM     31  H   LIG d   1       7.670   1.806  -7.873  0.00  0.00     0.072 H 
BRANCH  29  32
ATOM     32  C   LIG d   1       6.848  -0.027  -7.098  0.00  0.00     0.081 C 
ATOM     33  H   LIG d   1       5.983  -0.663  -7.289  0.00  0.00     0.059 H 
ATOM     34  H   LIG d   1       7.757  -0.626  -7.142  0.00  0.00     0.059 H 
BRANCH  32  35
ATOM     35  O   LIG d   1       6.728   0.563  -5.803  0.00  0.00    -0.380 OA
BRANCH  35  36
ATOM     36  C   LIG d   1       7.923   0.500  -5.022  0.00  0.00     0.037 C 
ATOM     37  H   LIG d   1       7.996  -0.478  -4.547  0.00  0.00     0.052 H 
ATOM     38  H   LIG d   1       8.787   0.655  -5.669  0.00  0.00     0.052 H 
ATOM     39  H   LIG d   1       7.899   1.275  -4.256  0.00  0.00     0.052 H 
ENDBRANCH  35  36
ENDBRANCH  32  35
ENDBRANCH  29  32
ENDBRANCH  28  29
ENDBRANCH  20  28
ENDBRANCH  17  19
ENDBRANCH   5  14
BRANCH   1  40
ATOM     40  C   LIG d   1       4.623  -2.400  -3.518  0.00  0.00    -0.005 C 
ATOM     41  H   LIG d   1       3.583  -2.722  -3.572  0.00  0.00     0.087 H 
ATOM     42  H   LIG d   1       5.044  -2.692  -2.557  0.00  0.00     0.087 H 
BRANCH  40  43
ATOM     43  C   LIG d   1       5.408  -3.050  -4.629  0.00  0.00    -0.003 A 
ATOM     44  C   LIG d   1       6.789  -3.088  -4.567  0.00  0.00    -0.052 A 
ATOM     45  C   LIG d   1       7.511  -3.683  -5.583  0.00  0.00    -0.040 A 
ATOM     46  H   LIG d   1       7.303  -2.652  -3.723  0.00  0.00     0.062 H 
ATOM     47  C   LIG d   1       6.848  -4.244  -6.668  0.00  0.00     0.033 A 
ATOM     48  H   LIG d   1       8.589  -3.712  -5.534  0.00  0.00     0.064 H 
ATOM     49  C   LIG d   1       5.462  -4.199  -6.729  0.00  0.00    -0.040 A 
ATOM     50  C   LIG d   1       4.745  -3.608  -5.706  0.00  0.00    -0.052 A 
ATOM     51  H   LIG d   1       4.944  -4.630  -7.573  0.00  0.00     0.064 H 
ATOM     52  H   LIG d   1       3.667  -3.578  -5.752  0.00  0.00     0.062 H 
BRANCH  47  53
ATOM     53  N   LIG d   1       7.577  -4.847  -7.698  0.00  0.00    -0.286 N 
ATOM     54  C   LIG d   1       8.008  -4.110  -8.741  0.00  0.00     0.214 C 
ATOM     55  O   LIG d   1       7.693  -2.942  -8.828  0.00  0.00    -0.276 OA
ATOM     56  H   LIG d   1       7.772  -5.797  -7.662  0.00  0.00     0.155 HD
BRANCH  54  57
ATOM     57  C   LIG d   1       8.880  -4.736  -9.798  0.00  0.00     0.013 C 
ATOM     58  H   LIG d   1       9.012  -5.795  -9.579  0.00  0.00     0.032 H 
ATOM     59  H   LIG d   1       8.407  -4.622 -10.773  0.00  0.00     0.032 H 
ATOM     60  H   LIG d   1       9.853  -4.243  -9.806  0.00  0.00     0.032 H 
ENDBRANCH  54  57
ENDBRANCH  47  53
ENDBRANCH  40  43
ENDBRANCH   1  40
TORSDOF 11
ENDMDL
MODEL 2
REMARK VINA RESULT:      -6.0      1.347      1.452
REMARK  11 active torsions:
REMARK  status: ('A' for Active; 'I' for Inactive)
REMARK    1  A    between atoms: C_1  and  C_2 
REMARK       I    between atoms: C_2  and  N_4 
REMARK    2  A    between atoms: N_4  and  C_5 
REMARK    3  A    between atoms: C_8  and  C_11 
REMARK    4  A    between atoms: C_11  and  N_12 
REMARK    5  A    between atoms: C_16  and  C_18 
REMARK    6  A    between atoms: C_20  and  C_23 
REMARK    7  A    between atoms: C_28  and  O_29 
REMARK    8  A    between atoms: O_29  and  C_30 
REMARK    9  A    between atoms: C_30  and  C_31 
REMARK   10  A    between atoms: C_31  and  O_32 
REMARK   11  A    between atoms: O_32  and  C_33 
ROOT
ATOM      1  N   LIG d   1       4.981  -0.798  -3.717  0.00  0.00     0.247 N 
ATOM      2  C   LIG d   1       5.478  -0.156  -2.481  0.00  0.00    -0.031 C 
ATOM      3  C   LIG d   1       4.479   0.994  -2.203  0.00  0.00    -0.007 C 
ATOM      4  C   LIG d   1       3.134   0.352  -2.636  0.00  0.00     0.004 C 
ATOM      5  C   LIG d   1       3.537  -0.522  -3.841  0.00  0.00     0.060 C 
ATOM      6  H   LIG d   1       2.979  -1.458  -3.824  0.00  0.00     0.095 H 
ATOM      7  H   LIG d   1       5.476  -0.868  -1.656  0.00  0.00     0.082 H 
ATOM      8  H   LIG d   1       6.480   0.242  -2.637  0.00  0.00     0.082 H 
ATOM      9  H   LIG d   1       4.465   1.254  -1.145  0.00  0.00     0.032 H 
ATOM     10  H   LIG d   1       4.708   1.868  -2.815  0.00  0.00     0.032 H 
ATOM     11  H   LIG d   1       2.725  -0.262  -1.833  0.00  0.00     0.033 H 
ATOM     12  H   LIG d   1       2.420   1.119  -2.937  0.00  0.00     0.033 H 
ATOM     13  H   LIG d   1       5.469  -0.419  -4.514  0.00  0.00     0.204 HD
ENDROOT
BRANCH   5  14
ATOM     14  C   LIG d   1       3.266   0.217  -5.126  0.00  0.00     0.276 A 
ATOM     15  O   LIG d   1       2.576   1.360  -5.240  0.00  0.00    -0.332 OA
ATOM     16  N   LIG d   1       2.573   1.690  -6.621  0.00  0.00    -0.056 NA
ATOM     17  C   LIG d   1       3.239   0.741  -7.230  0.00  0.00     0.207 A 
ATOM     18  N   LIG d   1       3.656  -0.150  -6.312  0.00  0.00    -0.186 NA
BRANCH  17  19
ATOM     19  C   LIG d   1       3.493   0.661  -8.690  0.00  0.00     0.084 A 
ATOM     20  C   LIG d   1       4.626   1.263  -9.249  0.00  0.00     0.226 A 
ATOM     21  N   LIG d   1       4.853   1.186 -10.548  0.00  0.00    -0.221 NA
ATOM     22  C   LIG d   1       4.026   0.558 -11.362  0.00  0.00     0.031 A 
ATOM     23  C   LIG d   1       2.883  -0.055 -10.885  0.00  0.00    -0.043 A 
ATOM     24  H   LIG d   1       4.246   0.522 -12.419  0.00  0.00     0.083 H 
ATOM     25  C   LIG d   1       2.602  -0.009  -9.529  0.00  0.00    -0.044 A 
ATOM     26  H   LIG d   1       2.215  -0.566 -11.563  0.00  0.00     0.063 H 
ATOM     27  H   LIG d   1       1.715  -0.481  -9.132  0.00  0.00     0.063 H 
BRANCH  20  28
ATOM     28  O   LIG d   1       5.501   1.924  -8.451  0.00  0.00    -0.474 OA
BRANCH  28  29
ATOM     29  C   LIG d   1       6.862   1.489  -8.478  0.00  0.00     0.115 C 
ATOM     30  H   LIG d   1       7.124   1.180  -9.489  0.00  0.00     0.072 H 
ATOM     31  H   LIG d   1       7.510   2.308  -8.167  0.00  0.00     0.072 H 
BRANCH  29  32
ATOM     32  C   LIG d   1       7.039   0.309  -7.521  0.00  0.00     0.081 C 
ATOM     33  H   LIG d   1       6.356  -0.493  -7.803  0.00  0.00     0.059 H 
ATOM     34  H   LIG d   1       8.066  -0.052  -7.576  0.00  0.00     0.059 H 
BRANCH  32  35
ATOM     35  O   LIG d   1       6.752   0.730  -6.187  0.00  0.00    -0.380 OA
BRANCH  35  36
ATOM     36  C   LIG d   1       7.894   0.754  -5.327  0.00  0.00     0.037 C 
ATOM     37  H   LIG d   1       8.802   0.753  -5.928  0.00  0.00     0.052 H 
ATOM     38  H   LIG d   1       7.866   1.655  -4.713  0.00  0.00     0.052 H 
ATOM     39  H   LIG d   1       7.883  -0.125  -4.683  0.00  0.00     0.052 H 
ENDBRANCH  35  36
ENDBRANCH  32  35
ENDBRANCH  29  32
ENDBRANCH  28  29
ENDBRANCH  20  28
ENDBRANCH  17  19
ENDBRANCH   5  14
BRANCH   1  40
ATOM     40  C   LIG d   1       5.203  -2.249  -3.643  0.00  0.00    -0.005 C 
ATOM     41  H   LIG d   1       4.340  -2.769  -4.059  0.00  0.00     0.087 H 
ATOM     42  H   LIG d   1       5.338  -2.543  -2.603  0.00  0.00     0.087 H 
BRANCH  40  43
ATOM     43  C   LIG d   1       6.435  -2.609  -4.432  0.00  0.00    -0.003 A 
ATOM     44  C   LIG d   1       7.666  -2.658  -3.804  0.00  0.00    -0.052 A 
ATOM     45  C   LIG d   1       8.797  -2.989  -4.525  0.00  0.00    -0.040 A 
ATOM     46  H   LIG d   1       7.743  -2.439  -2.749  0.00  0.00     0.062 H 
ATOM     47  C   LIG d   1       8.698  -3.271  -5.881  0.00  0.00     0.033 A 
ATOM     48  H   LIG d   1       9.759  -3.027  -4.033  0.00  0.00     0.064 H 
ATOM     49  C   LIG d   1       7.461  -3.216  -6.509  0.00  0.00    -0.040 A 
ATOM     50  C   LIG d   1       6.332  -2.890  -5.782  0.00  0.00    -0.052 A 
ATOM     51  H   LIG d   1       7.380  -3.430  -7.564  0.00  0.00     0.064 H 
ATOM     52  H   LIG d   1       5.369  -2.852  -6.270  0.00  0.00     0.062 H 
BRANCH  47  53
ATOM     53  N   LIG d   1       9.841  -3.606  -6.613  0.00  0.00    -0.286 N 
ATOM     54  C   LIG d   1      10.588  -2.637  -7.178  0.00  0.00     0.214 C 
ATOM     55  O   LIG d   1      10.223  -1.481  -7.123  0.00  0.00    -0.276 OA
ATOM     56  H   LIG d   1      10.097  -4.537  -6.714  0.00  0.00     0.155 HD
BRANCH  54  57
ATOM     57  C   LIG d   1      11.876  -2.989  -7.877  0.00  0.00     0.013 C 
ATOM     58  H   LIG d   1      12.594  -3.365  -7.149  0.00  0.00     0.032 H 
ATOM     59  H   LIG d   1      11.684  -3.755  -8.627  0.00  0.00     0.032 H 
ATOM     60  H   LIG d   1      12.281  -2.100  -8.362  0.00  0.00     0.032 H 
ENDBRANCH  54  57
ENDBRANCH  47  53
ENDBRANCH  40  43
ENDBRANCH   1  40
TORSDOF 11
ENDMDL
MODEL 3
REMARK VINA RESULT:      -5.8      3.027      5.748
REMARK  11 active torsions:
REMARK  status: ('A' for Active; 'I' for Inactive)
REMARK    1  A    between atoms: C_1  and  C_2 
REMARK       I    between atoms: C_2  and  N_4 
REMARK    2  A    between atoms: N_4  and  C_5 
REMARK    3  A    between atoms: C_8  and  C_11 
REMARK    4  A    between atoms: C_11  and  N_12 
REMARK    5  A    between atoms: C_16  and  C_18 
REMARK    6  A    between atoms: C_20  and  C_23 
REMARK    7  A    between atoms: C_28  and  O_29 
REMARK    8  A    between atoms: O_29  and  C_30 
REMARK    9  A    between atoms: C_30  and  C_31 
REMARK   10  A    between atoms: C_31  and  O_32 
REMARK   11  A    between atoms: O_32  and  C_33 
ROOT
ATOM      1  N   LIG d   1       4.016  -0.519  -4.070  0.00  0.00     0.247 N 
ATOM      2  C   LIG d   1       3.466  -1.539  -3.151  0.00  0.00    -0.031 C 
ATOM      3  C   LIG d   1       4.308  -1.401  -1.858  0.00  0.00    -0.007 C 
ATOM      4  C   LIG d   1       4.522   0.134  -1.785  0.00  0.00     0.004 C 
ATOM      5  C   LIG d   1       4.661   0.536  -3.268  0.00  0.00     0.060 C 
ATOM      6  H   LIG d   1       4.163   1.490  -3.442  0.00  0.00     0.095 H 
ATOM      7  H   LIG d   1       2.416  -1.335  -2.943  0.00  0.00     0.082 H 
ATOM      8  H   LIG d   1       3.583  -2.535  -3.576  0.00  0.00     0.082 H 
ATOM      9  H   LIG d   1       3.755  -1.760  -0.991  0.00  0.00     0.032 H 
ATOM     10  H   LIG d   1       5.260  -1.923  -1.955  0.00  0.00     0.032 H 
ATOM     11  H   LIG d   1       3.658   0.622  -1.333  0.00  0.00     0.033 H 
ATOM     12  H   LIG d   1       5.432   0.370  -1.234  0.00  0.00     0.033 H 
ATOM     13  H   LIG d   1       4.697  -0.947  -4.680  0.00  0.00     0.204 HD
ENDROOT
BRANCH   5  14
ATOM     14  C   LIG d   1       6.119   0.641  -3.637  0.00  0.00     0.276 A 
ATOM     15  O   LIG d   1       6.901  -0.372  -4.028  0.00  0.00    -0.332 OA
ATOM     16  N   LIG d   1       8.186   0.182  -4.271  0.00  0.00    -0.056 NA
ATOM     17  C   LIG d   1       8.092   1.463  -4.007  0.00  0.00     0.207 A 
ATOM     18  N   LIG d   1       6.831   1.731  -3.622  0.00  0.00    -0.186 NA
BRANCH  17  19
ATOM     19  C   LIG d   1       9.192   2.451  -4.116  0.00  0.00     0.084 A 
ATOM     20  C   LIG d   1       9.461   3.086  -5.334  0.00  0.00     0.226 A 
ATOM     21  N   LIG d   1      10.438   3.970  -5.428  0.00  0.00    -0.221 NA
ATOM     22  C   LIG d   1      11.197   4.279  -4.393  0.00  0.00     0.031 A 
ATOM     23  C   LIG d   1      10.997   3.690  -3.159  0.00  0.00    -0.043 A 
ATOM     24  H   LIG d   1      11.989   5.004  -4.512  0.00  0.00     0.083 H 
ATOM     25  C   LIG d   1       9.981   2.760  -3.006  0.00  0.00    -0.044 A 
ATOM     26  H   LIG d   1      11.625   3.952  -2.321  0.00  0.00     0.063 H 
ATOM     27  H   LIG d   1       9.804   2.286  -2.052  0.00  0.00     0.063 H 
BRANCH  20  28
ATOM     28  O   LIG d   1       8.711   2.795  -6.425  0.00  0.00    -0.474 OA
BRANCH  28  29
ATOM     29  C   LIG d   1       9.411   2.513  -7.639  0.00  0.00     0.115 C 
ATOM     30  H   LIG d   1      10.469   2.736  -7.507  0.00  0.00     0.072 H 
ATOM     31  H   LIG d   1       9.290   1.459  -7.890  0.00  0.00     0.072 H 
BRANCH  29  32
ATOM     32  C   LIG d   1       8.843   3.374  -8.767  0.00  0.00     0.081 C 
ATOM     33  H   LIG d   1       8.506   4.329  -8.362  0.00  0.00     0.059 H 
ATOM     34  H   LIG d   1       9.617   3.549  -9.515  0.00  0.00     0.059 H 
BRANCH  32  35
ATOM     35  O   LIG d   1       7.739   2.699  -9.373  0.00  0.00    -0.380 OA
BRANCH  35  36
ATOM     36  C   LIG d   1       7.926   1.288  -9.513  0.00  0.00     0.037 C 
ATOM     37  H   LIG d   1       8.288   0.875  -8.572  0.00  0.00     0.052 H 
ATOM     38  H   LIG d   1       6.976   0.822  -9.773  0.00  0.00     0.052 H 
ATOM     39  H   LIG d   1       8.654   1.095 -10.300  0.00  0.00     0.052 H 
ENDBRANCH  35  36
ENDBRANCH  32  35
ENDBRANCH  29  32
ENDBRANCH  28  29
ENDBRANCH  20  28
ENDBRANCH  17  19
ENDBRANCH   5  14
BRANCH   1  40
ATOM     40  C   LIG d   1       2.929   0.062  -4.870  0.00  0.00    -0.005 C 
ATOM     41  H   LIG d   1       2.716   1.069  -4.515  0.00  0.00     0.087 H 
ATOM     42  H   LIG d   1       2.037  -0.555  -4.772  0.00  0.00     0.087 H 
BRANCH  40  43
ATOM     43  C   LIG d   1       3.346   0.117  -6.317  0.00  0.00    -0.003 A 
ATOM     44  C   LIG d   1       4.362  -0.701  -6.775  0.00  0.00    -0.052 A 
ATOM     45  C   LIG d   1       4.746  -0.653  -8.101  0.00  0.00    -0.040 A 
ATOM     46  H   LIG d   1       4.856  -1.380  -6.094  0.00  0.00     0.062 H 
ATOM     47  C   LIG d   1       4.110   0.219  -8.975  0.00  0.00     0.033 A 
ATOM     48  H   LIG d   1       5.540  -1.293  -8.457  0.00  0.00     0.064 H 
ATOM     49  C   LIG d   1       3.094   1.043  -8.511  0.00  0.00    -0.040 A 
ATOM     50  C   LIG d   1       2.710   0.986  -7.185  0.00  0.00    -0.052 A 
ATOM     51  H   LIG d   1       2.600   1.726  -9.187  0.00  0.00     0.064 H 
ATOM     52  H   LIG d   1       1.916   1.624  -6.826  0.00  0.00     0.062 H 
BRANCH  47  53
ATOM     53  N   LIG d   1       4.496   0.270 -10.318  0.00  0.00    -0.286 N 
ATOM     54  C   LIG d   1       3.864  -0.492 -11.232  0.00  0.00     0.214 C 
ATOM     55  O   LIG d   1       3.017  -1.285 -10.877  0.00  0.00    -0.276 OA
ATOM     56  H   LIG d   1       5.220   0.856 -10.593  0.00  0.00     0.155 HD
BRANCH  54  57
ATOM     57  C   LIG d   1       4.208  -0.361 -12.693  0.00  0.00     0.013 C 
ATOM     58  H   LIG d   1       4.398  -1.349 -13.111  0.00  0.00     0.032 H 
ATOM     59  H   LIG d   1       3.376   0.104 -13.221  0.00  0.00     0.032 H 
ATOM     60  H   LIG d   1       5.099   0.258 -12.802  0.00  0.00     0.032 H 
ENDBRANCH  54  57
ENDBRANCH  47  53
ENDBRANCH  40  43
ENDBRANCH   1  40
TORSDOF 11
ENDMDL
MODEL 4
REMARK VINA RESULT:      -5.8      4.767      8.663
REMARK  11 active torsions:
REMARK  status: ('A' for Active; 'I' for Inactive)
REMARK    1  A    between atoms: C_1  and  C_2 
REMARK       I    between atoms: C_2  and  N_4 
REMARK    2  A    between atoms: N_4  and  C_5 
REMARK    3  A    between atoms: C_8  and  C_11 
REMARK    4  A    between atoms: C_11  and  N_12 
REMARK    5  A    between atoms: C_16  and  C_18 
REMARK    6  A    between atoms: C_20  and  C_23 
REMARK    7  A    between atoms: C_28  and  O_29 
REMARK    8  A    between atoms: O_29  and  C_30 
REMARK    9  A    between atoms: C_30  and  C_31 
REMARK   10  A    between atoms: C_31  and  O_32 
REMARK   11  A    between atoms: O_32  and  C_33 
ROOT
ATOM      1  N   LIG d   1      10.681   2.243  -5.056  0.00  0.00     0.247 N 
ATOM      2  C   LIG d   1      11.846   1.341  -4.941  0.00  0.00    -0.031 C 
ATOM      3  C   LIG d   1      11.248  -0.087  -4.998  0.00  0.00    -0.007 C 
ATOM      4  C   LIG d   1      10.103   0.094  -6.030  0.00  0.00     0.004 C 
ATOM      5  C   LIG d   1       9.591   1.518  -5.735  0.00  0.00     0.060 C 
ATOM      6  H   LIG d   1       9.336   2.022  -6.667  0.00  0.00     0.095 H 
ATOM      7  H   LIG d   1      12.532   1.498  -5.774  0.00  0.00     0.082 H 
ATOM      8  H   LIG d   1      12.358   1.500  -3.993  0.00  0.00     0.082 H 
ATOM      9  H   LIG d   1      11.985  -0.806  -5.355  0.00  0.00     0.032 H 
ATOM     10  H   LIG d   1      10.854  -0.384  -4.026  0.00  0.00     0.032 H 
ATOM     11  H   LIG d   1      10.488   0.026  -7.048  0.00  0.00     0.033 H 
ATOM     12  H   LIG d   1       9.316  -0.641  -5.865  0.00  0.00     0.033 H 
ATOM     13  H   LIG d   1      10.380   2.524  -4.134  0.00  0.00     0.204 HD
ENDROOT
BRANCH   5  14
ATOM     14  C   LIG d   1       8.382   1.453  -4.837  0.00  0.00     0.276 A 
ATOM     15  O   LIG d   1       7.995   2.404  -3.977  0.00  0.00    -0.332 OA
ATOM     16  N   LIG d   1       6.816   1.922  -3.350  0.00  0.00    -0.056 NA
ATOM     17  C   LIG d   1       6.584   0.737  -3.859  0.00  0.00     0.207 A 
ATOM     18  N   LIG d   1       7.542   0.461  -4.762  0.00  0.00    -0.186 NA
BRANCH  17  19
ATOM     19  C   LIG d   1       5.452  -0.153  -3.500  0.00  0.00     0.084 A 
ATOM     20  C   LIG d   1       4.385  -0.340  -4.387  0.00  0.00     0.226 A 
ATOM     21  N   LIG d   1       3.381  -1.137  -4.068  0.00  0.00    -0.221 NA
ATOM     22  C   LIG d   1       3.338  -1.771  -2.911  0.00  0.00     0.031 A 
ATOM     23  C   LIG d   1       4.351  -1.632  -1.982  0.00  0.00    -0.043 A 
ATOM     24  H   LIG d   1       2.496  -2.410  -2.687  0.00  0.00     0.083 H 
ATOM     25  C   LIG d   1       5.430  -0.812  -2.270  0.00  0.00    -0.044 A 
ATOM     26  H   LIG d   1       4.303  -2.157  -1.039  0.00  0.00     0.063 H 
ATOM     27  H   LIG d   1       6.235  -0.687  -1.561  0.00  0.00     0.063 H 
BRANCH  20  28
ATOM     28  O   LIG d   1       4.385   0.297  -5.584  0.00  0.00    -0.474 OA
BRANCH  28  29
ATOM     29  C   LIG d   1       4.094  -0.492  -6.739  0.00  0.00     0.115 C 
ATOM     30  H   LIG d   1       4.972  -0.528  -7.384  0.00  0.00     0.072 H 
ATOM     31  H   LIG d   1       3.827  -1.503  -6.430  0.00  0.00     0.072 H 
BRANCH  29  32
ATOM     32  C   LIG d   1       2.925   0.132  -7.503  0.00  0.00     0.081 C 
ATOM     33  H   LIG d   1       2.907  -0.257  -8.521  0.00  0.00     0.059 H 
ATOM     34  H   LIG d   1       1.989  -0.117  -7.001  0.00  0.00     0.059 H 
BRANCH  32  35
ATOM     35  O   LIG d   1       3.084   1.551  -7.539  0.00  0.00    -0.380 OA
BRANCH  35  36
ATOM     36  C   LIG d   1       2.944   2.119  -8.843  0.00  0.00     0.037 C 
ATOM     37  H   LIG d   1       2.030   2.711  -8.886  0.00  0.00     0.052 H 
ATOM     38  H   LIG d   1       3.801   2.758  -9.054  0.00  0.00     0.052 H 
ATOM     39  H   LIG d   1       2.894   1.321  -9.584  0.00  0.00     0.052 H 
ENDBRANCH  35  36
ENDBRANCH  32  35
ENDBRANCH  29  32
ENDBRANCH  28  29
ENDBRANCH  20  28
ENDBRANCH  17  19
ENDBRANCH   5  14
BRANCH   1  40
ATOM     40  C   LIG d   1      11.050   3.429  -5.840  0.00  0.00    -0.005 C 
ATOM     41  H   LIG d   1      10.498   3.429  -6.780  0.00  0.00     0.087 H 
ATOM     42  H   LIG d   1      12.119   3.409  -6.047  0.00  0.00     0.087 H 
BRANCH  40  43
ATOM     43  C   LIG d   1      10.712   4.673  -5.059  0.00  0.00    -0.003 A 
ATOM     44  C   LIG d   1      11.656   5.240  -4.223  0.00  0.00    -0.052 A 
ATOM     45  C   LIG d   1      11.350   6.381  -3.506  0.00  0.00    -0.040 A 
ATOM     46  H   LIG d   1      12.635   4.792  -4.132  0.00  0.00     0.062 H 
ATOM     47  C   LIG d   1      10.092   6.957  -3.626  0.00  0.00     0.033 A 
ATOM     48  H   LIG d   1      12.088   6.824  -2.854  0.00  0.00     0.064 H 
ATOM     49  C   LIG d   1       9.145   6.382  -4.461  0.00  0.00    -0.040 A 
ATOM     50  C   LIG d   1       9.459   5.245  -5.180  0.00  0.00    -0.052 A 
ATOM     51  H   LIG d   1       8.164   6.824  -4.553  0.00  0.00     0.064 H 
ATOM     52  H   LIG d   1       8.724   4.800  -5.834  0.00  0.00     0.062 H 
BRANCH  47  53
ATOM     53  N   LIG d   1       9.779   8.112  -2.901  0.00  0.00    -0.286 N 
ATOM     54  C   LIG d   1       9.462   8.023  -1.594  0.00  0.00     0.214 C 
ATOM     55  O   LIG d   1       9.365   6.934  -1.067  0.00  0.00    -0.276 OA
ATOM     56  H   LIG d   1       9.790   8.977  -3.339  0.00  0.00     0.155 HD
BRANCH  54  57
ATOM     57  C   LIG d   1       9.226   9.274  -0.788  0.00  0.00     0.013 C 
ATOM     58  H   LIG d   1      10.107   9.488  -0.183  0.00  0.00     0.032 H 
ATOM     59  H   LIG d   1       9.037  10.109  -1.462  0.00  0.00     0.032 H 
ATOM     60  H   LIG d   1       8.363   9.130  -0.137  0.00  0.00     0.032 H 
ENDBRANCH  54  57
ENDBRANCH  47  53
ENDBRANCH  40  43
ENDBRANCH   1  40
TORSDOF 11
ENDMDL
MODEL 5
REMARK VINA RESULT:      -5.8      2.516      5.396
REMARK  11 active torsions:
REMARK  status: ('A' for Active; 'I' for Inactive)
REMARK    1  A    between atoms: C_1  and  C_2 
REMARK       I    between atoms: C_2  and  N_4 
REMARK    2  A    between atoms: N_4  and  C_5 
REMARK    3  A    between atoms: C_8  and  C_11 
REMARK    4  A    between atoms: C_11  and  N_12 
REMARK    5  A    between atoms: C_16  and  C_18 
REMARK    6  A    between atoms: C_20  and  C_23 
REMARK    7  A    between atoms: C_28  and  O_29 
REMARK    8  A    between atoms: O_29  and  C_30 
REMARK    9  A    between atoms: C_30  and  C_31 
REMARK   10  A    between atoms: C_31  and  O_32 
REMARK   11  A    between atoms: O_32  and  C_33 
ROOT
ATOM      1  N   LIG d   1       3.129  -2.405  -9.420  0.00  0.00     0.247 N 
ATOM      2  C   LIG d   1       2.003  -2.502 -10.374  0.00  0.00    -0.031 C 
ATOM      3  C   LIG d   1       1.435  -1.063 -10.462  0.00  0.00    -0.007 C 
ATOM      4  C   LIG d   1       2.728  -0.210 -10.380  0.00  0.00     0.004 C 
ATOM      5  C   LIG d   1       3.613  -1.013  -9.406  0.00  0.00     0.060 C 
ATOM      6  H   LIG d   1       4.652  -0.979  -9.735  0.00  0.00     0.095 H 
ATOM      7  H   LIG d   1       2.360  -2.828 -11.350  0.00  0.00     0.082 H 
ATOM      8  H   LIG d   1       1.244  -3.187  -9.998  0.00  0.00     0.082 H 
ATOM      9  H   LIG d   1       0.920  -0.903 -11.409  0.00  0.00     0.032 H 
ATOM     10  H   LIG d   1       0.774  -0.853  -9.620  0.00  0.00     0.032 H 
ATOM     11  H   LIG d   1       3.202  -0.134 -11.359  0.00  0.00     0.033 H 
ATOM     12  H   LIG d   1       2.511   0.780  -9.978  0.00  0.00     0.033 H 
ATOM     13  H   LIG d   1       2.812  -2.664  -8.498  0.00  0.00     0.204 HD
ENDROOT
BRANCH   5  14
ATOM     14  C   LIG d   1       3.495  -0.443  -8.015  0.00  0.00     0.276 A 
ATOM     15  O   LIG d   1       2.937   0.732  -7.696  0.00  0.00    -0.332 OA
ATOM     16  N   LIG d   1       3.045   0.858  -6.286  0.00  0.00    -0.056 NA
ATOM     17  C   LIG d   1       3.653  -0.223  -5.864  0.00  0.00     0.207 A 
ATOM     18  N   LIG d   1       3.922  -1.008  -6.923  0.00  0.00    -0.186 NA
BRANCH  17  19
ATOM     19  C   LIG d   1       3.988  -0.531  -4.451  0.00  0.00     0.084 A 
ATOM     20  C   LIG d   1       5.161  -0.032  -3.873  0.00  0.00     0.226 A 
ATOM     21  N   LIG d   1       5.455  -0.303  -2.614  0.00  0.00    -0.221 NA
ATOM     22  C   LIG d   1       4.670  -1.054  -1.863  0.00  0.00     0.031 A 
ATOM     23  C   LIG d   1       3.498  -1.587  -2.366  0.00  0.00    -0.043 A 
ATOM     24  H   LIG d   1       4.949  -1.256  -0.839  0.00  0.00     0.083 H 
ATOM     25  C   LIG d   1       3.141  -1.328  -3.679  0.00  0.00    -0.044 A 
ATOM     26  H   LIG d   1       2.866  -2.200  -1.740  0.00  0.00     0.063 H 
ATOM     27  H   LIG d   1       2.230  -1.733  -4.095  0.00  0.00     0.063 H 
BRANCH  20  28
ATOM     28  O   LIG d   1       5.999   0.739  -4.609  0.00  0.00    -0.474 OA
BRANCH  28  29
ATOM     29  C   LIG d   1       7.326   0.247  -4.809  0.00  0.00     0.115 C 
ATOM     30  H   LIG d   1       8.025   0.839  -4.219  0.00  0.00     0.072 H 
ATOM     31  H   LIG d   1       7.377  -0.796  -4.496  0.00  0.00     0.072 H 
BRANCH  29  32
ATOM     32  C   LIG d   1       7.691   0.353  -6.290  0.00  0.00     0.081 C 
ATOM     33  H   LIG d   1       8.749   0.599  -6.387  0.00  0.00     0.059 H 
ATOM     34  H   LIG d   1       7.492  -0.599  -6.783  0.00  0.00     0.059 H 
BRANCH  32  35
ATOM     35  O   LIG d   1       6.907   1.379  -6.902  0.00  0.00    -0.380 OA
BRANCH  35  36
ATOM     36  C   LIG d   1       6.662   1.171  -8.295  0.00  0.00     0.037 C 
ATOM     37  H   LIG d   1       7.462   0.565  -8.718  0.00  0.00     0.052 H 
ATOM     38  H   LIG d   1       5.710   0.657  -8.422  0.00  0.00     0.052 H 
ATOM     39  H   LIG d   1       6.627   2.134  -8.805  0.00  0.00     0.052 H 
ENDBRANCH  35  36
ENDBRANCH  32  35
ENDBRANCH  29  32
ENDBRANCH  28  29
ENDBRANCH  20  28
ENDBRANCH  17  19
ENDBRANCH   5  14
BRANCH   1  40
ATOM     40  C   LIG d   1       4.212  -3.303  -9.843  0.00  0.00    -0.005 C 
ATOM     41  H   LIG d   1       5.094  -2.713 -10.093  0.00  0.00     0.087 H 
ATOM     42  H   LIG d   1       3.894  -3.869 -10.717  0.00  0.00     0.087 H 
BRANCH  40  43
ATOM     43  C   LIG d   1       4.544  -4.252  -8.721  0.00  0.00    -0.003 A 
ATOM     44  C   LIG d   1       5.727  -4.968  -8.751  0.00  0.00    -0.052 A 
ATOM     45  C   LIG d   1       6.035  -5.839  -7.724  0.00  0.00    -0.040 A 
ATOM     46  H   LIG d   1       6.412  -4.845  -9.577  0.00  0.00     0.062 H 
ATOM     47  C   LIG d   1       5.155  -5.996  -6.661  0.00  0.00     0.033 A 
ATOM     48  H   LIG d   1       6.959  -6.398  -7.748  0.00  0.00     0.064 H 
ATOM     49  C   LIG d   1       3.966  -5.280  -6.637  0.00  0.00    -0.040 A 
ATOM     50  C   LIG d   1       3.666  -4.406  -7.664  0.00  0.00    -0.052 A 
ATOM     51  H   LIG d   1       3.276  -5.403  -5.815  0.00  0.00     0.064 H 
ATOM     52  H   LIG d   1       2.743  -3.845  -7.643  0.00  0.00     0.062 H 
BRANCH  47  53
ATOM     53  N   LIG d   1       5.463  -6.878  -5.620  0.00  0.00    -0.286 N 
ATOM     54  C   LIG d   1       5.022  -8.150  -5.660  0.00  0.00     0.214 C 
ATOM     55  O   LIG d   1       4.288  -8.509  -6.557  0.00  0.00    -0.276 OA
ATOM     56  H   LIG d   1       5.996  -6.573  -4.868  0.00  0.00     0.155 HD
BRANCH  54  57
ATOM     57  C   LIG d   1       5.441  -9.128  -4.593  0.00  0.00     0.013 C 
ATOM     58  H   LIG d   1       6.317  -8.744  -4.072  0.00  0.00     0.032 H 
ATOM     59  H   LIG d   1       4.625  -9.261  -3.882  0.00  0.00     0.032 H 
ATOM     60  H   LIG d   1       5.682 -10.087  -5.052  0.00  0.00     0.032 H 
ENDBRANCH  54  57
ENDBRANCH  47  53
ENDBRANCH  40  43
ENDBRANCH   1  40
TORSDOF 11
ENDMDL
MODEL 6
REMARK VINA RESULT:      -5.7      1.890      5.169
REMARK  11 active torsions:
REMARK  status: ('A' for Active; 'I' for Inactive)
REMARK    1  A    between atoms: C_1  and  C_2 
REMARK       I    between atoms: C_2  and  N_4 
REMARK    2  A    between atoms: N_4  and  C_5 
REMARK    3  A    between atoms: C_8  and  C_11 
REMARK    4  A    between atoms: C_11  and  N_12 
REMARK    5  A    between atoms: C_16  and  C_18 
REMARK    6  A    between atoms: C_20  and  C_23 
REMARK    7  A    between atoms: C_28  and  O_29 
REMARK    8  A    between atoms: O_29  and  C_30 
REMARK    9  A    between atoms: C_30  and  C_31 
REMARK   10  A    between atoms: C_31  and  O_32 
REMARK   11  A    between atoms: O_32  and  C_33 
ROOT
ATOM      1  N   LIG d   1       3.425  -1.892  -9.246  0.00  0.00     0.247 N 
ATOM      2  C   LIG d   1       2.279  -2.167 -10.139  0.00  0.00    -0.031 C 
ATOM      3  C   LIG d   1       1.392  -0.901 -10.045  0.00  0.00    -0.007 C 
ATOM      4  C   LIG d   1       2.459   0.222  -9.951  0.00  0.00     0.004 C 
ATOM      5  C   LIG d   1       3.579  -0.432  -9.116  0.00  0.00     0.060 C 
ATOM      6  H   LIG d   1       4.553  -0.127  -9.499  0.00  0.00     0.095 H 
ATOM      7  H   LIG d   1       2.623  -2.315 -11.163  0.00  0.00     0.082 H 
ATOM      8  H   LIG d   1       1.729  -3.042  -9.793  0.00  0.00     0.082 H 
ATOM      9  H   LIG d   1       0.781  -0.784 -10.940  0.00  0.00     0.032 H 
ATOM     10  H   LIG d   1       0.770  -0.925  -9.150  0.00  0.00     0.032 H 
ATOM     11  H   LIG d   1       2.824   0.492 -10.942  0.00  0.00     0.033 H 
ATOM     12  H   LIG d   1       2.055   1.095  -9.437  0.00  0.00     0.033 H 
ATOM     13  H   LIG d   1       3.251  -2.298  -8.339  0.00  0.00     0.204 HD
ENDROOT
BRANCH   5  14
ATOM     14  C   LIG d   1       3.444  -0.029  -7.670  0.00  0.00     0.276 A 
ATOM     15  O   LIG d   1       2.829   1.071  -7.219  0.00  0.00    -0.332 OA
ATOM     16  N   LIG d   1       2.944   1.044  -5.804  0.00  0.00    -0.056 NA
ATOM     17  C   LIG d   1       3.613  -0.044  -5.508  0.00  0.00     0.207 A 
ATOM     18  N   LIG d   1       3.913  -0.689  -6.650  0.00  0.00    -0.186 NA
BRANCH  17  19
ATOM     19  C   LIG d   1       3.978  -0.490  -4.141  0.00  0.00     0.084 A 
ATOM     20  C   LIG d   1       5.049   0.102  -3.461  0.00  0.00     0.226 A 
ATOM     21  N   LIG d   1       5.369  -0.293  -2.242  0.00  0.00    -0.221 NA
ATOM     22  C   LIG d   1       4.708  -1.256  -1.628  0.00  0.00     0.031 A 
ATOM     23  C   LIG d   1       3.643  -1.892  -2.236  0.00  0.00    -0.043 A 
ATOM     24  H   LIG d   1       5.005  -1.553  -0.632  0.00  0.00     0.083 H 
ATOM     25  C   LIG d   1       3.263  -1.511  -3.513  0.00  0.00    -0.044 A 
ATOM     26  H   LIG d   1       3.111  -2.679  -1.722  0.00  0.00     0.063 H 
ATOM     27  H   LIG d   1       2.434  -1.993  -4.010  0.00  0.00     0.063 H 
BRANCH  20  28
ATOM     28  O   LIG d   1       5.760   1.091  -4.057  0.00  0.00    -0.474 OA
BRANCH  28  29
ATOM     29  C   LIG d   1       7.173   1.091  -3.848  0.00  0.00     0.115 C 
ATOM     30  H   LIG d   1       7.475   2.040  -3.405  0.00  0.00     0.072 H 
ATOM     31  H   LIG d   1       7.441   0.275  -3.177  0.00  0.00     0.072 H 
BRANCH  29  32
ATOM     32  C   LIG d   1       7.887   0.904  -5.188  0.00  0.00     0.081 C 
ATOM     33  H   LIG d   1       8.605   1.711  -5.333  0.00  0.00     0.059 H 
ATOM     34  H   LIG d   1       8.409  -0.053  -5.191  0.00  0.00     0.059 H 
BRANCH  32  35
ATOM     35  O   LIG d   1       6.927   0.926  -6.246  0.00  0.00    -0.380 OA
BRANCH  35  36
ATOM     36  C   LIG d   1       7.454   1.364  -7.501  0.00  0.00     0.037 C 
ATOM     37  H   LIG d   1       8.445   1.791  -7.349  0.00  0.00     0.052 H 
ATOM     38  H   LIG d   1       7.523   0.515  -8.180  0.00  0.00     0.052 H 
ATOM     39  H   LIG d   1       6.794   2.120  -7.928  0.00  0.00     0.052 H 
ENDBRANCH  35  36
ENDBRANCH  32  35
ENDBRANCH  29  32
ENDBRANCH  28  29
ENDBRANCH  20  28
ENDBRANCH  17  19
ENDBRANCH   5  14
BRANCH   1  40
ATOM     40  C   LIG d   1       4.648  -2.470  -9.820  0.00  0.00    -0.005 C 
ATOM     41  H   LIG d   1       5.121  -1.739 -10.476  0.00  0.00     0.087 H 
ATOM     42  H   LIG d   1       4.394  -3.361 -10.393  0.00  0.00     0.087 H 
BRANCH  40  43
ATOM     43  C   LIG d   1       5.599  -2.838  -8.711  0.00  0.00    -0.003 A 
ATOM     44  C   LIG d   1       5.292  -3.882  -7.857  0.00  0.00    -0.052 A 
ATOM     45  C   LIG d   1       6.161  -4.222  -6.839  0.00  0.00    -0.040 A 
ATOM     46  H   LIG d   1       4.371  -4.432  -7.987  0.00  0.00     0.062 H 
ATOM     47  C   LIG d   1       7.345  -3.515  -6.673  0.00  0.00     0.033 A 
ATOM     48  H   LIG d   1       5.921  -5.038  -6.173  0.00  0.00     0.064 H 
ATOM     49  C   LIG d   1       7.647  -2.464  -7.529  0.00  0.00    -0.040 A 
ATOM     50  C   LIG d   1       6.776  -2.132  -8.549  0.00  0.00    -0.052 A 
ATOM     51  H   LIG d   1       8.565  -1.908  -7.400  0.00  0.00     0.064 H 
ATOM     52  H   LIG d   1       7.015  -1.318  -9.217  0.00  0.00     0.062 H 
BRANCH  47  53
ATOM     53  N   LIG d   1       8.228  -3.857  -5.644  0.00  0.00    -0.286 N 
ATOM     54  C   LIG d   1       8.036  -3.371  -4.402  0.00  0.00     0.214 C 
ATOM     55  O   LIG d   1       7.148  -2.570  -4.195  0.00  0.00    -0.276 OA
ATOM     56  H   LIG d   1       8.978  -4.444  -5.824  0.00  0.00     0.155 HD
BRANCH  54  57
ATOM     57  C   LIG d   1       8.923  -3.821  -3.270  0.00  0.00     0.013 C 
ATOM     58  H   LIG d   1       8.936  -3.057  -2.493  0.00  0.00     0.032 H 
ATOM     59  H   LIG d   1       8.540  -4.753  -2.857  0.00  0.00     0.032 H 
ATOM     60  H   LIG d   1       9.936  -3.978  -3.643  0.00  0.00     0.032 H 
ENDBRANCH  54  57
ENDBRANCH  47  53
ENDBRANCH  40  43
ENDBRANCH   1  40
TORSDOF 11
ENDMDL
MODEL 7
REMARK VINA RESULT:      -5.5      2.418      6.459
REMARK  11 active torsions:
REMARK  status: ('A' for Active; 'I' for Inactive)
REMARK    1  A    between atoms: C_1  and  C_2 
REMARK       I    between atoms: C_2  and  N_4 
REMARK    2  A    between atoms: N_4  and  C_5 
REMARK    3  A    between atoms: C_8  and  C_11 
REMARK    4  A    between atoms: C_11  and  N_12 
REMARK    5  A    between atoms: C_16  and  C_18 
REMARK    6  A    between atoms: C_20  and  C_23 
REMARK    7  A    between atoms: C_28  and  O_29 
REMARK    8  A    between atoms: O_29  and  C_30 
REMARK    9  A    between atoms: C_30  and  C_31 
REMARK   10  A    between atoms: C_31  and  O_32 
REMARK   11  A    between atoms: O_32  and  C_33 
ROOT
ATOM      1  N   LIG d   1       3.335  -0.439  -4.841  0.00  0.00     0.247 N 
ATOM      2  C   LIG d   1       2.340  -0.821  -3.816  0.00  0.00    -0.031 C 
ATOM      3  C   LIG d   1       3.181  -1.350  -2.627  0.00  0.00    -0.007 C 
ATOM      4  C   LIG d   1       4.405  -0.397  -2.660  0.00  0.00     0.004 C 
ATOM      5  C   LIG d   1       4.617  -0.155  -4.168  0.00  0.00     0.060 C 
ATOM      6  H   LIG d   1       4.903   0.883  -4.340  0.00  0.00     0.095 H 
ATOM      7  H   LIG d   1       1.757   0.047  -3.511  0.00  0.00     0.082 H 
ATOM      8  H   LIG d   1       1.686  -1.605  -4.196  0.00  0.00     0.082 H 
ATOM      9  H   LIG d   1       2.635  -1.253  -1.688  0.00  0.00     0.032 H 
ATOM     10  H   LIG d   1       3.486  -2.384  -2.794  0.00  0.00     0.032 H 
ATOM     11  H   LIG d   1       4.179   0.538  -2.146  0.00  0.00     0.033 H 
ATOM     12  H   LIG d   1       5.279  -0.878  -2.220  0.00  0.00     0.033 H 
ATOM     13  H   LIG d   1       3.456  -1.199  -5.494  0.00  0.00     0.204 HD
ENDROOT
BRANCH   5  14
ATOM     14  C   LIG d   1       5.686  -1.079  -4.692  0.00  0.00     0.276 A 
ATOM     15  O   LIG d   1       6.227  -1.034  -5.916  0.00  0.00    -0.332 OA
ATOM     16  N   LIG d   1       7.185  -2.081  -5.970  0.00  0.00    -0.056 NA
ATOM     17  C   LIG d   1       7.149  -2.675  -4.803  0.00  0.00     0.207 A 
ATOM     18  N   LIG d   1       6.234  -2.059  -4.033  0.00  0.00    -0.186 NA
BRANCH  17  19
ATOM     19  C   LIG d   1       7.980  -3.836  -4.398  0.00  0.00     0.084 A 
ATOM     20  C   LIG d   1       7.811  -5.082  -5.013  0.00  0.00     0.226 A 
ATOM     21  N   LIG d   1       8.555  -6.112  -4.654  0.00  0.00    -0.221 NA
ATOM     22  C   LIG d   1       9.469  -6.014  -3.707  0.00  0.00     0.031 A 
ATOM     23  C   LIG d   1       9.690  -4.818  -3.050  0.00  0.00    -0.043 A 
ATOM     24  H   LIG d   1      10.054  -6.882  -3.440  0.00  0.00     0.083 H 
ATOM     25  C   LIG d   1       8.940  -3.705  -3.393  0.00  0.00    -0.044 A 
ATOM     26  H   LIG d   1      10.441  -4.751  -2.277  0.00  0.00     0.063 H 
ATOM     27  H   LIG d   1       9.093  -2.759  -2.894  0.00  0.00     0.063 H 
BRANCH  20  28
ATOM     28  O   LIG d   1       6.880  -5.231  -5.987  0.00  0.00    -0.474 OA
BRANCH  28  29
ATOM     29  C   LIG d   1       5.845  -6.188  -5.755  0.00  0.00     0.115 C 
ATOM     30  H   LIG d   1       5.788  -6.873  -6.601  0.00  0.00     0.072 H 
ATOM     31  H   LIG d   1       6.066  -6.748  -4.846  0.00  0.00     0.072 H 
BRANCH  29  32
ATOM     32  C   LIG d   1       4.507  -5.465  -5.594  0.00  0.00     0.081 C 
ATOM     33  H   LIG d   1       3.695  -6.136  -5.875  0.00  0.00     0.059 H 
ATOM     34  H   LIG d   1       4.382  -5.157  -4.555  0.00  0.00     0.059 H 
BRANCH  32  35
ATOM     35  O   LIG d   1       4.484  -4.312  -6.438  0.00  0.00    -0.380 OA
BRANCH  35  36
ATOM     36  C   LIG d   1       3.795  -4.510  -7.675  0.00  0.00     0.037 C 
ATOM     37  H   LIG d   1       4.411  -5.112  -8.342  0.00  0.00     0.052 H 
ATOM     38  H   LIG d   1       2.854  -5.027  -7.486  0.00  0.00     0.052 H 
ATOM     39  H   LIG d   1       3.594  -3.544  -8.138  0.00  0.00     0.052 H 
ENDBRANCH  35  36
ENDBRANCH  32  35
ENDBRANCH  29  32
ENDBRANCH  28  29
ENDBRANCH  20  28
ENDBRANCH  17  19
ENDBRANCH   5  14
BRANCH   1  40
ATOM     40  C   LIG d   1       2.874   0.760  -5.554  0.00  0.00    -0.005 C 
ATOM     41  H   LIG d   1       3.515   1.603  -5.297  0.00  0.00     0.087 H 
ATOM     42  H   LIG d   1       1.848   0.982  -5.264  0.00  0.00     0.087 H 
BRANCH  40  43
ATOM     43  C   LIG d   1       2.936   0.516  -7.039  0.00  0.00    -0.003 A 
ATOM     44  C   LIG d   1       2.821   1.577  -7.918  0.00  0.00    -0.052 A 
ATOM     45  C   LIG d   1       2.878   1.358  -9.280  0.00  0.00    -0.040 A 
ATOM     46  H   LIG d   1       2.688   2.580  -7.538  0.00  0.00     0.062 H 
ATOM     47  C   LIG d   1       3.051   0.069  -9.768  0.00  0.00     0.033 A 
ATOM     48  H   LIG d   1       2.789   2.188  -9.966  0.00  0.00     0.064 H 
ATOM     49  C   LIG d   1       3.160  -0.996  -8.883  0.00  0.00    -0.040 A 
ATOM     50  C   LIG d   1       3.108  -0.768  -7.521  0.00  0.00    -0.052 A 
ATOM     51  H   LIG d   1       3.289  -2.000  -9.258  0.00  0.00     0.064 H 
ATOM     52  H   LIG d   1       3.199  -1.596  -6.833  0.00  0.00     0.062 H 
BRANCH  47  53
ATOM     53  N   LIG d   1       3.109  -0.158 -11.147  0.00  0.00    -0.286 N 
ATOM     54  C   LIG d   1       4.298  -0.157 -11.780  0.00  0.00     0.214 C 
ATOM     55  O   LIG d   1       5.309   0.122 -11.171  0.00  0.00    -0.276 OA
ATOM     56  H   LIG d   1       2.292  -0.315 -11.647  0.00  0.00     0.155 HD
BRANCH  54  57
ATOM     57  C   LIG d   1       4.372  -0.504 -13.245  0.00  0.00     0.013 C 
ATOM     58  H   LIG d   1       5.414  -0.525 -13.561  0.00  0.00     0.032 H 
ATOM     59  H   LIG d   1       3.922  -1.483 -13.410  0.00  0.00     0.032 H 
ATOM     60  H   LIG d   1       3.831   0.246 -13.824  0.00  0.00     0.032 H 
ENDBRANCH  54  57
ENDBRANCH  47  53
ENDBRANCH  40  43
ENDBRANCH   1  40
TORSDOF 11
ENDMDL
MODEL 8
REMARK VINA RESULT:      -5.3      4.442      6.988
REMARK  11 active torsions:
REMARK  status: ('A' for Active; 'I' for Inactive)
REMARK    1  A    between atoms: C_1  and  C_2 
REMARK       I    between atoms: C_2  and  N_4 
REMARK    2  A    between atoms: N_4  and  C_5 
REMARK    3  A    between atoms: C_8  and  C_11 
REMARK    4  A    between atoms: C_11  and  N_12 
REMARK    5  A    between atoms: C_16  and  C_18 
REMARK    6  A    between atoms: C_20  and  C_23 
REMARK    7  A    between atoms: C_28  and  O_29 
REMARK    8  A    between atoms: O_29  and  C_30 
REMARK    9  A    between atoms: C_30  and  C_31 
REMARK   10  A    between atoms: C_31  and  O_32 
REMARK   11  A    between atoms: O_32  and  C_33 
ROOT
ATOM      1  N   LIG d   1       9.501  -5.822  -4.153  0.00  0.00     0.247 N 
ATOM      2  C   LIG d   1      10.623  -5.983  -5.101  0.00  0.00    -0.031 C 
ATOM      3  C   LIG d   1      11.038  -4.538  -5.473  0.00  0.00    -0.007 C 
ATOM      4  C   LIG d   1      10.847  -3.800  -4.121  0.00  0.00     0.004 C 
ATOM      5  C   LIG d   1       9.610  -4.496  -3.517  0.00  0.00     0.060 C 
ATOM      6  H   LIG d   1       9.739  -4.612  -2.440  0.00  0.00     0.095 H 
ATOM      7  H   LIG d   1      11.452  -6.505  -4.623  0.00  0.00     0.082 H 
ATOM      8  H   LIG d   1      10.296  -6.524  -5.989  0.00  0.00     0.082 H 
ATOM      9  H   LIG d   1      12.079  -4.500  -5.794  0.00  0.00     0.032 H 
ATOM     10  H   LIG d   1      10.379  -4.127  -6.238  0.00  0.00     0.032 H 
ATOM     11  H   LIG d   1      11.718  -3.937  -3.480  0.00  0.00     0.033 H 
ATOM     12  H   LIG d   1      10.651  -2.740  -4.285  0.00  0.00     0.033 H 
ATOM     13  H   LIG d   1       8.626  -5.889  -4.651  0.00  0.00     0.204 HD
ENDROOT
BRANCH   5  14
ATOM     14  C   LIG d   1       8.372  -3.686  -3.804  0.00  0.00     0.276 A 
ATOM     15  O   LIG d   1       7.556  -3.851  -4.853  0.00  0.00    -0.332 OA
ATOM     16  N   LIG d   1       6.530  -2.879  -4.720  0.00  0.00    -0.056 NA
ATOM     17  C   LIG d   1       6.798  -2.205  -3.628  0.00  0.00     0.207 A 
ATOM     18  N   LIG d   1       7.920  -2.704  -3.079  0.00  0.00    -0.186 NA
BRANCH  17  19
ATOM     19  C   LIG d   1       5.996  -1.081  -3.087  0.00  0.00     0.084 A 
ATOM     20  C   LIG d   1       6.448   0.239  -3.208  0.00  0.00     0.226 A 
ATOM     21  N   LIG d   1       5.731   1.239  -2.730  0.00  0.00    -0.221 NA
ATOM     22  C   LIG d   1       4.578   1.038  -2.119  0.00  0.00     0.031 A 
ATOM     23  C   LIG d   1       4.069  -0.236  -1.956  0.00  0.00    -0.043 A 
ATOM     24  H   LIG d   1       4.024   1.884  -1.738  0.00  0.00     0.083 H 
ATOM     25  C   LIG d   1       4.780  -1.320  -2.445  0.00  0.00    -0.044 A 
ATOM     26  H   LIG d   1       3.125  -0.386  -1.454  0.00  0.00     0.063 H 
ATOM     27  H   LIG d   1       4.404  -2.326  -2.330  0.00  0.00     0.063 H 
BRANCH  20  28
ATOM     28  O   LIG d   1       7.630   0.491  -3.823  0.00  0.00    -0.474 OA
BRANCH  28  29
ATOM     29  C   LIG d   1       8.018   1.861  -3.945  0.00  0.00     0.115 C 
ATOM     30  H   LIG d   1       7.248   2.410  -4.486  0.00  0.00     0.072 H 
ATOM     31  H   LIG d   1       8.144   2.292  -2.952  0.00  0.00     0.072 H 
BRANCH  29  32
ATOM     32  C   LIG d   1       9.340   1.951  -4.709  0.00  0.00     0.081 C 
ATOM     33  H   LIG d   1       9.378   1.164  -5.463  0.00  0.00     0.059 H 
ATOM     34  H   LIG d   1       9.414   2.924  -5.195  0.00  0.00     0.059 H 
BRANCH  32  35
ATOM     35  O   LIG d   1      10.429   1.789  -3.798  0.00  0.00    -0.380 OA
BRANCH  35  36
ATOM     36  C   LIG d   1      10.581   2.871  -2.876  0.00  0.00     0.037 C 
ATOM     37  H   LIG d   1       9.599   3.203  -2.541  0.00  0.00     0.052 H 
ATOM     38  H   LIG d   1      11.164   2.536  -2.018  0.00  0.00     0.052 H 
ATOM     39  H   LIG d   1      11.096   3.697  -3.366  0.00  0.00     0.052 H 
ENDBRANCH  35  36
ENDBRANCH  32  35
ENDBRANCH  29  32
ENDBRANCH  28  29
ENDBRANCH  20  28
ENDBRANCH  17  19
ENDBRANCH   5  14
BRANCH   1  40
ATOM     40  C   LIG d   1       9.567  -6.871  -3.126  0.00  0.00    -0.005 C 
ATOM     41  H   LIG d   1       9.406  -6.427  -2.144  0.00  0.00     0.087 H 
ATOM     42  H   LIG d   1      10.548  -7.345  -3.154  0.00  0.00     0.087 H 
BRANCH  40  43
ATOM     43  C   LIG d   1       8.502  -7.903  -3.392  0.00  0.00    -0.003 A 
ATOM     44  C   LIG d   1       8.121  -8.775  -2.389  0.00  0.00    -0.052 A 
ATOM     45  C   LIG d   1       7.144  -9.722  -2.629  0.00  0.00    -0.040 A 
ATOM     46  H   LIG d   1       8.587  -8.716  -1.416  0.00  0.00     0.062 H 
ATOM     47  C   LIG d   1       6.544  -9.797  -3.879  0.00  0.00     0.033 A 
ATOM     48  H   LIG d   1       6.847 -10.403  -1.845  0.00  0.00     0.064 H 
ATOM     49  C   LIG d   1       6.933  -8.923  -4.886  0.00  0.00    -0.040 A 
ATOM     50  C   LIG d   1       7.906  -7.974  -4.637  0.00  0.00    -0.052 A 
ATOM     51  H   LIG d   1       6.472  -8.982  -5.861  0.00  0.00     0.064 H 
ATOM     52  H   LIG d   1       8.205  -7.291  -5.419  0.00  0.00     0.062 H 
BRANCH  47  53
ATOM     53  N   LIG d   1       5.555 -10.754  -4.126  0.00  0.00    -0.286 N 
ATOM     54  C   LIG d   1       4.265 -10.379  -4.230  0.00  0.00     0.214 C 
ATOM     55  O   LIG d   1       3.951  -9.225  -4.026  0.00  0.00    -0.276 OA
ATOM     56  H   LIG d   1       5.798 -11.689  -4.222  0.00  0.00     0.155 HD
BRANCH  54  57
ATOM     57  C   LIG d   1       3.212 -11.393  -4.598  0.00  0.00     0.013 C 
ATOM     58  H   LIG d   1       2.600 -11.002  -5.409  0.00  0.00     0.032 H 
ATOM     59  H   LIG d   1       3.694 -12.316  -4.919  0.00  0.00     0.032 H 
ATOM     60  H   LIG d   1       2.582 -11.595  -3.731  0.00  0.00     0.032 H 
ENDBRANCH  54  57
ENDBRANCH  47  53
ENDBRANCH  40  43
ENDBRANCH   1  40
TORSDOF 11
ENDMDL
MODEL 9
REMARK VINA RESULT:      -5.3      4.492      8.137
REMARK  11 active torsions:
REMARK  status: ('A' for Active; 'I' for Inactive)
REMARK    1  A    between atoms: C_1  and  C_2 
REMARK       I    between atoms: C_2  and  N_4 
REMARK    2  A    between atoms: N_4  and  C_5 
REMARK    3  A    between atoms: C_8  and  C_11 
REMARK    4  A    between atoms: C_11  and  N_12 
REMARK    5  A    between atoms: C_16  and  C_18 
REMARK    6  A    between atoms: C_20  and  C_23 
REMARK    7  A    between atoms: C_28  and  O_29 
REMARK    8  A    between atoms: O_29  and  C_30 
REMARK    9  A    between atoms: C_30  and  C_31 
REMARK   10  A    between atoms: C_31  and  O_32 
REMARK   11  A    between atoms: O_32  and  C_33 
ROOT
ATOM      1  N   LIG d   1      10.466   4.364  -4.908  0.00  0.00     0.247 N 
ATOM      2  C   LIG d   1      10.641   5.483  -3.958  0.00  0.00    -0.031 C 
ATOM      3  C   LIG d   1      10.123   4.938  -2.604  0.00  0.00    -0.007 C 
ATOM      4  C   LIG d   1      10.605   3.463  -2.656  0.00  0.00     0.004 C 
ATOM      5  C   LIG d   1      10.454   3.101  -4.147  0.00  0.00     0.060 C 
ATOM      6  H   LIG d   1      11.286   2.471  -4.462  0.00  0.00     0.095 H 
ATOM      7  H   LIG d   1      11.693   5.754  -3.880  0.00  0.00     0.082 H 
ATOM      8  H   LIG d   1      10.049   6.343  -4.271  0.00  0.00     0.082 H 
ATOM      9  H   LIG d   1      10.579   5.468  -1.768  0.00  0.00     0.032 H 
ATOM     10  H   LIG d   1       9.035   4.991  -2.551  0.00  0.00     0.032 H 
ATOM     11  H   LIG d   1      11.646   3.387  -2.343  0.00  0.00     0.033 H 
ATOM     12  H   LIG d   1       9.968   2.829  -2.038  0.00  0.00     0.033 H 
ATOM     13  H   LIG d   1       9.592   4.473  -5.400  0.00  0.00     0.204 HD
ENDROOT
BRANCH   5  14
ATOM     14  C   LIG d   1       9.149   2.380  -4.371  0.00  0.00     0.276 A 
ATOM     15  O   LIG d   1       8.555   2.189  -5.556  0.00  0.00    -0.332 OA
ATOM     16  N   LIG d   1       7.360   1.469  -5.295  0.00  0.00    -0.056 NA
ATOM     17  C   LIG d   1       7.314   1.287  -3.998  0.00  0.00     0.207 A 
ATOM     18  N   LIG d   1       8.407   1.845  -3.446  0.00  0.00    -0.186 NA
BRANCH  17  19
ATOM     19  C   LIG d   1       6.237   0.581  -3.261  0.00  0.00     0.084 A 
ATOM     20  C   LIG d   1       6.210  -0.817  -3.205  0.00  0.00     0.226 A 
ATOM     21  N   LIG d   1       5.254  -1.444  -2.544  0.00  0.00    -0.221 NA
ATOM     22  C   LIG d   1       4.290  -0.786  -1.927  0.00  0.00     0.031 A 
ATOM     23  C   LIG d   1       4.245   0.596  -1.942  0.00  0.00    -0.043 A 
ATOM     24  H   LIG d   1       3.523  -1.336  -1.401  0.00  0.00     0.083 H 
ATOM     25  C   LIG d   1       5.229   1.301  -2.617  0.00  0.00    -0.044 A 
ATOM     26  H   LIG d   1       3.451   1.121  -1.433  0.00  0.00     0.063 H 
ATOM     27  H   LIG d   1       5.216   2.380  -2.643  0.00  0.00     0.063 H 
BRANCH  20  28
ATOM     28  O   LIG d   1       7.177  -1.534  -3.830  0.00  0.00    -0.474 OA
BRANCH  28  29
ATOM     29  C   LIG d   1       6.747  -2.569  -4.717  0.00  0.00     0.115 C 
ATOM     30  H   LIG d   1       7.566  -3.268  -4.883  0.00  0.00     0.072 H 
ATOM     31  H   LIG d   1       5.901  -3.097  -4.275  0.00  0.00     0.072 H 
BRANCH  29  32
ATOM     32  C   LIG d   1       6.323  -1.954  -6.051  0.00  0.00     0.081 C 
ATOM     33  H   LIG d   1       6.667  -0.921  -6.101  0.00  0.00     0.059 H 
ATOM     34  H   LIG d   1       6.762  -2.524  -6.870  0.00  0.00     0.059 H 
BRANCH  32  35
ATOM     35  O   LIG d   1       4.898  -1.986  -6.159  0.00  0.00    -0.380 OA
BRANCH  35  36
ATOM     36  C   LIG d   1       4.296  -0.696  -6.296  0.00  0.00     0.037 C 
ATOM     37  H   LIG d   1       4.541  -0.087  -5.427  0.00  0.00     0.052 H 
ATOM     38  H   LIG d   1       4.677  -0.214  -7.196  0.00  0.00     0.052 H 
ATOM     39  H   LIG d   1       3.215  -0.806  -6.371  0.00  0.00     0.052 H 
ENDBRANCH  35  36
ENDBRANCH  32  35
ENDBRANCH  29  32
ENDBRANCH  28  29
ENDBRANCH  20  28
ENDBRANCH  17  19
ENDBRANCH   5  14
BRANCH   1  40
ATOM     40  C   LIG d   1      11.578   4.353  -5.868  0.00  0.00    -0.005 C 
ATOM     41  H   LIG d   1      12.097   3.396  -5.810  0.00  0.00     0.087 H 
ATOM     42  H   LIG d   1      12.272   5.158  -5.629  0.00  0.00     0.087 H 
BRANCH  40  43
ATOM     43  C   LIG d   1      11.040   4.549  -7.262  0.00  0.00    -0.003 A 
ATOM     44  C   LIG d   1       9.696   4.810  -7.452  0.00  0.00    -0.052 A 
ATOM     45  C   LIG d   1       9.199   4.991  -8.728  0.00  0.00    -0.040 A 
ATOM     46  H   LIG d   1       9.033   4.874  -6.601  0.00  0.00     0.062 H 
ATOM     47  C   LIG d   1      10.052   4.910  -9.821  0.00  0.00     0.033 A 
ATOM     48  H   LIG d   1       8.149   5.196  -8.876  0.00  0.00     0.064 H 
ATOM     49  C   LIG d   1      11.401   4.642  -9.627  0.00  0.00    -0.040 A 
ATOM     50  C   LIG d   1      11.892   4.468  -8.348  0.00  0.00    -0.052 A 
ATOM     51  H   LIG d   1      12.066   4.574 -10.475  0.00  0.00     0.064 H 
ATOM     52  H   LIG d   1      12.942   4.265  -8.197  0.00  0.00     0.062 H 
BRANCH  47  53
ATOM     53  N   LIG d   1       9.553   5.093 -11.115  0.00  0.00    -0.286 N 
ATOM     54  C   LIG d   1       9.476   6.332 -11.639  0.00  0.00     0.214 C 
ATOM     55  O   LIG d   1       9.760   7.296 -10.960  0.00  0.00    -0.276 OA
ATOM     56  H   LIG d   1       9.262   4.327 -11.635  0.00  0.00     0.155 HD
BRANCH  54  57
ATOM     57  C   LIG d   1       9.037   6.520 -13.069  0.00  0.00     0.013 C 
ATOM     58  H   LIG d   1       9.352   7.502 -13.419  0.00  0.00     0.032 H 
ATOM     59  H   LIG d   1       9.490   5.749 -13.691  0.00  0.00     0.032 H 
ATOM     60  H   LIG d   1       7.951   6.444 -13.128  0.00  0.00     0.032 H 
ENDBRANCH  54  57
ENDBRANCH  47  53
ENDBRANCH  40  43
ENDBRANCH   1  40
TORSDOF 11
ENDMDL
