MODEL 1
REMARK VINA RESULT:      -6.5      0.000      0.000
REMARK  8 active torsions:
REMARK  status: ('A' for Active; 'I' for Inactive)
REMARK    1  A    between atoms: C_1  and  N_2 
REMARK    2  A    between atoms: C_5  and  C_8 
REMARK    3  A    between atoms: C_8  and  O_9 
REMARK    4  A    between atoms: O_9  and  C_10 
REMARK    5  A    between atoms: C_15  and  O_16 
REMARK    6  A    between atoms: O_16  and  C_17 
REMARK    7  A    between atoms: C_18  and  N_22 
REMARK    8  A    between atoms: N_22  and  C_23 
ROOT
ATOM      1  C   LIG d   1      10.294   5.582  -4.193  0.00  0.00     0.164 A 
ATOM      2  C   LIG d   1      10.079   5.150  -5.482  0.00  0.00     0.010 A 
ATOM      3  C   LIG d   1       9.594   3.855  -5.704  0.00  0.00     0.080 A 
ATOM      4  C   LIG d   1       9.331   3.011  -4.597  0.00  0.00     0.044 A 
ATOM      5  C   LIG d   1       9.558   3.475  -3.296  0.00  0.00    -0.004 A 
ATOM      6  C   LIG d   1      10.037   4.740  -3.102  0.00  0.00     0.162 A 
ATOM      7  C   LIG d   1       8.842   1.708  -4.853  0.00  0.00     0.134 A 
ATOM      8  N   LIG d   1       8.654   1.345  -6.115  0.00  0.00    -0.220 NA
ATOM      9  C   LIG d   1       8.913   2.168  -7.117  0.00  0.00     0.119 A 
ATOM     10  N   LIG d   1       9.368   3.385  -6.942  0.00  0.00    -0.235 NA
ATOM     11  H   LIG d   1      10.282   5.804  -6.317  0.00  0.00     0.068 H 
ATOM     12  H   LIG d   1       9.359   2.835  -2.449  0.00  0.00     0.066 H 
ATOM     13  H   LIG d   1       8.743   1.822  -8.126  0.00  0.00     0.105 H 
ENDROOT
BRANCH   1  14
ATOM     14  O   LIG d   1      10.765   6.838  -3.974  0.00  0.00    -0.488 OA
BRANCH  14  15
ATOM     15  C   LIG d   1      10.860   7.701  -5.110  0.00  0.00     0.093 C 
ATOM     16  H   LIG d   1      10.112   7.413  -5.849  0.00  0.00     0.070 H 
ATOM     17  H   LIG d   1      11.855   7.617  -5.548  0.00  0.00     0.070 H 
BRANCH  15  18
ATOM     18  C   LIG d   1      10.616   9.147  -4.673  0.00  0.00     0.003 C 
ATOM     19  C   LIG d   1       9.523   9.768  -5.548  0.00  0.00    -0.006 C 
ATOM     20  C   LIG d   1       9.228  11.186  -5.055  0.00  0.00    -0.032 C 
ATOM     21  H   LIG d   1       8.618   9.164  -5.484  0.00  0.00     0.032 H 
ATOM     22  H   LIG d   1       9.864   9.807  -6.583  0.00  0.00     0.032 H 
ATOM     23  N   LIG d   1       8.770  11.138  -3.661  0.00  0.00     0.233 N 
ATOM     24  H   LIG d   1       8.450  11.631  -5.676  0.00  0.00     0.081 H 
ATOM     25  H   LIG d   1      10.132  11.789  -5.120  0.00  0.00     0.081 H 
ATOM     26  C   LIG d   1       9.839  10.610  -2.804  0.00  0.00    -0.032 C 
ATOM     27  H   LIG d   1       7.961  10.539  -3.595  0.00  0.00     0.203 HD
ATOM     28  C   LIG d   1      10.159   9.169  -3.211  0.00  0.00    -0.006 C 
ATOM     29  H   LIG d   1      10.732  11.225  -2.917  0.00  0.00     0.081 H 
ATOM     30  H   LIG d   1       9.515  10.629  -1.764  0.00  0.00     0.081 H 
ATOM     31  H   LIG d   1       9.267   8.553  -3.099  0.00  0.00     0.032 H 
ATOM     32  H   LIG d   1      10.955   8.779  -2.576  0.00  0.00     0.032 H 
ATOM     33  H   LIG d   1      11.536   9.721  -4.776  0.00  0.00     0.034 H 
BRANCH  23  34
ATOM     34  C   LIG d   1       8.413  12.491  -3.217  0.00  0.00    -0.043 C 
ATOM     35  H   LIG d   1       7.334  12.557  -3.080  0.00  0.00     0.078 H 
ATOM     36  H   LIG d   1       8.913  12.708  -2.273  0.00  0.00     0.078 H 
ATOM     37  H   LIG d   1       8.728  13.215  -3.968  0.00  0.00     0.078 H 
ENDBRANCH  23  34
ENDBRANCH  15  18
ENDBRANCH  14  15
ENDBRANCH   1  14
BRANCH   6  38
ATOM     38  O   LIG d   1      10.262   5.187  -1.838  0.00  0.00    -0.491 OA
BRANCH  38  39
ATOM     39  C   LIG d   1      11.538   4.895  -1.264  0.00  0.00     0.079 C 
ATOM     40  H   LIG d   1      12.190   5.762  -1.366  0.00  0.00     0.066 H 
ATOM     41  H   LIG d   1      11.415   4.653  -0.210  0.00  0.00     0.066 H 
ATOM     42  H   LIG d   1      11.983   4.044  -1.783  0.00  0.00     0.066 H 
ENDBRANCH  38  39
ENDBRANCH   6  38
BRANCH   7  43
ATOM     43  N   LIG d   1       8.568   0.837  -3.816  0.00  0.00    -0.297 N 
ATOM     44  H   LIG d   1       9.285   0.529  -3.239  0.00  0.00     0.154 HD
BRANCH  43  45
ATOM     45  C   LIG d   1       7.256   0.401  -3.597  0.00  0.00     0.068 A 
ATOM     46  C   LIG d   1       6.935  -0.943  -3.749  0.00  0.00     0.145 A 
ATOM     47  C   LIG d   1       5.638  -1.370  -3.526  0.00  0.00    -0.011 A 
ATOM     48  F   LIG d   1       7.887  -1.830  -4.108  0.00  0.00    -0.203 F 
ATOM     49  C   LIG d   1       4.661  -0.460  -3.164  0.00  0.00     0.021 A 
ATOM     50  H   LIG d   1       5.387  -2.415  -3.639  0.00  0.00     0.066 H 
ATOM     51  C   LIG d   1       4.979   0.879  -3.018  0.00  0.00    -0.046 A 
ATOM     52 BR   LIG d   1       2.888  -1.048  -2.867  0.00  0.00    -0.050 Br
ATOM     53  C   LIG d   1       6.272   1.311  -3.233  0.00  0.00    -0.037 A 
ATOM     54  H   LIG d   1       4.214   1.586  -2.735  0.00  0.00     0.063 H 
ATOM     55  H   LIG d   1       6.519   2.357  -3.118  0.00  0.00     0.064 H 
ENDBRANCH  43  45
ENDBRANCH   7  43
TORSDOF 8
ENDMDL
MODEL 2
REMARK VINA RESULT:      -6.3      8.507     11.864
REMARK  8 active torsions:
REMARK  status: ('A' for Active; 'I' for Inactive)
REMARK    1  A    between atoms: C_1  and  N_2 
REMARK    2  A    between atoms: C_5  and  C_8 
REMARK    3  A    between atoms: C_8  and  O_9 
REMARK    4  A    between atoms: O_9  and  C_10 
REMARK    5  A    between atoms: C_15  and  O_16 
REMARK    6  A    between atoms: O_16  and  C_17 
REMARK    7  A    between atoms: C_18  and  N_22 
REMARK    8  A    between atoms: N_22  and  C_23 
ROOT
ATOM      1  C   LIG d   1       3.097  -1.152 -12.280  0.00  0.00     0.164 A 
ATOM      2  C   LIG d   1       3.683   0.073 -12.054  0.00  0.00     0.010 A 
ATOM      3  C   LIG d   1       3.698   0.601 -10.757  0.00  0.00     0.080 A 
ATOM      4  C   LIG d   1       3.111  -0.135  -9.698  0.00  0.00     0.044 A 
ATOM      5  C   LIG d   1       2.521  -1.378  -9.955  0.00  0.00    -0.004 A 
ATOM      6  C   LIG d   1       2.513  -1.873 -11.229  0.00  0.00     0.162 A 
ATOM      7  C   LIG d   1       3.141   0.425  -8.399  0.00  0.00     0.134 A 
ATOM      8  N   LIG d   1       3.718   1.608  -8.239  0.00  0.00    -0.220 NA
ATOM      9  C   LIG d   1       4.255   2.260  -9.257  0.00  0.00     0.119 A 
ATOM     10  N   LIG d   1       4.256   1.791 -10.483  0.00  0.00    -0.235 NA
ATOM     11  H   LIG d   1       4.128   0.623 -12.870  0.00  0.00     0.068 H 
ATOM     12  H   LIG d   1       2.072  -1.943  -9.152  0.00  0.00     0.066 H 
ATOM     13  H   LIG d   1       4.712   3.221  -9.073  0.00  0.00     0.105 H 
ENDROOT
BRANCH   1  14
ATOM     14  O   LIG d   1       3.081  -1.668 -13.538  0.00  0.00    -0.488 OA
BRANCH  14  15
ATOM     15  C   LIG d   1       4.315  -1.654 -14.260  0.00  0.00     0.093 C 
ATOM     16  H   LIG d   1       4.762  -2.648 -14.234  0.00  0.00     0.070 H 
ATOM     17  H   LIG d   1       4.996  -0.937 -13.802  0.00  0.00     0.070 H 
BRANCH  15  18
ATOM     18  C   LIG d   1       4.050  -1.251 -15.712  0.00  0.00     0.003 C 
ATOM     19  C   LIG d   1       2.604  -1.594 -16.082  0.00  0.00    -0.006 C 
ATOM     20  C   LIG d   1       2.323  -1.116 -17.508  0.00  0.00    -0.032 C 
ATOM     21  H   LIG d   1       1.924  -1.096 -15.390  0.00  0.00     0.032 H 
ATOM     22  H   LIG d   1       2.459  -2.672 -16.024  0.00  0.00     0.032 H 
ATOM     23  N   LIG d   1       2.519   0.337 -17.590  0.00  0.00     0.233 N 
ATOM     24  H   LIG d   1       1.293  -1.358 -17.775  0.00  0.00     0.081 H 
ATOM     25  H   LIG d   1       3.002  -1.613 -18.199  0.00  0.00     0.081 H 
ATOM     26  C   LIG d   1       3.921   0.666 -17.306  0.00  0.00    -0.032 C 
ATOM     27  H   LIG d   1       1.924   0.793 -16.915  0.00  0.00     0.203 HD
ATOM     28  C   LIG d   1       4.265   0.257 -15.872  0.00  0.00    -0.006 C 
ATOM     29  H   LIG d   1       4.567   0.130 -18.001  0.00  0.00     0.081 H 
ATOM     30  H   LIG d   1       4.073   1.739 -17.423  0.00  0.00     0.081 H 
ATOM     31  H   LIG d   1       3.618   0.792 -15.176  0.00  0.00     0.032 H 
ATOM     32  H   LIG d   1       5.307   0.500 -15.663  0.00  0.00     0.032 H 
ATOM     33  H   LIG d   1       4.732  -1.789 -16.371  0.00  0.00     0.034 H 
BRANCH  23  34
ATOM     34  C   LIG d   1       2.172   0.801 -18.939  0.00  0.00    -0.043 C 
ATOM     35  H   LIG d   1       2.246   1.889 -18.980  0.00  0.00     0.078 H 
ATOM     36  H   LIG d   1       2.859   0.363 -19.662  0.00  0.00     0.078 H 
ATOM     37  H   LIG d   1       1.153   0.498 -19.177  0.00  0.00     0.078 H 
ENDBRANCH  23  34
ENDBRANCH  15  18
ENDBRANCH  14  15
ENDBRANCH   1  14
BRANCH   6  38
ATOM     38  O   LIG d   1       1.935  -3.078 -11.479  0.00  0.00    -0.491 OA
BRANCH  38  39
ATOM     39  C   LIG d   1       0.908  -3.504 -10.581  0.00  0.00     0.079 C 
ATOM     40  H   LIG d   1       0.060  -3.882 -11.152  0.00  0.00     0.066 H 
ATOM     41  H   LIG d   1       1.293  -4.291  -9.936  0.00  0.00     0.066 H 
ATOM     42  H   LIG d   1       0.585  -2.659  -9.971  0.00  0.00     0.066 H 
ENDBRANCH  38  39
ENDBRANCH   6  38
BRANCH   7  43
ATOM     43  N   LIG d   1       2.584  -0.243  -7.326  0.00  0.00    -0.297 N 
ATOM     44  H   LIG d   1       1.849  -0.860  -7.468  0.00  0.00     0.154 HD
BRANCH  43  45
ATOM     45  C   LIG d   1       3.081  -0.032  -6.036  0.00  0.00     0.068 A 
ATOM     46  C   LIG d   1       4.279  -0.621  -5.645  0.00  0.00     0.145 A 
ATOM     47  C   LIG d   1       4.769  -0.405  -4.370  0.00  0.00    -0.011 A 
ATOM     48  F   LIG d   1       4.965  -1.397  -6.511  0.00  0.00    -0.203 F 
ATOM     49  C   LIG d   1       4.063   0.386  -3.481  0.00  0.00     0.021 A 
ATOM     50  H   LIG d   1       5.702  -0.857  -4.066  0.00  0.00     0.066 H 
ATOM     51  C   LIG d   1       2.869   0.969  -3.866  0.00  0.00    -0.046 A 
ATOM     52 BR   LIG d   1       4.734   0.673  -1.736  0.00  0.00    -0.050 Br
ATOM     53  C   LIG d   1       2.376   0.762  -5.140  0.00  0.00    -0.037 A 
ATOM     54  H   LIG d   1       2.321   1.586  -3.170  0.00  0.00     0.063 H 
ATOM     55  H   LIG d   1       1.444   1.217  -5.440  0.00  0.00     0.064 H 
ENDBRANCH  43  45
ENDBRANCH   7  43
TORSDOF 8
ENDMDL
MODEL 3
REMARK VINA RESULT:      -6.2      1.190      1.547
REMARK  8 active torsions:
REMARK  status: ('A' for Active; 'I' for Inactive)
REMARK    1  A    between atoms: C_1  and  N_2 
REMARK    2  A    between atoms: C_5  and  C_8 
REMARK    3  A    between atoms: C_8  and  O_9 
REMARK    4  A    between atoms: O_9  and  C_10 
REMARK    5  A    between atoms: C_15  and  O_16 
REMARK    6  A    between atoms: O_16  and  C_17 
REMARK    7  A    between atoms: C_18  and  N_22 
REMARK    8  A    between atoms: N_22  and  C_23 
ROOT
ATOM      1  C   LIG d   1      10.369   5.678  -4.036  0.00  0.00     0.164 A 
ATOM      2  C   LIG d   1      10.131   5.292  -5.336  0.00  0.00     0.010 A 
ATOM      3  C   LIG d   1       9.630   4.010  -5.594  0.00  0.00     0.080 A 
ATOM      4  C   LIG d   1       9.376   3.130  -4.513  0.00  0.00     0.044 A 
ATOM      5  C   LIG d   1       9.627   3.547  -3.200  0.00  0.00    -0.004 A 
ATOM      6  C   LIG d   1      10.121   4.801  -2.971  0.00  0.00     0.162 A 
ATOM      7  C   LIG d   1       8.871   1.841  -4.805  0.00  0.00     0.134 A 
ATOM      8  N   LIG d   1       8.661   1.523  -6.076  0.00  0.00    -0.220 NA
ATOM      9  C   LIG d   1       8.912   2.378  -7.054  0.00  0.00     0.119 A 
ATOM     10  N   LIG d   1       9.381   3.585  -6.843  0.00  0.00    -0.235 NA
ATOM     11  H   LIG d   1      10.328   5.973  -6.151  0.00  0.00     0.068 H 
ATOM     12  H   LIG d   1       9.435   2.881  -2.373  0.00  0.00     0.066 H 
ATOM     13  H   LIG d   1       8.724   2.068  -8.071  0.00  0.00     0.105 H 
ENDROOT
BRANCH   1  14
ATOM     14  O   LIG d   1      10.855   6.922  -3.782  0.00  0.00    -0.488 OA
BRANCH  14  15
ATOM     15  C   LIG d   1       9.896   7.957  -3.550  0.00  0.00     0.093 C 
ATOM     16  H   LIG d   1       8.948   7.513  -3.249  0.00  0.00     0.070 H 
ATOM     17  H   LIG d   1       9.754   8.532  -4.465  0.00  0.00     0.070 H 
BRANCH  15  18
ATOM     18  C   LIG d   1      10.403   8.881  -2.441  0.00  0.00     0.003 C 
ATOM     19  C   LIG d   1      10.231  10.340  -2.872  0.00  0.00    -0.006 C 
ATOM     20  C   LIG d   1      10.665  11.258  -1.728  0.00  0.00    -0.032 C 
ATOM     21  H   LIG d   1       9.185  10.528  -3.113  0.00  0.00     0.032 H 
ATOM     22  H   LIG d   1      10.848  10.535  -3.750  0.00  0.00     0.032 H 
ATOM     23  N   LIG d   1       9.837  10.997  -0.545  0.00  0.00     0.233 N 
ATOM     24  H   LIG d   1      10.544  12.299  -2.032  0.00  0.00     0.081 H 
ATOM     25  H   LIG d   1      11.711  11.070  -1.488  0.00  0.00     0.081 H 
ATOM     26  C   LIG d   1      10.051   9.620  -0.082  0.00  0.00    -0.032 C 
ATOM     27  H   LIG d   1       8.865  11.124  -0.782  0.00  0.00     0.203 HD
ATOM     28  C   LIG d   1       9.594   8.638  -1.163  0.00  0.00    -0.006 C 
ATOM     29  H   LIG d   1      11.111   9.466   0.122  0.00  0.00     0.081 H 
ATOM     30  H   LIG d   1       9.478   9.449   0.829  0.00  0.00     0.081 H 
ATOM     31  H   LIG d   1       8.534   8.791  -1.369  0.00  0.00     0.032 H 
ATOM     32  H   LIG d   1       9.755   7.616  -0.819  0.00  0.00     0.032 H 
ATOM     33  H   LIG d   1      11.457   8.679  -2.249  0.00  0.00     0.034 H 
BRANCH  23  34
ATOM     34  C   LIG d   1      10.205  11.933   0.525  0.00  0.00    -0.043 C 
ATOM     35  H   LIG d   1       9.708  11.641   1.451  0.00  0.00     0.078 H 
ATOM     36  H   LIG d   1      11.285  11.914   0.671  0.00  0.00     0.078 H 
ATOM     37  H   LIG d   1       9.894  12.940   0.249  0.00  0.00     0.078 H 
ENDBRANCH  23  34
ENDBRANCH  15  18
ENDBRANCH  14  15
ENDBRANCH   1  14
BRANCH   6  38
ATOM     38  O   LIG d   1      10.369   5.203  -1.696  0.00  0.00    -0.491 OA
BRANCH  38  39
ATOM     39  C   LIG d   1      11.692   4.993  -1.196  0.00  0.00     0.079 C 
ATOM     40  H   LIG d   1      11.845   5.604  -0.307  0.00  0.00     0.066 H 
ATOM     41  H   LIG d   1      11.821   3.942  -0.942  0.00  0.00     0.066 H 
ATOM     42  H   LIG d   1      12.418   5.274  -1.960  0.00  0.00     0.066 H 
ENDBRANCH  38  39
ENDBRANCH   6  38
BRANCH   7  43
ATOM     43  N   LIG d   1       8.605   0.938  -3.795  0.00  0.00    -0.297 N 
ATOM     44  H   LIG d   1       9.323   0.625  -3.223  0.00  0.00     0.154 HD
BRANCH  43  45
ATOM     45  C   LIG d   1       7.299   0.477  -3.595  0.00  0.00     0.068 A 
ATOM     46  C   LIG d   1       7.004  -0.872  -3.758  0.00  0.00     0.145 A 
ATOM     47  C   LIG d   1       5.713  -1.325  -3.555  0.00  0.00    -0.011 A 
ATOM     48  F   LIG d   1       7.978  -1.740  -4.109  0.00  0.00    -0.203 F 
ATOM     49  C   LIG d   1       4.715  -0.434  -3.202  0.00  0.00     0.021 A 
ATOM     50  H   LIG d   1       5.483  -2.373  -3.676  0.00  0.00     0.066 H 
ATOM     51  C   LIG d   1       5.005   0.909  -3.044  0.00  0.00    -0.046 A 
ATOM     52 BR   LIG d   1       2.949  -1.056  -2.931  0.00  0.00    -0.050 Br
ATOM     53  C   LIG d   1       6.293   1.367  -3.241  0.00  0.00    -0.037 A 
ATOM     54  H   LIG d   1       4.224   1.601  -2.768  0.00  0.00     0.063 H 
ATOM     55  H   LIG d   1       6.520   2.416  -3.117  0.00  0.00     0.064 H 
ENDBRANCH  43  45
ENDBRANCH   7  43
TORSDOF 8
ENDMDL
MODEL 4
REMARK VINA RESULT:      -6.0      6.164      9.787
REMARK  8 active torsions:
REMARK  status: ('A' for Active; 'I' for Inactive)
REMARK    1  A    between atoms: C_1  and  N_2 
REMARK    2  A    between atoms: C_5  and  C_8 
REMARK    3  A    between atoms: C_8  and  O_9 
REMARK    4  A    between atoms: O_9  and  C_10 
REMARK    5  A    between atoms: C_15  and  O_16 
REMARK    6  A    between atoms: O_16  and  C_17 
REMARK    7  A    between atoms: C_18  and  N_22 
REMARK    8  A    between atoms: N_22  and  C_23 
ROOT
ATOM      1  C   LIG d   1      12.044   9.282   2.217  0.00  0.00     0.164 A 
ATOM      2  C   LIG d   1      12.017  10.601   1.820  0.00  0.00     0.010 A 
ATOM      3  C   LIG d   1      11.305  10.960   0.669  0.00  0.00     0.080 A 
ATOM      4  C   LIG d   1      10.623   9.962  -0.069  0.00  0.00     0.044 A 
ATOM      5  C   LIG d   1      10.667   8.628   0.356  0.00  0.00    -0.004 A 
ATOM      6  C   LIG d   1      11.372   8.298   1.479  0.00  0.00     0.162 A 
ATOM      7  C   LIG d   1       9.912  10.355  -1.227  0.00  0.00     0.134 A 
ATOM      8  N   LIG d   1       9.921  11.639  -1.562  0.00  0.00    -0.220 NA
ATOM      9  C   LIG d   1      10.572  12.537  -0.842  0.00  0.00     0.119 A 
ATOM     10  N   LIG d   1      11.247  12.231   0.240  0.00  0.00    -0.235 NA
ATOM     11  H   LIG d   1      12.540  11.352   2.392  0.00  0.00     0.068 H 
ATOM     12  H   LIG d   1      10.148   7.863  -0.203  0.00  0.00     0.066 H 
ATOM     13  H   LIG d   1      10.547  13.569  -1.159  0.00  0.00     0.105 H 
ENDROOT
BRANCH   1  14
ATOM     14  O   LIG d   1      12.735   8.930   3.333  0.00  0.00    -0.488 OA
BRANCH  14  15
ATOM     15  C   LIG d   1      12.444   9.655   4.530  0.00  0.00     0.093 C 
ATOM     16  H   LIG d   1      11.502  10.190   4.411  0.00  0.00     0.070 H 
ATOM     17  H   LIG d   1      13.244  10.369   4.727  0.00  0.00     0.070 H 
BRANCH  15  18
ATOM     18  C   LIG d   1      12.333   8.678   5.703  0.00  0.00     0.003 C 
ATOM     19  C   LIG d   1      11.842   9.426   6.947  0.00  0.00    -0.006 C 
ATOM     20  C   LIG d   1      11.657   8.430   8.093  0.00  0.00    -0.032 C 
ATOM     21  H   LIG d   1      10.891   9.911   6.728  0.00  0.00     0.032 H 
ATOM     22  H   LIG d   1      12.578  10.178   7.233  0.00  0.00     0.032 H 
ATOM     23  N   LIG d   1      10.668   7.415   7.709  0.00  0.00     0.233 N 
ATOM     24  H   LIG d   1      11.308   8.958   8.980  0.00  0.00     0.081 H 
ATOM     25  H   LIG d   1      12.608   7.946   8.311  0.00  0.00     0.081 H 
ATOM     26  C   LIG d   1      11.164   6.646   6.561  0.00  0.00    -0.032 C 
ATOM     27  H   LIG d   1       9.802   7.869   7.460  0.00  0.00     0.203 HD
ATOM     28  C   LIG d   1      11.331   7.574   5.355  0.00  0.00    -0.006 C 
ATOM     29  H   LIG d   1      12.126   6.200   6.811  0.00  0.00     0.081 H 
ATOM     30  H   LIG d   1      10.451   5.858   6.316  0.00  0.00     0.081 H 
ATOM     31  H   LIG d   1      10.368   8.020   5.104  0.00  0.00     0.032 H 
ATOM     32  H   LIG d   1      11.700   7.002   4.504  0.00  0.00     0.032 H 
ATOM     33  H   LIG d   1      13.308   8.236   5.904  0.00  0.00     0.034 H 
BRANCH  23  34
ATOM     34  C   LIG d   1      10.436   6.507   8.840  0.00  0.00    -0.043 C 
ATOM     35  H   LIG d   1      10.589   5.477   8.517  0.00  0.00     0.078 H 
ATOM     36  H   LIG d   1      11.132   6.743   9.645  0.00  0.00     0.078 H 
ATOM     37  H   LIG d   1       9.413   6.627   9.198  0.00  0.00     0.078 H 
ENDBRANCH  23  34
ENDBRANCH  15  18
ENDBRANCH  14  15
ENDBRANCH   1  14
BRANCH   6  38
ATOM     38  O   LIG d   1      11.418   7.002   1.887  0.00  0.00    -0.491 OA
BRANCH  38  39
ATOM     39  C   LIG d   1      11.043   6.007   0.933  0.00  0.00     0.079 C 
ATOM     40  H   LIG d   1       9.987   5.768   1.053  0.00  0.00     0.066 H 
ATOM     41  H   LIG d   1      11.220   6.384  -0.074  0.00  0.00     0.066 H 
ATOM     42  H   LIG d   1      11.639   5.107   1.093  0.00  0.00     0.066 H 
ENDBRANCH  38  39
ENDBRANCH   6  38
BRANCH   7  43
ATOM     43  N   LIG d   1       9.229   9.428  -1.989  0.00  0.00    -0.297 N 
ATOM     44  H   LIG d   1       8.270   9.325  -1.881  0.00  0.00     0.154 HD
BRANCH  43  45
ATOM     45  C   LIG d   1       9.918   8.640  -2.916  0.00  0.00     0.068 A 
ATOM     46  C   LIG d   1       9.876   7.253  -2.821  0.00  0.00     0.145 A 
ATOM     47  C   LIG d   1      10.554   6.477  -3.742  0.00  0.00    -0.011 A 
ATOM     48  F   LIG d   1       9.168   6.665  -1.832  0.00  0.00    -0.203 F 
ATOM     49  C   LIG d   1      11.284   7.080  -4.751  0.00  0.00     0.021 A 
ATOM     50  H   LIG d   1      10.518   5.400  -3.673  0.00  0.00     0.066 H 
ATOM     51  C   LIG d   1      11.332   8.460  -4.845  0.00  0.00    -0.046 A 
ATOM     52 BR   LIG d   1      12.217   6.016  -6.007  0.00  0.00    -0.050 Br
ATOM     53  C   LIG d   1      10.652   9.240  -3.931  0.00  0.00    -0.037 A 
ATOM     54  H   LIG d   1      11.902   8.927  -5.634  0.00  0.00     0.063 H 
ATOM     55  H   LIG d   1      10.690  10.318  -4.005  0.00  0.00     0.064 H 
ENDBRANCH  43  45
ENDBRANCH   7  43
TORSDOF 8
ENDMDL
MODEL 5
REMARK VINA RESULT:      -6.0      7.250     10.577
REMARK  8 active torsions:
REMARK  status: ('A' for Active; 'I' for Inactive)
REMARK    1  A    between atoms: C_1  and  N_2 
REMARK    2  A    between atoms: C_5  and  C_8 
REMARK    3  A    between atoms: C_8  and  O_9 
REMARK    4  A    between atoms: O_9  and  C_10 
REMARK    5  A    between atoms: C_15  and  O_16 
REMARK    6  A    between atoms: O_16  and  C_17 
REMARK    7  A    between atoms: C_18  and  N_22 
REMARK    8  A    between atoms: N_22  and  C_23 
ROOT
ATOM      1  C   LIG d   1       7.994  -2.550  -4.425  0.00  0.00     0.164 A 
ATOM      2  C   LIG d   1       6.887  -2.681  -3.615  0.00  0.00     0.010 A 
ATOM      3  C   LIG d   1       5.714  -1.984  -3.932  0.00  0.00     0.080 A 
ATOM      4  C   LIG d   1       5.684  -1.157  -5.082  0.00  0.00     0.044 A 
ATOM      5  C   LIG d   1       6.823  -1.041  -5.888  0.00  0.00    -0.004 A 
ATOM      6  C   LIG d   1       7.959  -1.725  -5.558  0.00  0.00     0.162 A 
ATOM      7  C   LIG d   1       4.485  -0.466  -5.376  0.00  0.00     0.134 A 
ATOM      8  N   LIG d   1       3.451  -0.629  -4.561  0.00  0.00    -0.220 NA
ATOM      9  C   LIG d   1       3.525  -1.413  -3.499  0.00  0.00     0.119 A 
ATOM     10  N   LIG d   1       4.609  -2.078  -3.176  0.00  0.00    -0.235 NA
ATOM     11  H   LIG d   1       6.924  -3.315  -2.743  0.00  0.00     0.068 H 
ATOM     12  H   LIG d   1       6.805  -0.412  -6.766  0.00  0.00     0.066 H 
ATOM     13  H   LIG d   1       2.654  -1.511  -2.867  0.00  0.00     0.105 H 
ENDROOT
BRANCH   1  14
ATOM     14  O   LIG d   1       9.134  -3.224  -4.120  0.00  0.00    -0.488 OA
BRANCH  14  15
ATOM     15  C   LIG d   1       9.203  -3.826  -2.825  0.00  0.00     0.093 C 
ATOM     16  H   LIG d   1       8.195  -3.997  -2.449  0.00  0.00     0.070 H 
ATOM     17  H   LIG d   1       9.738  -3.165  -2.145  0.00  0.00     0.070 H 
BRANCH  15  18
ATOM     18  C   LIG d   1       9.944  -5.162  -2.925  0.00  0.00     0.003 C 
ATOM     19  C   LIG d   1      11.421  -4.906  -3.237  0.00  0.00    -0.006 C 
ATOM     20  C   LIG d   1      12.170  -6.239  -3.257  0.00  0.00    -0.032 C 
ATOM     21  H   LIG d   1      11.848  -4.259  -2.470  0.00  0.00     0.032 H 
ATOM     22  H   LIG d   1      11.509  -4.424  -4.211  0.00  0.00     0.032 H 
ATOM     23  N   LIG d   1      12.052  -6.891  -1.947  0.00  0.00     0.233 N 
ATOM     24  H   LIG d   1      13.223  -6.061  -3.479  0.00  0.00     0.081 H 
ATOM     25  H   LIG d   1      11.744  -6.884  -4.024  0.00  0.00     0.081 H 
ATOM     26  C   LIG d   1      10.644  -7.205  -1.673  0.00  0.00    -0.032 C 
ATOM     27  H   LIG d   1      12.403  -6.272  -1.232  0.00  0.00     0.203 HD
ATOM     28  C   LIG d   1       9.835  -5.908  -1.593  0.00  0.00    -0.006 C 
ATOM     29  H   LIG d   1      10.249  -7.830  -2.475  0.00  0.00     0.081 H 
ATOM     30  H   LIG d   1      10.569  -7.739  -0.726  0.00  0.00     0.081 H 
ATOM     31  H   LIG d   1      10.230  -5.283  -0.791  0.00  0.00     0.032 H 
ATOM     32  H   LIG d   1       8.790  -6.143  -1.391  0.00  0.00     0.032 H 
ATOM     33  H   LIG d   1       9.503  -5.766  -3.719  0.00  0.00     0.034 H 
BRANCH  23  34
ATOM     34  C   LIG d   1      12.837  -8.132  -1.947  0.00  0.00    -0.043 C 
ATOM     35  H   LIG d   1      12.247  -8.937  -2.386  0.00  0.00     0.078 H 
ATOM     36  H   LIG d   1      13.746  -7.988  -2.530  0.00  0.00     0.078 H 
ATOM     37  H   LIG d   1      13.102  -8.394  -0.922  0.00  0.00     0.078 H 
ENDBRANCH  23  34
ENDBRANCH  15  18
ENDBRANCH  14  15
ENDBRANCH   1  14
BRANCH   6  38
ATOM     38  O   LIG d   1       9.066  -1.607  -6.339  0.00  0.00    -0.491 OA
BRANCH  38  39
ATOM     39  C   LIG d   1       9.817  -0.397  -6.221  0.00  0.00     0.079 C 
ATOM     40  H   LIG d   1       9.713  -0.002  -5.211  0.00  0.00     0.066 H 
ATOM     41  H   LIG d   1      10.867  -0.601  -6.427  0.00  0.00     0.066 H 
ATOM     42  H   LIG d   1       9.442   0.335  -6.938  0.00  0.00     0.066 H 
ENDBRANCH  38  39
ENDBRANCH   6  38
BRANCH   7  43
ATOM     43  N   LIG d   1       4.394   0.356  -6.482  0.00  0.00    -0.297 N 
ATOM     44  H   LIG d   1       4.834   1.221  -6.480  0.00  0.00     0.154 HD
BRANCH  43  45
ATOM     45  C   LIG d   1       3.668  -0.058  -7.604  0.00  0.00     0.068 A 
ATOM     46  C   LIG d   1       2.897   0.857  -8.312  0.00  0.00     0.145 A 
ATOM     47  C   LIG d   1       2.185   0.444  -9.424  0.00  0.00    -0.011 A 
ATOM     48  F   LIG d   1       2.847   2.148  -7.918  0.00  0.00    -0.203 F 
ATOM     49  C   LIG d   1       2.232  -0.880  -9.823  0.00  0.00     0.021 A 
ATOM     50  H   LIG d   1       1.590   1.154  -9.978  0.00  0.00     0.066 H 
ATOM     51  C   LIG d   1       2.995  -1.793  -9.117  0.00  0.00    -0.046 A 
ATOM     52 BR   LIG d   1       1.252  -1.442 -11.341  0.00  0.00    -0.050 Br
ATOM     53  C   LIG d   1       3.712  -1.386  -8.009  0.00  0.00    -0.037 A 
ATOM     54  H   LIG d   1       3.029  -2.825  -9.432  0.00  0.00     0.063 H 
ATOM     55  H   LIG d   1       4.308  -2.099  -7.458  0.00  0.00     0.064 H 
ENDBRANCH  43  45
ENDBRANCH   7  43
TORSDOF 8
ENDMDL
MODEL 6
REMARK VINA RESULT:      -6.0      3.563      5.131
REMARK  8 active torsions:
REMARK  status: ('A' for Active; 'I' for Inactive)
REMARK    1  A    between atoms: C_1  and  N_2 
REMARK    2  A    between atoms: C_5  and  C_8 
REMARK    3  A    between atoms: C_8  and  O_9 
REMARK    4  A    between atoms: O_9  and  C_10 
REMARK    5  A    between atoms: C_15  and  O_16 
REMARK    6  A    between atoms: O_16  and  C_17 
REMARK    7  A    between atoms: C_18  and  N_22 
REMARK    8  A    between atoms: N_22  and  C_23 
ROOT
ATOM      1  C   LIG d   1       8.755   1.842  -4.719  0.00  0.00     0.164 A 
ATOM      2  C   LIG d   1       7.849   1.938  -3.686  0.00  0.00     0.010 A 
ATOM      3  C   LIG d   1       6.759   1.060  -3.641  0.00  0.00     0.080 A 
ATOM      4  C   LIG d   1       6.606   0.086  -4.659  0.00  0.00     0.044 A 
ATOM      5  C   LIG d   1       7.542   0.010  -5.698  0.00  0.00    -0.004 A 
ATOM      6  C   LIG d   1       8.595   0.880  -5.726  0.00  0.00     0.162 A 
ATOM      7  C   LIG d   1       5.495  -0.787  -4.587  0.00  0.00     0.134 A 
ATOM      8  N   LIG d   1       4.654  -0.649  -3.571  0.00  0.00    -0.220 NA
ATOM      9  C   LIG d   1       4.837   0.275  -2.642  0.00  0.00     0.119 A 
ATOM     10  N   LIG d   1       5.847   1.111  -2.657  0.00  0.00    -0.235 NA
ATOM     11  H   LIG d   1       7.978   2.684  -2.916  0.00  0.00     0.068 H 
ATOM     12  H   LIG d   1       7.430  -0.730  -6.476  0.00  0.00     0.066 H 
ATOM     13  H   LIG d   1       4.122   0.345  -1.835  0.00  0.00     0.105 H 
ENDROOT
BRANCH   1  14
ATOM     14  O   LIG d   1       9.814   2.693  -4.765  0.00  0.00    -0.488 OA
BRANCH  14  15
ATOM     15  C   LIG d   1       9.554   4.026  -5.213  0.00  0.00     0.093 C 
ATOM     16  H   LIG d   1       8.478   4.174  -5.308  0.00  0.00     0.070 H 
ATOM     17  H   LIG d   1      10.029   4.184  -6.181  0.00  0.00     0.070 H 
BRANCH  15  18
ATOM     18  C   LIG d   1      10.119   5.023  -4.199  0.00  0.00     0.003 C 
ATOM     19  C   LIG d   1       9.312   6.323  -4.255  0.00  0.00    -0.006 C 
ATOM     20  C   LIG d   1       9.831   7.285  -3.184  0.00  0.00    -0.032 C 
ATOM     21  H   LIG d   1       8.259   6.106  -4.070  0.00  0.00     0.032 H 
ATOM     22  H   LIG d   1       9.424   6.779  -5.239  0.00  0.00     0.032 H 
ATOM     23  N   LIG d   1       9.683   6.673  -1.858  0.00  0.00     0.233 N 
ATOM     24  H   LIG d   1       9.258   8.212  -3.221  0.00  0.00     0.081 H 
ATOM     25  H   LIG d   1      10.882   7.501  -3.369  0.00  0.00     0.081 H 
ATOM     26  C   LIG d   1      10.511   5.464  -1.773  0.00  0.00    -0.032 C 
ATOM     27  H   LIG d   1       8.716   6.428  -1.708  0.00  0.00     0.203 HD
ATOM     28  C   LIG d   1      10.019   4.432  -2.790  0.00  0.00    -0.006 C 
ATOM     29  H   LIG d   1      11.549   5.719  -1.989  0.00  0.00     0.081 H 
ATOM     30  H   LIG d   1      10.442   5.046  -0.769  0.00  0.00     0.081 H 
ATOM     31  H   LIG d   1       8.981   4.176  -2.575  0.00  0.00     0.032 H 
ATOM     32  H   LIG d   1      10.636   3.535  -2.727  0.00  0.00     0.032 H 
ATOM     33  H   LIG d   1      11.163   5.231  -4.434  0.00  0.00     0.034 H 
BRANCH  23  34
ATOM     34  C   LIG d   1      10.110   7.630  -0.829  0.00  0.00    -0.043 C 
ATOM     35  H   LIG d   1       9.773   8.631  -1.100  0.00  0.00     0.078 H 
ATOM     36  H   LIG d   1       9.677   7.348   0.131  0.00  0.00     0.078 H 
ATOM     37  H   LIG d   1      11.197   7.621  -0.753  0.00  0.00     0.078 H 
ENDBRANCH  23  34
ENDBRANCH  15  18
ENDBRANCH  14  15
ENDBRANCH   1  14
BRANCH   6  38
ATOM     38  O   LIG d   1       9.500   0.809  -6.738  0.00  0.00    -0.491 OA
BRANCH  38  39
ATOM     39  C   LIG d   1      10.437  -0.268  -6.697  0.00  0.00     0.079 C 
ATOM     40  H   LIG d   1      10.358  -0.782  -5.739  0.00  0.00     0.066 H 
ATOM     41  H   LIG d   1      10.223  -0.967  -7.504  0.00  0.00     0.066 H 
ATOM     42  H   LIG d   1      11.448   0.125  -6.815  0.00  0.00     0.066 H 
ENDBRANCH  38  39
ENDBRANCH   6  38
BRANCH   7  43
ATOM     43  N   LIG d   1       5.291  -1.756  -5.550  0.00  0.00    -0.297 N 
ATOM     44  H   LIG d   1       5.751  -2.608  -5.485  0.00  0.00     0.154 HD
BRANCH  43  45
ATOM     45  C   LIG d   1       4.420  -1.510  -6.617  0.00  0.00     0.068 A 
ATOM     46  C   LIG d   1       4.320  -2.424  -7.659  0.00  0.00     0.145 A 
ATOM     47  C   LIG d   1       3.454  -2.180  -8.710  0.00  0.00    -0.011 A 
ATOM     48  F   LIG d   1       5.063  -3.552  -7.644  0.00  0.00    -0.203 F 
ATOM     49  C   LIG d   1       2.698  -1.021  -8.728  0.00  0.00     0.021 A 
ATOM     50  H   LIG d   1       3.371  -2.892  -9.518  0.00  0.00     0.066 H 
ATOM     51  C   LIG d   1       2.800  -0.108  -7.694  0.00  0.00    -0.046 A 
ATOM     52 BR   LIG d   1       1.520  -0.687 -10.170  0.00  0.00    -0.050 Br
ATOM     53  C   LIG d   1       3.659  -0.349  -6.640  0.00  0.00    -0.037 A 
ATOM     54  H   LIG d   1       2.208   0.795  -7.712  0.00  0.00     0.063 H 
ATOM     55  H   LIG d   1       3.738   0.365  -5.832  0.00  0.00     0.064 H 
ENDBRANCH  43  45
ENDBRANCH   7  43
TORSDOF 8
ENDMDL
MODEL 7
REMARK VINA RESULT:      -5.9      5.385     11.427
REMARK  8 active torsions:
REMARK  status: ('A' for Active; 'I' for Inactive)
REMARK    1  A    between atoms: C_1  and  N_2 
REMARK    2  A    between atoms: C_5  and  C_8 
REMARK    3  A    between atoms: C_8  and  O_9 
REMARK    4  A    between atoms: O_9  and  C_10 
REMARK    5  A    between atoms: C_15  and  O_16 
REMARK    6  A    between atoms: O_16  and  C_17 
REMARK    7  A    between atoms: C_18  and  N_22 
REMARK    8  A    between atoms: N_22  and  C_23 
ROOT
ATOM      1  C   LIG d   1       5.137  -3.091  -4.455  0.00  0.00     0.164 A 
ATOM      2  C   LIG d   1       4.325  -2.073  -4.010  0.00  0.00     0.010 A 
ATOM      3  C   LIG d   1       4.891  -0.839  -3.664  0.00  0.00     0.080 A 
ATOM      4  C   LIG d   1       6.291  -0.659  -3.779  0.00  0.00     0.044 A 
ATOM      5  C   LIG d   1       7.095  -1.711  -4.235  0.00  0.00    -0.004 A 
ATOM      6  C   LIG d   1       6.523  -2.908  -4.562  0.00  0.00     0.162 A 
ATOM      7  C   LIG d   1       6.834   0.598  -3.422  0.00  0.00     0.134 A 
ATOM      8  N   LIG d   1       6.004   1.542  -2.999  0.00  0.00    -0.220 NA
ATOM      9  C   LIG d   1       4.702   1.329  -2.908  0.00  0.00     0.119 A 
ATOM     10  N   LIG d   1       4.143   0.185  -3.224  0.00  0.00    -0.235 NA
ATOM     11  H   LIG d   1       3.258  -2.223  -3.928  0.00  0.00     0.068 H 
ATOM     12  H   LIG d   1       8.163  -1.579  -4.325  0.00  0.00     0.066 H 
ATOM     13  H   LIG d   1       4.071   2.132  -2.557  0.00  0.00     0.105 H 
ENDROOT
BRANCH   1  14
ATOM     14  O   LIG d   1       4.591  -4.290  -4.791  0.00  0.00    -0.488 OA
BRANCH  14  15
ATOM     15  C   LIG d   1       4.372  -4.534  -6.183  0.00  0.00     0.093 C 
ATOM     16  H   LIG d   1       5.251  -4.226  -6.749  0.00  0.00     0.070 H 
ATOM     17  H   LIG d   1       3.505  -3.966  -6.520  0.00  0.00     0.070 H 
BRANCH  15  18
ATOM     18  C   LIG d   1       4.121  -6.027  -6.404  0.00  0.00     0.003 C 
ATOM     19  C   LIG d   1       4.351  -6.372  -7.878  0.00  0.00    -0.006 C 
ATOM     20  C   LIG d   1       4.176  -7.879  -8.076  0.00  0.00    -0.032 C 
ATOM     21  H   LIG d   1       5.362  -6.082  -8.165  0.00  0.00     0.032 H 
ATOM     22  H   LIG d   1       3.629  -5.838  -8.495  0.00  0.00     0.032 H 
ATOM     23  N   LIG d   1       5.147  -8.602  -7.246  0.00  0.00     0.233 N 
ATOM     24  H   LIG d   1       4.340  -8.129  -9.125  0.00  0.00     0.081 H 
ATOM     25  H   LIG d   1       3.166  -8.168  -7.789  0.00  0.00     0.081 H 
ATOM     26  C   LIG d   1       4.886  -8.332  -5.826  0.00  0.00    -0.032 C 
ATOM     27  H   LIG d   1       6.080  -8.297  -7.479  0.00  0.00     0.203 HD
ATOM     28  C   LIG d   1       5.088  -6.842  -5.541  0.00  0.00    -0.006 C 
ATOM     29  H   LIG d   1       3.860  -8.612  -5.587  0.00  0.00     0.081 H 
ATOM     30  H   LIG d   1       5.574  -8.916  -5.213  0.00  0.00     0.081 H 
ATOM     31  H   LIG d   1       6.115  -6.562  -5.781  0.00  0.00     0.032 H 
ATOM     32  H   LIG d   1       4.893  -6.643  -4.487  0.00  0.00     0.032 H 
ATOM     33  H   LIG d   1       3.094  -6.270  -6.129  0.00  0.00     0.034 H 
BRANCH  23  34
ATOM     34  C   LIG d   1       5.028 -10.044  -7.498  0.00  0.00    -0.043 C 
ATOM     35  H   LIG d   1       4.859 -10.215  -8.562  0.00  0.00     0.078 H 
ATOM     36  H   LIG d   1       5.946 -10.544  -7.191  0.00  0.00     0.078 H 
ATOM     37  H   LIG d   1       4.189 -10.444  -6.929  0.00  0.00     0.078 H 
ENDBRANCH  23  34
ENDBRANCH  15  18
ENDBRANCH  14  15
ENDBRANCH   1  14
BRANCH   6  38
ATOM     38  O   LIG d   1       7.305  -3.930  -4.998  0.00  0.00    -0.491 OA
BRANCH  38  39
ATOM     39  C   LIG d   1       8.451  -4.254  -4.208  0.00  0.00     0.079 C 
ATOM     40  H   LIG d   1       9.212  -4.711  -4.841  0.00  0.00     0.066 H 
ATOM     41  H   LIG d   1       8.850  -3.347  -3.757  0.00  0.00     0.066 H 
ATOM     42  H   LIG d   1       8.164  -4.955  -3.422  0.00  0.00     0.066 H 
ENDBRANCH  38  39
ENDBRANCH   6  38
BRANCH   7  43
ATOM     43  N   LIG d   1       8.192   0.835  -3.512  0.00  0.00    -0.297 N 
ATOM     44  H   LIG d   1       8.817   0.248  -3.057  0.00  0.00     0.154 HD
BRANCH  43  45
ATOM     45  C   LIG d   1       8.665   1.919  -4.258  0.00  0.00     0.068 A 
ATOM     46  C   LIG d   1       8.655   1.866  -5.647  0.00  0.00     0.145 A 
ATOM     47  C   LIG d   1       9.120   2.942  -6.381  0.00  0.00    -0.011 A 
ATOM     48  F   LIG d   1       8.188   0.768  -6.279  0.00  0.00    -0.203 F 
ATOM     49  C   LIG d   1       9.604   4.065  -5.734  0.00  0.00     0.021 A 
ATOM     50  H   LIG d   1       9.108   2.905  -7.461  0.00  0.00     0.066 H 
ATOM     51  C   LIG d   1       9.619   4.118  -4.351  0.00  0.00    -0.046 A 
ATOM     52 BR   LIG d   1      10.244   5.533  -6.741  0.00  0.00    -0.050 Br
ATOM     53  C   LIG d   1       9.152   3.049  -3.612  0.00  0.00    -0.037 A 
ATOM     54  H   LIG d   1       9.997   4.996  -3.849  0.00  0.00     0.063 H 
ATOM     55  H   LIG d   1       9.164   3.091  -2.533  0.00  0.00     0.064 H 
ENDBRANCH  43  45
ENDBRANCH   7  43
TORSDOF 8
ENDMDL
MODEL 8
REMARK VINA RESULT:      -5.8      3.781      5.795
REMARK  8 active torsions:
REMARK  status: ('A' for Active; 'I' for Inactive)
REMARK    1  A    between atoms: C_1  and  N_2 
REMARK    2  A    between atoms: C_5  and  C_8 
REMARK    3  A    between atoms: C_8  and  O_9 
REMARK    4  A    between atoms: O_9  and  C_10 
REMARK    5  A    between atoms: C_15  and  O_16 
REMARK    6  A    between atoms: O_16  and  C_17 
REMARK    7  A    between atoms: C_18  and  N_22 
REMARK    8  A    between atoms: N_22  and  C_23 
ROOT
ATOM      1  C   LIG d   1       8.325   1.052  -4.442  0.00  0.00     0.164 A 
ATOM      2  C   LIG d   1       7.499   1.439  -3.410  0.00  0.00     0.010 A 
ATOM      3  C   LIG d   1       6.195   0.933  -3.344  0.00  0.00     0.080 A 
ATOM      4  C   LIG d   1       5.746   0.030  -4.339  0.00  0.00     0.044 A 
ATOM      5  C   LIG d   1       6.606  -0.347  -5.378  0.00  0.00    -0.004 A 
ATOM      6  C   LIG d   1       7.873   0.162  -5.427  0.00  0.00     0.162 A 
ATOM      7  C   LIG d   1       4.423  -0.463  -4.245  0.00  0.00     0.134 A 
ATOM      8  N   LIG d   1       3.672  -0.056  -3.231  0.00  0.00    -0.220 NA
ATOM      9  C   LIG d   1       4.134   0.789  -2.323  0.00  0.00     0.119 A 
ATOM     10  N   LIG d   1       5.350   1.280  -2.359  0.00  0.00    -0.235 NA
ATOM     11  H   LIG d   1       7.855   2.127  -2.658  0.00  0.00     0.068 H 
ATOM     12  H   LIG d   1       6.269  -1.035  -6.139  0.00  0.00     0.066 H 
ATOM     13  H   LIG d   1       3.481   1.089  -1.517  0.00  0.00     0.105 H 
ENDROOT
BRANCH   1  14
ATOM     14  O   LIG d   1       9.591   1.540  -4.510  0.00  0.00    -0.488 OA
BRANCH  14  15
ATOM     15  C   LIG d   1      10.013   2.397  -3.445  0.00  0.00     0.093 C 
ATOM     16  H   LIG d   1      10.915   1.991  -2.988  0.00  0.00     0.070 H 
ATOM     17  H   LIG d   1       9.223   2.462  -2.697  0.00  0.00     0.070 H 
BRANCH  15  18
ATOM     18  C   LIG d   1      10.305   3.792  -4.001  0.00  0.00     0.003 C 
ATOM     19  C   LIG d   1       9.574   3.976  -5.334  0.00  0.00    -0.006 C 
ATOM     20  C   LIG d   1       9.806   5.399  -5.845  0.00  0.00    -0.032 C 
ATOM     21  H   LIG d   1       8.506   3.810  -5.189  0.00  0.00     0.032 H 
ATOM     22  H   LIG d   1       9.959   3.261  -6.062  0.00  0.00     0.032 H 
ATOM     23  N   LIG d   1       9.290   6.364  -4.866  0.00  0.00     0.233 N 
ATOM     24  H   LIG d   1       9.286   5.533  -6.794  0.00  0.00     0.081 H 
ATOM     25  H   LIG d   1      10.872   5.564  -5.990  0.00  0.00     0.081 H 
ATOM     26  C   LIG d   1      10.035   6.243  -3.607  0.00  0.00    -0.032 C 
ATOM     27  H   LIG d   1       8.313   6.179  -4.696  0.00  0.00     0.203 HD
ATOM     28  C   LIG d   1       9.813   4.851  -3.011  0.00  0.00    -0.006 C 
ATOM     29  H   LIG d   1      11.099   6.389  -3.800  0.00  0.00     0.081 H 
ATOM     30  H   LIG d   1       9.687   7.000  -2.904  0.00  0.00     0.081 H 
ATOM     31  H   LIG d   1       8.750   4.704  -2.818  0.00  0.00     0.032 H 
ATOM     32  H   LIG d   1      10.369   4.762  -2.077  0.00  0.00     0.032 H 
ATOM     33  H   LIG d   1      11.378   3.907  -4.155  0.00  0.00     0.034 H 
BRANCH  23  34
ATOM     34  C   LIG d   1       9.443   7.725  -5.395  0.00  0.00    -0.043 C 
ATOM     35  H   LIG d   1       8.855   8.419  -4.792  0.00  0.00     0.078 H 
ATOM     36  H   LIG d   1      10.494   8.013  -5.359  0.00  0.00     0.078 H 
ATOM     37  H   LIG d   1       9.094   7.756  -6.427  0.00  0.00     0.078 H 
ENDBRANCH  23  34
ENDBRANCH  15  18
ENDBRANCH  14  15
ENDBRANCH   1  14
BRANCH   6  38
ATOM     38  O   LIG d   1       8.705  -0.201  -6.439  0.00  0.00    -0.491 OA
BRANCH  38  39
ATOM     39  C   LIG d   1       8.259   0.060  -7.771  0.00  0.00     0.079 C 
ATOM     40  H   LIG d   1       8.938  -0.411  -8.481  0.00  0.00     0.066 H 
ATOM     41  H   LIG d   1       7.256  -0.343  -7.904  0.00  0.00     0.066 H 
ATOM     42  H   LIG d   1       8.243   1.137  -7.945  0.00  0.00     0.066 H 
ENDBRANCH  38  39
ENDBRANCH   6  38
BRANCH   7  43
ATOM     43  N   LIG d   1       3.927  -1.345  -5.185  0.00  0.00    -0.297 N 
ATOM     44  H   LIG d   1       3.649  -2.235  -4.916  0.00  0.00     0.154 HD
BRANCH  43  45
ATOM     45  C   LIG d   1       3.825  -0.955  -6.525  0.00  0.00     0.068 A 
ATOM     46  C   LIG d   1       3.084   0.170  -6.868  0.00  0.00     0.145 A 
ATOM     47  C   LIG d   1       2.989   0.555  -8.193  0.00  0.00    -0.011 A 
ATOM     48  F   LIG d   1       2.462   0.889  -5.909  0.00  0.00    -0.203 F 
ATOM     49  C   LIG d   1       3.621  -0.185  -9.176  0.00  0.00     0.021 A 
ATOM     50  H   LIG d   1       2.418   1.432  -8.462  0.00  0.00     0.066 H 
ATOM     51  C   LIG d   1       4.355  -1.308  -8.837  0.00  0.00    -0.046 A 
ATOM     52 BR   LIG d   1       3.484   0.340 -10.988  0.00  0.00    -0.050 Br
ATOM     53  C   LIG d   1       4.458  -1.695  -7.515  0.00  0.00    -0.037 A 
ATOM     54  H   LIG d   1       4.847  -1.883  -9.607  0.00  0.00     0.063 H 
ATOM     55  H   LIG d   1       5.031  -2.571  -7.251  0.00  0.00     0.064 H 
ENDBRANCH  43  45
ENDBRANCH   7  43
TORSDOF 8
ENDMDL
MODEL 9
REMARK VINA RESULT:      -5.8      3.935      6.303
REMARK  8 active torsions:
REMARK  status: ('A' for Active; 'I' for Inactive)
REMARK    1  A    between atoms: C_1  and  N_2 
REMARK    2  A    between atoms: C_5  and  C_8 
REMARK    3  A    between atoms: C_8  and  O_9 
REMARK    4  A    between atoms: O_9  and  C_10 
REMARK    5  A    between atoms: C_15  and  O_16 
REMARK    6  A    between atoms: O_16  and  C_17 
REMARK    7  A    between atoms: C_18  and  N_22 
REMARK    8  A    between atoms: N_22  and  C_23 
ROOT
ATOM      1  C   LIG d   1       6.952   1.171  -4.126  0.00  0.00     0.164 A 
ATOM      2  C   LIG d   1       6.186   0.754  -3.061  0.00  0.00     0.010 A 
ATOM      3  C   LIG d   1       5.412  -0.407  -3.180  0.00  0.00     0.080 A 
ATOM      4  C   LIG d   1       5.429  -1.134  -4.396  0.00  0.00     0.044 A 
ATOM      5  C   LIG d   1       6.217  -0.689  -5.464  0.00  0.00    -0.004 A 
ATOM      6  C   LIG d   1       6.961   0.450  -5.328  0.00  0.00     0.162 A 
ATOM      7  C   LIG d   1       4.637  -2.303  -4.486  0.00  0.00     0.134 A 
ATOM      8  N   LIG d   1       3.919  -2.657  -3.429  0.00  0.00    -0.220 NA
ATOM      9  C   LIG d   1       3.933  -1.947  -2.313  0.00  0.00     0.119 A 
ATOM     10  N   LIG d   1       4.648  -0.856  -2.171  0.00  0.00    -0.235 NA
ATOM     11  H   LIG d   1       6.182   1.317  -2.140  0.00  0.00     0.068 H 
ATOM     12  H   LIG d   1       6.234  -1.240  -6.393  0.00  0.00     0.066 H 
ATOM     13  H   LIG d   1       3.330  -2.279  -1.481  0.00  0.00     0.105 H 
ENDROOT
BRANCH   1  14
ATOM     14  O   LIG d   1       7.704   2.297  -4.014  0.00  0.00    -0.488 OA
BRANCH  14  15
ATOM     15  C   LIG d   1       9.057   2.132  -3.582  0.00  0.00     0.093 C 
ATOM     16  H   LIG d   1       9.499   1.275  -4.090  0.00  0.00     0.070 H 
ATOM     17  H   LIG d   1       9.076   1.966  -2.505  0.00  0.00     0.070 H 
BRANCH  15  18
ATOM     18  C   LIG d   1       9.856   3.393  -3.917  0.00  0.00     0.003 C 
ATOM     19  C   LIG d   1       9.168   4.145  -5.062  0.00  0.00    -0.006 C 
ATOM     20  C   LIG d   1       9.927   5.444  -5.338  0.00  0.00    -0.032 C 
ATOM     21  H   LIG d   1       8.141   4.376  -4.779  0.00  0.00     0.032 H 
ATOM     22  H   LIG d   1       9.170   3.524  -5.958  0.00  0.00     0.032 H 
ATOM     23  N   LIG d   1       9.927   6.282  -4.133  0.00  0.00     0.233 N 
ATOM     24  H   LIG d   1       9.439   5.982  -6.152  0.00  0.00     0.081 H 
ATOM     25  H   LIG d   1      10.953   5.213  -5.620  0.00  0.00     0.081 H 
ATOM     26  C   LIG d   1      10.648   5.597  -3.052  0.00  0.00    -0.032 C 
ATOM     27  H   LIG d   1       8.976   6.454  -3.845  0.00  0.00     0.203 HD
ATOM     28  C   LIG d   1       9.918   4.303  -2.687  0.00  0.00    -0.006 C 
ATOM     29  H   LIG d   1      11.660   5.362  -3.383  0.00  0.00     0.081 H 
ATOM     30  H   LIG d   1      10.695   6.247  -2.178  0.00  0.00     0.081 H 
ATOM     31  H   LIG d   1       8.906   4.538  -2.356  0.00  0.00     0.032 H 
ATOM     32  H   LIG d   1      10.455   3.795  -1.886  0.00  0.00     0.032 H 
ATOM     33  H   LIG d   1      10.866   3.117  -4.218  0.00  0.00     0.034 H 
BRANCH  23  34
ATOM     34  C   LIG d   1      10.588   7.560  -4.426  0.00  0.00    -0.043 C 
ATOM     35  H   LIG d   1      10.723   7.661  -5.504  0.00  0.00     0.078 H 
ATOM     36  H   LIG d   1       9.972   8.380  -4.059  0.00  0.00     0.078 H 
ATOM     37  H   LIG d   1      11.560   7.588  -3.935  0.00  0.00     0.078 H 
ENDBRANCH  23  34
ENDBRANCH  15  18
ENDBRANCH  14  15
ENDBRANCH   1  14
BRANCH   6  38
ATOM     38  O   LIG d   1       7.720   0.885  -6.369  0.00  0.00    -0.491 OA
BRANCH  38  39
ATOM     39  C   LIG d   1       8.861   0.096  -6.713  0.00  0.00     0.079 C 
ATOM     40  H   LIG d   1       9.272  -0.361  -5.814  0.00  0.00     0.066 H 
ATOM     41  H   LIG d   1       8.567  -0.682  -7.416  0.00  0.00     0.066 H 
ATOM     42  H   LIG d   1       9.618   0.734  -7.174  0.00  0.00     0.066 H 
ENDBRANCH  38  39
ENDBRANCH   6  38
BRANCH   7  43
ATOM     43  N   LIG d   1       4.611  -3.054  -5.645  0.00  0.00    -0.297 N 
ATOM     44  H   LIG d   1       4.184  -2.701  -6.442  0.00  0.00     0.154 HD
BRANCH  43  45
ATOM     45  C   LIG d   1       5.201  -4.322  -5.669  0.00  0.00     0.068 A 
ATOM     46  C   LIG d   1       4.460  -5.428  -6.070  0.00  0.00     0.145 A 
ATOM     47  C   LIG d   1       5.048  -6.679  -6.098  0.00  0.00    -0.011 A 
ATOM     48  F   LIG d   1       3.168  -5.280  -6.437  0.00  0.00    -0.203 F 
ATOM     49  C   LIG d   1       6.369  -6.832  -5.717  0.00  0.00     0.021 A 
ATOM     50  H   LIG d   1       4.475  -7.539  -6.414  0.00  0.00     0.066 H 
ATOM     51  C   LIG d   1       7.108  -5.733  -5.313  0.00  0.00    -0.046 A 
ATOM     52 BR   LIG d   1       7.169  -8.546  -5.750  0.00  0.00    -0.050 Br
ATOM     53  C   LIG d   1       6.527  -4.480  -5.288  0.00  0.00    -0.037 A 
ATOM     54  H   LIG d   1       8.138  -5.856  -5.016  0.00  0.00     0.063 H 
ATOM     55  H   LIG d   1       7.104  -3.623  -4.973  0.00  0.00     0.064 H 
ENDBRANCH  43  45
ENDBRANCH   7  43
TORSDOF 8
ENDMDL
