MODEL 1
REMARK VINA RESULT:      -3.7      0.000      0.000
REMARK  5 active torsions:
REMARK  status: ('A' for Active; 'I' for Inactive)
REMARK    1  A    between atoms: C_1  and  S_2 
REMARK    2  A    between atoms: S_2  and  C_3 
REMARK    3  A    between atoms: C_3  and  C_4 
REMARK    4  A    between atoms: C_4  and  C_5 
REMARK    5  A    between atoms: C_5  and  C_7 
ROOT
ATOM      1  C   LIG d   1       4.907  -2.239  -3.394  0.00  0.00     0.001 C 
ATOM      2  H   LIG d   1       4.917  -3.324  -3.283  0.00  0.00     0.038 H 
ATOM      3  H   LIG d   1       4.393  -1.973  -4.317  0.00  0.00     0.038 H 
ENDROOT
BRANCH   1   4
ATOM      4  S   LIG d   1       6.612  -1.622  -3.451  0.00  0.00    -0.164 SA
BRANCH   4   5
ATOM      5  C   LIG d   1       6.572  -0.344  -4.738  0.00  0.00    -0.018 C 
ATOM      6  H   LIG d   1       6.320  -0.799  -5.695  0.00  0.00     0.034 H 
ATOM      7  H   LIG d   1       5.823   0.405  -4.483  0.00  0.00     0.034 H 
ATOM      8  H   LIG d   1       7.551   0.131  -4.809  0.00  0.00     0.034 H 
ENDBRANCH   4   5
ENDBRANCH   1   4
BRANCH   1   9
ATOM      9  C   LIG d   1       4.177  -1.611  -2.205  0.00  0.00     0.021 C 
ATOM     10  H   LIG d   1       4.843  -1.340  -1.510  0.00  0.00     0.035 H 
ATOM     11  H   LIG d   1       3.484  -2.338  -1.779  0.00  0.00     0.035 H 
BRANCH   9  12
ATOM     12  C   LIG d   1       3.412  -0.398  -2.667  0.00  0.00     0.179 C 
ATOM     13  O   LIG d   1       2.355  -0.532  -3.237  0.00  0.00    -0.291 OA
BRANCH  12  14
ATOM     14  C   LIG d   1       3.955   0.966  -2.416  0.00  0.00     0.107 C 
ATOM     15  O   LIG d   1       3.684   1.875  -3.172  0.00  0.00    -0.542 OA
ATOM     16  O   LIG d   1       4.748   1.190  -1.351  0.00  0.00    -0.542 OA
ENDBRANCH  12  14
ENDBRANCH   9  12
ENDBRANCH   1   9
TORSDOF 5
ENDMDL
MODEL 2
REMARK VINA RESULT:      -3.7      1.464      1.660
REMARK  5 active torsions:
REMARK  status: ('A' for Active; 'I' for Inactive)
REMARK    1  A    between atoms: C_1  and  S_2 
REMARK    2  A    between atoms: S_2  and  C_3 
REMARK    3  A    between atoms: C_3  and  C_4 
REMARK    4  A    between atoms: C_4  and  C_5 
REMARK    5  A    between atoms: C_5  and  C_7 
ROOT
ATOM      1  C   LIG d   1       3.916  -1.806  -2.532  0.00  0.00     0.001 C 
ATOM      2  H   LIG d   1       4.705  -1.397  -1.900  0.00  0.00     0.038 H 
ATOM      3  H   LIG d   1       3.426  -2.630  -2.014  0.00  0.00     0.038 H 
ENDROOT
BRANCH   1   4
ATOM      4  S   LIG d   1       4.636  -2.407  -4.084  0.00  0.00    -0.164 SA
BRANCH   4   5
ATOM      5  C   LIG d   1       6.420  -2.164  -3.863  0.00  0.00    -0.018 C 
ATOM      6  H   LIG d   1       6.855  -3.054  -3.408  0.00  0.00     0.034 H 
ATOM      7  H   LIG d   1       6.885  -1.987  -4.832  0.00  0.00     0.034 H 
ATOM      8  H   LIG d   1       6.592  -1.304  -3.215  0.00  0.00     0.034 H 
ENDBRANCH   4   5
ENDBRANCH   1   4
BRANCH   1   9
ATOM      9  C   LIG d   1       2.888  -0.713  -2.836  0.00  0.00     0.021 C 
ATOM     10  H   LIG d   1       2.406  -0.465  -1.995  0.00  0.00     0.035 H 
ATOM     11  H   LIG d   1       2.172  -1.083  -3.569  0.00  0.00     0.035 H 
BRANCH   9  12
ATOM     12  C   LIG d   1       3.592   0.500  -3.387  0.00  0.00     0.179 C 
ATOM     13  O   LIG d   1       3.210   1.003  -4.416  0.00  0.00    -0.291 OA
BRANCH  12  14
ATOM     14  C   LIG d   1       4.753   1.083  -2.659  0.00  0.00     0.107 C 
ATOM     15  O   LIG d   1       5.744   1.424  -3.271  0.00  0.00    -0.542 OA
ATOM     16  O   LIG d   1       4.706   1.230  -1.321  0.00  0.00    -0.542 OA
ENDBRANCH  12  14
ENDBRANCH   9  12
ENDBRANCH   1   9
TORSDOF 5
ENDMDL
MODEL 3
REMARK VINA RESULT:      -3.5      1.097      1.972
REMARK  5 active torsions:
REMARK  status: ('A' for Active; 'I' for Inactive)
REMARK    1  A    between atoms: C_1  and  S_2 
REMARK    2  A    between atoms: S_2  and  C_3 
REMARK    3  A    between atoms: C_3  and  C_4 
REMARK    4  A    between atoms: C_4  and  C_5 
REMARK    5  A    between atoms: C_5  and  C_7 
ROOT
ATOM      1  C   LIG d   1       5.017  -1.833  -3.118  0.00  0.00     0.001 C 
ATOM      2  H   LIG d   1       5.018  -2.918  -3.016  0.00  0.00     0.038 H 
ATOM      3  H   LIG d   1       4.437  -1.551  -3.997  0.00  0.00     0.038 H 
ENDROOT
BRANCH   1   4
ATOM      4  S   LIG d   1       6.723  -1.242  -3.304  0.00  0.00    -0.164 SA
BRANCH   4   5
ATOM      5  C   LIG d   1       7.612  -2.675  -3.971  0.00  0.00    -0.018 C 
ATOM      6  H   LIG d   1       8.194  -3.144  -3.178  0.00  0.00     0.034 H 
ATOM      7  H   LIG d   1       6.897  -3.392  -4.371  0.00  0.00     0.034 H 
ATOM      8  H   LIG d   1       8.283  -2.348  -4.767  0.00  0.00     0.034 H 
ENDBRANCH   4   5
ENDBRANCH   1   4
BRANCH   1   9
ATOM      9  C   LIG d   1       4.392  -1.203  -1.872  0.00  0.00     0.021 C 
ATOM     10  H   LIG d   1       4.981  -1.372  -1.081  0.00  0.00     0.035 H 
ATOM     11  H   LIG d   1       3.412  -1.646  -1.694  0.00  0.00     0.035 H 
BRANCH   9  12
ATOM     12  C   LIG d   1       4.243   0.282  -2.079  0.00  0.00     0.179 C 
ATOM     13  O   LIG d   1       4.807   1.054  -1.340  0.00  0.00    -0.291 OA
BRANCH  12  14
ATOM     14  C   LIG d   1       3.406   0.798  -3.198  0.00  0.00     0.107 C 
ATOM     15  O   LIG d   1       3.552   1.938  -3.588  0.00  0.00    -0.542 OA
ATOM     16  O   LIG d   1       2.487   0.002  -3.775  0.00  0.00    -0.542 OA
ENDBRANCH  12  14
ENDBRANCH   9  12
ENDBRANCH   1   9
TORSDOF 5
ENDMDL
MODEL 4
REMARK VINA RESULT:      -3.4      2.201      2.665
REMARK  5 active torsions:
REMARK  status: ('A' for Active; 'I' for Inactive)
REMARK    1  A    between atoms: C_1  and  S_2 
REMARK    2  A    between atoms: S_2  and  C_3 
REMARK    3  A    between atoms: C_3  and  C_4 
REMARK    4  A    between atoms: C_4  and  C_5 
REMARK    5  A    between atoms: C_5  and  C_7 
ROOT
ATOM      1  C   LIG d   1       3.078   0.052  -5.482  0.00  0.00     0.001 C 
ATOM      2  H   LIG d   1       2.307  -0.381  -6.120  0.00  0.00     0.038 H 
ATOM      3  H   LIG d   1       3.246   1.090  -5.768  0.00  0.00     0.038 H 
ENDROOT
BRANCH   1   4
ATOM      4  S   LIG d   1       4.619  -0.886  -5.673  0.00  0.00    -0.164 SA
BRANCH   4   5
ATOM      5  C   LIG d   1       4.455  -1.672  -7.300  0.00  0.00    -0.018 C 
ATOM      6  H   LIG d   1       5.438  -1.758  -7.763  0.00  0.00     0.034 H 
ATOM      7  H   LIG d   1       4.020  -2.664  -7.182  0.00  0.00     0.034 H 
ATOM      8  H   LIG d   1       3.807  -1.065  -7.933  0.00  0.00     0.034 H 
ENDBRANCH   4   5
ENDBRANCH   1   4
BRANCH   1   9
ATOM      9  C   LIG d   1       2.623  -0.007  -4.022  0.00  0.00     0.021 C 
ATOM     10  H   LIG d   1       2.711  -0.943  -3.682  0.00  0.00     0.035 H 
ATOM     11  H   LIG d   1       1.581   0.308  -3.953  0.00  0.00     0.035 H 
BRANCH   9  12
ATOM     12  C   LIG d   1       3.481   0.911  -3.190  0.00  0.00     0.179 C 
ATOM     13  O   LIG d   1       3.558   2.084  -3.472  0.00  0.00    -0.291 OA
BRANCH  12  14
ATOM     14  C   LIG d   1       4.228   0.375  -2.018  0.00  0.00     0.107 C 
ATOM     15  O   LIG d   1       4.251  -0.820  -1.809  0.00  0.00    -0.542 OA
ATOM     16  O   LIG d   1       4.875   1.216  -1.191  0.00  0.00    -0.542 OA
ENDBRANCH  12  14
ENDBRANCH   9  12
ENDBRANCH   1   9
TORSDOF 5
ENDMDL
MODEL 5
REMARK VINA RESULT:      -3.2      2.411      2.687
REMARK  5 active torsions:
REMARK  status: ('A' for Active; 'I' for Inactive)
REMARK    1  A    between atoms: C_1  and  S_2 
REMARK    2  A    between atoms: S_2  and  C_3 
REMARK    3  A    between atoms: C_3  and  C_4 
REMARK    4  A    between atoms: C_4  and  C_5 
REMARK    5  A    between atoms: C_5  and  C_7 
ROOT
ATOM      1  C   LIG d   1       3.515  -1.706  -3.355  0.00  0.00     0.001 C 
ATOM      2  H   LIG d   1       4.048  -2.056  -4.239  0.00  0.00     0.038 H 
ATOM      3  H   LIG d   1       2.815  -2.472  -3.025  0.00  0.00     0.038 H 
ENDROOT
BRANCH   1   4
ATOM      4  S   LIG d   1       2.607  -0.188  -3.759  0.00  0.00    -0.164 SA
BRANCH   4   5
ATOM      5  C   LIG d   1       3.023   0.122  -5.497  0.00  0.00    -0.018 C 
ATOM      6  H   LIG d   1       3.880  -0.490  -5.781  0.00  0.00     0.034 H 
ATOM      7  H   LIG d   1       2.171  -0.133  -6.126  0.00  0.00     0.034 H 
ATOM      8  H   LIG d   1       3.271   1.176  -5.629  0.00  0.00     0.034 H 
ENDBRANCH   4   5
ENDBRANCH   1   4
BRANCH   1   9
ATOM      9  C   LIG d   1       4.519  -1.417  -2.236  0.00  0.00     0.021 C 
ATOM     10  H   LIG d   1       4.925  -2.275  -1.923  0.00  0.00     0.035 H 
ATOM     11  H   LIG d   1       4.006  -0.933  -1.405  0.00  0.00     0.035 H 
BRANCH   9  12
ATOM     12  C   LIG d   1       5.603  -0.508  -2.755  0.00  0.00     0.179 C 
ATOM     13  O   LIG d   1       6.524  -0.968  -3.388  0.00  0.00    -0.291 OA
BRANCH  12  14
ATOM     14  C   LIG d   1       5.537   0.957  -2.494  0.00  0.00     0.107 C 
ATOM     15  O   LIG d   1       6.137   1.729  -3.212  0.00  0.00    -0.542 OA
ATOM     16  O   LIG d   1       4.811   1.425  -1.460  0.00  0.00    -0.542 OA
ENDBRANCH  12  14
ENDBRANCH   9  12
ENDBRANCH   1   9
TORSDOF 5
ENDMDL
MODEL 6
REMARK VINA RESULT:      -3.2      2.932      3.231
REMARK  5 active torsions:
REMARK  status: ('A' for Active; 'I' for Inactive)
REMARK    1  A    between atoms: C_1  and  S_2 
REMARK    2  A    between atoms: S_2  and  C_3 
REMARK    3  A    between atoms: C_3  and  C_4 
REMARK    4  A    between atoms: C_4  and  C_5 
REMARK    5  A    between atoms: C_5  and  C_7 
ROOT
ATOM      1  C   LIG d   1       3.064   0.048  -5.938  0.00  0.00     0.001 C 
ATOM      2  H   LIG d   1       2.054  -0.331  -5.775  0.00  0.00     0.038 H 
ATOM      3  H   LIG d   1       3.042   1.137  -5.969  0.00  0.00     0.038 H 
ENDROOT
BRANCH   1   4
ATOM      4  S   LIG d   1       3.703  -0.591  -7.511  0.00  0.00    -0.164 SA
BRANCH   4   5
ATOM      5  C   LIG d   1       2.307  -0.416  -8.655  0.00  0.00    -0.018 C 
ATOM      6  H   LIG d   1       2.585   0.255  -9.468  0.00  0.00     0.034 H 
ATOM      7  H   LIG d   1       2.047  -1.392  -9.063  0.00  0.00     0.034 H 
ATOM      8  H   LIG d   1       1.450  -0.004  -8.122  0.00  0.00     0.034 H 
ENDBRANCH   4   5
ENDBRANCH   1   4
BRANCH   1   9
ATOM      9  C   LIG d   1       3.971  -0.411  -4.794  0.00  0.00     0.021 C 
ATOM     10  H   LIG d   1       4.849   0.066  -4.853  0.00  0.00     0.035 H 
ATOM     11  H   LIG d   1       4.136  -1.485  -4.870  0.00  0.00     0.035 H 
BRANCH   9  12
ATOM     12  C   LIG d   1       3.316  -0.094  -3.475  0.00  0.00     0.179 C 
ATOM     13  O   LIG d   1       2.499  -0.853  -3.009  0.00  0.00    -0.291 OA
BRANCH  12  14
ATOM     14  C   LIG d   1       3.681   1.150  -2.741  0.00  0.00     0.107 C 
ATOM     15  O   LIG d   1       4.068   1.086  -1.593  0.00  0.00    -0.542 OA
ATOM     16  O   LIG d   1       3.580   2.346  -3.351  0.00  0.00    -0.542 OA
ENDBRANCH  12  14
ENDBRANCH   9  12
ENDBRANCH   1   9
TORSDOF 5
ENDMDL
MODEL 7
REMARK VINA RESULT:      -3.2      1.921      2.995
REMARK  5 active torsions:
REMARK  status: ('A' for Active; 'I' for Inactive)
REMARK    1  A    between atoms: C_1  and  S_2 
REMARK    2  A    between atoms: S_2  and  C_3 
REMARK    3  A    between atoms: C_3  and  C_4 
REMARK    4  A    between atoms: C_4  and  C_5 
REMARK    5  A    between atoms: C_5  and  C_7 
ROOT
ATOM      1  C   LIG d   1       6.129  -0.806  -4.925  0.00  0.00     0.001 C 
ATOM      2  H   LIG d   1       6.026   0.110  -5.506  0.00  0.00     0.038 H 
ATOM      3  H   LIG d   1       6.896  -1.437  -5.374  0.00  0.00     0.038 H 
ENDROOT
BRANCH   1   4
ATOM      4  S   LIG d   1       4.547  -1.694  -4.910  0.00  0.00    -0.164 SA
BRANCH   4   5
ATOM      5  C   LIG d   1       5.019  -3.426  -4.648  0.00  0.00    -0.018 C 
ATOM      6  H   LIG d   1       5.006  -3.649  -3.581  0.00  0.00     0.034 H 
ATOM      7  H   LIG d   1       4.313  -4.076  -5.164  0.00  0.00     0.034 H 
ATOM      8  H   LIG d   1       6.022  -3.593  -5.042  0.00  0.00     0.034 H 
ENDBRANCH   4   5
ENDBRANCH   1   4
BRANCH   1   9
ATOM      9  C   LIG d   1       6.532  -0.458  -3.490  0.00  0.00     0.021 C 
ATOM     10  H   LIG d   1       7.516  -0.600  -3.376  0.00  0.00     0.035 H 
ATOM     11  H   LIG d   1       5.990  -1.099  -2.795  0.00  0.00     0.035 H 
BRANCH   9  12
ATOM     12  C   LIG d   1       6.198   0.984  -3.210  0.00  0.00     0.179 C 
ATOM     13  O   LIG d   1       6.974   1.855  -3.521  0.00  0.00    -0.291 OA
BRANCH  12  14
ATOM     14  C   LIG d   1       4.907   1.336  -2.554  0.00  0.00     0.107 C 
ATOM     15  O   LIG d   1       4.741   1.101  -1.376  0.00  0.00    -0.542 OA
ATOM     16  O   LIG d   1       3.924   1.915  -3.270  0.00  0.00    -0.542 OA
ENDBRANCH  12  14
ENDBRANCH   9  12
ENDBRANCH   1   9
TORSDOF 5
ENDMDL
MODEL 8
REMARK VINA RESULT:      -3.1      2.302      2.378
REMARK  5 active torsions:
REMARK  status: ('A' for Active; 'I' for Inactive)
REMARK    1  A    between atoms: C_1  and  S_2 
REMARK    2  A    between atoms: S_2  and  C_3 
REMARK    3  A    between atoms: C_3  and  C_4 
REMARK    4  A    between atoms: C_4  and  C_5 
REMARK    5  A    between atoms: C_5  and  C_7 
ROOT
ATOM      1  C   LIG d   1       4.228  -0.586  -4.935  0.00  0.00     0.001 C 
ATOM      2  H   LIG d   1       3.292  -1.130  -5.064  0.00  0.00     0.038 H 
ATOM      3  H   LIG d   1       4.014   0.446  -4.658  0.00  0.00     0.038 H 
ENDROOT
BRANCH   1   4
ATOM      4  S   LIG d   1       5.163  -0.615  -6.489  0.00  0.00    -0.164 SA
BRANCH   4   5
ATOM      5  C   LIG d   1       4.123  -1.592  -7.608  0.00  0.00    -0.018 C 
ATOM      6  H   LIG d   1       4.742  -2.029  -8.392  0.00  0.00     0.034 H 
ATOM      7  H   LIG d   1       3.633  -2.387  -7.047  0.00  0.00     0.034 H 
ATOM      8  H   LIG d   1       3.368  -0.947  -8.059  0.00  0.00     0.034 H 
ENDBRANCH   4   5
ENDBRANCH   1   4
BRANCH   1   9
ATOM      9  C   LIG d   1       5.055  -1.248  -3.830  0.00  0.00     0.021 C 
ATOM     10  H   LIG d   1       6.025  -1.051  -3.976  0.00  0.00     0.035 H 
ATOM     11  H   LIG d   1       4.896  -2.326  -3.853  0.00  0.00     0.035 H 
BRANCH   9  12
ATOM     12  C   LIG d   1       4.629  -0.705  -2.490  0.00  0.00     0.179 C 
ATOM     13  O   LIG d   1       4.349  -1.465  -1.593  0.00  0.00    -0.291 OA
BRANCH  12  14
ATOM     14  C   LIG d   1       4.561   0.766  -2.269  0.00  0.00     0.107 C 
ATOM     15  O   LIG d   1       3.516   1.282  -1.934  0.00  0.00    -0.542 OA
ATOM     16  O   LIG d   1       5.660   1.525  -2.441  0.00  0.00    -0.542 OA
ENDBRANCH  12  14
ENDBRANCH   9  12
ENDBRANCH   1   9
TORSDOF 5
ENDMDL
MODEL 9
REMARK VINA RESULT:      -3.0      1.696      2.675
REMARK  5 active torsions:
REMARK  status: ('A' for Active; 'I' for Inactive)
REMARK    1  A    between atoms: C_1  and  S_2 
REMARK    2  A    between atoms: S_2  and  C_3 
REMARK    3  A    between atoms: C_3  and  C_4 
REMARK    4  A    between atoms: C_4  and  C_5 
REMARK    5  A    between atoms: C_5  and  C_7 
ROOT
ATOM      1  C   LIG d   1       6.176  -0.152  -4.148  0.00  0.00     0.001 C 
ATOM      2  H   LIG d   1       6.466  -1.041  -3.587  0.00  0.00     0.038 H 
ATOM      3  H   LIG d   1       5.202  -0.315  -4.608  0.00  0.00     0.038 H 
ENDROOT
BRANCH   1   4
ATOM      4  S   LIG d   1       7.408   0.176  -5.439  0.00  0.00    -0.164 SA
BRANCH   4   5
ATOM      5  C   LIG d   1       6.506  -0.104  -6.987  0.00  0.00    -0.018 C 
ATOM      6  H   LIG d   1       6.066  -1.102  -6.976  0.00  0.00     0.034 H 
ATOM      7  H   LIG d   1       5.716   0.640  -7.088  0.00  0.00     0.034 H 
ATOM      8  H   LIG d   1       7.194  -0.020  -7.829  0.00  0.00     0.034 H 
ENDBRANCH   4   5
ENDBRANCH   1   4
BRANCH   1   9
ATOM      9  C   LIG d   1       6.098   1.047  -3.200  0.00  0.00     0.021 C 
ATOM     10  H   LIG d   1       6.129   1.894  -3.731  0.00  0.00     0.035 H 
ATOM     11  H   LIG d   1       6.942   1.020  -2.511  0.00  0.00     0.035 H 
BRANCH   9  12
ATOM     12  C   LIG d   1       4.810   0.989  -2.421  0.00  0.00     0.179 C 
ATOM     13  O   LIG d   1       4.823   1.138  -1.222  0.00  0.00    -0.291 OA
BRANCH  12  14
ATOM     14  C   LIG d   1       3.521   0.754  -3.129  0.00  0.00     0.107 C 
ATOM     15  O   LIG d   1       2.811  -0.175  -2.804  0.00  0.00    -0.542 OA
ATOM     16  O   LIG d   1       3.143   1.572  -4.129  0.00  0.00    -0.542 OA
ENDBRANCH  12  14
ENDBRANCH   9  12
ENDBRANCH   1   9
TORSDOF 5
ENDMDL
MODEL 10
REMARK VINA RESULT:      -2.9      3.085      3.922
REMARK  5 active torsions:
REMARK  status: ('A' for Active; 'I' for Inactive)
REMARK    1  A    between atoms: C_1  and  S_2 
REMARK    2  A    between atoms: S_2  and  C_3 
REMARK    3  A    between atoms: C_3  and  C_4 
REMARK    4  A    between atoms: C_4  and  C_5 
REMARK    5  A    between atoms: C_5  and  C_7 
ROOT
ATOM      1  C   LIG d   1       4.491  -1.082  -3.952  0.00  0.00     0.001 C 
ATOM      2  H   LIG d   1       3.484  -0.993  -3.544  0.00  0.00     0.038 H 
ATOM      3  H   LIG d   1       4.823  -2.117  -3.879  0.00  0.00     0.038 H 
ENDROOT
BRANCH   1   4
ATOM      4  S   LIG d   1       5.621  -0.017  -3.015  0.00  0.00    -0.164 SA
BRANCH   4   5
ATOM      5  C   LIG d   1       4.545   0.812  -1.812  0.00  0.00    -0.018 C 
ATOM      6  H   LIG d   1       3.521   0.461  -1.939  0.00  0.00     0.034 H 
ATOM      7  H   LIG d   1       4.886   0.584  -0.803  0.00  0.00     0.034 H 
ATOM      8  H   LIG d   1       4.582   1.890  -1.974  0.00  0.00     0.034 H 
ENDBRANCH   4   5
ENDBRANCH   1   4
BRANCH   1   9
ATOM      9  C   LIG d   1       4.486  -0.652  -5.421  0.00  0.00     0.021 C 
ATOM     10  H   LIG d   1       4.564  -1.460  -6.005  0.00  0.00     0.035 H 
ATOM     11  H   LIG d   1       5.328   0.014  -5.608  0.00  0.00     0.035 H 
BRANCH   9  12
ATOM     12  C   LIG d   1       3.198   0.067  -5.730  0.00  0.00     0.179 C 
ATOM     13  O   LIG d   1       2.437   0.352  -4.836  0.00  0.00    -0.291 OA
BRANCH  12  14
ATOM     14  C   LIG d   1       2.867   0.432  -7.136  0.00  0.00     0.107 C 
ATOM     15  O   LIG d   1       2.368  -0.390  -7.875  0.00  0.00    -0.542 OA
ATOM     16  O   LIG d   1       3.122   1.675  -7.587  0.00  0.00    -0.542 OA
ENDBRANCH  12  14
ENDBRANCH   9  12
ENDBRANCH   1   9
TORSDOF 5
ENDMDL
