MODEL 1
REMARK VINA RESULT:      -7.4      0.000      0.000
REMARK  8 active torsions:
REMARK  status: ('A' for Active; 'I' for Inactive)
REMARK    1  A    between atoms: C_3  and  O_30 
REMARK    2  A    between atoms: C_6  and  C_7 
REMARK    3  A    between atoms: C_9  and  C_12 
REMARK    4  A    between atoms: C_22  and  C_23 
REMARK    5  A    between atoms: C_22  and  N_51 
REMARK    6  A    between atoms: C_26  and  C_28 
REMARK    7  A    between atoms: C_28  and  O_29 
REMARK    8  A    between atoms: O_30  and  C_31 
ROOT
ATOM      1  C   LIG d   1       5.745  -7.154  -7.950  0.00  0.00     0.066 C 
ATOM      2  H   LIG d   1       6.699  -6.763  -8.307  0.00  0.00     0.096 H 
ATOM      3  C   LIG d   1       4.844  -7.478  -9.151  0.00  0.00     0.043 C 
ATOM      4  C   LIG d   1       5.410  -8.696  -9.836  0.00  0.00     0.073 A 
ATOM      5  C   LIG d   1       6.320  -9.518  -9.266  0.00  0.00     0.084 A 
ATOM      6  N   LIG d   1       6.605 -10.484 -10.140  0.00  0.00    -0.344 N 
ATOM      7  C   LIG d   1       5.906 -10.296 -11.230  0.00  0.00     0.094 A 
ATOM      8  N   LIG d   1       5.147  -9.186 -11.075  0.00  0.00    -0.240 NA
ATOM      9  H   LIG d   1       7.249 -11.233  -9.986  0.00  0.00     0.167 HD
ATOM     10  C   LIG d   1       6.865  -9.311  -7.874  0.00  0.00     0.012 C 
ATOM     11  H   LIG d   1       3.832  -7.687  -8.806  0.00  0.00     0.039 H 
ATOM     12  H   LIG d   1       4.834  -6.637  -9.843  0.00  0.00     0.039 H 
ATOM     13  H   LIG d   1       5.932 -10.923 -12.109  0.00  0.00     0.103 H 
ATOM     14  H   LIG d   1       6.893 -10.263  -7.345  0.00  0.00     0.088 H 
ATOM     15  H   LIG d   1       7.871  -8.893  -7.933  0.00  0.00     0.088 H 
ATOM     16  N   LIG d   1       5.951  -8.388  -7.160  0.00  0.00     0.254 N 
ATOM     17  H   LIG d   1       5.045  -8.853  -7.028  0.00  0.00     0.205 HD
ENDROOT
BRANCH   1  18
ATOM     18  C   LIG d   1       5.073  -6.120  -7.084  0.00  0.00     0.276 A 
ATOM     19  N   LIG d   1       5.557  -4.949  -6.752  0.00  0.00    -0.186 NA
ATOM     20  C   LIG d   1       4.613  -4.374  -5.974  0.00  0.00     0.202 A 
ATOM     21  N   LIG d   1       3.621  -5.221  -5.877  0.00  0.00    -0.056 NA
ATOM     22  O   LIG d   1       3.869  -6.225  -6.513  0.00  0.00    -0.332 OA
BRANCH  20  23
ATOM     23  C   LIG d   1       4.688  -3.032  -5.344  0.00  0.00     0.023 A 
ATOM     24  C   LIG d   1       4.879  -2.916  -3.968  0.00  0.00    -0.048 A 
ATOM     25  C   LIG d   1       4.954  -1.668  -3.387  0.00  0.00    -0.019 A 
ATOM     26  H   LIG d   1       4.972  -3.803  -3.359  0.00  0.00     0.063 H 
ATOM     27  C   LIG d   1       4.828  -0.528  -4.169  0.00  0.00     0.130 A 
ATOM     28  H   LIG d   1       5.107  -1.578  -2.322  0.00  0.00     0.065 H 
ATOM     29  C   LIG d   1       4.633  -0.640  -5.540  0.00  0.00    -0.019 A 
ATOM     30  C   LIG d   1       4.563  -1.885  -6.127  0.00  0.00    -0.048 A 
ATOM     31  H   LIG d   1       4.535   0.249  -6.145  0.00  0.00     0.065 H 
ATOM     32  H   LIG d   1       4.410  -1.972  -7.193  0.00  0.00     0.063 H 
BRANCH  27  33
ATOM     33  O   LIG d   1       4.897   0.701  -3.593  0.00  0.00    -0.406 OA
BRANCH  33  34
ATOM     34  C   LIG d   1       3.787   1.102  -2.786  0.00  0.00     0.575 C 
ATOM     35  F   LIG d   1       3.413   2.407  -3.123  0.00  0.00    -0.133 F 
ATOM     36  F   LIG d   1       2.711   0.236  -3.010  0.00  0.00    -0.133 F 
ATOM     37  F   LIG d   1       4.150   1.055  -1.436  0.00  0.00    -0.133 F 
ENDBRANCH  33  34
ENDBRANCH  27  33
ENDBRANCH  20  23
ENDBRANCH   1  18
BRANCH  16  38
ATOM     38  C   LIG d   1       6.512  -8.050  -5.835  0.00  0.00     0.029 C 
ATOM     39  H   LIG d   1       7.593  -8.186  -5.830  0.00  0.00     0.090 H 
ATOM     40  H   LIG d   1       6.275  -7.012  -5.604  0.00  0.00     0.090 H 
BRANCH  38  41
ATOM     41  C   LIG d   1       5.887  -8.951  -4.802  0.00  0.00     0.150 A 
ATOM     42  O   LIG d   1       4.605  -9.350  -4.780  0.00  0.00    -0.457 OA
ATOM     43  C   LIG d   1       4.402 -10.147  -3.719  0.00  0.00     0.131 A 
ATOM     44  C   LIG d   1       5.559 -10.257  -3.041  0.00  0.00    -0.018 A 
ATOM     45  C   LIG d   1       6.516  -9.486  -3.739  0.00  0.00    -0.015 A 
ATOM     46  H   LIG d   1       5.726 -10.825  -2.138  0.00  0.00     0.065 H 
ATOM     47  H   LIG d   1       7.554  -9.351  -3.472  0.00  0.00     0.065 H 
BRANCH  43  48
ATOM     48  C   LIG d   1       3.097 -10.802  -3.345  0.00  0.00     0.102 C 
ATOM     49  H   LIG d   1       2.710 -11.354  -4.200  0.00  0.00     0.064 H 
ATOM     50  H   LIG d   1       3.260 -11.487  -2.512  0.00  0.00     0.064 H 
BRANCH  48  51
ATOM     51  O   LIG d   1       2.154  -9.799  -2.959  0.00  0.00    -0.387 OA
ATOM     52  H   LIG d   1       2.236  -9.516  -2.038  0.00  0.00     0.210 HD
ENDBRANCH  48  51
ENDBRANCH  43  48
ENDBRANCH  38  41
ENDBRANCH  16  38
TORSDOF 8
ENDMDL
MODEL 2
REMARK VINA RESULT:      -7.4      7.706     10.176
REMARK  8 active torsions:
REMARK  status: ('A' for Active; 'I' for Inactive)
REMARK    1  A    between atoms: C_3  and  O_30 
REMARK    2  A    between atoms: C_6  and  C_7 
REMARK    3  A    between atoms: C_9  and  C_12 
REMARK    4  A    between atoms: C_22  and  C_23 
REMARK    5  A    between atoms: C_22  and  N_51 
REMARK    6  A    between atoms: C_26  and  C_28 
REMARK    7  A    between atoms: C_28  and  O_29 
REMARK    8  A    between atoms: O_30  and  C_31 
ROOT
ATOM      1  C   LIG d   1       8.586   1.439  -5.818  0.00  0.00     0.066 C 
ATOM      2  H   LIG d   1       9.224   0.578  -6.015  0.00  0.00     0.096 H 
ATOM      3  C   LIG d   1       8.447   2.276  -7.099  0.00  0.00     0.043 C 
ATOM      4  C   LIG d   1       7.587   1.501  -8.065  0.00  0.00     0.073 A 
ATOM      5  C   LIG d   1       6.818   0.450  -7.701  0.00  0.00     0.084 A 
ATOM      6  N   LIG d   1       6.197  -0.001  -8.792  0.00  0.00    -0.344 N 
ATOM      7  C   LIG d   1       6.548   0.730  -9.819  0.00  0.00     0.094 A 
ATOM      8  N   LIG d   1       7.418   1.679  -9.400  0.00  0.00    -0.240 NA
ATOM      9  H   LIG d   1       5.563  -0.774  -8.820  0.00  0.00     0.167 HD
ATOM     10  C   LIG d   1       6.729  -0.061  -6.284  0.00  0.00     0.012 C 
ATOM     11  H   LIG d   1       7.973   3.229  -6.867  0.00  0.00     0.039 H 
ATOM     12  H   LIG d   1       9.430   2.447  -7.536  0.00  0.00     0.039 H 
ATOM     13  H   LIG d   1       6.203   0.596 -10.834  0.00  0.00     0.103 H 
ATOM     14  H   LIG d   1       5.689  -0.268  -6.033  0.00  0.00     0.088 H 
ATOM     15  H   LIG d   1       7.320  -0.971  -6.185  0.00  0.00     0.088 H 
ATOM     16  N   LIG d   1       7.239   1.003  -5.385  0.00  0.00     0.254 N 
ATOM     17  H   LIG d   1       6.601   1.806  -5.424  0.00  0.00     0.205 HD
ENDROOT
BRANCH   1  18
ATOM     18  C   LIG d   1       9.202   2.283  -4.733  0.00  0.00     0.276 A 
ATOM     19  N   LIG d   1       9.036   3.571  -4.560  0.00  0.00    -0.186 NA
ATOM     20  C   LIG d   1       9.774   3.889  -3.472  0.00  0.00     0.202 A 
ATOM     21  N   LIG d   1      10.341   2.786  -3.053  0.00  0.00    -0.056 NA
ATOM     22  O   LIG d   1      10.018   1.857  -3.763  0.00  0.00    -0.332 OA
BRANCH  20  23
ATOM     23  C   LIG d   1       9.916   5.236  -2.867  0.00  0.00     0.023 A 
ATOM     24  C   LIG d   1      10.273   5.366  -1.526  0.00  0.00    -0.048 A 
ATOM     25  C   LIG d   1      10.410   6.618  -0.968  0.00  0.00    -0.019 A 
ATOM     26  H   LIG d   1      10.446   4.484  -0.926  0.00  0.00     0.063 H 
ATOM     27  C   LIG d   1      10.181   7.751  -1.737  0.00  0.00     0.130 A 
ATOM     28  H   LIG d   1      10.691   6.719   0.070  0.00  0.00     0.065 H 
ATOM     29  C   LIG d   1       9.820   7.627  -3.073  0.00  0.00    -0.019 A 
ATOM     30  C   LIG d   1       9.688   6.376  -3.637  0.00  0.00    -0.048 A 
ATOM     31  H   LIG d   1       9.643   8.510  -3.669  0.00  0.00     0.065 H 
ATOM     32  H   LIG d   1       9.407   6.278  -4.676  0.00  0.00     0.063 H 
BRANCH  27  33
ATOM     33  O   LIG d   1      10.311   8.985  -1.184  0.00  0.00    -0.406 OA
BRANCH  33  34
ATOM     34  C   LIG d   1       9.105   9.664  -0.823  0.00  0.00     0.575 C 
ATOM     35  F   LIG d   1       8.080   8.730  -0.642  0.00  0.00    -0.133 F 
ATOM     36  F   LIG d   1       9.307  10.371   0.368  0.00  0.00    -0.133 F 
ATOM     37  F   LIG d   1       8.749  10.556  -1.840  0.00  0.00    -0.133 F 
ENDBRANCH  33  34
ENDBRANCH  27  33
ENDBRANCH  20  23
ENDBRANCH   1  18
BRANCH  16  38
ATOM     38  C   LIG d   1       7.295   0.501  -3.996  0.00  0.00     0.029 C 
ATOM     39  H   LIG d   1       7.709  -0.507  -3.968  0.00  0.00     0.090 H 
ATOM     40  H   LIG d   1       7.922   1.168  -3.403  0.00  0.00     0.090 H 
BRANCH  38  41
ATOM     41  C   LIG d   1       5.899   0.489  -3.430  0.00  0.00     0.150 A 
ATOM     42  O   LIG d   1       4.930  -0.385  -3.749  0.00  0.00    -0.457 OA
ATOM     43  C   LIG d   1       3.820  -0.097  -3.051  0.00  0.00     0.131 A 
ATOM     44  C   LIG d   1       4.068   0.978  -2.281  0.00  0.00    -0.018 A 
ATOM     45  C   LIG d   1       5.408   1.356  -2.525  0.00  0.00    -0.015 A 
ATOM     46  H   LIG d   1       3.377   1.460  -1.605  0.00  0.00     0.065 H 
ATOM     47  H   LIG d   1       5.938   2.181  -2.072  0.00  0.00     0.065 H 
BRANCH  43  48
ATOM     48  C   LIG d   1       2.514  -0.846  -3.124  0.00  0.00     0.102 C 
ATOM     49  H   LIG d   1       2.709  -1.917  -3.108  0.00  0.00     0.064 H 
ATOM     50  H   LIG d   1       1.893  -0.575  -2.269  0.00  0.00     0.064 H 
BRANCH  48  51
ATOM     51  O   LIG d   1       1.834  -0.503  -4.333  0.00  0.00    -0.387 OA
ATOM     52  H   LIG d   1       2.422  -0.356  -5.086  0.00  0.00     0.210 HD
ENDBRANCH  48  51
ENDBRANCH  43  48
ENDBRANCH  38  41
ENDBRANCH  16  38
TORSDOF 8
ENDMDL
MODEL 3
REMARK VINA RESULT:      -7.3      3.103      4.278
REMARK  8 active torsions:
REMARK  status: ('A' for Active; 'I' for Inactive)
REMARK    1  A    between atoms: C_3  and  O_30 
REMARK    2  A    between atoms: C_6  and  C_7 
REMARK    3  A    between atoms: C_9  and  C_12 
REMARK    4  A    between atoms: C_22  and  C_23 
REMARK    5  A    between atoms: C_22  and  N_51 
REMARK    6  A    between atoms: C_26  and  C_28 
REMARK    7  A    between atoms: C_28  and  O_29 
REMARK    8  A    between atoms: O_30  and  C_31 
ROOT
ATOM      1  C   LIG d   1       6.419  -7.531  -5.812  0.00  0.00     0.066 C 
ATOM      2  H   LIG d   1       6.614  -7.960  -6.795  0.00  0.00     0.096 H 
ATOM      3  C   LIG d   1       5.003  -7.914  -5.359  0.00  0.00     0.043 C 
ATOM      4  C   LIG d   1       5.008  -9.386  -5.028  0.00  0.00     0.073 A 
ATOM      5  C   LIG d   1       6.137 -10.104  -4.839  0.00  0.00     0.084 A 
ATOM      6  N   LIG d   1       5.783 -11.361  -4.570  0.00  0.00    -0.344 N 
ATOM      7  C   LIG d   1       4.478 -11.453  -4.582  0.00  0.00     0.094 A 
ATOM      8  N   LIG d   1       3.960 -10.234  -4.866  0.00  0.00    -0.240 NA
ATOM      9  H   LIG d   1       6.415 -12.115  -4.386  0.00  0.00     0.167 HD
ATOM     10  C   LIG d   1       7.521  -9.511  -4.929  0.00  0.00     0.012 C 
ATOM     11  H   LIG d   1       4.731  -7.339  -4.474  0.00  0.00     0.039 H 
ATOM     12  H   LIG d   1       4.292  -7.719  -6.161  0.00  0.00     0.039 H 
ATOM     13  H   LIG d   1       3.908 -12.351  -4.398  0.00  0.00     0.103 H 
ATOM     14  H   LIG d   1       8.132  -9.876  -4.105  0.00  0.00     0.088 H 
ATOM     15  H   LIG d   1       7.979  -9.790  -5.879  0.00  0.00     0.088 H 
ATOM     16  N   LIG d   1       7.392  -8.037  -4.819  0.00  0.00     0.254 N 
ATOM     17  H   LIG d   1       7.059  -7.802  -3.877  0.00  0.00     0.205 HD
ENDROOT
BRANCH   1  18
ATOM     18  C   LIG d   1       6.530  -6.030  -5.890  0.00  0.00     0.276 A 
ATOM     19  N   LIG d   1       5.951  -5.165  -5.095  0.00  0.00    -0.186 NA
ATOM     20  C   LIG d   1       6.337  -3.948  -5.541  0.00  0.00     0.202 A 
ATOM     21  N   LIG d   1       7.119  -4.143  -6.572  0.00  0.00    -0.056 NA
ATOM     22  O   LIG d   1       7.243  -5.332  -6.780  0.00  0.00    -0.332 OA
BRANCH  20  23
ATOM     23  C   LIG d   1       5.945  -2.636  -4.970  0.00  0.00     0.023 A 
ATOM     24  C   LIG d   1       6.541  -2.179  -3.795  0.00  0.00    -0.048 A 
ATOM     25  C   LIG d   1       6.179  -0.957  -3.270  0.00  0.00    -0.019 A 
ATOM     26  H   LIG d   1       7.288  -2.782  -3.299  0.00  0.00     0.063 H 
ATOM     27  C   LIG d   1       5.214  -0.186  -3.903  0.00  0.00     0.130 A 
ATOM     28  H   LIG d   1       6.644  -0.602  -2.362  0.00  0.00     0.065 H 
ATOM     29  C   LIG d   1       4.615  -0.639  -5.071  0.00  0.00    -0.019 A 
ATOM     30  C   LIG d   1       4.977  -1.858  -5.604  0.00  0.00    -0.048 A 
ATOM     31  H   LIG d   1       3.865  -0.036  -5.562  0.00  0.00     0.065 H 
ATOM     32  H   LIG d   1       4.511  -2.211  -6.513  0.00  0.00     0.063 H 
BRANCH  27  33
ATOM     33  O   LIG d   1       4.855   1.016  -3.381  0.00  0.00    -0.406 OA
BRANCH  33  34
ATOM     34  C   LIG d   1       3.992   0.996  -2.241  0.00  0.00     0.575 C 
ATOM     35  F   LIG d   1       3.274  -0.205  -2.222  0.00  0.00    -0.133 F 
ATOM     36  F   LIG d   1       4.757   1.100  -1.075  0.00  0.00    -0.133 F 
ATOM     37  F   LIG d   1       3.100   2.071  -2.312  0.00  0.00    -0.133 F 
ENDBRANCH  33  34
ENDBRANCH  27  33
ENDBRANCH  20  23
ENDBRANCH   1  18
BRANCH  16  38
ATOM     38  C   LIG d   1       8.709  -7.400  -5.034  0.00  0.00     0.029 C 
ATOM     39  H   LIG d   1       9.377  -8.072  -5.571  0.00  0.00     0.090 H 
ATOM     40  H   LIG d   1       8.570  -6.487  -5.611  0.00  0.00     0.090 H 
BRANCH  38  41
ATOM     41  C   LIG d   1       9.306  -7.062  -3.692  0.00  0.00     0.150 A 
ATOM     42  O   LIG d   1       9.962  -7.914  -2.887  0.00  0.00    -0.457 OA
ATOM     43  C   LIG d   1      10.356  -7.268  -1.778  0.00  0.00     0.131 A 
ATOM     44  C   LIG d   1       9.944  -5.990  -1.860  0.00  0.00    -0.018 A 
ATOM     45  C   LIG d   1       9.267  -5.857  -3.095  0.00  0.00    -0.015 A 
ATOM     46  H   LIG d   1      10.100  -5.214  -1.126  0.00  0.00     0.065 H 
ATOM     47  H   LIG d   1       8.807  -4.961  -3.484  0.00  0.00     0.065 H 
BRANCH  43  48
ATOM     48  C   LIG d   1      11.123  -7.874  -0.631  0.00  0.00     0.102 C 
ATOM     49  H   LIG d   1      10.858  -8.926  -0.532  0.00  0.00     0.064 H 
ATOM     50  H   LIG d   1      12.193  -7.784  -0.823  0.00  0.00     0.064 H 
BRANCH  48  51
ATOM     51  O   LIG d   1      10.797  -7.185   0.578  0.00  0.00    -0.387 OA
ATOM     52  H   LIG d   1      10.382  -7.743   1.249  0.00  0.00     0.210 HD
ENDBRANCH  48  51
ENDBRANCH  43  48
ENDBRANCH  38  41
ENDBRANCH  16  38
TORSDOF 8
ENDMDL
MODEL 4
REMARK VINA RESULT:      -7.1      7.942     13.133
REMARK  8 active torsions:
REMARK  status: ('A' for Active; 'I' for Inactive)
REMARK    1  A    between atoms: C_3  and  O_30 
REMARK    2  A    between atoms: C_6  and  C_7 
REMARK    3  A    between atoms: C_9  and  C_12 
REMARK    4  A    between atoms: C_22  and  C_23 
REMARK    5  A    between atoms: C_22  and  N_51 
REMARK    6  A    between atoms: C_26  and  C_28 
REMARK    7  A    between atoms: C_28  and  O_29 
REMARK    8  A    between atoms: O_30  and  C_31 
ROOT
ATOM      1  C   LIG d   1      10.124   5.115  -5.437  0.00  0.00     0.066 C 
ATOM      2  H   LIG d   1       9.369   5.396  -6.171  0.00  0.00     0.096 H 
ATOM      3  C   LIG d   1      11.446   4.807  -6.155  0.00  0.00     0.043 C 
ATOM      4  C   LIG d   1      12.012   6.111  -6.658  0.00  0.00     0.073 A 
ATOM      5  C   LIG d   1      11.591   7.322  -6.229  0.00  0.00     0.084 A 
ATOM      6  N   LIG d   1      12.293   8.254  -6.875  0.00  0.00    -0.344 N 
ATOM      7  C   LIG d   1      13.135   7.669  -7.689  0.00  0.00     0.094 A 
ATOM      8  N   LIG d   1      12.986   6.328  -7.579  0.00  0.00    -0.240 NA
ATOM      9  H   LIG d   1      12.192   9.242  -6.757  0.00  0.00     0.167 HD
ATOM     10  C   LIG d   1      10.511   7.503  -5.190  0.00  0.00     0.012 C 
ATOM     11  H   LIG d   1      12.146   4.347  -5.459  0.00  0.00     0.039 H 
ATOM     12  H   LIG d   1      11.262   4.137  -6.995  0.00  0.00     0.039 H 
ATOM     13  H   LIG d   1      13.832   8.174  -8.341  0.00  0.00     0.103 H 
ATOM     14  H   LIG d   1      10.812   8.271  -4.478  0.00  0.00     0.088 H 
ATOM     15  H   LIG d   1       9.580   7.797  -5.677  0.00  0.00     0.088 H 
ATOM     16  N   LIG d   1      10.350   6.215  -4.473  0.00  0.00     0.254 N 
ATOM     17  H   LIG d   1      11.206   6.021  -3.941  0.00  0.00     0.205 HD
ENDROOT
BRANCH   1  18
ATOM     18  C   LIG d   1       9.664   3.891  -4.688  0.00  0.00     0.276 A 
ATOM     19  N   LIG d   1       8.577   3.199  -4.921  0.00  0.00    -0.186 NA
ATOM     20  C   LIG d   1       8.580   2.200  -4.010  0.00  0.00     0.202 A 
ATOM     21  N   LIG d   1       9.659   2.343  -3.282  0.00  0.00    -0.056 NA
ATOM     22  O   LIG d   1      10.292   3.305  -3.663  0.00  0.00    -0.332 OA
BRANCH  20  23
ATOM     23  C   LIG d   1       7.553   1.139  -3.862  0.00  0.00     0.023 A 
ATOM     24  C   LIG d   1       6.265   1.468  -3.442  0.00  0.00    -0.048 A 
ATOM     25  C   LIG d   1       5.311   0.482  -3.310  0.00  0.00    -0.019 A 
ATOM     26  H   LIG d   1       6.015   2.496  -3.223  0.00  0.00     0.063 H 
ATOM     27  C   LIG d   1       5.636  -0.840  -3.584  0.00  0.00     0.130 A 
ATOM     28  H   LIG d   1       4.313   0.737  -2.989  0.00  0.00     0.065 H 
ATOM     29  C   LIG d   1       6.919  -1.172  -3.999  0.00  0.00    -0.019 A 
ATOM     30  C   LIG d   1       7.875  -0.189  -4.137  0.00  0.00    -0.048 A 
ATOM     31  H   LIG d   1       7.168  -2.202  -4.212  0.00  0.00     0.065 H 
ATOM     32  H   LIG d   1       8.874  -0.448  -4.459  0.00  0.00     0.063 H 
BRANCH  27  33
ATOM     33  O   LIG d   1       4.695  -1.811  -3.448  0.00  0.00    -0.406 OA
BRANCH  33  34
ATOM     34  C   LIG d   1       3.839  -1.730  -2.306  0.00  0.00     0.575 C 
ATOM     35  F   LIG d   1       3.463  -3.019  -1.914  0.00  0.00    -0.133 F 
ATOM     36  F   LIG d   1       4.520  -1.104  -1.257  0.00  0.00    -0.133 F 
ATOM     37  F   LIG d   1       2.698  -0.989  -2.630  0.00  0.00    -0.133 F 
ENDBRANCH  33  34
ENDBRANCH  27  33
ENDBRANCH  20  23
ENDBRANCH   1  18
BRANCH  16  38
ATOM     38  C   LIG d   1       9.212   6.303  -3.533  0.00  0.00     0.029 C 
ATOM     39  H   LIG d   1       8.512   7.077  -3.849  0.00  0.00     0.090 H 
ATOM     40  H   LIG d   1       8.701   5.341  -3.504  0.00  0.00     0.090 H 
BRANCH  38  41
ATOM     41  C   LIG d   1       9.742   6.633  -2.162  0.00  0.00     0.150 A 
ATOM     42  O   LIG d   1      10.365   5.778  -1.334  0.00  0.00    -0.457 OA
ATOM     43  C   LIG d   1      10.702   6.416  -0.202  0.00  0.00     0.131 A 
ATOM     44  C   LIG d   1      10.284   7.692  -0.292  0.00  0.00    -0.018 A 
ATOM     45  C   LIG d   1       9.666   7.832  -1.556  0.00  0.00    -0.015 A 
ATOM     46  H   LIG d   1      10.400   8.462   0.456  0.00  0.00     0.065 H 
ATOM     47  H   LIG d   1       9.218   8.728  -1.959  0.00  0.00     0.065 H 
BRANCH  43  48
ATOM     48  C   LIG d   1      11.418   5.805   0.975  0.00  0.00     0.102 C 
ATOM     49  H   LIG d   1      12.175   5.108   0.617  0.00  0.00     0.064 H 
ATOM     50  H   LIG d   1      11.895   6.593   1.559  0.00  0.00     0.064 H 
BRANCH  48  51
ATOM     51  O   LIG d   1      10.478   5.107   1.795  0.00  0.00    -0.387 OA
ATOM     52  H   LIG d   1       9.555   5.269   1.560  0.00  0.00     0.210 HD
ENDBRANCH  48  51
ENDBRANCH  43  48
ENDBRANCH  38  41
ENDBRANCH  16  38
TORSDOF 8
ENDMDL
MODEL 5
REMARK VINA RESULT:      -7.0      7.991     13.602
REMARK  8 active torsions:
REMARK  status: ('A' for Active; 'I' for Inactive)
REMARK    1  A    between atoms: C_3  and  O_30 
REMARK    2  A    between atoms: C_6  and  C_7 
REMARK    3  A    between atoms: C_9  and  C_12 
REMARK    4  A    between atoms: C_22  and  C_23 
REMARK    5  A    between atoms: C_22  and  N_51 
REMARK    6  A    between atoms: C_26  and  C_28 
REMARK    7  A    between atoms: C_28  and  O_29 
REMARK    8  A    between atoms: O_30  and  C_31 
ROOT
ATOM      1  C   LIG d   1      10.774   4.844  -3.275  0.00  0.00     0.066 C 
ATOM      2  H   LIG d   1      11.813   4.721  -2.971  0.00  0.00     0.096 H 
ATOM      3  C   LIG d   1       9.979   5.493  -2.133  0.00  0.00     0.043 C 
ATOM      4  C   LIG d   1      10.416   6.933  -2.028  0.00  0.00     0.073 A 
ATOM      5  C   LIG d   1      11.106   7.575  -2.996  0.00  0.00     0.084 A 
ATOM      6  N   LIG d   1      11.331   8.823  -2.580  0.00  0.00    -0.344 N 
ATOM      7  C   LIG d   1      10.805   8.981  -1.393  0.00  0.00     0.094 A 
ATOM      8  N   LIG d   1      10.225   7.818  -1.015  0.00  0.00    -0.240 NA
ATOM      9  H   LIG d   1      11.822   9.525  -3.096  0.00  0.00     0.167 HD
ATOM     10  C   LIG d   1      11.511   6.925  -4.296  0.00  0.00     0.012 C 
ATOM     11  H   LIG d   1       8.913   5.447  -2.353  0.00  0.00     0.039 H 
ATOM     12  H   LIG d   1      10.188   4.975  -1.197  0.00  0.00     0.039 H 
ATOM     13  H   LIG d   1      10.832   9.890  -0.809  0.00  0.00     0.103 H 
ATOM     14  H   LIG d   1      11.320   7.608  -5.123  0.00  0.00     0.088 H 
ATOM     15  H   LIG d   1      12.571   6.671  -4.264  0.00  0.00     0.088 H 
ATOM     16  N   LIG d   1      10.681   5.709  -4.473  0.00  0.00     0.254 N 
ATOM     17  H   LIG d   1       9.702   5.990  -4.605  0.00  0.00     0.205 HD
ENDROOT
BRANCH   1  18
ATOM     18  C   LIG d   1      10.181   3.496  -3.595  0.00  0.00     0.276 A 
ATOM     19  N   LIG d   1       8.945   3.119  -3.383  0.00  0.00    -0.186 NA
ATOM     20  C   LIG d   1       8.874   1.843  -3.823  0.00  0.00     0.202 A 
ATOM     21  N   LIG d   1      10.060   1.521  -4.272  0.00  0.00    -0.056 NA
ATOM     22  O   LIG d   1      10.818   2.461  -4.151  0.00  0.00    -0.332 OA
BRANCH  20  23
ATOM     23  C   LIG d   1       7.675   0.969  -3.802  0.00  0.00     0.023 A 
ATOM     24  C   LIG d   1       6.450   1.474  -3.365  0.00  0.00    -0.048 A 
ATOM     25  C   LIG d   1       5.337   0.662  -3.352  0.00  0.00    -0.019 A 
ATOM     26  H   LIG d   1       6.374   2.501  -3.042  0.00  0.00     0.063 H 
ATOM     27  C   LIG d   1       5.436  -0.662  -3.761  0.00  0.00     0.130 A 
ATOM     28  H   LIG d   1       4.388   1.053  -3.018  0.00  0.00     0.065 H 
ATOM     29  C   LIG d   1       6.655  -1.169  -4.191  0.00  0.00    -0.019 A 
ATOM     30  C   LIG d   1       7.771  -0.359  -4.213  0.00  0.00    -0.048 A 
ATOM     31  H   LIG d   1       6.729  -2.199  -4.510  0.00  0.00     0.065 H 
ATOM     32  H   LIG d   1       8.719  -0.754  -4.547  0.00  0.00     0.063 H 
BRANCH  27  33
ATOM     33  O   LIG d   1       4.339  -1.462  -3.741  0.00  0.00    -0.406 OA
BRANCH  33  34
ATOM     34  C   LIG d   1       3.703  -1.660  -2.476  0.00  0.00     0.575 C 
ATOM     35  F   LIG d   1       4.481  -1.081  -1.468  0.00  0.00    -0.133 F 
ATOM     36  F   LIG d   1       2.439  -1.063  -2.490  0.00  0.00    -0.133 F 
ATOM     37  F   LIG d   1       3.569  -3.031  -2.230  0.00  0.00    -0.133 F 
ENDBRANCH  33  34
ENDBRANCH  27  33
ENDBRANCH  20  23
ENDBRANCH   1  18
BRANCH  16  38
ATOM     38  C   LIG d   1      11.130   4.964  -5.668  0.00  0.00     0.029 C 
ATOM     39  H   LIG d   1      12.212   5.037  -5.782  0.00  0.00     0.090 H 
ATOM     40  H   LIG d   1      10.845   3.918  -5.561  0.00  0.00     0.090 H 
BRANCH  38  41
ATOM     41  C   LIG d   1      10.456   5.547  -6.883  0.00  0.00     0.150 A 
ATOM     42  O   LIG d   1      10.491   6.837  -7.257  0.00  0.00    -0.457 OA
ATOM     43  C   LIG d   1       9.783   6.994  -8.387  0.00  0.00     0.131 A 
ATOM     44  C   LIG d   1       9.276   5.800  -8.742  0.00  0.00    -0.018 A 
ATOM     45  C   LIG d   1       9.710   4.867  -7.772  0.00  0.00    -0.015 A 
ATOM     46  H   LIG d   1       8.657   5.592  -9.602  0.00  0.00     0.065 H 
ATOM     47  H   LIG d   1       9.486   3.811  -7.749  0.00  0.00     0.065 H 
BRANCH  43  48
ATOM     48  C   LIG d   1       9.583   8.291  -9.128  0.00  0.00     0.102 C 
ATOM     49  H   LIG d   1      10.454   8.929  -8.985  0.00  0.00     0.064 H 
ATOM     50  H   LIG d   1       9.453   8.085 -10.192  0.00  0.00     0.064 H 
BRANCH  48  51
ATOM     51  O   LIG d   1       8.420   8.953  -8.626  0.00  0.00    -0.387 OA
ATOM     52  H   LIG d   1       7.759   9.154  -9.302  0.00  0.00     0.210 HD
ENDBRANCH  48  51
ENDBRANCH  43  48
ENDBRANCH  38  41
ENDBRANCH  16  38
TORSDOF 8
ENDMDL
MODEL 6
REMARK VINA RESULT:      -7.0      4.729      6.521
REMARK  8 active torsions:
REMARK  status: ('A' for Active; 'I' for Inactive)
REMARK    1  A    between atoms: C_3  and  O_30 
REMARK    2  A    between atoms: C_6  and  C_7 
REMARK    3  A    between atoms: C_9  and  C_12 
REMARK    4  A    between atoms: C_22  and  C_23 
REMARK    5  A    between atoms: C_22  and  N_51 
REMARK    6  A    between atoms: C_26  and  C_28 
REMARK    7  A    between atoms: C_28  and  O_29 
REMARK    8  A    between atoms: O_30  and  C_31 
ROOT
ATOM      1  C   LIG d   1       2.425  -1.541 -11.693  0.00  0.00     0.066 C 
ATOM      2  H   LIG d   1       2.902  -1.101 -12.569  0.00  0.00     0.096 H 
ATOM      3  C   LIG d   1       0.930  -1.191 -11.694  0.00  0.00     0.043 C 
ATOM      4  C   LIG d   1       0.273  -1.979 -12.799  0.00  0.00     0.073 A 
ATOM      5  C   LIG d   1       0.854  -3.038 -13.407  0.00  0.00     0.084 A 
ATOM      6  N   LIG d   1       0.008  -3.495 -14.331  0.00  0.00    -0.344 N 
ATOM      7  C   LIG d   1      -1.077  -2.762 -14.321  0.00  0.00     0.094 A 
ATOM      8  N   LIG d   1      -0.945  -1.803 -13.374  0.00  0.00    -0.240 NA
ATOM      9  H   LIG d   1       0.176  -4.274 -14.936  0.00  0.00     0.167 HD
ATOM     10  C   LIG d   1       2.223  -3.555 -13.041  0.00  0.00     0.012 C 
ATOM     11  H   LIG d   1       0.487  -1.461 -10.735  0.00  0.00     0.039 H 
ATOM     12  H   LIG d   1       0.801  -0.124 -11.875  0.00  0.00     0.039 H 
ATOM     13  H   LIG d   1      -1.934  -2.899 -14.963  0.00  0.00     0.103 H 
ATOM     14  H   LIG d   1       2.203  -4.643 -12.988  0.00  0.00     0.088 H 
ATOM     15  H   LIG d   1       2.947  -3.236 -13.790  0.00  0.00     0.088 H 
ATOM     16  N   LIG d   1       2.571  -3.014 -11.705  0.00  0.00     0.254 N 
ATOM     17  H   LIG d   1       1.935  -3.417 -11.006  0.00  0.00     0.205 HD
ENDROOT
BRANCH   1  18
ATOM     18  C   LIG d   1       3.067  -0.993 -10.444  0.00  0.00     0.276 A 
ATOM     19  N   LIG d   1       2.678  -1.205  -9.212  0.00  0.00    -0.186 NA
ATOM     20  C   LIG d   1       3.546  -0.520  -8.434  0.00  0.00     0.202 A 
ATOM     21  N   LIG d   1       4.403   0.064  -9.232  0.00  0.00    -0.056 NA
ATOM     22  O   LIG d   1       4.143  -0.202 -10.387  0.00  0.00    -0.332 OA
BRANCH  20  23
ATOM     23  C   LIG d   1       3.530  -0.443  -6.953  0.00  0.00     0.023 A 
ATOM     24  C   LIG d   1       2.630   0.404  -6.307  0.00  0.00    -0.048 A 
ATOM     25  C   LIG d   1       2.613   0.469  -4.930  0.00  0.00    -0.019 A 
ATOM     26  H   LIG d   1       1.944   1.005  -6.885  0.00  0.00     0.063 H 
ATOM     27  C   LIG d   1       3.500  -0.299  -4.186  0.00  0.00     0.130 A 
ATOM     28  H   LIG d   1       1.913   1.121  -4.430  0.00  0.00     0.065 H 
ATOM     29  C   LIG d   1       4.401  -1.139  -4.826  0.00  0.00    -0.019 A 
ATOM     30  C   LIG d   1       4.418  -1.213  -6.203  0.00  0.00    -0.048 A 
ATOM     31  H   LIG d   1       5.089  -1.736  -4.245  0.00  0.00     0.065 H 
ATOM     32  H   LIG d   1       5.120  -1.866  -6.701  0.00  0.00     0.063 H 
BRANCH  27  33
ATOM     33  O   LIG d   1       3.485  -0.228  -2.830  0.00  0.00    -0.406 OA
BRANCH  33  34
ATOM     34  C   LIG d   1       4.110   0.911  -2.232  0.00  0.00     0.575 C 
ATOM     35  F   LIG d   1       4.682   0.541  -1.010  0.00  0.00    -0.133 F 
ATOM     36  F   LIG d   1       5.107   1.396  -3.085  0.00  0.00    -0.133 F 
ATOM     37  F   LIG d   1       3.153   1.908  -2.017  0.00  0.00    -0.133 F 
ENDBRANCH  33  34
ENDBRANCH  27  33
ENDBRANCH  20  23
ENDBRANCH   1  18
BRANCH  16  38
ATOM     38  C   LIG d   1       3.959  -3.385 -11.358  0.00  0.00     0.029 C 
ATOM     39  H   LIG d   1       4.490  -3.750 -12.238  0.00  0.00     0.090 H 
ATOM     40  H   LIG d   1       4.472  -2.510 -10.961  0.00  0.00     0.090 H 
BRANCH  38  41
ATOM     41  C   LIG d   1       3.922  -4.466 -10.309  0.00  0.00     0.150 A 
ATOM     42  O   LIG d   1       4.157  -4.295  -8.997  0.00  0.00    -0.457 OA
ATOM     43  C   LIG d   1       4.035  -5.473  -8.364  0.00  0.00     0.131 A 
ATOM     44  C   LIG d   1       3.728  -6.416  -9.273  0.00  0.00    -0.018 A 
ATOM     45  C   LIG d   1       3.655  -5.766 -10.527  0.00  0.00    -0.015 A 
ATOM     46  H   LIG d   1       3.567  -7.467  -9.083  0.00  0.00     0.065 H 
ATOM     47  H   LIG d   1       3.429  -6.225 -11.478  0.00  0.00     0.065 H 
BRANCH  43  48
ATOM     48  C   LIG d   1       4.218  -5.702  -6.885  0.00  0.00     0.102 C 
ATOM     49  H   LIG d   1       4.220  -6.772  -6.681  0.00  0.00     0.064 H 
ATOM     50  H   LIG d   1       5.167  -5.268  -6.566  0.00  0.00     0.064 H 
BRANCH  48  51
ATOM     51  O   LIG d   1       3.147  -5.083  -6.171  0.00  0.00    -0.387 OA
ATOM     52  H   LIG d   1       3.419  -4.654  -5.348  0.00  0.00     0.210 HD
ENDBRANCH  48  51
ENDBRANCH  43  48
ENDBRANCH  38  41
ENDBRANCH  16  38
TORSDOF 8
ENDMDL
MODEL 7
REMARK VINA RESULT:      -7.0      7.219      9.345
REMARK  8 active torsions:
REMARK  status: ('A' for Active; 'I' for Inactive)
REMARK    1  A    between atoms: C_3  and  O_30 
REMARK    2  A    between atoms: C_6  and  C_7 
REMARK    3  A    between atoms: C_9  and  C_12 
REMARK    4  A    between atoms: C_22  and  C_23 
REMARK    5  A    between atoms: C_22  and  N_51 
REMARK    6  A    between atoms: C_26  and  C_28 
REMARK    7  A    between atoms: C_28  and  O_29 
REMARK    8  A    between atoms: O_30  and  C_31 
ROOT
ATOM      1  C   LIG d   1       7.237   0.791  -7.770  0.00  0.00     0.066 C 
ATOM      2  H   LIG d   1       7.684   0.039  -8.420  0.00  0.00     0.096 H 
ATOM      3  C   LIG d   1       6.581   1.883  -8.626  0.00  0.00     0.043 C 
ATOM      4  C   LIG d   1       5.349   1.292  -9.262  0.00  0.00     0.073 A 
ATOM      5  C   LIG d   1       4.777   0.138  -8.850  0.00  0.00     0.084 A 
ATOM      6  N   LIG d   1       3.717  -0.094  -9.626  0.00  0.00    -0.344 N 
ATOM      7  C   LIG d   1       3.607   0.870 -10.503  0.00  0.00     0.094 A 
ATOM      8  N   LIG d   1       4.612   1.756 -10.305  0.00  0.00    -0.240 NA
ATOM      9  H   LIG d   1       3.104  -0.881  -9.549  0.00  0.00     0.167 HD
ATOM     10  C   LIG d   1       5.304  -0.683  -7.700  0.00  0.00     0.012 C 
ATOM     11  H   LIG d   1       6.301   2.727  -7.996  0.00  0.00     0.039 H 
ATOM     12  H   LIG d   1       7.274   2.212  -9.400  0.00  0.00     0.039 H 
ATOM     13  H   LIG d   1       2.841   0.947 -11.261  0.00  0.00     0.103 H 
ATOM     14  H   LIG d   1       4.476  -1.008  -7.070  0.00  0.00     0.088 H 
ATOM     15  H   LIG d   1       5.838  -1.552  -8.084  0.00  0.00     0.088 H 
ATOM     16  N   LIG d   1       6.206   0.181  -6.900  0.00  0.00     0.254 N 
ATOM     17  H   LIG d   1       5.652   0.929  -6.466  0.00  0.00     0.205 HD
ENDROOT
BRANCH   1  18
ATOM     18  C   LIG d   1       8.308   1.407  -6.906  0.00  0.00     0.276 A 
ATOM     19  N   LIG d   1       8.182   2.468  -6.149  0.00  0.00    -0.186 NA
ATOM     20  C   LIG d   1       9.389   2.645  -5.567  0.00  0.00     0.202 A 
ATOM     21  N   LIG d   1      10.171   1.689  -6.001  0.00  0.00    -0.056 NA
ATOM     22  O   LIG d   1       9.563   0.970  -6.765  0.00  0.00    -0.332 OA
BRANCH  20  23
ATOM     23  C   LIG d   1       9.759   3.720  -4.614  0.00  0.00     0.023 A 
ATOM     24  C   LIG d   1       9.965   3.421  -3.268  0.00  0.00    -0.048 A 
ATOM     25  C   LIG d   1      10.314   4.421  -2.387  0.00  0.00    -0.019 A 
ATOM     26  H   LIG d   1       9.854   2.406  -2.918  0.00  0.00     0.063 H 
ATOM     27  C   LIG d   1      10.450   5.729  -2.836  0.00  0.00     0.130 A 
ATOM     28  H   LIG d   1      10.477   4.189  -1.345  0.00  0.00     0.065 H 
ATOM     29  C   LIG d   1      10.242   6.031  -4.175  0.00  0.00    -0.019 A 
ATOM     30  C   LIG d   1       9.898   5.033  -5.063  0.00  0.00    -0.048 A 
ATOM     31  H   LIG d   1      10.349   7.048  -4.522  0.00  0.00     0.065 H 
ATOM     32  H   LIG d   1       9.735   5.269  -6.104  0.00  0.00     0.063 H 
BRANCH  27  33
ATOM     33  O   LIG d   1      10.789   6.714  -1.964  0.00  0.00    -0.406 OA
BRANCH  33  34
ATOM     34  C   LIG d   1       9.754   7.619  -1.573  0.00  0.00     0.575 C 
ATOM     35  F   LIG d   1       8.509   7.003  -1.742  0.00  0.00    -0.133 F 
ATOM     36  F   LIG d   1       9.922   7.968  -0.229  0.00  0.00    -0.133 F 
ATOM     37  F   LIG d   1       9.816   8.770  -2.366  0.00  0.00    -0.133 F 
ENDBRANCH  33  34
ENDBRANCH  27  33
ENDBRANCH  20  23
ENDBRANCH   1  18
BRANCH  16  38
ATOM     38  C   LIG d   1       6.852  -0.615  -5.836  0.00  0.00     0.029 C 
ATOM     39  H   LIG d   1       6.906  -1.665  -6.121  0.00  0.00     0.090 H 
ATOM     40  H   LIG d   1       7.858  -0.232  -5.666  0.00  0.00     0.090 H 
BRANCH  38  41
ATOM     41  C   LIG d   1       6.042  -0.479  -4.572  0.00  0.00     0.150 A 
ATOM     42  O   LIG d   1       5.244   0.555  -4.259  0.00  0.00    -0.457 OA
ATOM     43  C   LIG d   1       4.680   0.337  -3.060  0.00  0.00     0.131 A 
ATOM     44  C   LIG d   1       5.123  -0.842  -2.588  0.00  0.00    -0.018 A 
ATOM     45  C   LIG d   1       6.002  -1.368  -3.563  0.00  0.00    -0.015 A 
ATOM     46  H   LIG d   1       4.859  -1.300  -1.647  0.00  0.00     0.065 H 
ATOM     47  H   LIG d   1       6.537  -2.304  -3.510  0.00  0.00     0.065 H 
BRANCH  43  48
ATOM     48  C   LIG d   1       3.718   1.262  -2.357  0.00  0.00     0.102 C 
ATOM     49  H   LIG d   1       2.815   0.713  -2.094  0.00  0.00     0.064 H 
ATOM     50  H   LIG d   1       4.185   1.651  -1.452  0.00  0.00     0.064 H 
BRANCH  48  51
ATOM     51  O   LIG d   1       3.382   2.347  -3.223  0.00  0.00    -0.387 OA
ATOM     52  H   LIG d   1       3.285   3.196  -2.771  0.00  0.00     0.210 HD
ENDBRANCH  48  51
ENDBRANCH  43  48
ENDBRANCH  38  41
ENDBRANCH  16  38
TORSDOF 8
ENDMDL
MODEL 8
REMARK VINA RESULT:      -6.9      1.813      2.254
REMARK  8 active torsions:
REMARK  status: ('A' for Active; 'I' for Inactive)
REMARK    1  A    between atoms: C_3  and  O_30 
REMARK    2  A    between atoms: C_6  and  C_7 
REMARK    3  A    between atoms: C_9  and  C_12 
REMARK    4  A    between atoms: C_22  and  C_23 
REMARK    5  A    between atoms: C_22  and  N_51 
REMARK    6  A    between atoms: C_26  and  C_28 
REMARK    7  A    between atoms: C_28  and  O_29 
REMARK    8  A    between atoms: O_30  and  C_31 
ROOT
ATOM      1  C   LIG d   1       4.392  -6.451  -8.720  0.00  0.00     0.066 C 
ATOM      2  H   LIG d   1       5.133  -6.645  -9.496  0.00  0.00     0.096 H 
ATOM      3  C   LIG d   1       3.052  -6.084  -9.374  0.00  0.00     0.043 C 
ATOM      4  C   LIG d   1       2.486  -7.334  -9.999  0.00  0.00     0.073 A 
ATOM      5  C   LIG d   1       2.927  -8.579  -9.708  0.00  0.00     0.084 A 
ATOM      6  N   LIG d   1       2.219  -9.445 -10.434  0.00  0.00    -0.344 N 
ATOM      7  C   LIG d   1       1.353  -8.788 -11.163  0.00  0.00     0.094 A 
ATOM      8  N   LIG d   1       1.493  -7.464 -10.916  0.00  0.00    -0.240 NA
ATOM      9  H   LIG d   1       2.331 -10.439 -10.422  0.00  0.00     0.167 HD
ATOM     10  C   LIG d   1       4.031  -8.856  -8.718  0.00  0.00     0.012 C 
ATOM     11  H   LIG d   1       2.363  -5.707  -8.617  0.00  0.00     0.039 H 
ATOM     12  H   LIG d   1       3.210  -5.327 -10.141  0.00  0.00     0.039 H 
ATOM     13  H   LIG d   1       0.646  -9.229 -11.850  0.00  0.00     0.103 H 
ATOM     14  H   LIG d   1       3.754  -9.697  -8.084  0.00  0.00     0.088 H 
ATOM     15  H   LIG d   1       4.953  -9.086  -9.253  0.00  0.00     0.088 H 
ATOM     16  N   LIG d   1       4.198  -7.649  -7.873  0.00  0.00     0.254 N 
ATOM     17  H   LIG d   1       3.352  -7.521  -7.305  0.00  0.00     0.205 HD
ENDROOT
BRANCH   1  18
ATOM     18  C   LIG d   1       4.857  -5.307  -7.856  0.00  0.00     0.276 A 
ATOM     19  N   LIG d   1       4.150  -4.676  -6.953  0.00  0.00    -0.186 NA
ATOM     20  C   LIG d   1       4.974  -3.737  -6.437  0.00  0.00     0.202 A 
ATOM     21  N   LIG d   1       6.123  -3.850  -7.053  0.00  0.00    -0.056 NA
ATOM     22  O   LIG d   1       6.072  -4.749  -7.865  0.00  0.00    -0.332 OA
BRANCH  20  23
ATOM     23  C   LIG d   1       4.638  -2.759  -5.373  0.00  0.00     0.023 A 
ATOM     24  C   LIG d   1       4.605  -3.162  -4.039  0.00  0.00    -0.048 A 
ATOM     25  C   LIG d   1       4.298  -2.250  -3.052  0.00  0.00    -0.019 A 
ATOM     26  H   LIG d   1       4.822  -4.187  -3.779  0.00  0.00     0.063 H 
ATOM     27  C   LIG d   1       4.012  -0.933  -3.386  0.00  0.00     0.130 A 
ATOM     28  H   LIG d   1       4.276  -2.561  -2.018  0.00  0.00     0.065 H 
ATOM     29  C   LIG d   1       4.040  -0.529  -4.714  0.00  0.00    -0.019 A 
ATOM     30  C   LIG d   1       4.351  -1.435  -5.705  0.00  0.00    -0.048 A 
ATOM     31  H   LIG d   1       3.817   0.497  -4.971  0.00  0.00     0.065 H 
ATOM     32  H   LIG d   1       4.373  -1.121  -6.739  0.00  0.00     0.063 H 
BRANCH  27  33
ATOM     33  O   LIG d   1       3.704  -0.037  -2.412  0.00  0.00    -0.406 OA
BRANCH  33  34
ATOM     34  C   LIG d   1       4.630   1.031  -2.198  0.00  0.00     0.575 C 
ATOM     35  F   LIG d   1       4.216   2.158  -2.917  0.00  0.00    -0.133 F 
ATOM     36  F   LIG d   1       4.677   1.340  -0.834  0.00  0.00    -0.133 F 
ATOM     37  F   LIG d   1       5.901   0.642  -2.633  0.00  0.00    -0.133 F 
ENDBRANCH  33  34
ENDBRANCH  27  33
ENDBRANCH  20  23
ENDBRANCH   1  18
BRANCH  16  38
ATOM     38  C   LIG d   1       5.357  -7.822  -6.972  0.00  0.00     0.029 C 
ATOM     39  H   LIG d   1       6.268  -7.990  -7.547  0.00  0.00     0.090 H 
ATOM     40  H   LIG d   1       5.471  -6.925  -6.365  0.00  0.00     0.090 H 
BRANCH  38  41
ATOM     41  C   LIG d   1       5.101  -9.007  -6.078  0.00  0.00     0.150 A 
ATOM     42  O   LIG d   1       4.148  -9.087  -5.135  0.00  0.00    -0.457 OA
ATOM     43  C   LIG d   1       4.211 -10.288  -4.536  0.00  0.00     0.131 A 
ATOM     44  C   LIG d   1       5.219 -10.986  -5.089  0.00  0.00    -0.018 A 
ATOM     45  C   LIG d   1       5.793 -10.161  -6.082  0.00  0.00    -0.015 A 
ATOM     46  H   LIG d   1       5.530 -11.987  -4.825  0.00  0.00     0.065 H 
ATOM     47  H   LIG d   1       6.626 -10.408  -6.723  0.00  0.00     0.065 H 
BRANCH  43  48
ATOM     48  C   LIG d   1       3.310 -10.768  -3.427  0.00  0.00     0.102 C 
ATOM     49  H   LIG d   1       2.763 -11.649  -3.760  0.00  0.00     0.064 H 
ATOM     50  H   LIG d   1       3.912 -11.021  -2.554  0.00  0.00     0.064 H 
BRANCH  48  51
ATOM     51  O   LIG d   1       2.384  -9.735  -3.084  0.00  0.00    -0.387 OA
ATOM     52  H   LIG d   1       2.741  -8.841  -3.173  0.00  0.00     0.210 HD
ENDBRANCH  48  51
ENDBRANCH  43  48
ENDBRANCH  38  41
ENDBRANCH  16  38
TORSDOF 8
ENDMDL
MODEL 9
REMARK VINA RESULT:      -6.7      7.809     12.550
REMARK  8 active torsions:
REMARK  status: ('A' for Active; 'I' for Inactive)
REMARK    1  A    between atoms: C_3  and  O_30 
REMARK    2  A    between atoms: C_6  and  C_7 
REMARK    3  A    between atoms: C_9  and  C_12 
REMARK    4  A    between atoms: C_22  and  C_23 
REMARK    5  A    between atoms: C_22  and  N_51 
REMARK    6  A    between atoms: C_26  and  C_28 
REMARK    7  A    between atoms: C_28  and  O_29 
REMARK    8  A    between atoms: O_30  and  C_31 
ROOT
ATOM      1  C   LIG d   1      12.589   2.792  -4.786  0.00  0.00     0.066 C 
ATOM      2  H   LIG d   1      13.132   3.113  -5.675  0.00  0.00     0.096 H 
ATOM      3  C   LIG d   1      13.288   1.569  -4.174  0.00  0.00     0.043 C 
ATOM      4  C   LIG d   1      14.583   2.038  -3.560  0.00  0.00     0.073 A 
ATOM      5  C   LIG d   1      14.861   3.337  -3.307  0.00  0.00     0.084 A 
ATOM      6  N   LIG d   1      16.082   3.398  -2.771  0.00  0.00    -0.344 N 
ATOM      7  C   LIG d   1      16.572   2.188  -2.680  0.00  0.00     0.094 A 
ATOM      8  N   LIG d   1      15.660   1.312  -3.165  0.00  0.00    -0.240 NA
ATOM      9  H   LIG d   1      16.547   4.236  -2.485  0.00  0.00     0.167 HD
ATOM     10  C   LIG d   1      13.902   4.463  -3.603  0.00  0.00     0.012 C 
ATOM     11  H   LIG d   1      12.654   1.129  -3.404  0.00  0.00     0.039 H 
ATOM     12  H   LIG d   1      13.493   0.834  -4.951  0.00  0.00     0.039 H 
ATOM     13  H   LIG d   1      17.544   1.932  -2.285  0.00  0.00     0.103 H 
ATOM     14  H   LIG d   1      13.880   5.158  -2.765  0.00  0.00     0.088 H 
ATOM     15  H   LIG d   1      14.218   4.985  -4.506  0.00  0.00     0.088 H 
ATOM     16  N   LIG d   1      12.552   3.875  -3.778  0.00  0.00     0.254 N 
ATOM     17  H   LIG d   1      12.240   3.484  -2.881  0.00  0.00     0.205 HD
ENDROOT
BRANCH   1  18
ATOM     18  C   LIG d   1      11.178   2.424  -5.166  0.00  0.00     0.276 A 
ATOM     19  N   LIG d   1      10.283   1.867  -4.388  0.00  0.00    -0.186 NA
ATOM     20  C   LIG d   1       9.176   1.727  -5.152  0.00  0.00     0.202 A 
ATOM     21  N   LIG d   1       9.460   2.202  -6.337  0.00  0.00    -0.056 NA
ATOM     22  O   LIG d   1      10.603   2.609  -6.358  0.00  0.00    -0.332 OA
BRANCH  20  23
ATOM     23  C   LIG d   1       7.880   1.143  -4.726  0.00  0.00     0.023 A 
ATOM     24  C   LIG d   1       7.270   1.580  -3.551  0.00  0.00    -0.048 A 
ATOM     25  C   LIG d   1       6.063   1.040  -3.160  0.00  0.00    -0.019 A 
ATOM     26  H   LIG d   1       7.741   2.343  -2.949  0.00  0.00     0.063 H 
ATOM     27  C   LIG d   1       5.461   0.053  -3.930  0.00  0.00     0.130 A 
ATOM     28  H   LIG d   1       5.589   1.381  -2.253  0.00  0.00     0.065 H 
ATOM     29  C   LIG d   1       6.068  -0.388  -5.098  0.00  0.00    -0.019 A 
ATOM     30  C   LIG d   1       7.273   0.153  -5.497  0.00  0.00    -0.048 A 
ATOM     31  H   LIG d   1       5.597  -1.155  -5.695  0.00  0.00     0.065 H 
ATOM     32  H   LIG d   1       7.745  -0.190  -6.405  0.00  0.00     0.063 H 
BRANCH  27  33
ATOM     33  O   LIG d   1       4.275  -0.482  -3.540  0.00  0.00    -0.406 OA
BRANCH  33  34
ATOM     34  C   LIG d   1       4.292  -1.329  -2.388  0.00  0.00     0.575 C 
ATOM     35  F   LIG d   1       4.344  -0.542  -1.232  0.00  0.00    -0.133 F 
ATOM     36  F   LIG d   1       3.133  -2.111  -2.368  0.00  0.00    -0.133 F 
ATOM     37  F   LIG d   1       5.416  -2.160  -2.437  0.00  0.00    -0.133 F 
ENDBRANCH  33  34
ENDBRANCH  27  33
ENDBRANCH  20  23
ENDBRANCH   1  18
BRANCH  16  38
ATOM     38  C   LIG d   1      11.599   4.923  -4.200  0.00  0.00     0.029 C 
ATOM     39  H   LIG d   1      12.105   5.687  -4.790  0.00  0.00     0.090 H 
ATOM     40  H   LIG d   1      10.810   4.466  -4.798  0.00  0.00     0.090 H 
BRANCH  38  41
ATOM     41  C   LIG d   1      10.997   5.553  -2.971  0.00  0.00     0.150 A 
ATOM     42  O   LIG d   1      10.455   6.780  -2.902  0.00  0.00    -0.457 OA
ATOM     43  C   LIG d   1      10.017   7.006  -1.653  0.00  0.00     0.131 A 
ATOM     44  C   LIG d   1      10.286   5.921  -0.904  0.00  0.00    -0.018 A 
ATOM     45  C   LIG d   1      10.918   4.984  -1.754  0.00  0.00    -0.015 A 
ATOM     46  H   LIG d   1      10.062   5.790   0.144  0.00  0.00     0.065 H 
ATOM     47  H   LIG d   1      11.270   4.001  -1.480  0.00  0.00     0.065 H 
BRANCH  43  48
ATOM     48  C   LIG d   1       9.344   8.265  -1.169  0.00  0.00     0.102 C 
ATOM     49  H   LIG d   1       9.824   8.603  -0.252  0.00  0.00     0.064 H 
ATOM     50  H   LIG d   1       9.432   9.039  -1.933  0.00  0.00     0.064 H 
BRANCH  48  51
ATOM     51  O   LIG d   1       7.963   8.001  -0.915  0.00  0.00    -0.387 OA
ATOM     52  H   LIG d   1       7.704   8.118   0.009  0.00  0.00     0.210 HD
ENDBRANCH  48  51
ENDBRANCH  43  48
ENDBRANCH  38  41
ENDBRANCH  16  38
TORSDOF 8
ENDMDL
MODEL 10
REMARK VINA RESULT:      -6.2      4.412      8.530
REMARK  8 active torsions:
REMARK  status: ('A' for Active; 'I' for Inactive)
REMARK    1  A    between atoms: C_3  and  O_30 
REMARK    2  A    between atoms: C_6  and  C_7 
REMARK    3  A    between atoms: C_9  and  C_12 
REMARK    4  A    between atoms: C_22  and  C_23 
REMARK    5  A    between atoms: C_22  and  N_51 
REMARK    6  A    between atoms: C_26  and  C_28 
REMARK    7  A    between atoms: C_28  and  O_29 
REMARK    8  A    between atoms: O_30  and  C_31 
ROOT
ATOM      1  C   LIG d   1       4.319  -3.316  -7.040  0.00  0.00     0.066 C 
ATOM      2  H   LIG d   1       3.486  -3.332  -6.337  0.00  0.00     0.096 H 
ATOM      3  C   LIG d   1       3.775  -3.296  -8.476  0.00  0.00     0.043 C 
ATOM      4  C   LIG d   1       3.173  -1.935  -8.721  0.00  0.00     0.073 A 
ATOM      5  C   LIG d   1       3.408  -0.863  -7.932  0.00  0.00     0.084 A 
ATOM      6  N   LIG d   1       2.722   0.169  -8.428  0.00  0.00    -0.344 N 
ATOM      7  C   LIG d   1       2.073  -0.220  -9.496  0.00  0.00     0.094 A 
ATOM      8  N   LIG d   1       2.332  -1.532  -9.708  0.00  0.00    -0.240 NA
ATOM      9  H   LIG d   1       2.708   1.093  -8.045  0.00  0.00     0.167 HD
ATOM     10  C   LIG d   1       4.306  -0.905  -6.721  0.00  0.00     0.012 C 
ATOM     11  H   LIG d   1       4.589  -3.471  -9.181  0.00  0.00     0.039 H 
ATOM     12  H   LIG d   1       3.011  -4.064  -8.593  0.00  0.00     0.039 H 
ATOM     13  H   LIG d   1       1.434   0.402 -10.105  0.00  0.00     0.103 H 
ATOM     14  H   LIG d   1       4.944  -0.023  -6.705  0.00  0.00     0.088 H 
ATOM     15  H   LIG d   1       3.699  -0.937  -5.816  0.00  0.00     0.088 H 
ATOM     16  N   LIG d   1       5.157  -2.115  -6.829  0.00  0.00     0.254 N 
ATOM     17  H   LIG d   1       5.790  -2.006  -7.631  0.00  0.00     0.205 HD
ENDROOT
BRANCH   1  18
ATOM     18  C   LIG d   1       5.165  -4.548  -6.842  0.00  0.00     0.276 A 
ATOM     19  N   LIG d   1       5.102  -5.380  -5.833  0.00  0.00    -0.186 NA
ATOM     20  C   LIG d   1       6.039  -6.323  -6.082  0.00  0.00     0.202 A 
ATOM     21  N   LIG d   1       6.611  -6.010  -7.216  0.00  0.00    -0.056 NA
ATOM     22  O   LIG d   1       6.117  -4.998  -7.666  0.00  0.00    -0.332 OA
BRANCH  20  23
ATOM     23  C   LIG d   1       6.360  -7.493  -5.228  0.00  0.00     0.023 A 
ATOM     24  C   LIG d   1       5.366  -8.416  -4.906  0.00  0.00    -0.048 A 
ATOM     25  C   LIG d   1       5.668  -9.505  -4.117  0.00  0.00    -0.019 A 
ATOM     26  H   LIG d   1       4.361  -8.279  -5.277  0.00  0.00     0.063 H 
ATOM     27  C   LIG d   1       6.959  -9.678  -3.634  0.00  0.00     0.130 A 
ATOM     28  H   LIG d   1       4.899 -10.222  -3.871  0.00  0.00     0.065 H 
ATOM     29  C   LIG d   1       7.950  -8.759  -3.949  0.00  0.00    -0.019 A 
ATOM     30  C   LIG d   1       7.655  -7.670  -4.743  0.00  0.00    -0.048 A 
ATOM     31  H   LIG d   1       8.953  -8.896  -3.573  0.00  0.00     0.065 H 
ATOM     32  H   LIG d   1       8.426  -6.954  -4.987  0.00  0.00     0.063 H 
BRANCH  27  33
ATOM     33  O   LIG d   1       7.252 -10.750  -2.852  0.00  0.00    -0.406 OA
BRANCH  33  34
ATOM     34  C   LIG d   1       7.020 -10.612  -1.448  0.00  0.00     0.575 C 
ATOM     35  F   LIG d   1       7.360  -9.316  -1.045  0.00  0.00    -0.133 F 
ATOM     36  F   LIG d   1       5.668 -10.845  -1.175  0.00  0.00    -0.133 F 
ATOM     37  F   LIG d   1       7.804 -11.538  -0.752  0.00  0.00    -0.133 F 
ENDBRANCH  33  34
ENDBRANCH  27  33
ENDBRANCH  20  23
ENDBRANCH   1  18
BRANCH  16  38
ATOM     38  C   LIG d   1       5.964  -2.273  -5.601  0.00  0.00     0.029 C 
ATOM     39  H   LIG d   1       6.189  -3.324  -5.422  0.00  0.00     0.090 H 
ATOM     40  H   LIG d   1       6.894  -1.716  -5.713  0.00  0.00     0.090 H 
BRANCH  38  41
ATOM     41  C   LIG d   1       5.184  -1.719  -4.436  0.00  0.00     0.150 A 
ATOM     42  O   LIG d   1       5.187  -0.441  -4.025  0.00  0.00    -0.457 OA
ATOM     43  C   LIG d   1       4.376  -0.310  -2.963  0.00  0.00     0.131 A 
ATOM     44  C   LIG d   1       3.851  -1.515  -2.678  0.00  0.00    -0.018 A 
ATOM     45  C   LIG d   1       4.372  -2.424  -3.627  0.00  0.00    -0.015 A 
ATOM     46  H   LIG d   1       3.163  -1.744  -1.877  0.00  0.00     0.065 H 
ATOM     47  H   LIG d   1       4.159  -3.480  -3.692  0.00  0.00     0.065 H 
BRANCH  43  48
ATOM     48  C   LIG d   1       4.106   0.969  -2.213  0.00  0.00     0.102 C 
ATOM     49  H   LIG d   1       3.333   0.796  -1.466  0.00  0.00     0.064 H 
ATOM     50  H   LIG d   1       5.021   1.301  -1.720  0.00  0.00     0.064 H 
BRANCH  48  51
ATOM     51  O   LIG d   1       3.668   1.976  -3.128  0.00  0.00    -0.387 OA
ATOM     52  H   LIG d   1       3.620   2.862  -2.745  0.00  0.00     0.210 HD
ENDBRANCH  48  51
ENDBRANCH  43  48
ENDBRANCH  38  41
ENDBRANCH  16  38
TORSDOF 8
ENDMDL
