MODEL 1
REMARK VINA RESULT:      -4.6      0.000      0.000
REMARK  3 active torsions:
REMARK  status: ('A' for Active; 'I' for Inactive)
REMARK    1  A    between atoms: C_7  and  S_11 
REMARK    2  A    between atoms: S_11  and  C_12 
REMARK    3  A    between atoms: C_12  and  C_13 
ROOT
ATOM      1  C   LIG d   1       2.804   0.316  -6.081  0.00  0.00     0.096 A 
ATOM      2  N   LIG d   1       2.138   0.012  -4.931  0.00  0.00    -0.329 N 
ATOM      3  H   LIG d   1       1.209   0.211  -4.735  0.00  0.00     0.168 HD
ATOM      4  C   LIG d   1       3.023  -0.626  -4.100  0.00  0.00     0.162 A 
ATOM      5  C   LIG d   1       4.239  -0.689  -4.803  0.00  0.00     0.139 A 
ATOM      6  N   LIG d   1       4.035  -0.097  -6.004  0.00  0.00    -0.232 NA
ATOM      7  C   LIG d   1       5.337  -1.304  -4.176  0.00  0.00     0.128 A 
ATOM      8  N   LIG d   1       5.174  -1.795  -2.950  0.00  0.00    -0.227 NA
ATOM      9  C   LIG d   1       4.012  -1.711  -2.330  0.00  0.00     0.120 A 
ATOM     10  N   LIG d   1       2.957  -1.145  -2.878  0.00  0.00    -0.216 NA
ATOM     11  H   LIG d   1       2.371   0.819  -6.932  0.00  0.00     0.103 H 
ATOM     12  H   LIG d   1       3.923  -2.122  -1.335  0.00  0.00     0.105 H 
ENDROOT
BRANCH   7  13
ATOM     13  S   LIG d   1       6.892  -1.422  -4.995  0.00  0.00    -0.098 SA
BRANCH  13  14
ATOM     14  C   LIG d   1       7.931  -0.203  -4.141  0.00  0.00     0.039 C 
ATOM     15  H   LIG d   1       7.962  -0.434  -3.077  0.00  0.00     0.044 H 
ATOM     16  H   LIG d   1       8.940  -0.237  -4.551  0.00  0.00     0.044 H 
BRANCH  14  17
ATOM     17  C   LIG d   1       7.354   1.175  -4.339  0.00  0.00     0.052 C 
ATOM     18  O   LIG d   1       7.441   1.721  -5.427  0.00  0.00    -0.549 OA
ATOM     19  O   LIG d   1       6.803   1.744  -3.414  0.00  0.00    -0.549 OA
ENDBRANCH  14  17
ENDBRANCH  13  14
ENDBRANCH   7  13
TORSDOF 3
ENDMDL
MODEL 2
REMARK VINA RESULT:      -4.3      3.045      4.303
REMARK  3 active torsions:
REMARK  status: ('A' for Active; 'I' for Inactive)
REMARK    1  A    between atoms: C_7  and  S_11 
REMARK    2  A    between atoms: S_11  and  C_12 
REMARK    3  A    between atoms: C_12  and  C_13 
ROOT
ATOM      1  C   LIG d   1       5.109  -3.213  -4.482  0.00  0.00     0.096 A 
ATOM      2  N   LIG d   1       4.297  -2.655  -3.539  0.00  0.00    -0.329 N 
ATOM      3  H   LIG d   1       4.126  -3.004  -2.649  0.00  0.00     0.168 HD
ATOM      4  C   LIG d   1       3.767  -1.511  -4.078  0.00  0.00     0.162 A 
ATOM      5  C   LIG d   1       4.296  -1.413  -5.377  0.00  0.00     0.139 A 
ATOM      6  N   LIG d   1       5.107  -2.483  -5.558  0.00  0.00    -0.232 NA
ATOM      7  C   LIG d   1       3.914  -0.316  -6.168  0.00  0.00     0.128 A 
ATOM      8  N   LIG d   1       3.071   0.575  -5.652  0.00  0.00    -0.227 NA
ATOM      9  C   LIG d   1       2.600   0.439  -4.426  0.00  0.00     0.120 A 
ATOM     10  N   LIG d   1       2.931  -0.571  -3.649  0.00  0.00    -0.216 NA
ATOM     11  H   LIG d   1       5.674  -4.124  -4.351  0.00  0.00     0.103 H 
ATOM     12  H   LIG d   1       1.918   1.185  -4.046  0.00  0.00     0.105 H 
ENDROOT
BRANCH   7  13
ATOM     13  S   LIG d   1       4.537  -0.125  -7.804  0.00  0.00    -0.098 SA
BRANCH  13  14
ATOM     14  C   LIG d   1       3.256   0.843  -8.651  0.00  0.00     0.039 C 
ATOM     15  H   LIG d   1       2.602   0.173  -9.207  0.00  0.00     0.044 H 
ATOM     16  H   LIG d   1       2.672   1.394  -7.914  0.00  0.00     0.044 H 
BRANCH  14  17
ATOM     17  C   LIG d   1       3.907   1.813  -9.603  0.00  0.00     0.052 C 
ATOM     18  O   LIG d   1       4.004   1.534 -10.786  0.00  0.00    -0.549 OA
ATOM     19  O   LIG d   1       4.338   2.876  -9.191  0.00  0.00    -0.549 OA
ENDBRANCH  14  17
ENDBRANCH  13  14
ENDBRANCH   7  13
TORSDOF 3
ENDMDL
MODEL 3
REMARK VINA RESULT:      -4.2      3.190      4.657
REMARK  3 active torsions:
REMARK  status: ('A' for Active; 'I' for Inactive)
REMARK    1  A    between atoms: C_7  and  S_11 
REMARK    2  A    between atoms: S_11  and  C_12 
REMARK    3  A    between atoms: C_12  and  C_13 
ROOT
ATOM      1  C   LIG d   1       3.514  -2.804  -9.188  0.00  0.00     0.096 A 
ATOM      2  N   LIG d   1       3.081  -1.774  -9.968  0.00  0.00    -0.329 N 
ATOM      3  H   LIG d   1       2.832  -1.828 -10.905  0.00  0.00     0.168 HD
ATOM      4  C   LIG d   1       3.061  -0.646  -9.188  0.00  0.00     0.162 A 
ATOM      5  C   LIG d   1       3.500  -1.048  -7.914  0.00  0.00     0.139 A 
ATOM      6  N   LIG d   1       3.759  -2.376  -7.983  0.00  0.00    -0.232 NA
ATOM      7  C   LIG d   1       3.576  -0.077  -6.901  0.00  0.00     0.128 A 
ATOM      8  N   LIG d   1       3.232   1.174  -7.196  0.00  0.00    -0.227 NA
ATOM      9  C   LIG d   1       2.827   1.504  -8.408  0.00  0.00     0.120 A 
ATOM     10  N   LIG d   1       2.738   0.628  -9.387  0.00  0.00    -0.216 NA
ATOM     11  H   LIG d   1       3.632  -3.825  -9.519  0.00  0.00     0.103 H 
ATOM     12  H   LIG d   1       2.557   2.531  -8.604  0.00  0.00     0.105 H 
ENDROOT
BRANCH   7  13
ATOM     13  S   LIG d   1       4.115  -0.506  -5.280  0.00  0.00    -0.098 SA
BRANCH  13  14
ATOM     14  C   LIG d   1       3.004   0.423  -4.188  0.00  0.00     0.039 C 
ATOM     15  H   LIG d   1       2.458   1.165  -4.770  0.00  0.00     0.044 H 
ATOM     16  H   LIG d   1       2.297  -0.264  -3.720  0.00  0.00     0.044 H 
BRANCH  14  17
ATOM     17  C   LIG d   1       3.811   1.116  -3.121  0.00  0.00     0.052 C 
ATOM     18  O   LIG d   1       4.919   1.555  -3.383  0.00  0.00    -0.549 OA
ATOM     19  O   LIG d   1       3.360   1.236  -1.995  0.00  0.00    -0.549 OA
ENDBRANCH  14  17
ENDBRANCH  13  14
ENDBRANCH   7  13
TORSDOF 3
ENDMDL
MODEL 4
REMARK VINA RESULT:      -4.2      2.505      2.678
REMARK  3 active torsions:
REMARK  status: ('A' for Active; 'I' for Inactive)
REMARK    1  A    between atoms: C_7  and  S_11 
REMARK    2  A    between atoms: S_11  and  C_12 
REMARK    3  A    between atoms: C_12  and  C_13 
ROOT
ATOM      1  C   LIG d   1       2.807   0.302  -5.900  0.00  0.00     0.096 A 
ATOM      2  N   LIG d   1       2.142  -0.124  -4.788  0.00  0.00    -0.329 N 
ATOM      3  H   LIG d   1       1.187  -0.054  -4.628  0.00  0.00     0.168 HD
ATOM      4  C   LIG d   1       3.069  -0.671  -3.938  0.00  0.00     0.162 A 
ATOM      5  C   LIG d   1       4.309  -0.552  -4.589  0.00  0.00     0.139 A 
ATOM      6  N   LIG d   1       4.078   0.049  -5.781  0.00  0.00    -0.232 NA
ATOM      7  C   LIG d   1       5.453  -1.040  -3.933  0.00  0.00     0.128 A 
ATOM      8  N   LIG d   1       5.307  -1.589  -2.730  0.00  0.00    -0.227 NA
ATOM      9  C   LIG d   1       4.120  -1.678  -2.159  0.00  0.00     0.120 A 
ATOM     10  N   LIG d   1       3.023  -1.235  -2.736  0.00  0.00    -0.216 NA
ATOM     11  H   LIG d   1       2.345   0.774  -6.754  0.00  0.00     0.103 H 
ATOM     12  H   LIG d   1       4.047  -2.130  -1.181  0.00  0.00     0.105 H 
ENDROOT
BRANCH   7  13
ATOM     13  S   LIG d   1       7.041  -0.927  -4.687  0.00  0.00    -0.098 SA
BRANCH  13  14
ATOM     14  C   LIG d   1       7.212  -2.495  -5.585  0.00  0.00     0.039 C 
ATOM     15  H   LIG d   1       6.242  -2.797  -5.978  0.00  0.00     0.044 H 
ATOM     16  H   LIG d   1       7.914  -2.366  -6.409  0.00  0.00     0.044 H 
BRANCH  14  17
ATOM     17  C   LIG d   1       7.727  -3.557  -4.648  0.00  0.00     0.052 C 
ATOM     18  O   LIG d   1       7.602  -4.736  -4.936  0.00  0.00    -0.549 OA
ATOM     19  O   LIG d   1       8.267  -3.239  -3.603  0.00  0.00    -0.549 OA
ENDBRANCH  14  17
ENDBRANCH  13  14
ENDBRANCH   7  13
TORSDOF 3
ENDMDL
MODEL 5
REMARK VINA RESULT:      -4.2      3.184      4.427
REMARK  3 active torsions:
REMARK  status: ('A' for Active; 'I' for Inactive)
REMARK    1  A    between atoms: C_7  and  S_11 
REMARK    2  A    between atoms: S_11  and  C_12 
REMARK    3  A    between atoms: C_12  and  C_13 
ROOT
ATOM      1  C   LIG d   1       3.708   2.239  -9.348  0.00  0.00     0.096 A 
ATOM      2  N   LIG d   1       4.520   1.242  -9.801  0.00  0.00    -0.329 N 
ATOM      3  H   LIG d   1       4.990   1.225 -10.650  0.00  0.00     0.168 HD
ATOM      4  C   LIG d   1       4.552   0.268  -8.836  0.00  0.00     0.162 A 
ATOM      5  C   LIG d   1       3.727   0.726  -7.794  0.00  0.00     0.139 A 
ATOM      6  N   LIG d   1       3.245   1.935  -8.171  0.00  0.00    -0.232 NA
ATOM      7  C   LIG d   1       3.577  -0.089  -6.659  0.00  0.00     0.128 A 
ATOM      8  N   LIG d   1       4.221  -1.252  -6.625  0.00  0.00    -0.227 NA
ATOM      9  C   LIG d   1       4.984  -1.641  -7.629  0.00  0.00     0.120 A 
ATOM     10  N   LIG d   1       5.155  -0.910  -8.711  0.00  0.00    -0.216 NA
ATOM     11  H   LIG d   1       3.487   3.149  -9.885  0.00  0.00     0.103 H 
ATOM     12  H   LIG d   1       5.488  -2.593  -7.560  0.00  0.00     0.105 H 
ENDROOT
BRANCH   7  13
ATOM     13  S   LIG d   1       2.561   0.420  -5.313  0.00  0.00    -0.098 SA
BRANCH  13  14
ATOM     14  C   LIG d   1       3.540   0.005  -3.843  0.00  0.00     0.039 C 
ATOM     15  H   LIG d   1       3.054  -0.804  -3.298  0.00  0.00     0.044 H 
ATOM     16  H   LIG d   1       4.538  -0.311  -4.149  0.00  0.00     0.044 H 
BRANCH  14  17
ATOM     17  C   LIG d   1       3.649   1.216  -2.953  0.00  0.00     0.052 C 
ATOM     18  O   LIG d   1       3.612   2.335  -3.438  0.00  0.00    -0.549 OA
ATOM     19  O   LIG d   1       3.774   1.079  -1.748  0.00  0.00    -0.549 OA
ENDBRANCH  14  17
ENDBRANCH  13  14
ENDBRANCH   7  13
TORSDOF 3
ENDMDL
MODEL 6
REMARK VINA RESULT:      -4.1      1.706      2.727
REMARK  3 active torsions:
REMARK  status: ('A' for Active; 'I' for Inactive)
REMARK    1  A    between atoms: C_7  and  S_11 
REMARK    2  A    between atoms: S_11  and  C_12 
REMARK    3  A    between atoms: C_12  and  C_13 
ROOT
ATOM      1  C   LIG d   1       5.300  -1.364  -7.865  0.00  0.00     0.096 A 
ATOM      2  N   LIG d   1       4.224  -0.551  -8.063  0.00  0.00    -0.329 N 
ATOM      3  H   LIG d   1       3.877  -0.256  -8.920  0.00  0.00     0.168 HD
ATOM      4  C   LIG d   1       3.722  -0.225  -6.829  0.00  0.00     0.162 A 
ATOM      5  C   LIG d   1       4.542  -0.877  -5.892  0.00  0.00     0.139 A 
ATOM      6  N   LIG d   1       5.484  -1.554  -6.591  0.00  0.00    -0.232 NA
ATOM      7  C   LIG d   1       4.248  -0.715  -4.527  0.00  0.00     0.128 A 
ATOM      8  N   LIG d   1       3.212   0.047  -4.188  0.00  0.00    -0.227 NA
ATOM      9  C   LIG d   1       2.471   0.640  -5.105  0.00  0.00     0.120 A 
ATOM     10  N   LIG d   1       2.707   0.516  -6.394  0.00  0.00    -0.216 NA
ATOM     11  H   LIG d   1       5.906  -1.791  -8.650  0.00  0.00     0.103 H 
ATOM     12  H   LIG d   1       1.639   1.250  -4.786  0.00  0.00     0.105 H 
ENDROOT
BRANCH   7  13
ATOM     13  S   LIG d   1       5.231  -1.502  -3.295  0.00  0.00    -0.098 SA
BRANCH  13  14
ATOM     14  C   LIG d   1       6.781  -0.560  -3.302  0.00  0.00     0.039 C 
ATOM     15  H   LIG d   1       7.361  -0.807  -2.414  0.00  0.00     0.044 H 
ATOM     16  H   LIG d   1       7.355  -0.812  -4.194  0.00  0.00     0.044 H 
BRANCH  14  17
ATOM     17  C   LIG d   1       6.472   0.915  -3.305  0.00  0.00     0.052 C 
ATOM     18  O   LIG d   1       5.771   1.393  -2.428  0.00  0.00    -0.549 OA
ATOM     19  O   LIG d   1       6.921   1.631  -4.183  0.00  0.00    -0.549 OA
ENDBRANCH  14  17
ENDBRANCH  13  14
ENDBRANCH   7  13
TORSDOF 3
ENDMDL
MODEL 7
REMARK VINA RESULT:      -4.1      0.674      2.478
REMARK  3 active torsions:
REMARK  status: ('A' for Active; 'I' for Inactive)
REMARK    1  A    between atoms: C_7  and  S_11 
REMARK    2  A    between atoms: S_11  and  C_12 
REMARK    3  A    between atoms: C_12  and  C_13 
ROOT
ATOM      1  C   LIG d   1       3.996  -1.950  -2.339  0.00  0.00     0.096 A 
ATOM      2  N   LIG d   1       2.910  -1.191  -2.661  0.00  0.00    -0.329 N 
ATOM      3  H   LIG d   1       2.126  -1.046  -2.107  0.00  0.00     0.168 HD
ATOM      4  C   LIG d   1       3.129  -0.670  -3.910  0.00  0.00     0.162 A 
ATOM      5  C   LIG d   1       4.386  -1.149  -4.316  0.00  0.00     0.139 A 
ATOM      6  N   LIG d   1       4.860  -1.923  -3.311  0.00  0.00    -0.232 NA
ATOM      7  C   LIG d   1       4.867  -0.763  -5.579  0.00  0.00     0.128 A 
ATOM      8  N   LIG d   1       4.112   0.034  -6.329  0.00  0.00    -0.227 NA
ATOM      9  C   LIG d   1       2.936   0.458  -5.904  0.00  0.00     0.120 A 
ATOM     10  N   LIG d   1       2.446   0.124  -4.729  0.00  0.00    -0.216 NA
ATOM     11  H   LIG d   1       4.122  -2.489  -1.412  0.00  0.00     0.103 H 
ATOM     12  H   LIG d   1       2.355   1.105  -6.545  0.00  0.00     0.105 H 
ENDROOT
BRANCH   7  13
ATOM     13  S   LIG d   1       6.435  -1.324  -6.155  0.00  0.00    -0.098 SA
BRANCH  13  14
ATOM     14  C   LIG d   1       7.624  -0.513  -5.050  0.00  0.00     0.039 C 
ATOM     15  H   LIG d   1       7.492  -0.888  -4.035  0.00  0.00     0.044 H 
ATOM     16  H   LIG d   1       8.638  -0.727  -5.388  0.00  0.00     0.044 H 
BRANCH  14  17
ATOM     17  C   LIG d   1       7.392   0.976  -5.069  0.00  0.00     0.052 C 
ATOM     18  O   LIG d   1       7.564   1.607  -6.099  0.00  0.00    -0.549 OA
ATOM     19  O   LIG d   1       7.034   1.551  -4.055  0.00  0.00    -0.549 OA
ENDBRANCH  14  17
ENDBRANCH  13  14
ENDBRANCH   7  13
TORSDOF 3
ENDMDL
MODEL 8
REMARK VINA RESULT:      -4.1      2.905      3.634
REMARK  3 active torsions:
REMARK  status: ('A' for Active; 'I' for Inactive)
REMARK    1  A    between atoms: C_7  and  S_11 
REMARK    2  A    between atoms: S_11  and  C_12 
REMARK    3  A    between atoms: C_12  and  C_13 
ROOT
ATOM      1  C   LIG d   1       5.107  -0.060  -7.521  0.00  0.00     0.096 A 
ATOM      2  N   LIG d   1       4.881  -1.242  -8.163  0.00  0.00    -0.329 N 
ATOM      3  H   LIG d   1       4.841  -1.376  -9.123  0.00  0.00     0.168 HD
ATOM      4  C   LIG d   1       4.720  -2.207  -7.201  0.00  0.00     0.162 A 
ATOM      5  C   LIG d   1       4.859  -1.551  -5.966  0.00  0.00     0.139 A 
ATOM      6  N   LIG d   1       5.094  -0.244  -6.233  0.00  0.00    -0.232 NA
ATOM      7  C   LIG d   1       4.740  -2.314  -4.792  0.00  0.00     0.128 A 
ATOM      8  N   LIG d   1       4.500  -3.618  -4.905  0.00  0.00    -0.227 NA
ATOM      9  C   LIG d   1       4.376  -4.189  -6.089  0.00  0.00     0.120 A 
ATOM     10  N   LIG d   1       4.482  -3.514  -7.214  0.00  0.00    -0.216 NA
ATOM     11  H   LIG d   1       5.276   0.888  -8.011  0.00  0.00     0.103 H 
ATOM     12  H   LIG d   1       4.182  -5.250  -6.136  0.00  0.00     0.105 H 
ENDROOT
BRANCH   7  13
ATOM     13  S   LIG d   1       4.903  -1.562  -3.207  0.00  0.00    -0.098 SA
BRANCH  13  14
ATOM     14  C   LIG d   1       3.261  -0.863  -2.882  0.00  0.00     0.039 C 
ATOM     15  H   LIG d   1       2.553  -1.239  -3.620  0.00  0.00     0.044 H 
ATOM     16  H   LIG d   1       2.934  -1.153  -1.883  0.00  0.00     0.044 H 
BRANCH  14  17
ATOM     17  C   LIG d   1       3.328   0.640  -2.971  0.00  0.00     0.052 C 
ATOM     18  O   LIG d   1       3.229   1.191  -4.055  0.00  0.00    -0.549 OA
ATOM     19  O   LIG d   1       3.481   1.305  -1.962  0.00  0.00    -0.549 OA
ENDBRANCH  14  17
ENDBRANCH  13  14
ENDBRANCH   7  13
TORSDOF 3
ENDMDL
MODEL 9
REMARK VINA RESULT:      -4.1      9.590     11.016
REMARK  3 active torsions:
REMARK  status: ('A' for Active; 'I' for Inactive)
REMARK    1  A    between atoms: C_7  and  S_11 
REMARK    2  A    between atoms: S_11  and  C_12 
REMARK    3  A    between atoms: C_12  and  C_13 
ROOT
ATOM      1  C   LIG d   1      11.277   5.566   0.961  0.00  0.00     0.096 A 
ATOM      2  N   LIG d   1      11.388   4.818  -0.174  0.00  0.00    -0.329 N 
ATOM      3  H   LIG d   1      11.796   3.940  -0.245  0.00  0.00     0.168 HD
ATOM      4  C   LIG d   1      10.818   5.533  -1.196  0.00  0.00     0.162 A 
ATOM      5  C   LIG d   1      10.365   6.734  -0.623  0.00  0.00     0.139 A 
ATOM      6  N   LIG d   1      10.676   6.689   0.695  0.00  0.00    -0.232 NA
ATOM      7  C   LIG d   1       9.729   7.669  -1.458  0.00  0.00     0.128 A 
ATOM      8  N   LIG d   1       9.588   7.374  -2.747  0.00  0.00    -0.227 NA
ATOM      9  C   LIG d   1      10.031   6.232  -3.239  0.00  0.00     0.120 A 
ATOM     10  N   LIG d   1      10.631   5.327  -2.496  0.00  0.00    -0.216 NA
ATOM     11  H   LIG d   1      11.631   5.268   1.936  0.00  0.00     0.103 H 
ATOM     12  H   LIG d   1       9.896   6.033  -4.292  0.00  0.00     0.105 H 
ENDROOT
BRANCH   7  13
ATOM     13  S   LIG d   1       9.133   9.196  -0.811  0.00  0.00    -0.098 SA
BRANCH  13  14
ATOM     14  C   LIG d   1      10.614  10.240  -0.718  0.00  0.00     0.039 C 
ATOM     15  H   LIG d   1      11.475   9.684  -1.087  0.00  0.00     0.044 H 
ATOM     16  H   LIG d   1      10.468  11.132  -1.328  0.00  0.00     0.044 H 
BRANCH  14  17
ATOM     17  C   LIG d   1      10.854  10.645   0.713  0.00  0.00     0.052 C 
ATOM     18  O   LIG d   1      11.470   9.903   1.461  0.00  0.00    -0.549 OA
ATOM     19  O   LIG d   1      10.432  11.712   1.125  0.00  0.00    -0.549 OA
ENDBRANCH  14  17
ENDBRANCH  13  14
ENDBRANCH   7  13
TORSDOF 3
ENDMDL
MODEL 10
REMARK VINA RESULT:      -4.1      9.125     10.654
REMARK  3 active torsions:
REMARK  status: ('A' for Active; 'I' for Inactive)
REMARK    1  A    between atoms: C_7  and  S_11 
REMARK    2  A    between atoms: S_11  and  C_12 
REMARK    3  A    between atoms: C_12  and  C_13 
ROOT
ATOM      1  C   LIG d   1      11.051   6.215   1.113  0.00  0.00     0.096 A 
ATOM      2  N   LIG d   1      11.041   5.202   0.200  0.00  0.00    -0.329 N 
ATOM      3  H   LIG d   1      11.300   4.281   0.361  0.00  0.00     0.168 HD
ATOM      4  C   LIG d   1      10.600   5.725  -0.989  0.00  0.00     0.162 A 
ATOM      5  C   LIG d   1      10.349   7.086  -0.745  0.00  0.00     0.139 A 
ATOM      6  N   LIG d   1      10.643   7.318   0.557  0.00  0.00    -0.232 NA
ATOM      7  C   LIG d   1       9.878   7.875  -1.809  0.00  0.00     0.128 A 
ATOM      8  N   LIG d   1       9.695   7.298  -2.993  0.00  0.00    -0.227 NA
ATOM      9  C   LIG d   1       9.946   6.014  -3.174  0.00  0.00     0.120 A 
ATOM     10  N   LIG d   1      10.387   5.237  -2.207  0.00  0.00    -0.216 NA
ATOM     11  H   LIG d   1      11.347   6.113   2.146  0.00  0.00     0.103 H 
ATOM     12  H   LIG d   1       9.784   5.586  -4.152  0.00  0.00     0.105 H 
ENDROOT
BRANCH   7  13
ATOM     13  S   LIG d   1       9.539   9.588  -1.578  0.00  0.00    -0.098 SA
BRANCH  13  14
ATOM     14  C   LIG d   1      10.290  10.383  -3.026  0.00  0.00     0.039 C 
ATOM     15  H   LIG d   1      10.796  11.297  -2.718  0.00  0.00     0.044 H 
ATOM     16  H   LIG d   1      11.012   9.702  -3.479  0.00  0.00     0.044 H 
BRANCH  14  17
ATOM     17  C   LIG d   1       9.216  10.716  -4.029  0.00  0.00     0.052 C 
ATOM     18  O   LIG d   1       8.345  11.522  -3.745  0.00  0.00    -0.549 OA
ATOM     19  O   LIG d   1       9.217  10.181  -5.124  0.00  0.00    -0.549 OA
ENDBRANCH  14  17
ENDBRANCH  13  14
ENDBRANCH   7  13
TORSDOF 3
ENDMDL
