MODEL 1
REMARK VINA RESULT:      -7.1      0.000      0.000
REMARK  6 active torsions:
REMARK  status: ('A' for Active; 'I' for Inactive)
REMARK    1  A    between atoms: C_1  and  O_2 
REMARK    2  A    between atoms: O_2  and  C_3 
REMARK    3  A    between atoms: C_3  and  C_5 
REMARK    4  A    between atoms: C_8  and  C_11 
REMARK    5  A    between atoms: N_30  and  C_33 
REMARK    6  A    between atoms: C_33  and  C_34 
ROOT
ATOM      1  C   LIG d   1       5.874  -2.269  -6.921  0.00  0.00     0.092 C 
ATOM      2  H   LIG d   1       6.946  -2.121  -7.050  0.00  0.00     0.062 H 
ATOM      3  C   LIG d   1       5.384  -1.478  -5.730  0.00  0.00     0.046 A 
ATOM      4  C   LIG d   1       4.300  -0.672  -5.763  0.00  0.00    -0.015 A 
ATOM      5  C   LIG d   1       4.155  -0.102  -4.439  0.00  0.00     0.003 A 
ATOM      6  C   LIG d   1       3.226   0.785  -3.886  0.00  0.00    -0.052 A 
ATOM      7  C   LIG d   1       3.400   1.121  -2.566  0.00  0.00    -0.061 A 
ATOM      8  C   LIG d   1       4.439   0.609  -1.807  0.00  0.00    -0.060 A 
ATOM      9  C   LIG d   1       5.372  -0.271  -2.328  0.00  0.00    -0.038 A 
ATOM     10  C   LIG d   1       5.221  -0.630  -3.666  0.00  0.00     0.047 A 
ATOM     11  N   LIG d   1       5.941  -1.457  -4.479  0.00  0.00    -0.356 N 
ATOM     12  H   LIG d   1       6.731  -1.953  -4.211  0.00  0.00     0.166 HD
ATOM     13  C   LIG d   1       3.437  -0.445  -6.978  0.00  0.00     0.002 C 
ATOM     14  C   LIG d   1       3.709  -1.562  -7.996  0.00  0.00     0.107 A 
ATOM     15  H   LIG d   1       3.249  -2.478  -7.626  0.00  0.00     0.060 H 
ATOM     16  N   LIG d   1       5.151  -1.767  -8.111  0.00  0.00    -0.276 N 
ATOM     17  C   LIG d   1       5.837  -1.524  -9.230  0.00  0.00     0.234 A 
ATOM     18  O   LIG d   1       7.041  -1.664  -9.196  0.00  0.00    -0.274 OA
ATOM     19  C   LIG d   1       5.221  -1.091 -10.520  0.00  0.00     0.091 A 
ATOM     20  N   LIG d   1       3.774  -0.995 -10.430  0.00  0.00    -0.289 N 
ATOM     21  C   LIG d   1       3.087  -1.205  -9.308  0.00  0.00     0.237 A 
ATOM     22  O   LIG d   1       1.880  -1.101  -9.355  0.00  0.00    -0.274 OA
ATOM     23  H   LIG d   1       2.413   1.188  -4.470  0.00  0.00     0.062 H 
ATOM     24  H   LIG d   1       2.702   1.804  -2.105  0.00  0.00     0.062 H 
ATOM     25  H   LIG d   1       4.526   0.909  -0.772  0.00  0.00     0.062 H 
ATOM     26  H   LIG d   1       6.177  -0.663  -1.726  0.00  0.00     0.064 H 
ATOM     27  H   LIG d   1       3.680   0.521  -7.422  0.00  0.00     0.034 H 
ATOM     28  H   LIG d   1       2.386  -0.462  -6.689  0.00  0.00     0.034 H 
ATOM     29  H   LIG d   1       5.625  -0.117 -10.796  0.00  0.00     0.056 H 
ATOM     30  H   LIG d   1       5.481  -1.812 -11.295  0.00  0.00     0.056 H 
ENDROOT
BRANCH   1  31
ATOM     31  C   LIG d   1       5.579  -3.732  -6.722  0.00  0.00    -0.021 A 
ATOM     32  C   LIG d   1       4.725  -4.131  -5.709  0.00  0.00    -0.056 A 
ATOM     33  C   LIG d   1       4.447  -5.470  -5.526  0.00  0.00    -0.047 A 
ATOM     34  H   LIG d   1       4.274  -3.393  -5.063  0.00  0.00     0.062 H 
ATOM     35  C   LIG d   1       5.035  -6.423  -6.357  0.00  0.00     0.059 A 
ATOM     36  H   LIG d   1       3.776  -5.780  -4.737  0.00  0.00     0.063 H 
ATOM     37  C   LIG d   1       5.896  -6.014  -7.378  0.00  0.00    -0.047 A 
ATOM     38  C   LIG d   1       6.162  -4.672  -7.555  0.00  0.00    -0.056 A 
ATOM     39  H   LIG d   1       6.353  -6.746  -8.028  0.00  0.00     0.063 H 
ATOM     40  H   LIG d   1       6.827  -4.354  -8.344  0.00  0.00     0.062 H 
BRANCH  35  41
ATOM     41  C   LIG d   1       4.745  -7.859  -6.163  0.00  0.00     0.339 C 
ATOM     42  O   LIG d   1       4.857  -8.632  -7.093  0.00  0.00    -0.245 OA
BRANCH  41  43
ATOM     43  O   LIG d   1       4.357  -8.310  -4.954  0.00  0.00    -0.465 OA
BRANCH  43  44
ATOM     44  C   LIG d   1       4.724  -9.672  -4.611  0.00  0.00     0.082 C 
ATOM     45  H   LIG d   1       4.042 -10.050  -3.849  0.00  0.00     0.066 H 
ATOM     46  H   LIG d   1       4.662 -10.301  -5.498  0.00  0.00     0.066 H 
ATOM     47  H   LIG d   1       5.744  -9.686  -4.225  0.00  0.00     0.066 H 
ENDBRANCH  43  44
ENDBRANCH  41  43
ENDBRANCH  35  41
ENDBRANCH   1  31
BRANCH  20  48
ATOM     48  C   LIG d   1       3.029  -0.646 -11.641  0.00  0.00     0.042 C 
ATOM     49  H   LIG d   1       1.983  -0.473 -11.387  0.00  0.00     0.049 H 
ATOM     50  H   LIG d   1       3.451   0.257 -12.081  0.00  0.00     0.049 H 
BRANCH  48  51
ATOM     51  C   LIG d   1       3.124  -1.796 -12.647  0.00  0.00     0.074 C 
ATOM     52  H   LIG d   1       3.898  -2.497 -12.334  0.00  0.00     0.061 H 
ATOM     53  O   LIG d   1       1.863  -2.471 -12.733  0.00  0.00    -0.375 OA
ATOM     54  C   LIG d   1       1.338  -2.359 -14.066  0.00  0.00     0.048 C 
ATOM     55  C   LIG d   1       2.574  -2.129 -14.971  0.00  0.00    -0.027 C 
ATOM     56  H   LIG d   1       0.827  -3.280 -14.350  0.00  0.00     0.056 H 
ATOM     57  H   LIG d   1       0.655  -1.512 -14.133  0.00  0.00     0.056 H 
ATOM     58  C   LIG d   1       3.455  -1.239 -14.048  0.00  0.00    -0.023 C 
ATOM     59  H   LIG d   1       3.074  -3.070 -15.200  0.00  0.00     0.029 H 
ATOM     60  H   LIG d   1       2.301  -1.600 -15.883  0.00  0.00     0.029 H 
ATOM     61  H   LIG d   1       3.165  -0.192 -14.128  0.00  0.00     0.029 H 
ATOM     62  H   LIG d   1       4.513  -1.369 -14.277  0.00  0.00     0.029 H 
ENDBRANCH  48  51
ENDBRANCH  20  48
TORSDOF 6
ENDMDL
MODEL 2
REMARK VINA RESULT:      -7.0      4.066      7.267
REMARK  6 active torsions:
REMARK  status: ('A' for Active; 'I' for Inactive)
REMARK    1  A    between atoms: C_1  and  O_2 
REMARK    2  A    between atoms: O_2  and  C_3 
REMARK    3  A    between atoms: C_3  and  C_5 
REMARK    4  A    between atoms: C_8  and  C_11 
REMARK    5  A    between atoms: N_30  and  C_33 
REMARK    6  A    between atoms: C_33  and  C_34 
ROOT
ATOM      1  C   LIG d   1       6.782  -0.794  -3.948  0.00  0.00     0.092 C 
ATOM      2  H   LIG d   1       6.358  -0.590  -2.964  0.00  0.00     0.062 H 
ATOM      3  C   LIG d   1       7.427  -2.161  -3.957  0.00  0.00     0.046 A 
ATOM      4  C   LIG d   1       7.206  -3.084  -4.918  0.00  0.00    -0.015 A 
ATOM      5  C   LIG d   1       8.002  -4.247  -4.579  0.00  0.00     0.003 A 
ATOM      6  C   LIG d   1       8.176  -5.488  -5.198  0.00  0.00    -0.052 A 
ATOM      7  C   LIG d   1       9.024  -6.375  -4.582  0.00  0.00    -0.061 A 
ATOM      8  C   LIG d   1       9.684  -6.065  -3.404  0.00  0.00    -0.060 A 
ATOM      9  C   LIG d   1       9.530  -4.843  -2.771  0.00  0.00    -0.038 A 
ATOM     10  C   LIG d   1       8.675  -3.923  -3.374  0.00  0.00     0.047 A 
ATOM     11  N   LIG d   1       8.305  -2.656  -3.028  0.00  0.00    -0.356 N 
ATOM     12  H   LIG d   1       8.614  -2.178  -2.243  0.00  0.00     0.166 HD
ATOM     13  C   LIG d   1       6.292  -2.890  -6.100  0.00  0.00     0.002 C 
ATOM     14  C   LIG d   1       6.012  -1.389  -6.270  0.00  0.00     0.107 A 
ATOM     15  H   LIG d   1       6.911  -0.919  -6.667  0.00  0.00     0.060 H 
ATOM     16  N   LIG d   1       5.708  -0.806  -4.965  0.00  0.00    -0.276 N 
ATOM     17  C   LIG d   1       4.517  -0.290  -4.655  0.00  0.00     0.234 A 
ATOM     18  O   LIG d   1       4.351   0.107  -3.521  0.00  0.00    -0.274 OA
ATOM     19  C   LIG d   1       3.375  -0.169  -5.610  0.00  0.00     0.091 A 
ATOM     20  N   LIG d   1       3.720  -0.651  -6.938  0.00  0.00    -0.289 N 
ATOM     21  C   LIG d   1       4.896  -1.196  -7.245  0.00  0.00     0.237 A 
ATOM     22  O   LIG d   1       5.071  -1.557  -8.389  0.00  0.00    -0.274 OA
ATOM     23  H   LIG d   1       7.666  -5.738  -6.116  0.00  0.00     0.062 H 
ATOM     24  H   LIG d   1       9.183  -7.344  -5.031  0.00  0.00     0.062 H 
ATOM     25  H   LIG d   1      10.340  -6.802  -2.964  0.00  0.00     0.062 H 
ATOM     26  H   LIG d   1      10.051  -4.614  -1.853  0.00  0.00     0.064 H 
ATOM     27  H   LIG d   1       5.354  -3.418  -5.927  0.00  0.00     0.034 H 
ATOM     28  H   LIG d   1       6.770  -3.277  -7.000  0.00  0.00     0.034 H 
ATOM     29  H   LIG d   1       2.533  -0.748  -5.231  0.00  0.00     0.056 H 
ATOM     30  H   LIG d   1       3.080   0.878  -5.678  0.00  0.00     0.056 H 
ENDROOT
BRANCH   1  31
ATOM     31  C   LIG d   1       7.803   0.258  -4.293  0.00  0.00    -0.021 A 
ATOM     32  C   LIG d   1       7.662   1.543  -3.800  0.00  0.00    -0.056 A 
ATOM     33  C   LIG d   1       8.597   2.510  -4.108  0.00  0.00    -0.047 A 
ATOM     34  H   LIG d   1       6.819   1.789  -3.171  0.00  0.00     0.062 H 
ATOM     35  C   LIG d   1       9.682   2.192  -4.926  0.00  0.00     0.059 A 
ATOM     36  H   LIG d   1       8.488   3.512  -3.719  0.00  0.00     0.063 H 
ATOM     37  C   LIG d   1       9.819   0.893  -5.420  0.00  0.00    -0.047 A 
ATOM     38  C   LIG d   1       8.880  -0.066  -5.100  0.00  0.00    -0.056 A 
ATOM     39  H   LIG d   1      10.658   0.639  -6.051  0.00  0.00     0.063 H 
ATOM     40  H   LIG d   1       8.985  -1.070  -5.481  0.00  0.00     0.062 H 
BRANCH  35  41
ATOM     41  C   LIG d   1      10.684   3.223  -5.264  0.00  0.00     0.339 C 
ATOM     42  O   LIG d   1      11.851   3.055  -4.974  0.00  0.00    -0.245 OA
BRANCH  41  43
ATOM     43  O   LIG d   1      10.303   4.352  -5.895  0.00  0.00    -0.465 OA
BRANCH  43  44
ATOM     44  C   LIG d   1       9.808   4.212  -7.253  0.00  0.00     0.082 C 
ATOM     45  H   LIG d   1      10.055   3.219  -7.629  0.00  0.00     0.066 H 
ATOM     46  H   LIG d   1       8.727   4.345  -7.261  0.00  0.00     0.066 H 
ATOM     47  H   LIG d   1      10.273   4.967  -7.888  0.00  0.00     0.066 H 
ENDBRANCH  43  44
ENDBRANCH  41  43
ENDBRANCH  35  41
ENDBRANCH   1  31
BRANCH  20  48
ATOM     48  C   LIG d   1       2.716  -0.530  -7.997  0.00  0.00     0.042 C 
ATOM     49  H   LIG d   1       2.937  -1.245  -8.790  0.00  0.00     0.049 H 
ATOM     50  H   LIG d   1       1.727  -0.736  -7.587  0.00  0.00     0.049 H 
BRANCH  48  51
ATOM     51  C   LIG d   1       2.745   0.889  -8.569  0.00  0.00     0.074 C 
ATOM     52  H   LIG d   1       1.835   1.418  -8.287  0.00  0.00     0.061 H 
ATOM     53  O   LIG d   1       3.889   1.591  -8.068  0.00  0.00    -0.375 OA
ATOM     54  C   LIG d   1       4.756   1.954  -9.155  0.00  0.00     0.048 C 
ATOM     55  C   LIG d   1       3.839   2.009 -10.403  0.00  0.00    -0.027 C 
ATOM     56  H   LIG d   1       5.203   2.931  -8.972  0.00  0.00     0.056 H 
ATOM     57  H   LIG d   1       5.532   1.202  -9.287  0.00  0.00     0.056 H 
ATOM     58  C   LIG d   1       2.865   0.833 -10.107  0.00  0.00    -0.023 C 
ATOM     59  H   LIG d   1       3.303   2.957 -10.455  0.00  0.00     0.029 H 
ATOM     60  H   LIG d   1       4.406   1.830 -11.315  0.00  0.00     0.029 H 
ATOM     61  H   LIG d   1       3.295  -0.116 -10.427  0.00  0.00     0.029 H 
ATOM     62  H   LIG d   1       1.897   1.001 -10.578  0.00  0.00     0.029 H 
ENDBRANCH  48  51
ENDBRANCH  20  48
TORSDOF 6
ENDMDL
MODEL 3
REMARK VINA RESULT:      -6.9      2.571      7.001
REMARK  6 active torsions:
REMARK  status: ('A' for Active; 'I' for Inactive)
REMARK    1  A    between atoms: C_1  and  O_2 
REMARK    2  A    between atoms: O_2  and  C_3 
REMARK    3  A    between atoms: C_3  and  C_5 
REMARK    4  A    between atoms: C_8  and  C_11 
REMARK    5  A    between atoms: N_30  and  C_33 
REMARK    6  A    between atoms: C_33  and  C_34 
ROOT
ATOM      1  C   LIG d   1       4.403  -1.706  -7.367  0.00  0.00     0.092 C 
ATOM      2  H   LIG d   1       3.455  -1.541  -7.880  0.00  0.00     0.062 H 
ATOM      3  C   LIG d   1       4.331  -1.155  -5.961  0.00  0.00     0.046 A 
ATOM      4  C   LIG d   1       4.716  -1.848  -4.868  0.00  0.00    -0.015 A 
ATOM      5  C   LIG d   1       4.502  -0.987  -3.723  0.00  0.00     0.003 A 
ATOM      6  C   LIG d   1       4.718  -1.161  -2.353  0.00  0.00    -0.052 A 
ATOM      7  C   LIG d   1       4.390  -0.108  -1.535  0.00  0.00    -0.061 A 
ATOM      8  C   LIG d   1       3.871   1.076  -2.031  0.00  0.00    -0.060 A 
ATOM      9  C   LIG d   1       3.648   1.276  -3.383  0.00  0.00    -0.038 A 
ATOM     10  C   LIG d   1       3.972   0.224  -4.238  0.00  0.00     0.047 A 
ATOM     11  N   LIG d   1       3.883   0.086  -5.593  0.00  0.00    -0.356 N 
ATOM     12  H   LIG d   1       3.551   0.763  -6.203  0.00  0.00     0.166 HD
ATOM     13  C   LIG d   1       5.259  -3.254  -4.891  0.00  0.00     0.002 C 
ATOM     14  C   LIG d   1       5.702  -3.592  -6.321  0.00  0.00     0.107 A 
ATOM     15  H   LIG d   1       6.622  -3.047  -6.530  0.00  0.00     0.060 H 
ATOM     16  N   LIG d   1       4.670  -3.157  -7.260  0.00  0.00    -0.276 N 
ATOM     17  C   LIG d   1       3.965  -4.003  -8.015  0.00  0.00     0.234 A 
ATOM     18  O   LIG d   1       3.086  -3.541  -8.710  0.00  0.00    -0.274 OA
ATOM     19  C   LIG d   1       4.188  -5.479  -8.061  0.00  0.00     0.091 A 
ATOM     20  N   LIG d   1       5.289  -5.892  -7.208  0.00  0.00    -0.289 N 
ATOM     21  C   LIG d   1       5.975  -5.058  -6.428  0.00  0.00     0.237 A 
ATOM     22  O   LIG d   1       6.878  -5.518  -5.762  0.00  0.00    -0.274 OA
ATOM     23  H   LIG d   1       5.123  -2.080  -1.957  0.00  0.00     0.062 H 
ATOM     24  H   LIG d   1       4.543  -0.206  -0.470  0.00  0.00     0.062 H 
ATOM     25  H   LIG d   1       3.631   1.872  -1.340  0.00  0.00     0.062 H 
ATOM     26  H   LIG d   1       3.243   2.204  -3.757  0.00  0.00     0.064 H 
ATOM     27  H   LIG d   1       4.482  -3.951  -4.575  0.00  0.00     0.034 H 
ATOM     28  H   LIG d   1       6.113  -3.327  -4.217  0.00  0.00     0.034 H 
ATOM     29  H   LIG d   1       3.278  -5.984  -7.735  0.00  0.00     0.056 H 
ATOM     30  H   LIG d   1       4.405  -5.772  -9.087  0.00  0.00     0.056 H 
ENDROOT
BRANCH   1  31
ATOM     31  C   LIG d   1       5.518  -1.034  -8.126  0.00  0.00    -0.021 A 
ATOM     32  C   LIG d   1       6.566  -0.452  -7.436  0.00  0.00    -0.056 A 
ATOM     33  C   LIG d   1       7.593   0.160  -8.125  0.00  0.00    -0.047 A 
ATOM     34  H   LIG d   1       6.581  -0.477  -6.356  0.00  0.00     0.062 H 
ATOM     35  C   LIG d   1       7.569   0.198  -9.520  0.00  0.00     0.059 A 
ATOM     36  H   LIG d   1       8.414   0.611  -7.586  0.00  0.00     0.063 H 
ATOM     37  C   LIG d   1       6.508  -0.393 -10.210  0.00  0.00    -0.047 A 
ATOM     38  C   LIG d   1       5.490  -1.005  -9.509  0.00  0.00    -0.056 A 
ATOM     39  H   LIG d   1       6.484  -0.370 -11.290  0.00  0.00     0.063 H 
ATOM     40  H   LIG d   1       4.669  -1.462 -10.041  0.00  0.00     0.062 H 
BRANCH  35  41
ATOM     41  C   LIG d   1       8.663   0.855 -10.264  0.00  0.00     0.339 C 
ATOM     42  O   LIG d   1       9.408   0.194 -10.959  0.00  0.00    -0.245 OA
BRANCH  41  43
ATOM     43  O   LIG d   1       8.833   2.189 -10.172  0.00  0.00    -0.465 OA
BRANCH  43  44
ATOM     44  C   LIG d   1      10.130   2.715 -10.558  0.00  0.00     0.082 C 
ATOM     45  H   LIG d   1      10.432   3.491  -9.853  0.00  0.00     0.066 H 
ATOM     46  H   LIG d   1      10.866   1.912 -10.550  0.00  0.00     0.066 H 
ATOM     47  H   LIG d   1      10.066   3.139 -11.560  0.00  0.00     0.066 H 
ENDBRANCH  43  44
ENDBRANCH  41  43
ENDBRANCH  35  41
ENDBRANCH   1  31
BRANCH  20  48
ATOM     48  C   LIG d   1       5.666  -7.307  -7.205  0.00  0.00     0.042 C 
ATOM     49  H   LIG d   1       5.710  -7.674  -8.230  0.00  0.00     0.049 H 
ATOM     50  H   LIG d   1       6.642  -7.424  -6.734  0.00  0.00     0.049 H 
BRANCH  48  51
ATOM     51  C   LIG d   1       4.625  -8.111  -6.421  0.00  0.00     0.074 C 
ATOM     52  H   LIG d   1       3.746  -7.493  -6.237  0.00  0.00     0.061 H 
ATOM     53  O   LIG d   1       4.252  -9.277  -7.165  0.00  0.00    -0.375 OA
ATOM     54  C   LIG d   1       4.602 -10.460  -6.429  0.00  0.00     0.048 C 
ATOM     55  C   LIG d   1       4.642 -10.017  -4.945  0.00  0.00    -0.027 C 
ATOM     56  H   LIG d   1       3.846 -11.232  -6.572  0.00  0.00     0.056 H 
ATOM     57  H   LIG d   1       5.580 -10.825  -6.742  0.00  0.00     0.056 H 
ATOM     58  C   LIG d   1       5.227  -8.581  -5.080  0.00  0.00    -0.023 C 
ATOM     59  H   LIG d   1       3.641  -9.992  -4.514  0.00  0.00     0.029 H 
ATOM     60  H   LIG d   1       5.303 -10.657  -4.361  0.00  0.00     0.029 H 
ATOM     61  H   LIG d   1       6.314  -8.610  -5.132  0.00  0.00     0.029 H 
ATOM     62  H   LIG d   1       4.892  -7.946  -4.260  0.00  0.00     0.029 H 
ENDBRANCH  48  51
ENDBRANCH  20  48
TORSDOF 6
ENDMDL
MODEL 4
REMARK VINA RESULT:      -6.7      3.412      7.352
REMARK  6 active torsions:
REMARK  status: ('A' for Active; 'I' for Inactive)
REMARK    1  A    between atoms: C_1  and  O_2 
REMARK    2  A    between atoms: O_2  and  C_3 
REMARK    3  A    between atoms: C_3  and  C_5 
REMARK    4  A    between atoms: C_8  and  C_11 
REMARK    5  A    between atoms: N_30  and  C_33 
REMARK    6  A    between atoms: C_33  and  C_34 
ROOT
ATOM      1  C   LIG d   1       4.820  -3.924  -5.674  0.00  0.00     0.092 C 
ATOM      2  H   LIG d   1       4.249  -4.748  -5.248  0.00  0.00     0.062 H 
ATOM      3  C   LIG d   1       4.700  -2.702  -4.792  0.00  0.00     0.046 A 
ATOM      4  C   LIG d   1       5.758  -1.966  -4.388  0.00  0.00    -0.015 A 
ATOM      5  C   LIG d   1       5.238  -0.889  -3.571  0.00  0.00     0.003 A 
ATOM      6  C   LIG d   1       5.853   0.169  -2.895  0.00  0.00    -0.052 A 
ATOM      7  C   LIG d   1       5.031   1.020  -2.198  0.00  0.00    -0.061 A 
ATOM      8  C   LIG d   1       3.656   0.850  -2.160  0.00  0.00    -0.060 A 
ATOM      9  C   LIG d   1       3.022  -0.188  -2.821  0.00  0.00    -0.038 A 
ATOM     10  C   LIG d   1       3.831  -1.068  -3.537  0.00  0.00     0.047 A 
ATOM     11  N   LIG d   1       3.543  -2.172  -4.286  0.00  0.00    -0.356 N 
ATOM     12  H   LIG d   1       2.653  -2.529  -4.435  0.00  0.00     0.166 HD
ATOM     13  C   LIG d   1       7.193  -2.256  -4.749  0.00  0.00     0.002 C 
ATOM     14  C   LIG d   1       7.219  -3.209  -5.953  0.00  0.00     0.107 A 
ATOM     15  H   LIG d   1       6.927  -2.646  -6.839  0.00  0.00     0.060 H 
ATOM     16  N   LIG d   1       6.254  -4.285  -5.735  0.00  0.00    -0.276 N 
ATOM     17  C   LIG d   1       6.606  -5.564  -5.590  0.00  0.00     0.234 A 
ATOM     18  O   LIG d   1       5.730  -6.367  -5.346  0.00  0.00    -0.274 OA
ATOM     19  C   LIG d   1       8.006  -6.073  -5.707  0.00  0.00     0.091 A 
ATOM     20  N   LIG d   1       8.946  -5.014  -6.033  0.00  0.00    -0.289 N 
ATOM     21  C   LIG d   1       8.606  -3.731  -6.148  0.00  0.00     0.237 A 
ATOM     22  O   LIG d   1       9.478  -2.937  -6.428  0.00  0.00    -0.274 OA
ATOM     23  H   LIG d   1       6.922   0.310  -2.920  0.00  0.00     0.062 H 
ATOM     24  H   LIG d   1       5.470   1.850  -1.664  0.00  0.00     0.062 H 
ATOM     25  H   LIG d   1       3.059   1.552  -1.595  0.00  0.00     0.062 H 
ATOM     26  H   LIG d   1       1.950  -0.309  -2.784  0.00  0.00     0.064 H 
ATOM     27  H   LIG d   1       7.695  -2.724  -3.902  0.00  0.00     0.034 H 
ATOM     28  H   LIG d   1       7.699  -1.326  -5.008  0.00  0.00     0.034 H 
ATOM     29  H   LIG d   1       8.297  -6.528  -4.761  0.00  0.00     0.056 H 
ATOM     30  H   LIG d   1       8.042  -6.832  -6.488  0.00  0.00     0.056 H 
ENDROOT
BRANCH   1  31
ATOM     31  C   LIG d   1       4.312  -3.610  -7.057  0.00  0.00    -0.021 A 
ATOM     32  C   LIG d   1       4.372  -2.313  -7.536  0.00  0.00    -0.056 A 
ATOM     33  C   LIG d   1       3.913  -2.021  -8.803  0.00  0.00    -0.047 A 
ATOM     34  H   LIG d   1       4.780  -1.529  -6.916  0.00  0.00     0.062 H 
ATOM     35  C   LIG d   1       3.379  -3.035  -9.601  0.00  0.00     0.059 A 
ATOM     36  H   LIG d   1       3.964  -1.009  -9.178  0.00  0.00     0.063 H 
ATOM     37  C   LIG d   1       3.322  -4.342  -9.112  0.00  0.00    -0.047 A 
ATOM     38  C   LIG d   1       3.789  -4.622  -7.845  0.00  0.00    -0.056 A 
ATOM     39  H   LIG d   1       2.914  -5.132  -9.725  0.00  0.00     0.063 H 
ATOM     40  H   LIG d   1       3.746  -5.632  -7.466  0.00  0.00     0.062 H 
BRANCH  35  41
ATOM     41  C   LIG d   1       2.882  -2.728 -10.957  0.00  0.00     0.339 C 
ATOM     42  O   LIG d   1       2.730  -3.622 -11.766  0.00  0.00    -0.245 OA
BRANCH  41  43
ATOM     43  O   LIG d   1       2.596  -1.456 -11.298  0.00  0.00    -0.465 OA
BRANCH  43  44
ATOM     44  C   LIG d   1       1.218  -1.162 -11.649  0.00  0.00     0.082 C 
ATOM     45  H   LIG d   1       0.582  -1.305 -10.774  0.00  0.00     0.066 H 
ATOM     46  H   LIG d   1       1.140  -0.130 -11.988  0.00  0.00     0.066 H 
ATOM     47  H   LIG d   1       0.895  -1.833 -12.446  0.00  0.00     0.066 H 
ENDBRANCH  43  44
ENDBRANCH  41  43
ENDBRANCH  35  41
ENDBRANCH   1  31
BRANCH  20  48
ATOM     48  C   LIG d   1      10.348  -5.378  -6.246  0.00  0.00     0.042 C 
ATOM     49  H   LIG d   1      10.410  -6.158  -7.006  0.00  0.00     0.049 H 
ATOM     50  H   LIG d   1      10.906  -4.503  -6.577  0.00  0.00     0.049 H 
BRANCH  48  51
ATOM     51  C   LIG d   1      10.946  -5.897  -4.936  0.00  0.00     0.074 C 
ATOM     52  H   LIG d   1      10.160  -6.336  -4.321  0.00  0.00     0.061 H 
ATOM     53  O   LIG d   1      11.950  -6.879  -5.215  0.00  0.00    -0.375 OA
ATOM     54  C   LIG d   1      13.225  -6.427  -4.730  0.00  0.00     0.048 C 
ATOM     55  C   LIG d   1      12.895  -5.421  -3.599  0.00  0.00    -0.027 C 
ATOM     56  H   LIG d   1      13.798  -7.266  -4.335  0.00  0.00     0.056 H 
ATOM     57  H   LIG d   1      13.779  -5.933  -5.528  0.00  0.00     0.056 H 
ATOM     58  C   LIG d   1      11.622  -4.737  -4.173  0.00  0.00    -0.023 C 
ATOM     59  H   LIG d   1      12.674  -5.938  -2.665  0.00  0.00     0.029 H 
ATOM     60  H   LIG d   1      13.702  -4.701  -3.466  0.00  0.00     0.029 H 
ATOM     61  H   LIG d   1      11.889  -3.929  -4.854  0.00  0.00     0.029 H 
ATOM     62  H   LIG d   1      10.980  -4.374  -3.371  0.00  0.00     0.029 H 
ENDBRANCH  48  51
ENDBRANCH  20  48
TORSDOF 6
ENDMDL
MODEL 5
REMARK VINA RESULT:      -6.7      4.802      6.463
REMARK  6 active torsions:
REMARK  status: ('A' for Active; 'I' for Inactive)
REMARK    1  A    between atoms: C_1  and  O_2 
REMARK    2  A    between atoms: O_2  and  C_3 
REMARK    3  A    between atoms: C_3  and  C_5 
REMARK    4  A    between atoms: C_8  and  C_11 
REMARK    5  A    between atoms: N_30  and  C_33 
REMARK    6  A    between atoms: C_33  and  C_34 
ROOT
ATOM      1  C   LIG d   1       9.134   0.892  -4.770  0.00  0.00     0.092 C 
ATOM      2  H   LIG d   1       9.949   0.255  -4.428  0.00  0.00     0.062 H 
ATOM      3  C   LIG d   1       9.396   2.325  -4.367  0.00  0.00     0.046 A 
ATOM      4  C   LIG d   1       9.295   3.370  -5.217  0.00  0.00    -0.015 A 
ATOM      5  C   LIG d   1       9.614   4.564  -4.460  0.00  0.00     0.003 A 
ATOM      6  C   LIG d   1       9.670   5.918  -4.805  0.00  0.00    -0.052 A 
ATOM      7  C   LIG d   1      10.020   6.797  -3.811  0.00  0.00    -0.061 A 
ATOM      8  C   LIG d   1      10.304   6.376  -2.522  0.00  0.00    -0.060 A 
ATOM      9  C   LIG d   1      10.256   5.043  -2.153  0.00  0.00    -0.038 A 
ATOM     10  C   LIG d   1       9.903   4.127  -3.142  0.00  0.00     0.047 A 
ATOM     11  N   LIG d   1       9.761   2.769  -3.124  0.00  0.00    -0.356 N 
ATOM     12  H   LIG d   1       9.899   2.204  -2.347  0.00  0.00     0.166 HD
ATOM     13  C   LIG d   1       8.918   3.259  -6.672  0.00  0.00     0.002 C 
ATOM     14  C   LIG d   1       8.265   1.891  -6.913  0.00  0.00     0.107 A 
ATOM     15  H   LIG d   1       7.267   1.909  -6.476  0.00  0.00     0.060 H 
ATOM     16  N   LIG d   1       9.056   0.857  -6.247  0.00  0.00    -0.276 N 
ATOM     17  C   LIG d   1       9.703  -0.106  -6.907  0.00  0.00     0.234 A 
ATOM     18  O   LIG d   1      10.385  -0.873  -6.262  0.00  0.00    -0.274 OA
ATOM     19  C   LIG d   1       9.643  -0.302  -8.387  0.00  0.00     0.091 A 
ATOM     20  N   LIG d   1       8.767   0.663  -9.031  0.00  0.00    -0.289 N 
ATOM     21  C   LIG d   1       8.144   1.645  -8.382  0.00  0.00     0.237 A 
ATOM     22  O   LIG d   1       7.433   2.388  -9.025  0.00  0.00    -0.274 OA
ATOM     23  H   LIG d   1       9.449   6.255  -5.807  0.00  0.00     0.062 H 
ATOM     24  H   LIG d   1      10.073   7.851  -4.040  0.00  0.00     0.062 H 
ATOM     25  H   LIG d   1      10.574   7.113  -1.780  0.00  0.00     0.062 H 
ATOM     26  H   LIG d   1      10.479   4.728  -1.145  0.00  0.00     0.064 H 
ATOM     27  H   LIG d   1       9.813   3.350  -7.289  0.00  0.00     0.034 H 
ATOM     28  H   LIG d   1       8.214   4.051  -6.928  0.00  0.00     0.034 H 
ATOM     29  H   LIG d   1      10.647  -0.198  -8.799  0.00  0.00     0.056 H 
ATOM     30  H   LIG d   1       9.278  -1.307  -8.596  0.00  0.00     0.056 H 
ENDROOT
BRANCH   1  31
ATOM     31  C   LIG d   1       7.832   0.421  -4.177  0.00  0.00    -0.021 A 
ATOM     32  C   LIG d   1       6.975   1.333  -3.585  0.00  0.00    -0.056 A 
ATOM     33  C   LIG d   1       5.779   0.908  -3.045  0.00  0.00    -0.047 A 
ATOM     34  H   LIG d   1       7.243   2.378  -3.549  0.00  0.00     0.062 H 
ATOM     35  C   LIG d   1       5.438  -0.444  -3.087  0.00  0.00     0.059 A 
ATOM     36  H   LIG d   1       5.108   1.621  -2.587  0.00  0.00     0.063 H 
ATOM     37  C   LIG d   1       6.307  -1.359  -3.686  0.00  0.00    -0.047 A 
ATOM     38  C   LIG d   1       7.498  -0.921  -4.227  0.00  0.00    -0.056 A 
ATOM     39  H   LIG d   1       6.048  -2.407  -3.725  0.00  0.00     0.063 H 
ATOM     40  H   LIG d   1       8.171  -1.627  -4.690  0.00  0.00     0.062 H 
BRANCH  35  41
ATOM     41  C   LIG d   1       4.161  -0.907  -2.506  0.00  0.00     0.339 C 
ATOM     42  O   LIG d   1       4.123  -1.938  -1.865  0.00  0.00    -0.245 OA
BRANCH  41  43
ATOM     43  O   LIG d   1       3.038  -0.184  -2.687  0.00  0.00    -0.465 OA
BRANCH  43  44
ATOM     44  C   LIG d   1       2.472  -0.170  -4.023  0.00  0.00     0.082 C 
ATOM     45  H   LIG d   1       1.441  -0.522  -3.984  0.00  0.00     0.066 H 
ATOM     46  H   LIG d   1       2.494   0.845  -4.417  0.00  0.00     0.066 H 
ATOM     47  H   LIG d   1       3.055  -0.825  -4.671  0.00  0.00     0.066 H 
ENDBRANCH  43  44
ENDBRANCH  41  43
ENDBRANCH  35  41
ENDBRANCH   1  31
BRANCH  20  48
ATOM     48  C   LIG d   1       8.558   0.548 -10.476  0.00  0.00     0.042 C 
ATOM     49  H   LIG d   1       8.027   1.429 -10.837  0.00  0.00     0.049 H 
ATOM     50  H   LIG d   1       9.522   0.473 -10.978  0.00  0.00     0.049 H 
BRANCH  48  51
ATOM     51  C   LIG d   1       7.730  -0.704 -10.774  0.00  0.00     0.074 C 
ATOM     52  H   LIG d   1       8.114  -1.546 -10.198  0.00  0.00     0.061 H 
ATOM     53  O   LIG d   1       6.358  -0.470 -10.435  0.00  0.00    -0.375 OA
ATOM     54  C   LIG d   1       5.538  -0.577 -11.610  0.00  0.00     0.048 C 
ATOM     55  C   LIG d   1       6.336  -1.484 -12.580  0.00  0.00    -0.027 C 
ATOM     56  H   LIG d   1       4.581  -1.036 -11.364  0.00  0.00     0.056 H 
ATOM     57  H   LIG d   1       5.382   0.407 -12.053  0.00  0.00     0.056 H 
ATOM     58  C   LIG d   1       7.793  -1.028 -12.282  0.00  0.00    -0.023 C 
ATOM     59  H   LIG d   1       6.199  -2.538 -12.335  0.00  0.00     0.029 H 
ATOM     60  H   LIG d   1       6.067  -1.286 -13.616  0.00  0.00     0.029 H 
ATOM     61  H   LIG d   1       8.046  -0.139 -12.859  0.00  0.00     0.029 H 
ATOM     62  H   LIG d   1       8.501  -1.833 -12.476  0.00  0.00     0.029 H 
ENDBRANCH  48  51
ENDBRANCH  20  48
TORSDOF 6
ENDMDL
MODEL 6
REMARK VINA RESULT:      -6.6      7.203     10.884
REMARK  6 active torsions:
REMARK  status: ('A' for Active; 'I' for Inactive)
REMARK    1  A    between atoms: C_1  and  O_2 
REMARK    2  A    between atoms: O_2  and  C_3 
REMARK    3  A    between atoms: C_3  and  C_5 
REMARK    4  A    between atoms: C_8  and  C_11 
REMARK    5  A    between atoms: N_30  and  C_33 
REMARK    6  A    between atoms: C_33  and  C_34 
ROOT
ATOM      1  C   LIG d   1      11.118   3.418  -5.657  0.00  0.00     0.092 C 
ATOM      2  H   LIG d   1      12.163   3.115  -5.591  0.00  0.00     0.062 H 
ATOM      3  C   LIG d   1      10.888   4.202  -6.928  0.00  0.00     0.046 A 
ATOM      4  C   LIG d   1       9.875   3.953  -7.786  0.00  0.00    -0.015 A 
ATOM      5  C   LIG d   1       9.989   4.911  -8.867  0.00  0.00     0.003 A 
ATOM      6  C   LIG d   1       9.231   5.134 -10.020  0.00  0.00    -0.052 A 
ATOM      7  C   LIG d   1       9.641   6.152 -10.844  0.00  0.00    -0.061 A 
ATOM      8  C   LIG d   1      10.750   6.931 -10.557  0.00  0.00    -0.060 A 
ATOM      9  C   LIG d   1      11.517   6.733  -9.422  0.00  0.00    -0.038 A 
ATOM     10  C   LIG d   1      11.125   5.706  -8.566  0.00  0.00     0.047 A 
ATOM     11  N   LIG d   1      11.641   5.250  -7.388  0.00  0.00    -0.356 N 
ATOM     12  H   LIG d   1      12.425   5.611  -6.945  0.00  0.00     0.166 HD
ATOM     13  C   LIG d   1       8.845   2.867  -7.605  0.00  0.00     0.002 C 
ATOM     14  C   LIG d   1       8.865   2.402  -6.142  0.00  0.00     0.107 A 
ATOM     15  H   LIG d   1       8.406   3.180  -5.532  0.00  0.00     0.060 H 
ATOM     16  N   LIG d   1      10.251   2.221  -5.714  0.00  0.00    -0.276 N 
ATOM     17  C   LIG d   1      10.761   1.034  -5.377  0.00  0.00     0.234 A 
ATOM     18  O   LIG d   1      11.941   0.985  -5.102  0.00  0.00    -0.274 OA
ATOM     19  C   LIG d   1       9.978  -0.236  -5.316  0.00  0.00     0.091 A 
ATOM     20  N   LIG d   1       8.575  -0.028  -5.637  0.00  0.00    -0.289 N 
ATOM     21  C   LIG d   1       8.066   1.147  -6.005  0.00  0.00     0.237 A 
ATOM     22  O   LIG d   1       6.878   1.200  -6.243  0.00  0.00    -0.274 OA
ATOM     23  H   LIG d   1       8.365   4.532 -10.251  0.00  0.00     0.062 H 
ATOM     24  H   LIG d   1       9.080   6.353 -11.745  0.00  0.00     0.062 H 
ATOM     25  H   LIG d   1      11.025   7.720 -11.243  0.00  0.00     0.062 H 
ATOM     26  H   LIG d   1      12.379   7.348  -9.210  0.00  0.00     0.064 H 
ATOM     27  H   LIG d   1       9.083   2.026  -8.258  0.00  0.00     0.034 H 
ATOM     28  H   LIG d   1       7.857   3.255  -7.852  0.00  0.00     0.034 H 
ATOM     29  H   LIG d   1      10.401  -0.947  -6.025  0.00  0.00     0.056 H 
ATOM     30  H   LIG d   1      10.054  -0.651  -4.312  0.00  0.00     0.056 H 
ENDROOT
BRANCH   1  31
ATOM     31  C   LIG d   1      10.753   4.258  -4.461  0.00  0.00    -0.021 A 
ATOM     32  C   LIG d   1      11.251   3.933  -3.212  0.00  0.00    -0.056 A 
ATOM     33  C   LIG d   1      10.925   4.702  -2.115  0.00  0.00    -0.047 A 
ATOM     34  H   LIG d   1      11.899   3.076  -3.097  0.00  0.00     0.062 H 
ATOM     35  C   LIG d   1      10.083   5.805  -2.263  0.00  0.00     0.059 A 
ATOM     36  H   LIG d   1      11.319   4.450  -1.140  0.00  0.00     0.063 H 
ATOM     37  C   LIG d   1       9.583   6.128  -3.527  0.00  0.00    -0.047 A 
ATOM     38  C   LIG d   1       9.921   5.354  -4.617  0.00  0.00    -0.056 A 
ATOM     39  H   LIG d   1       8.933   6.982  -3.651  0.00  0.00     0.063 H 
ATOM     40  H   LIG d   1       9.536   5.602  -5.595  0.00  0.00     0.062 H 
BRANCH  35  41
ATOM     41  C   LIG d   1       9.725   6.630  -1.092  0.00  0.00     0.339 C 
ATOM     42  O   LIG d   1      10.290   6.456  -0.030  0.00  0.00    -0.245 OA
BRANCH  41  43
ATOM     43  O   LIG d   1       8.772   7.576  -1.200  0.00  0.00    -0.465 OA
BRANCH  43  44
ATOM     44  C   LIG d   1       9.149   8.934  -0.851  0.00  0.00     0.082 C 
ATOM     45  H   LIG d   1       8.576   9.258   0.019  0.00  0.00     0.066 H 
ATOM     46  H   LIG d   1      10.213   8.968  -0.618  0.00  0.00     0.066 H 
ATOM     47  H   LIG d   1       8.939   9.596  -1.691  0.00  0.00     0.066 H 
ENDBRANCH  43  44
ENDBRANCH  41  43
ENDBRANCH  35  41
ENDBRANCH   1  31
BRANCH  20  48
ATOM     48  C   LIG d   1       7.671  -1.176  -5.551  0.00  0.00     0.042 C 
ATOM     49  H   LIG d   1       6.752  -0.957  -6.095  0.00  0.00     0.049 H 
ATOM     50  H   LIG d   1       8.151  -2.052  -5.987  0.00  0.00     0.049 H 
BRANCH  48  51
ATOM     51  C   LIG d   1       7.339  -1.455  -4.083  0.00  0.00     0.074 C 
ATOM     52  H   LIG d   1       8.166  -1.987  -3.613  0.00  0.00     0.061 H 
ATOM     53  O   LIG d   1       7.101  -0.221  -3.396  0.00  0.00    -0.375 OA
ATOM     54  C   LIG d   1       5.752  -0.187  -2.902  0.00  0.00     0.048 C 
ATOM     55  C   LIG d   1       5.335  -1.673  -2.759  0.00  0.00    -0.027 C 
ATOM     56  H   LIG d   1       5.715   0.311  -1.933  0.00  0.00     0.056 H 
ATOM     57  H   LIG d   1       5.102   0.322  -3.614  0.00  0.00     0.056 H 
ATOM     58  C   LIG d   1       6.051  -2.301  -3.989  0.00  0.00    -0.023 C 
ATOM     59  H   LIG d   1       5.711  -2.098  -1.828  0.00  0.00     0.029 H 
ATOM     60  H   LIG d   1       4.255  -1.787  -2.832  0.00  0.00     0.029 H 
ATOM     61  H   LIG d   1       5.446  -2.188  -4.888  0.00  0.00     0.029 H 
ATOM     62  H   LIG d   1       6.287  -3.350  -3.808  0.00  0.00     0.029 H 
ENDBRANCH  48  51
ENDBRANCH  20  48
TORSDOF 6
ENDMDL
MODEL 7
REMARK VINA RESULT:      -6.4      5.281      9.217
REMARK  6 active torsions:
REMARK  status: ('A' for Active; 'I' for Inactive)
REMARK    1  A    between atoms: C_1  and  O_2 
REMARK    2  A    between atoms: O_2  and  C_3 
REMARK    3  A    between atoms: C_3  and  C_5 
REMARK    4  A    between atoms: C_8  and  C_11 
REMARK    5  A    between atoms: N_30  and  C_33 
REMARK    6  A    between atoms: C_33  and  C_34 
ROOT
ATOM      1  C   LIG d   1       8.989  -0.467  -5.404  0.00  0.00     0.092 C 
ATOM      2  H   LIG d   1       9.647  -1.310  -5.194  0.00  0.00     0.062 H 
ATOM      3  C   LIG d   1       7.735  -0.572  -4.566  0.00  0.00     0.046 A 
ATOM      4  C   LIG d   1       7.235   0.452  -3.840  0.00  0.00    -0.015 A 
ATOM      5  C   LIG d   1       6.036  -0.036  -3.189  0.00  0.00     0.003 A 
ATOM      6  C   LIG d   1       5.113   0.566  -2.330  0.00  0.00    -0.052 A 
ATOM      7  C   LIG d   1       4.072  -0.215  -1.892  0.00  0.00    -0.061 A 
ATOM      8  C   LIG d   1       3.931  -1.538  -2.278  0.00  0.00    -0.060 A 
ATOM      9  C   LIG d   1       4.830  -2.159  -3.128  0.00  0.00    -0.038 A 
ATOM     10  C   LIG d   1       5.897  -1.390  -3.590  0.00  0.00     0.047 A 
ATOM     11  N   LIG d   1       6.940  -1.678  -4.421  0.00  0.00    -0.356 N 
ATOM     12  H   LIG d   1       7.097  -2.537  -4.843  0.00  0.00     0.166 HD
ATOM     13  C   LIG d   1       7.851   1.825  -3.756  0.00  0.00     0.002 C 
ATOM     14  C   LIG d   1       8.836   1.999  -4.921  0.00  0.00     0.107 A 
ATOM     15  H   LIG d   1       8.260   2.123  -5.837  0.00  0.00     0.060 H 
ATOM     16  N   LIG d   1       9.661   0.798  -5.037  0.00  0.00    -0.276 N 
ATOM     17  C   LIG d   1      10.979   0.794  -4.827  0.00  0.00     0.234 A 
ATOM     18  O   LIG d   1      11.557  -0.270  -4.883  0.00  0.00    -0.274 OA
ATOM     19  C   LIG d   1      11.790   2.012  -4.528  0.00  0.00     0.091 A 
ATOM     20  N   LIG d   1      10.981   3.220  -4.523  0.00  0.00    -0.289 N 
ATOM     21  C   LIG d   1       9.660   3.226  -4.699  0.00  0.00     0.237 A 
ATOM     22  O   LIG d   1       9.091   4.297  -4.680  0.00  0.00    -0.274 OA
ATOM     23  H   LIG d   1       5.214   1.596  -2.024  0.00  0.00     0.062 H 
ATOM     24  H   LIG d   1       3.339   0.216  -1.227  0.00  0.00     0.062 H 
ATOM     25  H   LIG d   1       3.092  -2.105  -1.902  0.00  0.00     0.062 H 
ATOM     26  H   LIG d   1       4.708  -3.191  -3.422  0.00  0.00     0.064 H 
ATOM     27  H   LIG d   1       8.382   1.929  -2.810  0.00  0.00     0.034 H 
ATOM     28  H   LIG d   1       7.068   2.581  -3.823  0.00  0.00     0.034 H 
ATOM     29  H   LIG d   1      12.258   1.895  -3.550  0.00  0.00     0.056 H 
ATOM     30  H   LIG d   1      12.570   2.112  -5.282  0.00  0.00     0.056 H 
ENDROOT
BRANCH   1  31
ATOM     31  C   LIG d   1       8.629  -0.450  -6.867  0.00  0.00    -0.021 A 
ATOM     32  C   LIG d   1       9.522  -0.943  -7.801  0.00  0.00    -0.056 A 
ATOM     33  C   LIG d   1       9.196  -0.936  -9.142  0.00  0.00    -0.047 A 
ATOM     34  H   LIG d   1      10.475  -1.337  -7.480  0.00  0.00     0.062 H 
ATOM     35  C   LIG d   1       7.967  -0.421  -9.556  0.00  0.00     0.059 A 
ATOM     36  H   LIG d   1       9.892  -1.325  -9.871  0.00  0.00     0.063 H 
ATOM     37  C   LIG d   1       7.069   0.074  -8.607  0.00  0.00    -0.047 A 
ATOM     38  C   LIG d   1       7.405   0.056  -7.269  0.00  0.00    -0.056 A 
ATOM     39  H   LIG d   1       6.114   0.471  -8.920  0.00  0.00     0.063 H 
ATOM     40  H   LIG d   1       6.713   0.439  -6.535  0.00  0.00     0.062 H 
BRANCH  35  41
ATOM     41  C   LIG d   1       7.613  -0.405 -10.990  0.00  0.00     0.339 C 
ATOM     42  O   LIG d   1       6.450  -0.490 -11.330  0.00  0.00    -0.245 OA
BRANCH  41  43
ATOM     43  O   LIG d   1       8.581  -0.298 -11.921  0.00  0.00    -0.465 OA
BRANCH  43  44
ATOM     44  C   LIG d   1       8.577  -1.278 -12.992  0.00  0.00     0.082 C 
ATOM     45  H   LIG d   1       8.290  -0.795 -13.926  0.00  0.00     0.066 H 
ATOM     46  H   LIG d   1       9.573  -1.707 -13.096  0.00  0.00     0.066 H 
ATOM     47  H   LIG d   1       7.863  -2.068 -12.757  0.00  0.00     0.066 H 
ENDBRANCH  43  44
ENDBRANCH  41  43
ENDBRANCH  35  41
ENDBRANCH   1  31
BRANCH  20  48
ATOM     48  C   LIG d   1      11.655   4.501  -4.310  0.00  0.00     0.042 C 
ATOM     49  H   LIG d   1      12.382   4.667  -5.106  0.00  0.00     0.049 H 
ATOM     50  H   LIG d   1      10.920   5.306  -4.315  0.00  0.00     0.049 H 
BRANCH  48  51
ATOM     51  C   LIG d   1      12.377   4.481  -2.960  0.00  0.00     0.074 C 
ATOM     52  H   LIG d   1      12.899   3.531  -2.836  0.00  0.00     0.061 H 
ATOM     53  O   LIG d   1      13.313   5.562  -2.893  0.00  0.00    -0.375 OA
ATOM     54  C   LIG d   1      12.954   6.455  -1.826  0.00  0.00     0.048 C 
ATOM     55  C   LIG d   1      12.133   5.593  -0.835  0.00  0.00    -0.027 C 
ATOM     56  H   LIG d   1      13.849   6.842  -1.339  0.00  0.00     0.056 H 
ATOM     57  H   LIG d   1      12.347   7.276  -2.208  0.00  0.00     0.056 H 
ATOM     58  C   LIG d   1      11.356   4.671  -1.817  0.00  0.00    -0.023 C 
ATOM     59  H   LIG d   1      12.786   5.011  -0.186  0.00  0.00     0.029 H 
ATOM     60  H   LIG d   1      11.450   6.209  -0.250  0.00  0.00     0.029 H 
ATOM     61  H   LIG d   1      10.455   5.164  -2.181  0.00  0.00     0.029 H 
ATOM     62  H   LIG d   1      11.116   3.717  -1.348  0.00  0.00     0.029 H 
ENDBRANCH  48  51
ENDBRANCH  20  48
TORSDOF 6
ENDMDL
MODEL 8
REMARK VINA RESULT:      -6.4      5.488      9.215
REMARK  6 active torsions:
REMARK  status: ('A' for Active; 'I' for Inactive)
REMARK    1  A    between atoms: C_1  and  O_2 
REMARK    2  A    between atoms: O_2  and  C_3 
REMARK    3  A    between atoms: C_3  and  C_5 
REMARK    4  A    between atoms: C_8  and  C_11 
REMARK    5  A    between atoms: N_30  and  C_33 
REMARK    6  A    between atoms: C_33  and  C_34 
ROOT
ATOM      1  C   LIG d   1       7.732   0.305  -6.127  0.00  0.00     0.092 C 
ATOM      2  H   LIG d   1       7.351   0.556  -7.118  0.00  0.00     0.062 H 
ATOM      3  C   LIG d   1       6.600  -0.173  -5.246  0.00  0.00     0.046 A 
ATOM      4  C   LIG d   1       6.657  -1.300  -4.505  0.00  0.00    -0.015 A 
ATOM      5  C   LIG d   1       5.394  -1.410  -3.803  0.00  0.00     0.003 A 
ATOM      6  C   LIG d   1       4.890  -2.353  -2.903  0.00  0.00    -0.052 A 
ATOM      7  C   LIG d   1       3.620  -2.138  -2.426  0.00  0.00    -0.061 A 
ATOM      8  C   LIG d   1       2.866  -1.041  -2.809  0.00  0.00    -0.060 A 
ATOM      9  C   LIG d   1       3.342  -0.091  -3.698  0.00  0.00    -0.038 A 
ATOM     10  C   LIG d   1       4.628  -0.283  -4.198  0.00  0.00     0.047 A 
ATOM     11  N   LIG d   1       5.389   0.441  -5.070  0.00  0.00    -0.356 N 
ATOM     12  H   LIG d   1       5.112   1.265  -5.500  0.00  0.00     0.166 HD
ATOM     13  C   LIG d   1       7.839  -2.235  -4.453  0.00  0.00     0.002 C 
ATOM     14  C   LIG d   1       9.073  -1.505  -5.003  0.00  0.00     0.107 A 
ATOM     15  H   LIG d   1       9.396  -0.777  -4.260  0.00  0.00     0.060 H 
ATOM     16  N   LIG d   1       8.708  -0.801  -6.231  0.00  0.00    -0.276 N 
ATOM     17  C   LIG d   1       9.212  -1.111  -7.427  0.00  0.00     0.234 A 
ATOM     18  O   LIG d   1       8.791  -0.507  -8.391  0.00  0.00    -0.274 OA
ATOM     19  C   LIG d   1      10.261  -2.149  -7.659  0.00  0.00     0.091 A 
ATOM     20  N   LIG d   1      10.699  -2.769  -6.419  0.00  0.00    -0.289 N 
ATOM     21  C   LIG d   1      10.177  -2.488  -5.227  0.00  0.00     0.237 A 
ATOM     22  O   LIG d   1      10.627  -3.066  -4.260  0.00  0.00    -0.274 OA
ATOM     23  H   LIG d   1       5.470  -3.211  -2.598  0.00  0.00     0.062 H 
ATOM     24  H   LIG d   1       3.196  -2.845  -1.729  0.00  0.00     0.062 H 
ATOM     25  H   LIG d   1       1.872  -0.922  -2.402  0.00  0.00     0.062 H 
ATOM     26  H   LIG d   1       2.744   0.760  -3.987  0.00  0.00     0.064 H 
ATOM     27  H   LIG d   1       7.634  -3.115  -5.063  0.00  0.00     0.034 H 
ATOM     28  H   LIG d   1       8.022  -2.537  -3.422  0.00  0.00     0.034 H 
ATOM     29  H   LIG d   1       9.857  -2.919  -8.317  0.00  0.00     0.056 H 
ATOM     30  H   LIG d   1      11.118  -1.685  -8.145  0.00  0.00     0.056 H 
ENDROOT
BRANCH   1  31
ATOM     31  C   LIG d   1       8.388   1.512  -5.510  0.00  0.00    -0.021 A 
ATOM     32  C   LIG d   1       8.439   1.640  -4.134  0.00  0.00    -0.056 A 
ATOM     33  C   LIG d   1       9.044   2.741  -3.563  0.00  0.00    -0.047 A 
ATOM     34  H   LIG d   1       8.006   0.876  -3.505  0.00  0.00     0.062 H 
ATOM     35  C   LIG d   1       9.598   3.731  -4.376  0.00  0.00     0.059 A 
ATOM     36  H   LIG d   1       9.087   2.838  -2.487  0.00  0.00     0.063 H 
ATOM     37  C   LIG d   1       9.543   3.595  -5.765  0.00  0.00    -0.047 A 
ATOM     38  C   LIG d   1       8.940   2.487  -6.323  0.00  0.00    -0.056 A 
ATOM     39  H   LIG d   1       9.972   4.355  -6.401  0.00  0.00     0.063 H 
ATOM     40  H   LIG d   1       8.898   2.381  -7.397  0.00  0.00     0.062 H 
BRANCH  35  41
ATOM     41  C   LIG d   1      10.242   4.914  -3.771  0.00  0.00     0.339 C 
ATOM     42  O   LIG d   1      11.058   5.552  -4.406  0.00  0.00    -0.245 OA
BRANCH  41  43
ATOM     43  O   LIG d   1       9.926   5.285  -2.515  0.00  0.00    -0.465 OA
BRANCH  43  44
ATOM     44  C   LIG d   1       9.508   6.662  -2.321  0.00  0.00     0.082 C 
ATOM     45  H   LIG d   1       9.951   7.288  -3.096  0.00  0.00     0.066 H 
ATOM     46  H   LIG d   1       8.422   6.725  -2.380  0.00  0.00     0.066 H 
ATOM     47  H   LIG d   1       9.840   7.007  -1.342  0.00  0.00     0.066 H 
ENDBRANCH  43  44
ENDBRANCH  41  43
ENDBRANCH  35  41
ENDBRANCH   1  31
BRANCH  20  48
ATOM     48  C   LIG d   1      11.774  -3.761  -6.487  0.00  0.00     0.042 C 
ATOM     49  H   LIG d   1      11.947  -4.177  -5.494  0.00  0.00     0.049 H 
ATOM     50  H   LIG d   1      11.491  -4.559  -7.173  0.00  0.00     0.049 H 
BRANCH  48  51
ATOM     51  C   LIG d   1      13.056  -3.090  -6.987  0.00  0.00     0.074 C 
ATOM     52  H   LIG d   1      12.883  -2.653  -7.971  0.00  0.00     0.061 H 
ATOM     53  O   LIG d   1      13.461  -2.070  -6.066  0.00  0.00    -0.375 OA
ATOM     54  C   LIG d   1      14.750  -2.390  -5.518  0.00  0.00     0.048 C 
ATOM     55  C   LIG d   1      15.419  -3.314  -6.567  0.00  0.00    -0.027 C 
ATOM     56  H   LIG d   1      15.339  -1.484  -5.382  0.00  0.00     0.056 H 
ATOM     57  H   LIG d   1      14.638  -2.914  -4.569  0.00  0.00     0.056 H 
ATOM     58  C   LIG d   1      14.194  -4.130  -7.068  0.00  0.00    -0.023 C 
ATOM     59  H   LIG d   1      15.860  -2.733  -7.377  0.00  0.00     0.029 H 
ATOM     60  H   LIG d   1      16.161  -3.963  -6.104  0.00  0.00     0.029 H 
ATOM     61  H   LIG d   1      13.995  -4.974  -6.409  0.00  0.00     0.029 H 
ATOM     62  H   LIG d   1      14.342  -4.464  -8.095  0.00  0.00     0.029 H 
ENDBRANCH  48  51
ENDBRANCH  20  48
TORSDOF 6
ENDMDL
MODEL 9
REMARK VINA RESULT:      -6.4      2.593      7.467
REMARK  6 active torsions:
REMARK  status: ('A' for Active; 'I' for Inactive)
REMARK    1  A    between atoms: C_1  and  O_2 
REMARK    2  A    between atoms: O_2  and  C_3 
REMARK    3  A    between atoms: C_3  and  C_5 
REMARK    4  A    between atoms: C_8  and  C_11 
REMARK    5  A    between atoms: N_30  and  C_33 
REMARK    6  A    between atoms: C_33  and  C_34 
ROOT
ATOM      1  C   LIG d   1       4.281  -3.079  -6.518  0.00  0.00     0.092 C 
ATOM      2  H   LIG d   1       3.274  -3.464  -6.677  0.00  0.00     0.062 H 
ATOM      3  C   LIG d   1       4.265  -2.023  -5.438  0.00  0.00     0.046 A 
ATOM      4  C   LIG d   1       5.126  -2.006  -4.397  0.00  0.00    -0.015 A 
ATOM      5  C   LIG d   1       4.797  -0.847  -3.593  0.00  0.00     0.003 A 
ATOM      6  C   LIG d   1       5.340  -0.325  -2.415  0.00  0.00    -0.052 A 
ATOM      7  C   LIG d   1       4.761   0.815  -1.917  0.00  0.00    -0.061 A 
ATOM      8  C   LIG d   1       3.690   1.431  -2.543  0.00  0.00    -0.060 A 
ATOM      9  C   LIG d   1       3.133   0.937  -3.710  0.00  0.00    -0.038 A 
ATOM     10  C   LIG d   1       3.701  -0.220  -4.240  0.00  0.00     0.047 A 
ATOM     11  N   LIG d   1       3.408  -0.958  -5.350  0.00  0.00    -0.356 N 
ATOM     12  H   LIG d   1       2.698  -0.760  -5.981  0.00  0.00     0.166 HD
ATOM     13  C   LIG d   1       6.209  -3.028  -4.163  0.00  0.00     0.002 C 
ATOM     14  C   LIG d   1       6.454  -3.799  -5.468  0.00  0.00     0.107 A 
ATOM     15  H   LIG d   1       6.982  -3.141  -6.158  0.00  0.00     0.060 H 
ATOM     16  N   LIG d   1       5.168  -4.170  -6.056  0.00  0.00    -0.276 N 
ATOM     17  C   LIG d   1       4.764  -5.434  -6.192  0.00  0.00     0.234 A 
ATOM     18  O   LIG d   1       3.651  -5.628  -6.631  0.00  0.00    -0.274 OA
ATOM     19  C   LIG d   1       5.592  -6.627  -5.840  0.00  0.00     0.091 A 
ATOM     20  N   LIG d   1       6.911  -6.254  -5.359  0.00  0.00    -0.289 N 
ATOM     21  C   LIG d   1       7.309  -4.994  -5.191  0.00  0.00     0.237 A 
ATOM     22  O   LIG d   1       8.436  -4.804  -4.788  0.00  0.00    -0.274 OA
ATOM     23  H   LIG d   1       6.175  -0.798  -1.921  0.00  0.00     0.062 H 
ATOM     24  H   LIG d   1       5.154   1.248  -1.009  0.00  0.00     0.062 H 
ATOM     25  H   LIG d   1       3.274   2.328  -2.106  0.00  0.00     0.062 H 
ATOM     26  H   LIG d   1       2.299   1.427  -4.189  0.00  0.00     0.064 H 
ATOM     27  H   LIG d   1       5.894  -3.722  -3.383  0.00  0.00     0.034 H 
ATOM     28  H   LIG d   1       7.127  -2.525  -3.858  0.00  0.00     0.034 H 
ATOM     29  H   LIG d   1       5.080  -7.197  -5.065  0.00  0.00     0.056 H 
ATOM     30  H   LIG d   1       5.701  -7.255  -6.724  0.00  0.00     0.056 H 
ENDROOT
BRANCH   1  31
ATOM     31  C   LIG d   1       4.814  -2.494  -7.800  0.00  0.00    -0.021 A 
ATOM     32  C   LIG d   1       4.168  -2.753  -8.996  0.00  0.00    -0.056 A 
ATOM     33  C   LIG d   1       4.648  -2.216 -10.172  0.00  0.00    -0.047 A 
ATOM     34  H   LIG d   1       3.286  -3.376  -9.008  0.00  0.00     0.062 H 
ATOM     35  C   LIG d   1       5.791  -1.417 -10.157  0.00  0.00     0.059 A 
ATOM     36  H   LIG d   1       4.140  -2.415 -11.106  0.00  0.00     0.063 H 
ATOM     37  C   LIG d   1       6.438  -1.159  -8.946  0.00  0.00    -0.047 A 
ATOM     38  C   LIG d   1       5.945  -1.698  -7.776  0.00  0.00    -0.056 A 
ATOM     39  H   LIG d   1       7.322  -0.538  -8.926  0.00  0.00     0.063 H 
ATOM     40  H   LIG d   1       6.445  -1.499  -6.839  0.00  0.00     0.062 H 
BRANCH  35  41
ATOM     41  C   LIG d   1       6.313  -0.842 -11.414  0.00  0.00     0.339 C 
ATOM     42  O   LIG d   1       5.632  -0.859 -12.419  0.00  0.00    -0.245 OA
BRANCH  41  43
ATOM     43  O   LIG d   1       7.546  -0.298 -11.445  0.00  0.00    -0.465 OA
BRANCH  43  44
ATOM     44  C   LIG d   1       8.540  -0.966 -12.265  0.00  0.00     0.082 C 
ATOM     45  H   LIG d   1       8.985  -1.786 -11.700  0.00  0.00     0.066 H 
ATOM     46  H   LIG d   1       8.065  -1.360 -13.163  0.00  0.00     0.066 H 
ATOM     47  H   LIG d   1       9.316  -0.254 -12.546  0.00  0.00     0.066 H 
ENDBRANCH  43  44
ENDBRANCH  41  43
ENDBRANCH  35  41
ENDBRANCH   1  31
BRANCH  20  48
ATOM     48  C   LIG d   1       7.857  -7.325  -5.040  0.00  0.00     0.042 C 
ATOM     49  H   LIG d   1       8.440  -7.572  -5.927  0.00  0.00     0.049 H 
ATOM     50  H   LIG d   1       8.527  -6.995  -4.245  0.00  0.00     0.049 H 
BRANCH  48  51
ATOM     51  C   LIG d   1       7.088  -8.564  -4.575  0.00  0.00     0.074 C 
ATOM     52  H   LIG d   1       6.023  -8.336  -4.517  0.00  0.00     0.061 H 
ATOM     53  O   LIG d   1       7.305  -9.642  -5.492  0.00  0.00    -0.375 OA
ATOM     54  C   LIG d   1       7.955 -10.733  -4.820  0.00  0.00     0.048 C 
ATOM     55  C   LIG d   1       7.592 -10.562  -3.324  0.00  0.00    -0.027 C 
ATOM     56  H   LIG d   1       7.580 -11.686  -5.194  0.00  0.00     0.056 H 
ATOM     57  H   LIG d   1       9.035 -10.672  -4.958  0.00  0.00     0.056 H 
ATOM     58  C   LIG d   1       7.604  -9.013  -3.191  0.00  0.00    -0.023 C 
ATOM     59  H   LIG d   1       6.601 -10.965  -3.111  0.00  0.00     0.029 H 
ATOM     60  H   LIG d   1       8.344 -11.018  -2.682  0.00  0.00     0.029 H 
ATOM     61  H   LIG d   1       8.615  -8.647  -3.017  0.00  0.00     0.029 H 
ATOM     62  H   LIG d   1       6.930  -8.684  -2.400  0.00  0.00     0.029 H 
ENDBRANCH  48  51
ENDBRANCH  20  48
TORSDOF 6
ENDMDL
