MODEL 1
REMARK VINA RESULT:      -6.7      0.000      0.000
REMARK  7 active torsions:
REMARK  status: ('A' for Active; 'I' for Inactive)
REMARK    1  A    between atoms: C_1  and  C_2 
REMARK    2  A    between atoms: C_6  and  C_8 
REMARK    3  A    between atoms: C_10  and  C_13 
REMARK    4  A    between atoms: C_22  and  C_23 
REMARK    5  A    between atoms: C_22  and  N_54 
REMARK    6  A    between atoms: C_23  and  C_24 
REMARK    7  A    between atoms: C_24  and  C_25 
ROOT
ATOM      1  C   LIG d   1       2.567   0.125  -9.476  0.00  0.00     0.067 C 
ATOM      2  H   LIG d   1       2.186   1.022  -9.966  0.00  0.00     0.096 H 
ATOM      3  C   LIG d   1       1.551  -1.015  -9.636  0.00  0.00     0.065 C 
ATOM      4  C   LIG d   1       1.569  -1.451 -11.079  0.00  0.00     0.156 A 
ATOM      5  C   LIG d   1       2.554  -1.123 -11.946  0.00  0.00     0.190 A 
ATOM      6  C   LIG d   1       1.127  -2.312 -13.032  0.00  0.00     0.243 A 
ATOM      7  N   LIG d   1       0.668  -2.203 -11.763  0.00  0.00    -0.247 N 
ATOM      8  H   LIG d   1      -0.175  -2.599 -11.398  0.00  0.00     0.310 HD
ATOM      9  C   LIG d   1       3.750  -0.288 -11.561  0.00  0.00     0.036 C 
ATOM     10  H   LIG d   1       0.555  -0.663  -9.370  0.00  0.00     0.041 H 
ATOM     11  H   LIG d   1       1.830  -1.852  -8.995  0.00  0.00     0.041 H 
ATOM     12  H   LIG d   1       0.639  -2.849 -13.833  0.00  0.00     0.158 H 
ATOM     13  H   LIG d   1       3.626   0.727 -11.938  0.00  0.00     0.090 H 
ATOM     14  H   LIG d   1       4.656  -0.728 -11.979  0.00  0.00     0.090 H 
ATOM     15  N   LIG d   1       3.852  -0.293 -10.081  0.00  0.00     0.250 N 
ATOM     16  H   LIG d   1       4.073  -1.244  -9.765  0.00  0.00     0.205 HD
ATOM     17  N   LIG d   1       2.256  -1.661 -13.127  0.00  0.00    -0.243 N 
ATOM     18  H   LIG d   1       2.824  -1.578 -13.978  0.00  0.00     0.311 HD
ENDROOT
BRANCH  15  19
ATOM     19  C   LIG d   1       4.931   0.619  -9.647  0.00  0.00    -0.030 C 
ATOM     20  H   LIG d   1       4.515   1.362  -8.967  0.00  0.00     0.082 H 
ATOM     21  H   LIG d   1       5.342   1.118 -10.524  0.00  0.00     0.082 H 
BRANCH  19  22
ATOM     22  C   LIG d   1       6.041  -0.158  -8.936  0.00  0.00    -0.009 C 
ATOM     23  H   LIG d   1       6.847  -0.367  -9.640  0.00  0.00     0.032 H 
ATOM     24  H   LIG d   1       5.640  -1.098  -8.554  0.00  0.00     0.032 H 
BRANCH  22  25
ATOM     25  C   LIG d   1       6.583   0.675  -7.773  0.00  0.00    -0.023 C 
ATOM     26  H   LIG d   1       7.515   1.154  -8.073  0.00  0.00     0.032 H 
ATOM     27  H   LIG d   1       5.852   1.438  -7.501  0.00  0.00     0.032 H 
BRANCH  25  28
ATOM     28  C   LIG d   1       6.837  -0.221  -6.589  0.00  0.00    -0.047 A 
ATOM     29  C   LIG d   1       6.651  -1.587  -6.703  0.00  0.00    -0.059 A 
ATOM     30  C   LIG d   1       6.884  -2.409  -5.618  0.00  0.00    -0.061 A 
ATOM     31  H   LIG d   1       6.323  -2.010  -7.641  0.00  0.00     0.062 H 
ATOM     32  C   LIG d   1       7.304  -1.867  -4.418  0.00  0.00    -0.062 A 
ATOM     33  H   LIG d   1       6.739  -3.476  -5.707  0.00  0.00     0.062 H 
ATOM     34  C   LIG d   1       7.491  -0.502  -4.302  0.00  0.00    -0.061 A 
ATOM     35  H   LIG d   1       7.487  -2.510  -3.569  0.00  0.00     0.062 H 
ATOM     36  C   LIG d   1       7.262   0.319  -5.390  0.00  0.00    -0.059 A 
ATOM     37  H   LIG d   1       7.819  -0.079  -3.365  0.00  0.00     0.062 H 
ATOM     38  H   LIG d   1       7.412   1.385  -5.302  0.00  0.00     0.062 H 
ENDBRANCH  25  28
ENDBRANCH  22  25
ENDBRANCH  19  22
ENDBRANCH  15  19
BRANCH   1  39
ATOM     39  C   LIG d   1       2.779   0.405  -8.011  0.00  0.00     0.276 A 
ATOM     40  N   LIG d   1       3.160  -0.456  -7.102  0.00  0.00    -0.186 NA
ATOM     41  C   LIG d   1       3.214   0.239  -5.943  0.00  0.00     0.202 A 
ATOM     42  N   LIG d   1       2.865   1.470  -6.215  0.00  0.00    -0.056 NA
ATOM     43  O   LIG d   1       2.618   1.581  -7.397  0.00  0.00    -0.332 OA
BRANCH  41  44
ATOM     44  C   LIG d   1       3.598  -0.294  -4.612  0.00  0.00     0.023 A 
ATOM     45  C   LIG d   1       3.579  -1.668  -4.378  0.00  0.00    -0.051 A 
ATOM     46  C   LIG d   1       3.942  -2.159  -3.139  0.00  0.00    -0.061 A 
ATOM     47  H   LIG d   1       3.284  -2.347  -5.165  0.00  0.00     0.062 H 
ATOM     48  C   LIG d   1       4.313  -1.290  -2.130  0.00  0.00    -0.059 A 
ATOM     49  H   LIG d   1       3.932  -3.223  -2.958  0.00  0.00     0.062 H 
ATOM     50  C   LIG d   1       4.329   0.075  -2.355  0.00  0.00    -0.050 A 
ATOM     51  H   LIG d   1       4.592  -1.678  -1.162  0.00  0.00     0.062 H 
ATOM     52  C   LIG d   1       3.973   0.576  -3.591  0.00  0.00    -0.048 A 
ATOM     53  H   LIG d   1       3.985   1.642  -3.766  0.00  0.00     0.063 H 
BRANCH  50  54
ATOM     54  C   LIG d   1       4.734   1.016  -1.251  0.00  0.00    -0.040 C 
ATOM     55  H   LIG d   1       4.691   0.494  -0.295  0.00  0.00     0.028 H 
ATOM     56  H   LIG d   1       5.751   1.368  -1.427  0.00  0.00     0.028 H 
ATOM     57  H   LIG d   1       4.054   1.868  -1.230  0.00  0.00     0.028 H 
ENDBRANCH  50  54
ENDBRANCH  41  44
ENDBRANCH   1  39
TORSDOF 7
ENDMDL
MODEL 2
REMARK VINA RESULT:      -6.5      2.195      4.702
REMARK  7 active torsions:
REMARK  status: ('A' for Active; 'I' for Inactive)
REMARK    1  A    between atoms: C_1  and  C_2 
REMARK    2  A    between atoms: C_6  and  C_8 
REMARK    3  A    between atoms: C_10  and  C_13 
REMARK    4  A    between atoms: C_22  and  C_23 
REMARK    5  A    between atoms: C_22  and  N_54 
REMARK    6  A    between atoms: C_23  and  C_24 
REMARK    7  A    between atoms: C_24  and  C_25 
ROOT
ATOM      1  C   LIG d   1       4.340   0.090  -9.322  0.00  0.00     0.067 C 
ATOM      2  H   LIG d   1       4.506  -0.916  -8.934  0.00  0.00     0.096 H 
ATOM      3  C   LIG d   1       4.172   0.029 -10.847  0.00  0.00     0.065 C 
ATOM      4  C   LIG d   1       2.840  -0.612 -11.140  0.00  0.00     0.156 A 
ATOM      5  C   LIG d   1       1.863  -0.759 -10.216  0.00  0.00     0.190 A 
ATOM      6  C   LIG d   1       1.125  -1.598 -12.055  0.00  0.00     0.243 A 
ATOM      7  N   LIG d   1       2.375  -1.140 -12.302  0.00  0.00    -0.247 N 
ATOM      8  H   LIG d   1       2.864  -1.183 -13.173  0.00  0.00     0.310 HD
ATOM      9  C   LIG d   1       1.998  -0.291  -8.788  0.00  0.00     0.036 C 
ATOM     10  H   LIG d   1       4.972  -0.569 -11.283  0.00  0.00     0.041 H 
ATOM     11  H   LIG d   1       4.196   1.037 -11.263  0.00  0.00     0.041 H 
ATOM     12  H   LIG d   1       0.478  -2.078 -12.775  0.00  0.00     0.158 H 
ATOM     13  H   LIG d   1       2.191  -1.144  -8.138  0.00  0.00     0.090 H 
ATOM     14  H   LIG d   1       1.080   0.210  -8.477  0.00  0.00     0.090 H 
ATOM     15  N   LIG d   1       3.118   0.680  -8.731  0.00  0.00     0.250 N 
ATOM     16  H   LIG d   1       2.861   1.517  -9.267  0.00  0.00     0.205 HD
ATOM     17  N   LIG d   1       0.831  -1.363 -10.804  0.00  0.00    -0.243 N 
ATOM     18  H   LIG d   1      -0.054  -1.606 -10.346  0.00  0.00     0.311 HD
ENDROOT
BRANCH  15  19
ATOM     19  C   LIG d   1       3.376   1.070  -7.329  0.00  0.00    -0.030 C 
ATOM     20  H   LIG d   1       2.811   1.975  -7.104  0.00  0.00     0.082 H 
ATOM     21  H   LIG d   1       4.440   1.267  -7.209  0.00  0.00     0.082 H 
BRANCH  19  22
ATOM     22  C   LIG d   1       2.953  -0.046  -6.372  0.00  0.00    -0.009 C 
ATOM     23  H   LIG d   1       3.831  -0.615  -6.066  0.00  0.00     0.032 H 
ATOM     24  H   LIG d   1       2.248  -0.709  -6.875  0.00  0.00     0.032 H 
BRANCH  22  25
ATOM     25  C   LIG d   1       2.285   0.565  -5.138  0.00  0.00    -0.023 C 
ATOM     26  H   LIG d   1       2.279   1.651  -5.229  0.00  0.00     0.032 H 
ATOM     27  H   LIG d   1       1.261   0.200  -5.061  0.00  0.00     0.032 H 
BRANCH  25  28
ATOM     28  C   LIG d   1       3.053   0.169  -3.904  0.00  0.00    -0.047 A 
ATOM     29  C   LIG d   1       3.640   1.140  -3.113  0.00  0.00    -0.059 A 
ATOM     30  C   LIG d   1       4.344   0.777  -1.981  0.00  0.00    -0.061 A 
ATOM     31  H   LIG d   1       3.549   2.182  -3.381  0.00  0.00     0.062 H 
ATOM     32  C   LIG d   1       4.462  -0.557  -1.638  0.00  0.00    -0.062 A 
ATOM     33  H   LIG d   1       4.803   1.535  -1.363  0.00  0.00     0.062 H 
ATOM     34  C   LIG d   1       3.875  -1.529  -2.428  0.00  0.00    -0.061 A 
ATOM     35  H   LIG d   1       5.012  -0.842  -0.753  0.00  0.00     0.062 H 
ATOM     36  C   LIG d   1       3.166  -1.165  -3.557  0.00  0.00    -0.059 A 
ATOM     37  H   LIG d   1       3.966  -2.571  -2.161  0.00  0.00     0.062 H 
ATOM     38  H   LIG d   1       2.704  -1.923  -4.172  0.00  0.00     0.062 H 
ENDBRANCH  25  28
ENDBRANCH  22  25
ENDBRANCH  19  22
ENDBRANCH  15  19
BRANCH   1  39
ATOM     39  C   LIG d   1       5.522   0.960  -8.982  0.00  0.00     0.276 A 
ATOM     40  N   LIG d   1       6.423   0.723  -8.062  0.00  0.00    -0.186 NA
ATOM     41  C   LIG d   1       7.282   1.766  -8.117  0.00  0.00     0.202 A 
ATOM     42  N   LIG d   1       6.855   2.568  -9.059  0.00  0.00    -0.056 NA
ATOM     43  O   LIG d   1       5.851   2.116  -9.567  0.00  0.00    -0.332 OA
BRANCH  41  44
ATOM     44  C   LIG d   1       8.483   1.964  -7.269  0.00  0.00     0.023 A 
ATOM     45  C   LIG d   1       9.744   2.066  -7.855  0.00  0.00    -0.051 A 
ATOM     46  C   LIG d   1      10.857   2.257  -7.061  0.00  0.00    -0.061 A 
ATOM     47  H   LIG d   1       9.848   2.000  -8.928  0.00  0.00     0.062 H 
ATOM     48  C   LIG d   1      10.725   2.336  -5.687  0.00  0.00    -0.059 A 
ATOM     49  H   LIG d   1      11.834   2.340  -7.515  0.00  0.00     0.062 H 
ATOM     50  C   LIG d   1       9.477   2.230  -5.100  0.00  0.00    -0.050 A 
ATOM     51  H   LIG d   1      11.600   2.480  -5.070  0.00  0.00     0.062 H 
ATOM     52  C   LIG d   1       8.356   2.045  -5.884  0.00  0.00    -0.048 A 
ATOM     53  H   LIG d   1       7.383   1.962  -5.424  0.00  0.00     0.063 H 
BRANCH  50  54
ATOM     54  C   LIG d   1       9.341   2.316  -3.602  0.00  0.00    -0.040 C 
ATOM     55  H   LIG d   1      10.291   2.628  -3.167  0.00  0.00     0.028 H 
ATOM     56  H   LIG d   1       8.569   3.044  -3.348  0.00  0.00     0.028 H 
ATOM     57  H   LIG d   1       9.063   1.340  -3.204  0.00  0.00     0.028 H 
ENDBRANCH  50  54
ENDBRANCH  41  44
ENDBRANCH   1  39
TORSDOF 7
ENDMDL
MODEL 3
REMARK VINA RESULT:      -6.4      2.626      7.212
REMARK  7 active torsions:
REMARK  status: ('A' for Active; 'I' for Inactive)
REMARK    1  A    between atoms: C_1  and  C_2 
REMARK    2  A    between atoms: C_6  and  C_8 
REMARK    3  A    between atoms: C_10  and  C_13 
REMARK    4  A    between atoms: C_22  and  C_23 
REMARK    5  A    between atoms: C_22  and  N_54 
REMARK    6  A    between atoms: C_23  and  C_24 
REMARK    7  A    between atoms: C_24  and  C_25 
ROOT
ATOM      1  C   LIG d   1       6.902  -0.223  -5.840  0.00  0.00     0.067 C 
ATOM      2  H   LIG d   1       6.742   0.030  -4.792  0.00  0.00     0.096 H 
ATOM      3  C   LIG d   1       7.917   0.753  -6.452  0.00  0.00     0.065 C 
ATOM      4  C   LIG d   1       9.272   0.433  -5.874  0.00  0.00     0.156 A 
ATOM      5  C   LIG d   1       9.553  -0.720  -5.226  0.00  0.00     0.190 A 
ATOM      6  C   LIG d   1      11.353   0.460  -5.228  0.00  0.00     0.243 A 
ATOM      7  N   LIG d   1      10.407   1.178  -5.877  0.00  0.00    -0.247 N 
ATOM      8  H   LIG d   1      10.522   2.086  -6.282  0.00  0.00     0.310 HD
ATOM      9  C   LIG d   1       8.541  -1.819  -5.016  0.00  0.00     0.036 C 
ATOM     10  H   LIG d   1       7.642   1.778  -6.201  0.00  0.00     0.041 H 
ATOM     11  H   LIG d   1       7.940   0.632  -7.536  0.00  0.00     0.041 H 
ATOM     12  H   LIG d   1      12.373   0.773  -5.056  0.00  0.00     0.158 H 
ATOM     13  H   LIG d   1       8.181  -1.795  -3.987  0.00  0.00     0.090 H 
ATOM     14  H   LIG d   1       9.000  -2.786  -5.223  0.00  0.00     0.090 H 
ATOM     15  N   LIG d   1       7.427  -1.600  -5.970  0.00  0.00     0.250 N 
ATOM     16  H   LIG d   1       7.776  -1.734  -6.926  0.00  0.00     0.205 HD
ATOM     17  N   LIG d   1      10.829  -0.674  -4.844  0.00  0.00    -0.243 N 
ATOM     18  H   LIG d   1      11.322  -1.413  -4.329  0.00  0.00     0.311 HD
ENDROOT
BRANCH  15  19
ATOM     19  C   LIG d   1       6.347  -2.576  -5.715  0.00  0.00    -0.030 C 
ATOM     20  H   LIG d   1       6.550  -3.485  -6.281  0.00  0.00     0.082 H 
ATOM     21  H   LIG d   1       5.401  -2.147  -6.044  0.00  0.00     0.082 H 
BRANCH  19  22
ATOM     22  C   LIG d   1       6.264  -2.912  -4.225  0.00  0.00    -0.009 C 
ATOM     23  H   LIG d   1       6.810  -2.163  -3.652  0.00  0.00     0.032 H 
ATOM     24  H   LIG d   1       6.703  -3.895  -4.048  0.00  0.00     0.032 H 
BRANCH  22  25
ATOM     25  C   LIG d   1       4.798  -2.922  -3.784  0.00  0.00    -0.023 C 
ATOM     26  H   LIG d   1       4.164  -3.148  -4.640  0.00  0.00     0.032 H 
ATOM     27  H   LIG d   1       4.656  -3.680  -3.014  0.00  0.00     0.032 H 
BRANCH  25  28
ATOM     28  C   LIG d   1       4.432  -1.569  -3.230  0.00  0.00    -0.047 A 
ATOM     29  C   LIG d   1       3.123  -1.127  -3.296  0.00  0.00    -0.059 A 
ATOM     30  C   LIG d   1       2.786   0.113  -2.788  0.00  0.00    -0.061 A 
ATOM     31  H   LIG d   1       2.364  -1.750  -3.745  0.00  0.00     0.062 H 
ATOM     32  C   LIG d   1       3.758   0.911  -2.213  0.00  0.00    -0.062 A 
ATOM     33  H   LIG d   1       1.764   0.459  -2.839  0.00  0.00     0.062 H 
ATOM     34  C   LIG d   1       5.066   0.469  -2.146  0.00  0.00    -0.061 A 
ATOM     35  H   LIG d   1       3.495   1.881  -1.815  0.00  0.00     0.062 H 
ATOM     36  C   LIG d   1       5.401  -0.773  -2.650  0.00  0.00    -0.059 A 
ATOM     37  H   LIG d   1       5.825   1.092  -1.697  0.00  0.00     0.062 H 
ATOM     38  H   LIG d   1       6.422  -1.121  -2.595  0.00  0.00     0.062 H 
ENDBRANCH  25  28
ENDBRANCH  22  25
ENDBRANCH  19  22
ENDBRANCH  15  19
BRANCH   1  39
ATOM     39  C   LIG d   1       5.596  -0.120  -6.585  0.00  0.00     0.276 A 
ATOM     40  N   LIG d   1       5.378  -0.477  -7.826  0.00  0.00    -0.186 NA
ATOM     41  C   LIG d   1       4.074  -0.203  -8.059  0.00  0.00     0.202 A 
ATOM     42  N   LIG d   1       3.583   0.301  -6.956  0.00  0.00    -0.056 NA
ATOM     43  O   LIG d   1       4.442   0.350  -6.101  0.00  0.00    -0.332 OA
BRANCH  41  44
ATOM     44  C   LIG d   1       3.339  -0.431  -9.327  0.00  0.00     0.023 A 
ATOM     45  C   LIG d   1       1.965  -0.661  -9.308  0.00  0.00    -0.051 A 
ATOM     46  C   LIG d   1       1.286  -0.867 -10.492  0.00  0.00    -0.061 A 
ATOM     47  H   LIG d   1       1.433  -0.675  -8.368  0.00  0.00     0.062 H 
ATOM     48  C   LIG d   1       1.967  -0.856 -11.694  0.00  0.00    -0.059 A 
ATOM     49  H   LIG d   1       0.220  -1.041 -10.477  0.00  0.00     0.062 H 
ATOM     50  C   LIG d   1       3.333  -0.633 -11.720  0.00  0.00    -0.050 A 
ATOM     51  H   LIG d   1       1.432  -1.022 -12.618  0.00  0.00     0.062 H 
ATOM     52  C   LIG d   1       4.021  -0.421 -10.542  0.00  0.00    -0.048 A 
ATOM     53  H   LIG d   1       5.087  -0.248 -10.564  0.00  0.00     0.063 H 
BRANCH  50  54
ATOM     54  C   LIG d   1       4.069  -0.623 -13.034  0.00  0.00    -0.040 C 
ATOM     55  H   LIG d   1       3.939  -1.584 -13.532  0.00  0.00     0.028 H 
ATOM     56  H   LIG d   1       3.671   0.171 -13.668  0.00  0.00     0.028 H 
ATOM     57  H   LIG d   1       5.130  -0.447 -12.856  0.00  0.00     0.028 H 
ENDBRANCH  50  54
ENDBRANCH  41  44
ENDBRANCH   1  39
TORSDOF 7
ENDMDL
MODEL 4
REMARK VINA RESULT:      -6.4      4.048      7.281
REMARK  7 active torsions:
REMARK  status: ('A' for Active; 'I' for Inactive)
REMARK    1  A    between atoms: C_1  and  C_2 
REMARK    2  A    between atoms: C_6  and  C_8 
REMARK    3  A    between atoms: C_10  and  C_13 
REMARK    4  A    between atoms: C_22  and  C_23 
REMARK    5  A    between atoms: C_22  and  N_54 
REMARK    6  A    between atoms: C_23  and  C_24 
REMARK    7  A    between atoms: C_24  and  C_25 
ROOT
ATOM      1  C   LIG d   1       9.366   2.370  -5.352  0.00  0.00     0.067 C 
ATOM      2  H   LIG d   1      10.414   2.076  -5.297  0.00  0.00     0.096 H 
ATOM      3  C   LIG d   1       9.120   3.564  -4.418  0.00  0.00     0.065 C 
ATOM      4  C   LIG d   1       9.785   4.771  -5.027  0.00  0.00     0.156 A 
ATOM      5  C   LIG d   1      10.195   4.827  -6.315  0.00  0.00     0.190 A 
ATOM      6  C   LIG d   1      10.686   6.719  -5.412  0.00  0.00     0.243 A 
ATOM      7  N   LIG d   1      10.093   5.964  -4.456  0.00  0.00    -0.247 N 
ATOM      8  H   LIG d   1       9.916   6.234  -3.509  0.00  0.00     0.310 HD
ATOM      9  C   LIG d   1      10.025   3.687  -7.287  0.00  0.00     0.036 C 
ATOM     10  H   LIG d   1       9.552   3.361  -3.438  0.00  0.00     0.041 H 
ATOM     11  H   LIG d   1       8.049   3.743  -4.319  0.00  0.00     0.041 H 
ATOM     12  H   LIG d   1      11.053   7.726  -5.280  0.00  0.00     0.158 H 
ATOM     13  H   LIG d   1      10.978   3.175  -7.424  0.00  0.00     0.090 H 
ATOM     14  H   LIG d   1       9.672   4.069  -8.245  0.00  0.00     0.090 H 
ATOM     15  N   LIG d   1       9.006   2.763  -6.732  0.00  0.00     0.250 N 
ATOM     16  H   LIG d   1       8.097   3.241  -6.715  0.00  0.00     0.205 HD
ATOM     17  N   LIG d   1      10.740   6.026  -6.519  0.00  0.00    -0.243 N 
ATOM     18  H   LIG d   1      11.140   6.353  -7.406  0.00  0.00     0.311 HD
ENDROOT
BRANCH  15  19
ATOM     19  C   LIG d   1       8.898   1.561  -7.585  0.00  0.00    -0.030 C 
ATOM     20  H   LIG d   1       8.808   0.681  -6.948  0.00  0.00     0.082 H 
ATOM     21  H   LIG d   1       9.800   1.478  -8.191  0.00  0.00     0.082 H 
BRANCH  19  22
ATOM     22  C   LIG d   1       7.676   1.655  -8.500  0.00  0.00    -0.009 C 
ATOM     23  H   LIG d   1       7.988   1.534  -9.537  0.00  0.00     0.032 H 
ATOM     24  H   LIG d   1       7.203   2.630  -8.376  0.00  0.00     0.032 H 
BRANCH  22  25
ATOM     25  C   LIG d   1       6.678   0.554  -8.135  0.00  0.00    -0.023 C 
ATOM     26  H   LIG d   1       6.887  -0.335  -8.729  0.00  0.00     0.032 H 
ATOM     27  H   LIG d   1       6.772   0.316  -7.076  0.00  0.00     0.032 H 
BRANCH  25  28
ATOM     28  C   LIG d   1       5.278   1.031  -8.419  0.00  0.00    -0.047 A 
ATOM     29  C   LIG d   1       4.194   0.307  -7.958  0.00  0.00    -0.059 A 
ATOM     30  C   LIG d   1       2.909   0.745  -8.218  0.00  0.00    -0.061 A 
ATOM     31  H   LIG d   1       4.351  -0.600  -7.395  0.00  0.00     0.062 H 
ATOM     32  C   LIG d   1       2.708   1.908  -8.938  0.00  0.00    -0.062 A 
ATOM     33  H   LIG d   1       2.062   0.180  -7.857  0.00  0.00     0.062 H 
ATOM     34  C   LIG d   1       3.791   2.632  -9.400  0.00  0.00    -0.061 A 
ATOM     35  H   LIG d   1       1.703   2.251  -9.142  0.00  0.00     0.062 H 
ATOM     36  C   LIG d   1       5.076   2.197  -9.135  0.00  0.00    -0.059 A 
ATOM     37  H   LIG d   1       3.634   3.540  -9.963  0.00  0.00     0.062 H 
ATOM     38  H   LIG d   1       5.922   2.764  -9.492  0.00  0.00     0.062 H 
ENDBRANCH  25  28
ENDBRANCH  22  25
ENDBRANCH  19  22
ENDBRANCH  15  19
BRANCH   1  39
ATOM     39  C   LIG d   1       8.499   1.214  -4.926  0.00  0.00     0.276 A 
ATOM     40  N   LIG d   1       7.250   1.279  -4.537  0.00  0.00    -0.186 NA
ATOM     41  C   LIG d   1       6.889   0.007  -4.257  0.00  0.00     0.202 A 
ATOM     42  N   LIG d   1       7.931  -0.750  -4.489  0.00  0.00    -0.056 NA
ATOM     43  O   LIG d   1       8.859  -0.073  -4.878  0.00  0.00    -0.332 OA
BRANCH  41  44
ATOM     44  C   LIG d   1       5.560  -0.447  -3.776  0.00  0.00     0.023 A 
ATOM     45  C   LIG d   1       5.469  -1.325  -2.698  0.00  0.00    -0.051 A 
ATOM     46  C   LIG d   1       4.230  -1.739  -2.252  0.00  0.00    -0.061 A 
ATOM     47  H   LIG d   1       6.367  -1.677  -2.211  0.00  0.00     0.062 H 
ATOM     48  C   LIG d   1       3.082  -1.293  -2.879  0.00  0.00    -0.059 A 
ATOM     49  H   LIG d   1       4.159  -2.416  -1.413  0.00  0.00     0.062 H 
ATOM     50  C   LIG d   1       3.166  -0.425  -3.953  0.00  0.00    -0.050 A 
ATOM     51  H   LIG d   1       2.115  -1.623  -2.529  0.00  0.00     0.062 H 
ATOM     52  C   LIG d   1       4.400  -0.000  -4.404  0.00  0.00    -0.048 A 
ATOM     53  H   LIG d   1       4.464   0.677  -5.243  0.00  0.00     0.063 H 
BRANCH  50  54
ATOM     54  C   LIG d   1       1.910   0.056  -4.632  0.00  0.00    -0.040 C 
ATOM     55  H   LIG d   1       1.053  -0.130  -3.985  0.00  0.00     0.028 H 
ATOM     56  H   LIG d   1       1.991   1.126  -4.829  0.00  0.00     0.028 H 
ATOM     57  H   LIG d   1       1.778  -0.477  -5.573  0.00  0.00     0.028 H 
ENDBRANCH  50  54
ENDBRANCH  41  44
ENDBRANCH   1  39
TORSDOF 7
ENDMDL
MODEL 5
REMARK VINA RESULT:      -6.2      3.273      5.509
REMARK  7 active torsions:
REMARK  status: ('A' for Active; 'I' for Inactive)
REMARK    1  A    between atoms: C_1  and  C_2 
REMARK    2  A    between atoms: C_6  and  C_8 
REMARK    3  A    between atoms: C_10  and  C_13 
REMARK    4  A    between atoms: C_22  and  C_23 
REMARK    5  A    between atoms: C_22  and  N_54 
REMARK    6  A    between atoms: C_23  and  C_24 
REMARK    7  A    between atoms: C_24  and  C_25 
ROOT
ATOM      1  C   LIG d   1       6.499  -0.549  -7.530  0.00  0.00     0.067 C 
ATOM      2  H   LIG d   1       6.864  -1.055  -8.423  0.00  0.00     0.096 H 
ATOM      3  C   LIG d   1       5.418   0.468  -7.924  0.00  0.00     0.065 C 
ATOM      4  C   LIG d   1       4.189  -0.301  -8.337  0.00  0.00     0.156 A 
ATOM      5  C   LIG d   1       3.999  -1.610  -8.057  0.00  0.00     0.190 A 
ATOM      6  C   LIG d   1       2.271  -0.941  -9.152  0.00  0.00     0.243 A 
ATOM      7  N   LIG d   1       3.099   0.124  -9.026  0.00  0.00    -0.247 N 
ATOM      8  H   LIG d   1       2.939   1.047  -9.376  0.00  0.00     0.310 HD
ATOM      9  C   LIG d   1       4.996  -2.446  -7.293  0.00  0.00     0.036 C 
ATOM     10  H   LIG d   1       5.769   1.076  -8.757  0.00  0.00     0.041 H 
ATOM     11  H   LIG d   1       5.183   1.108  -7.072  0.00  0.00     0.041 H 
ATOM     12  H   LIG d   1       1.314  -0.937  -9.653  0.00  0.00     0.158 H 
ATOM     13  H   LIG d   1       5.547  -3.084  -7.984  0.00  0.00     0.090 H 
ATOM     14  H   LIG d   1       4.474  -3.061  -6.559  0.00  0.00     0.090 H 
ATOM     15  N   LIG d   1       5.914  -1.523  -6.582  0.00  0.00     0.250 N 
ATOM     16  H   LIG d   1       5.384  -1.013  -5.865  0.00  0.00     0.205 HD
ATOM     17  N   LIG d   1       2.822  -1.971  -8.567  0.00  0.00    -0.243 N 
ATOM     18  H   LIG d   1       2.413  -2.911  -8.509  0.00  0.00     0.311 HD
ENDROOT
BRANCH  15  19
ATOM     19  C   LIG d   1       6.990  -2.292  -5.923  0.00  0.00    -0.030 C 
ATOM     20  H   LIG d   1       7.884  -1.671  -5.865  0.00  0.00     0.082 H 
ATOM     21  H   LIG d   1       7.203  -3.179  -6.518  0.00  0.00     0.082 H 
BRANCH  19  22
ATOM     22  C   LIG d   1       6.569  -2.712  -4.513  0.00  0.00    -0.009 C 
ATOM     23  H   LIG d   1       7.000  -3.686  -4.281  0.00  0.00     0.032 H 
ATOM     24  H   LIG d   1       5.482  -2.775  -4.462  0.00  0.00     0.032 H 
BRANCH  22  25
ATOM     25  C   LIG d   1       7.068  -1.679  -3.501  0.00  0.00    -0.023 C 
ATOM     26  H   LIG d   1       7.493  -2.192  -2.639  0.00  0.00     0.032 H 
ATOM     27  H   LIG d   1       7.831  -1.054  -3.967  0.00  0.00     0.032 H 
BRANCH  25  28
ATOM     28  C   LIG d   1       5.917  -0.816  -3.056  0.00  0.00    -0.047 A 
ATOM     29  C   LIG d   1       4.726  -1.400  -2.665  0.00  0.00    -0.059 A 
ATOM     30  C   LIG d   1       3.669  -0.609  -2.255  0.00  0.00    -0.061 A 
ATOM     31  H   LIG d   1       4.621  -2.475  -2.679  0.00  0.00     0.062 H 
ATOM     32  C   LIG d   1       3.803   0.766  -2.236  0.00  0.00    -0.062 A 
ATOM     33  H   LIG d   1       2.739  -1.066  -1.949  0.00  0.00     0.062 H 
ATOM     34  C   LIG d   1       4.993   1.352  -2.626  0.00  0.00    -0.061 A 
ATOM     35  H   LIG d   1       2.977   1.385  -1.916  0.00  0.00     0.062 H 
ATOM     36  C   LIG d   1       6.051   0.560  -3.031  0.00  0.00    -0.059 A 
ATOM     37  H   LIG d   1       5.098   2.426  -2.611  0.00  0.00     0.062 H 
ATOM     38  H   LIG d   1       6.983   1.016  -3.332  0.00  0.00     0.062 H 
ENDBRANCH  25  28
ENDBRANCH  22  25
ENDBRANCH  19  22
ENDBRANCH  15  19
BRANCH   1  39
ATOM     39  C   LIG d   1       7.641   0.169  -6.857  0.00  0.00     0.276 A 
ATOM     40  N   LIG d   1       7.547   1.194  -6.048  0.00  0.00    -0.186 NA
ATOM     41  C   LIG d   1       8.817   1.497  -5.696  0.00  0.00     0.202 A 
ATOM     42  N   LIG d   1       9.600   0.646  -6.308  0.00  0.00    -0.056 NA
ATOM     43  O   LIG d   1       8.940  -0.124  -6.973  0.00  0.00    -0.332 OA
BRANCH  41  44
ATOM     44  C   LIG d   1       9.242   2.589  -4.787  0.00  0.00     0.023 A 
ATOM     45  C   LIG d   1       9.841   2.288  -3.565  0.00  0.00    -0.051 A 
ATOM     46  C   LIG d   1      10.241   3.309  -2.725  0.00  0.00    -0.061 A 
ATOM     47  H   LIG d   1       9.995   1.259  -3.278  0.00  0.00     0.062 H 
ATOM     48  C   LIG d   1      10.038   4.627  -3.090  0.00  0.00    -0.059 A 
ATOM     49  H   LIG d   1      10.709   3.077  -1.780  0.00  0.00     0.062 H 
ATOM     50  C   LIG d   1       9.438   4.932  -4.299  0.00  0.00    -0.050 A 
ATOM     51  H   LIG d   1      10.347   5.422  -2.427  0.00  0.00     0.062 H 
ATOM     52  C   LIG d   1       9.040   3.919  -5.149  0.00  0.00    -0.048 A 
ATOM     53  H   LIG d   1       8.573   4.159  -6.092  0.00  0.00     0.063 H 
BRANCH  50  54
ATOM     54  C   LIG d   1       9.220   6.371  -4.689  0.00  0.00    -0.040 C 
ATOM     55  H   LIG d   1       9.444   7.016  -3.840  0.00  0.00     0.028 H 
ATOM     56  H   LIG d   1       9.877   6.625  -5.522  0.00  0.00     0.028 H 
ATOM     57  H   LIG d   1       8.182   6.513  -4.990  0.00  0.00     0.028 H 
ENDBRANCH  50  54
ENDBRANCH  41  44
ENDBRANCH   1  39
TORSDOF 7
ENDMDL
MODEL 6
REMARK VINA RESULT:      -6.2      4.077      6.343
REMARK  7 active torsions:
REMARK  status: ('A' for Active; 'I' for Inactive)
REMARK    1  A    between atoms: C_1  and  C_2 
REMARK    2  A    between atoms: C_6  and  C_8 
REMARK    3  A    between atoms: C_10  and  C_13 
REMARK    4  A    between atoms: C_22  and  C_23 
REMARK    5  A    between atoms: C_22  and  N_54 
REMARK    6  A    between atoms: C_23  and  C_24 
REMARK    7  A    between atoms: C_24  and  C_25 
ROOT
ATOM      1  C   LIG d   1       4.862  -2.054  -6.480  0.00  0.00     0.067 C 
ATOM      2  H   LIG d   1       4.543  -1.441  -5.637  0.00  0.00     0.096 H 
ATOM      3  C   LIG d   1       4.045  -1.677  -7.724  0.00  0.00     0.065 C 
ATOM      4  C   LIG d   1       4.498  -0.313  -8.178  0.00  0.00     0.156 A 
ATOM      5  C   LIG d   1       5.645   0.270  -7.761  0.00  0.00     0.190 A 
ATOM      6  C   LIG d   1       4.691   1.646  -9.113  0.00  0.00     0.243 A 
ATOM      7  N   LIG d   1       3.895   0.553  -9.033  0.00  0.00    -0.247 N 
ATOM      8  H   LIG d   1       3.028   0.411  -9.511  0.00  0.00     0.310 HD
ATOM      9  C   LIG d   1       6.603  -0.385  -6.798  0.00  0.00     0.036 C 
ATOM     10  H   LIG d   1       2.985  -1.650  -7.476  0.00  0.00     0.041 H 
ATOM     11  H   LIG d   1       4.220  -2.407  -8.516  0.00  0.00     0.041 H 
ATOM     12  H   LIG d   1       4.494   2.524  -9.712  0.00  0.00     0.158 H 
ATOM     13  H   LIG d   1       6.487   0.056  -5.808  0.00  0.00     0.090 H 
ATOM     14  H   LIG d   1       7.627  -0.246  -7.146  0.00  0.00     0.090 H 
ATOM     15  N   LIG d   1       6.297  -1.837  -6.768  0.00  0.00     0.250 N 
ATOM     16  H   LIG d   1       6.517  -2.242  -7.686  0.00  0.00     0.205 HD
ATOM     17  N   LIG d   1       5.734   1.463  -8.348  0.00  0.00    -0.243 N 
ATOM     18  H   LIG d   1       6.501   2.133  -8.218  0.00  0.00     0.311 HD
ENDROOT
BRANCH  15  19
ATOM     19  C   LIG d   1       7.123  -2.504  -5.740  0.00  0.00    -0.030 C 
ATOM     20  H   LIG d   1       8.024  -2.898  -6.211  0.00  0.00     0.082 H 
ATOM     21  H   LIG d   1       6.551  -3.324  -5.308  0.00  0.00     0.082 H 
BRANCH  19  22
ATOM     22  C   LIG d   1       7.515  -1.517  -4.638  0.00  0.00    -0.009 C 
ATOM     23  H   LIG d   1       7.180  -0.516  -4.911  0.00  0.00     0.032 H 
ATOM     24  H   LIG d   1       8.598  -1.518  -4.517  0.00  0.00     0.032 H 
BRANCH  22  25
ATOM     25  C   LIG d   1       6.855  -1.935  -3.322  0.00  0.00    -0.023 C 
ATOM     26  H   LIG d   1       6.438  -2.936  -3.427  0.00  0.00     0.032 H 
ATOM     27  H   LIG d   1       7.599  -1.931  -2.525  0.00  0.00     0.032 H 
BRANCH  25  28
ATOM     28  C   LIG d   1       5.753  -0.964  -2.983  0.00  0.00    -0.047 A 
ATOM     29  C   LIG d   1       5.997   0.397  -3.015  0.00  0.00    -0.059 A 
ATOM     30  C   LIG d   1       4.986   1.287  -2.706  0.00  0.00    -0.061 A 
ATOM     31  H   LIG d   1       6.976   0.764  -3.282  0.00  0.00     0.062 H 
ATOM     32  C   LIG d   1       3.731   0.817  -2.365  0.00  0.00    -0.062 A 
ATOM     33  H   LIG d   1       5.176   2.350  -2.731  0.00  0.00     0.062 H 
ATOM     34  C   LIG d   1       3.487  -0.543  -2.333  0.00  0.00    -0.061 A 
ATOM     35  H   LIG d   1       2.941   1.513  -2.123  0.00  0.00     0.062 H 
ATOM     36  C   LIG d   1       4.497  -1.433  -2.648  0.00  0.00    -0.059 A 
ATOM     37  H   LIG d   1       2.507  -0.910  -2.067  0.00  0.00     0.062 H 
ATOM     38  H   LIG d   1       4.305  -2.496  -2.628  0.00  0.00     0.062 H 
ENDBRANCH  25  28
ENDBRANCH  22  25
ENDBRANCH  19  22
ENDBRANCH  15  19
BRANCH   1  39
ATOM     39  C   LIG d   1       4.639  -3.508  -6.155  0.00  0.00     0.276 A 
ATOM     40  N   LIG d   1       4.796  -4.521  -6.971  0.00  0.00    -0.186 NA
ATOM     41  C   LIG d   1       4.484  -5.621  -6.249  0.00  0.00     0.202 A 
ATOM     42  N   LIG d   1       4.159  -5.215  -5.049  0.00  0.00    -0.056 NA
ATOM     43  O   LIG d   1       4.248  -4.007  -4.978  0.00  0.00    -0.332 OA
BRANCH  41  44
ATOM     44  C   LIG d   1       4.507  -7.025  -6.728  0.00  0.00     0.023 A 
ATOM     45  C   LIG d   1       4.201  -7.316  -8.056  0.00  0.00    -0.051 A 
ATOM     46  C   LIG d   1       4.230  -8.624  -8.497  0.00  0.00    -0.061 A 
ATOM     47  H   LIG d   1       3.945  -6.519  -8.738  0.00  0.00     0.062 H 
ATOM     48  C   LIG d   1       4.551  -9.645  -7.622  0.00  0.00    -0.059 A 
ATOM     49  H   LIG d   1       3.997  -8.849  -9.527  0.00  0.00     0.062 H 
ATOM     50  C   LIG d   1       4.851  -9.363  -6.301  0.00  0.00    -0.050 A 
ATOM     51  H   LIG d   1       4.567 -10.667  -7.971  0.00  0.00     0.062 H 
ATOM     52  C   LIG d   1       4.831  -8.058  -5.851  0.00  0.00    -0.048 A 
ATOM     53  H   LIG d   1       5.065  -7.839  -4.819  0.00  0.00     0.063 H 
BRANCH  50  54
ATOM     54  C   LIG d   1       5.199 -10.481  -5.354  0.00  0.00    -0.040 C 
ATOM     55  H   LIG d   1       4.388 -11.208  -5.336  0.00  0.00     0.028 H 
ATOM     56  H   LIG d   1       6.117 -10.967  -5.687  0.00  0.00     0.028 H 
ATOM     57  H   LIG d   1       5.347 -10.076  -4.352  0.00  0.00     0.028 H 
ENDBRANCH  50  54
ENDBRANCH  41  44
ENDBRANCH   1  39
TORSDOF 7
ENDMDL
MODEL 7
REMARK VINA RESULT:      -6.1      5.237      6.857
REMARK  7 active torsions:
REMARK  status: ('A' for Active; 'I' for Inactive)
REMARK    1  A    between atoms: C_1  and  C_2 
REMARK    2  A    between atoms: C_6  and  C_8 
REMARK    3  A    between atoms: C_10  and  C_13 
REMARK    4  A    between atoms: C_22  and  C_23 
REMARK    5  A    between atoms: C_22  and  N_54 
REMARK    6  A    between atoms: C_23  and  C_24 
REMARK    7  A    between atoms: C_24  and  C_25 
ROOT
ATOM      1  C   LIG d   1       4.120  -4.936  -6.947  0.00  0.00     0.067 C 
ATOM      2  H   LIG d   1       3.263  -4.704  -6.315  0.00  0.00     0.096 H 
ATOM      3  C   LIG d   1       3.662  -5.056  -8.407  0.00  0.00     0.065 C 
ATOM      4  C   LIG d   1       3.314  -3.675  -8.898  0.00  0.00     0.156 A 
ATOM      5  C   LIG d   1       3.688  -2.541  -8.263  0.00  0.00     0.190 A 
ATOM      6  C   LIG d   1       2.560  -1.950  -9.998  0.00  0.00     0.243 A 
ATOM      7  N   LIG d   1       2.603  -3.304  -9.994  0.00  0.00    -0.247 N 
ATOM      8  H   LIG d   1       2.189  -3.915 -10.670  0.00  0.00     0.310 HD
ATOM      9  C   LIG d   1       4.503  -2.534  -6.993  0.00  0.00     0.036 C 
ATOM     10  H   LIG d   1       2.784  -5.701  -8.467  0.00  0.00     0.041 H 
ATOM     11  H   LIG d   1       4.467  -5.472  -9.015  0.00  0.00     0.041 H 
ATOM     12  H   LIG d   1       2.067  -1.339 -10.740  0.00  0.00     0.158 H 
ATOM     13  H   LIG d   1       3.855  -2.323  -6.142  0.00  0.00     0.090 H 
ATOM     14  H   LIG d   1       5.282  -1.775  -7.060  0.00  0.00     0.090 H 
ATOM     15  N   LIG d   1       5.139  -3.867  -6.854  0.00  0.00     0.250 N 
ATOM     16  H   LIG d   1       5.821  -3.991  -7.612  0.00  0.00     0.205 HD
ATOM     17  N   LIG d   1       3.214  -1.507  -8.957  0.00  0.00    -0.243 N 
ATOM     18  H   LIG d   1       3.341  -0.519  -8.712  0.00  0.00     0.311 HD
ENDROOT
BRANCH  15  19
ATOM     19  C   LIG d   1       5.844  -3.955  -5.558  0.00  0.00    -0.030 C 
ATOM     20  H   LIG d   1       6.813  -3.465  -5.648  0.00  0.00     0.082 H 
ATOM     21  H   LIG d   1       5.990  -5.006  -5.309  0.00  0.00     0.082 H 
BRANCH  19  22
ATOM     22  C   LIG d   1       5.030  -3.277  -4.454  0.00  0.00    -0.009 C 
ATOM     23  H   LIG d   1       4.633  -4.035  -3.778  0.00  0.00     0.032 H 
ATOM     24  H   LIG d   1       4.206  -2.720  -4.899  0.00  0.00     0.032 H 
BRANCH  22  25
ATOM     25  C   LIG d   1       5.931  -2.318  -3.671  0.00  0.00    -0.023 C 
ATOM     26  H   LIG d   1       6.352  -2.837  -2.811  0.00  0.00     0.032 H 
ATOM     27  H   LIG d   1       6.736  -1.969  -4.317  0.00  0.00     0.032 H 
BRANCH  25  28
ATOM     28  C   LIG d   1       5.119  -1.140  -3.200  0.00  0.00    -0.047 A 
ATOM     29  C   LIG d   1       3.740  -1.232  -3.138  0.00  0.00    -0.059 A 
ATOM     30  C   LIG d   1       2.995  -0.151  -2.705  0.00  0.00    -0.061 A 
ATOM     31  H   LIG d   1       3.245  -2.147  -3.428  0.00  0.00     0.062 H 
ATOM     32  C   LIG d   1       3.627   1.020  -2.333  0.00  0.00    -0.062 A 
ATOM     33  H   LIG d   1       1.918  -0.222  -2.656  0.00  0.00     0.062 H 
ATOM     34  C   LIG d   1       5.005   1.112  -2.395  0.00  0.00    -0.061 A 
ATOM     35  H   LIG d   1       3.045   1.865  -1.994  0.00  0.00     0.062 H 
ATOM     36  C   LIG d   1       5.751   0.030  -2.823  0.00  0.00    -0.059 A 
ATOM     37  H   LIG d   1       5.500   2.027  -2.104  0.00  0.00     0.062 H 
ATOM     38  H   LIG d   1       6.827   0.099  -2.867  0.00  0.00     0.062 H 
ENDBRANCH  25  28
ENDBRANCH  22  25
ENDBRANCH  19  22
ENDBRANCH  15  19
BRANCH   1  39
ATOM     39  C   LIG d   1       4.731  -6.240  -6.503  0.00  0.00     0.276 A 
ATOM     40  N   LIG d   1       4.472  -6.882  -5.392  0.00  0.00    -0.186 NA
ATOM     41  C   LIG d   1       5.247  -7.990  -5.424  0.00  0.00     0.202 A 
ATOM     42  N   LIG d   1       5.925  -7.955  -6.542  0.00  0.00    -0.056 NA
ATOM     43  O   LIG d   1       5.636  -6.960  -7.174  0.00  0.00    -0.332 OA
BRANCH  41  44
ATOM     44  C   LIG d   1       5.315  -9.048  -4.386  0.00  0.00     0.023 A 
ATOM     45  C   LIG d   1       4.175  -9.779  -4.056  0.00  0.00    -0.051 A 
ATOM     46  C   LIG d   1       4.247 -10.766  -3.093  0.00  0.00    -0.061 A 
ATOM     47  H   LIG d   1       3.240  -9.576  -4.556  0.00  0.00     0.062 H 
ATOM     48  C   LIG d   1       5.442 -11.022  -2.448  0.00  0.00    -0.059 A 
ATOM     49  H   LIG d   1       3.365 -11.336  -2.840  0.00  0.00     0.062 H 
ATOM     50  C   LIG d   1       6.576 -10.295  -2.767  0.00  0.00    -0.050 A 
ATOM     51  H   LIG d   1       5.492 -11.791  -1.692  0.00  0.00     0.062 H 
ATOM     52  C   LIG d   1       6.518  -9.310  -3.733  0.00  0.00    -0.048 A 
ATOM     53  H   LIG d   1       7.403  -8.744  -3.981  0.00  0.00     0.063 H 
BRANCH  50  54
ATOM     54  C   LIG d   1       7.876 -10.580  -2.060  0.00  0.00    -0.040 C 
ATOM     55  H   LIG d   1       7.918 -11.634  -1.788  0.00  0.00     0.028 H 
ATOM     56  H   LIG d   1       8.709 -10.341  -2.722  0.00  0.00     0.028 H 
ATOM     57  H   LIG d   1       7.942  -9.968  -1.160  0.00  0.00     0.028 H 
ENDBRANCH  50  54
ENDBRANCH  41  44
ENDBRANCH   1  39
TORSDOF 7
ENDMDL
MODEL 8
REMARK VINA RESULT:      -5.9      3.763      7.023
REMARK  7 active torsions:
REMARK  status: ('A' for Active; 'I' for Inactive)
REMARK    1  A    between atoms: C_1  and  C_2 
REMARK    2  A    between atoms: C_6  and  C_8 
REMARK    3  A    between atoms: C_10  and  C_13 
REMARK    4  A    between atoms: C_22  and  C_23 
REMARK    5  A    between atoms: C_22  and  N_54 
REMARK    6  A    between atoms: C_23  and  C_24 
REMARK    7  A    between atoms: C_24  and  C_25 
ROOT
ATOM      1  C   LIG d   1       8.029  -4.233  -6.158  0.00  0.00     0.067 C 
ATOM      2  H   LIG d   1       9.060  -4.343  -6.492  0.00  0.00     0.096 H 
ATOM      3  C   LIG d   1       7.183  -5.385  -6.718  0.00  0.00     0.065 C 
ATOM      4  C   LIG d   1       7.582  -6.645  -5.993  0.00  0.00     0.156 A 
ATOM      5  C   LIG d   1       8.288  -6.651  -4.840  0.00  0.00     0.190 A 
ATOM      6  C   LIG d   1       7.908  -8.705  -5.358  0.00  0.00     0.243 A 
ATOM      7  N   LIG d   1       7.340  -7.941  -6.321  0.00  0.00    -0.247 N 
ATOM      8  H   LIG d   1       6.838  -8.268  -7.122  0.00  0.00     0.310 HD
ATOM      9  C   LIG d   1       8.750  -5.394  -4.146  0.00  0.00     0.036 C 
ATOM     10  H   LIG d   1       7.373  -5.498  -7.785  0.00  0.00     0.041 H 
ATOM     11  H   LIG d   1       6.124  -5.183  -6.550  0.00  0.00     0.041 H 
ATOM     12  H   LIG d   1       7.896  -9.785  -5.324  0.00  0.00     0.158 H 
ATOM     13  H   LIG d   1       9.813  -5.241  -4.330  0.00  0.00     0.090 H 
ATOM     14  H   LIG d   1       8.570  -5.478  -3.074  0.00  0.00     0.090 H 
ATOM     15  N   LIG d   1       7.955  -4.261  -4.680  0.00  0.00     0.250 N 
ATOM     16  H   LIG d   1       6.974  -4.380  -4.399  0.00  0.00     0.205 HD
ATOM     17  N   LIG d   1       8.471  -7.920  -4.478  0.00  0.00    -0.243 N 
ATOM     18  H   LIG d   1       8.976  -8.233  -3.641  0.00  0.00     0.311 HD
ENDROOT
BRANCH  15  19
ATOM     19  C   LIG d   1       8.459  -2.987  -4.127  0.00  0.00    -0.030 C 
ATOM     20  H   LIG d   1       8.659  -2.298  -4.948  0.00  0.00     0.082 H 
ATOM     21  H   LIG d   1       9.383  -3.181  -3.584  0.00  0.00     0.082 H 
BRANCH  19  22
ATOM     22  C   LIG d   1       7.431  -2.365  -3.179  0.00  0.00    -0.009 C 
ATOM     23  H   LIG d   1       7.794  -2.435  -2.154  0.00  0.00     0.032 H 
ATOM     24  H   LIG d   1       6.485  -2.900  -3.267  0.00  0.00     0.032 H 
BRANCH  22  25
ATOM     25  C   LIG d   1       7.222  -0.894  -3.547  0.00  0.00    -0.023 C 
ATOM     26  H   LIG d   1       7.937  -0.279  -3.002  0.00  0.00     0.032 H 
ATOM     27  H   LIG d   1       7.370  -0.763  -4.619  0.00  0.00     0.032 H 
BRANCH  25  28
ATOM     28  C   LIG d   1       5.820  -0.480  -3.181  0.00  0.00    -0.047 A 
ATOM     29  C   LIG d   1       5.492   0.861  -3.111  0.00  0.00    -0.059 A 
ATOM     30  C   LIG d   1       4.206   1.241  -2.775  0.00  0.00    -0.061 A 
ATOM     31  H   LIG d   1       6.239   1.612  -3.318  0.00  0.00     0.062 H 
ATOM     32  C   LIG d   1       3.248   0.280  -2.510  0.00  0.00    -0.062 A 
ATOM     33  H   LIG d   1       3.949   2.289  -2.721  0.00  0.00     0.062 H 
ATOM     34  C   LIG d   1       3.576  -1.061  -2.580  0.00  0.00    -0.061 A 
ATOM     35  H   LIG d   1       2.243   0.577  -2.248  0.00  0.00     0.062 H 
ATOM     36  C   LIG d   1       4.861  -1.441  -2.921  0.00  0.00    -0.059 A 
ATOM     37  H   LIG d   1       2.828  -1.812  -2.373  0.00  0.00     0.062 H 
ATOM     38  H   LIG d   1       5.116  -2.488  -2.980  0.00  0.00     0.062 H 
ENDBRANCH  25  28
ENDBRANCH  22  25
ENDBRANCH  19  22
ENDBRANCH  15  19
BRANCH   1  39
ATOM     39  C   LIG d   1       7.479  -2.920  -6.654  0.00  0.00     0.276 A 
ATOM     40  N   LIG d   1       6.228  -2.535  -6.613  0.00  0.00    -0.186 NA
ATOM     41  C   LIG d   1       6.209  -1.301  -7.166  0.00  0.00     0.202 A 
ATOM     42  N   LIG d   1       7.438  -1.013  -7.508  0.00  0.00    -0.056 NA
ATOM     43  O   LIG d   1       8.178  -1.929  -7.217  0.00  0.00    -0.332 OA
BRANCH  41  44
ATOM     44  C   LIG d   1       5.018  -0.437  -7.349  0.00  0.00     0.023 A 
ATOM     45  C   LIG d   1       3.966  -0.492  -6.437  0.00  0.00    -0.051 A 
ATOM     46  C   LIG d   1       2.862   0.320  -6.610  0.00  0.00    -0.061 A 
ATOM     47  H   LIG d   1       4.016  -1.166  -5.595  0.00  0.00     0.062 H 
ATOM     48  C   LIG d   1       2.795   1.178  -7.692  0.00  0.00    -0.059 A 
ATOM     49  H   LIG d   1       2.049   0.280  -5.901  0.00  0.00     0.062 H 
ATOM     50  C   LIG d   1       3.834   1.233  -8.604  0.00  0.00    -0.050 A 
ATOM     51  H   LIG d   1       1.927   1.807  -7.826  0.00  0.00     0.062 H 
ATOM     52  C   LIG d   1       4.944   0.431  -8.438  0.00  0.00    -0.048 A 
ATOM     53  H   LIG d   1       5.754   0.475  -9.150  0.00  0.00     0.063 H 
BRANCH  50  54
ATOM     54  C   LIG d   1       3.753   2.171  -9.781  0.00  0.00    -0.040 C 
ATOM     55  H   LIG d   1       4.704   2.690  -9.898  0.00  0.00     0.028 H 
ATOM     56  H   LIG d   1       3.535   1.602 -10.685  0.00  0.00     0.028 H 
ATOM     57  H   LIG d   1       2.960   2.899  -9.612  0.00  0.00     0.028 H 
ENDBRANCH  50  54
ENDBRANCH  41  44
ENDBRANCH   1  39
TORSDOF 7
ENDMDL
MODEL 9
REMARK VINA RESULT:      -5.9      1.445      2.217
REMARK  7 active torsions:
REMARK  status: ('A' for Active; 'I' for Inactive)
REMARK    1  A    between atoms: C_1  and  C_2 
REMARK    2  A    between atoms: C_6  and  C_8 
REMARK    3  A    between atoms: C_10  and  C_13 
REMARK    4  A    between atoms: C_22  and  C_23 
REMARK    5  A    between atoms: C_22  and  N_54 
REMARK    6  A    between atoms: C_23  and  C_24 
REMARK    7  A    between atoms: C_24  and  C_25 
ROOT
ATOM      1  C   LIG d   1       2.924   0.157  -9.540  0.00  0.00     0.067 C 
ATOM      2  H   LIG d   1       2.279   0.941  -9.936  0.00  0.00     0.096 H 
ATOM      3  C   LIG d   1       2.323  -1.217  -9.873  0.00  0.00     0.065 C 
ATOM      4  C   LIG d   1       2.479  -1.443 -11.355  0.00  0.00     0.156 A 
ATOM      5  C   LIG d   1       3.309  -0.717 -12.137  0.00  0.00     0.190 A 
ATOM      6  C   LIG d   1       2.334  -2.152 -13.411  0.00  0.00     0.243 A 
ATOM      7  N   LIG d   1       1.863  -2.350 -12.156  0.00  0.00    -0.247 N 
ATOM      8  H   LIG d   1       1.190  -3.033 -11.874  0.00  0.00     0.310 HD
ATOM      9  C   LIG d   1       4.178   0.398 -11.610  0.00  0.00     0.036 C 
ATOM     10  H   LIG d   1       1.266  -1.231  -9.607  0.00  0.00     0.041 H 
ATOM     11  H   LIG d   1       2.853  -1.996  -9.323  0.00  0.00     0.041 H 
ATOM     12  H   LIG d   1       2.042  -2.712 -14.287  0.00  0.00     0.158 H 
ATOM     13  H   LIG d   1       3.739   1.361 -11.870  0.00  0.00     0.090 H 
ATOM     14  H   LIG d   1       5.177   0.320 -12.040  0.00  0.00     0.090 H 
ATOM     15  N   LIG d   1       4.275   0.242 -10.138  0.00  0.00     0.250 N 
ATOM     16  H   LIG d   1       4.788  -0.622  -9.927  0.00  0.00     0.205 HD
ATOM     17  N   LIG d   1       3.199  -1.172 -13.384  0.00  0.00    -0.243 N 
ATOM     18  H   LIG d   1       3.711  -0.811 -14.196  0.00  0.00     0.311 HD
ENDROOT
BRANCH  15  19
ATOM     19  C   LIG d   1       5.010   1.386  -9.558  0.00  0.00    -0.030 C 
ATOM     20  H   LIG d   1       4.604   1.603  -8.570  0.00  0.00     0.082 H 
ATOM     21  H   LIG d   1       4.874   2.253 -10.204  0.00  0.00     0.082 H 
BRANCH  19  22
ATOM     22  C   LIG d   1       6.501   1.067  -9.439  0.00  0.00    -0.009 C 
ATOM     23  H   LIG d   1       7.080   1.983  -9.558  0.00  0.00     0.032 H 
ATOM     24  H   LIG d   1       6.784   0.355 -10.216  0.00  0.00     0.032 H 
BRANCH  22  25
ATOM     25  C   LIG d   1       6.785   0.459  -8.063  0.00  0.00    -0.023 C 
ATOM     26  H   LIG d   1       5.849   0.348  -7.516  0.00  0.00     0.032 H 
ATOM     27  H   LIG d   1       7.252  -0.518  -8.188  0.00  0.00     0.032 H 
BRANCH  25  28
ATOM     28  C   LIG d   1       7.711   1.365  -7.296  0.00  0.00    -0.047 A 
ATOM     29  C   LIG d   1       7.794   1.264  -5.919  0.00  0.00    -0.059 A 
ATOM     30  C   LIG d   1       8.644   2.095  -5.215  0.00  0.00    -0.061 A 
ATOM     31  H   LIG d   1       7.193   0.537  -5.394  0.00  0.00     0.062 H 
ATOM     32  C   LIG d   1       9.414   3.026  -5.887  0.00  0.00    -0.062 A 
ATOM     33  H   LIG d   1       8.709   2.017  -4.139  0.00  0.00     0.062 H 
ATOM     34  C   LIG d   1       9.332   3.128  -7.263  0.00  0.00    -0.061 A 
ATOM     35  H   LIG d   1      10.079   3.676  -5.336  0.00  0.00     0.062 H 
ATOM     36  C   LIG d   1       8.485   2.293  -7.968  0.00  0.00    -0.059 A 
ATOM     37  H   LIG d   1       9.933   3.855  -7.788  0.00  0.00     0.062 H 
ATOM     38  H   LIG d   1       8.425   2.368  -9.043  0.00  0.00     0.062 H 
ENDBRANCH  25  28
ENDBRANCH  22  25
ENDBRANCH  19  22
ENDBRANCH  15  19
BRANCH   1  39
ATOM     39  C   LIG d   1       3.036   0.306  -8.045  0.00  0.00     0.276 A 
ATOM     40  N   LIG d   1       3.530  -0.572  -7.210  0.00  0.00    -0.186 NA
ATOM     41  C   LIG d   1       3.424  -0.010  -5.985  0.00  0.00     0.202 A 
ATOM     42  N   LIG d   1       2.875   1.167  -6.147  0.00  0.00    -0.056 NA
ATOM     43  O   LIG d   1       2.652   1.364  -7.323  0.00  0.00    -0.332 OA
BRANCH  41  44
ATOM     44  C   LIG d   1       3.849  -0.613  -4.698  0.00  0.00     0.023 A 
ATOM     45  C   LIG d   1       2.923  -0.798  -3.673  0.00  0.00    -0.051 A 
ATOM     46  C   LIG d   1       3.324  -1.366  -2.479  0.00  0.00    -0.061 A 
ATOM     47  H   LIG d   1       1.894  -0.502  -3.814  0.00  0.00     0.062 H 
ATOM     48  C   LIG d   1       4.642  -1.739  -2.296  0.00  0.00    -0.059 A 
ATOM     49  H   LIG d   1       2.606  -1.514  -1.686  0.00  0.00     0.062 H 
ATOM     50  C   LIG d   1       5.567  -1.553  -3.309  0.00  0.00    -0.050 A 
ATOM     51  H   LIG d   1       4.952  -2.178  -1.359  0.00  0.00     0.062 H 
ATOM     52  C   LIG d   1       5.176  -0.992  -4.508  0.00  0.00    -0.048 A 
ATOM     53  H   LIG d   1       5.899  -0.847  -5.297  0.00  0.00     0.063 H 
BRANCH  50  54
ATOM     54  C   LIG d   1       7.002  -1.962  -3.102  0.00  0.00    -0.040 C 
ATOM     55  H   LIG d   1       7.661  -1.173  -3.462  0.00  0.00     0.028 H 
ATOM     56  H   LIG d   1       7.183  -2.129  -2.039  0.00  0.00     0.028 H 
ATOM     57  H   LIG d   1       7.201  -2.882  -3.652  0.00  0.00     0.028 H 
ENDBRANCH  50  54
ENDBRANCH  41  44
ENDBRANCH   1  39
TORSDOF 7
ENDMDL
MODEL 10
REMARK VINA RESULT:      -5.8      6.167      8.824
REMARK  7 active torsions:
REMARK  status: ('A' for Active; 'I' for Inactive)
REMARK    1  A    between atoms: C_1  and  C_2 
REMARK    2  A    between atoms: C_6  and  C_8 
REMARK    3  A    between atoms: C_10  and  C_13 
REMARK    4  A    between atoms: C_22  and  C_23 
REMARK    5  A    between atoms: C_22  and  N_54 
REMARK    6  A    between atoms: C_23  and  C_24 
REMARK    7  A    between atoms: C_24  and  C_25 
ROOT
ATOM      1  C   LIG d   1      10.063   3.269  -5.009  0.00  0.00     0.067 C 
ATOM      2  H   LIG d   1      10.751   2.449  -5.213  0.00  0.00     0.096 H 
ATOM      3  C   LIG d   1      10.190   4.330  -6.111  0.00  0.00     0.065 C 
ATOM      4  C   LIG d   1       9.588   3.763  -7.371  0.00  0.00     0.156 A 
ATOM      5  C   LIG d   1       8.785   2.675  -7.390  0.00  0.00     0.190 A 
ATOM      6  C   LIG d   1       8.990   3.345  -9.425  0.00  0.00     0.243 A 
ATOM      7  N   LIG d   1       9.718   4.188  -8.654  0.00  0.00    -0.247 N 
ATOM      8  H   LIG d   1      10.250   4.974  -8.970  0.00  0.00     0.310 HD
ATOM      9  C   LIG d   1       8.397   1.911  -6.148  0.00  0.00     0.036 C 
ATOM     10  H   LIG d   1      11.241   4.565  -6.278  0.00  0.00     0.041 H 
ATOM     11  H   LIG d   1       9.652   5.233  -5.819  0.00  0.00     0.041 H 
ATOM     12  H   LIG d   1       8.885   3.407 -10.498  0.00  0.00     0.158 H 
ATOM     13  H   LIG d   1       8.975   0.989  -6.087  0.00  0.00     0.090 H 
ATOM     14  H   LIG d   1       7.332   1.677  -6.178  0.00  0.00     0.090 H 
ATOM     15  N   LIG d   1       8.666   2.781  -4.976  0.00  0.00     0.250 N 
ATOM     16  H   LIG d   1       8.031   3.587  -5.007  0.00  0.00     0.205 HD
ATOM     17  N   LIG d   1       8.437   2.445  -8.655  0.00  0.00    -0.243 N 
ATOM     18  H   LIG d   1       7.831   1.681  -8.975  0.00  0.00     0.311 HD
ENDROOT
BRANCH  15  19
ATOM     19  C   LIG d   1       8.425   2.030  -3.726  0.00  0.00    -0.030 C 
ATOM     20  H   LIG d   1       8.155   2.732  -2.938  0.00  0.00     0.082 H 
ATOM     21  H   LIG d   1       9.339   1.507  -3.449  0.00  0.00     0.082 H 
BRANCH  19  22
ATOM     22  C   LIG d   1       7.295   1.016  -3.915  0.00  0.00    -0.009 C 
ATOM     23  H   LIG d   1       7.616   0.041  -3.549  0.00  0.00     0.032 H 
ATOM     24  H   LIG d   1       7.045   0.941  -4.974  0.00  0.00     0.032 H 
BRANCH  22  25
ATOM     25  C   LIG d   1       6.062   1.474  -3.132  0.00  0.00    -0.023 C 
ATOM     26  H   LIG d   1       6.369   1.835  -2.151  0.00  0.00     0.032 H 
ATOM     27  H   LIG d   1       5.563   2.276  -3.677  0.00  0.00     0.032 H 
BRANCH  25  28
ATOM     28  C   LIG d   1       5.114   0.315  -2.966  0.00  0.00    -0.047 A 
ATOM     29  C   LIG d   1       3.755   0.544  -2.853  0.00  0.00    -0.059 A 
ATOM     30  C   LIG d   1       2.885  -0.519  -2.702  0.00  0.00    -0.061 A 
ATOM     31  H   LIG d   1       3.373   1.554  -2.883  0.00  0.00     0.062 H 
ATOM     32  C   LIG d   1       3.373  -1.811  -2.664  0.00  0.00    -0.062 A 
ATOM     33  H   LIG d   1       1.823  -0.340  -2.613  0.00  0.00     0.062 H 
ATOM     34  C   LIG d   1       4.731  -2.042  -2.778  0.00  0.00    -0.061 A 
ATOM     35  H   LIG d   1       2.693  -2.643  -2.546  0.00  0.00     0.062 H 
ATOM     36  C   LIG d   1       5.601  -0.978  -2.935  0.00  0.00    -0.059 A 
ATOM     37  H   LIG d   1       5.113  -3.051  -2.748  0.00  0.00     0.062 H 
ATOM     38  H   LIG d   1       6.662  -1.158  -3.027  0.00  0.00     0.062 H 
ENDBRANCH  25  28
ENDBRANCH  22  25
ENDBRANCH  19  22
ENDBRANCH  15  19
BRANCH   1  39
ATOM     39  C   LIG d   1      10.401   3.886  -3.676  0.00  0.00     0.276 A 
ATOM     40  N   LIG d   1      10.158   5.118  -3.306  0.00  0.00    -0.186 NA
ATOM     41  C   LIG d   1      10.632   5.219  -2.043  0.00  0.00     0.202 A 
ATOM     42  N   LIG d   1      11.132   4.052  -1.725  0.00  0.00    -0.056 NA
ATOM     43  O   LIG d   1      11.002   3.277  -2.649  0.00  0.00    -0.332 OA
BRANCH  41  44
ATOM     44  C   LIG d   1      10.593   6.425  -1.181  0.00  0.00     0.023 A 
ATOM     45  C   LIG d   1      11.469   6.542  -0.103  0.00  0.00    -0.051 A 
ATOM     46  C   LIG d   1      11.432   7.670   0.692  0.00  0.00    -0.061 A 
ATOM     47  H   LIG d   1      12.176   5.754   0.106  0.00  0.00     0.062 H 
ATOM     48  C   LIG d   1      10.522   8.677   0.429  0.00  0.00    -0.059 A 
ATOM     49  H   LIG d   1      12.113   7.764   1.525  0.00  0.00     0.062 H 
ATOM     50  C   LIG d   1       9.646   8.563  -0.637  0.00  0.00    -0.050 A 
ATOM     51  H   LIG d   1      10.494   9.555   1.057  0.00  0.00     0.062 H 
ATOM     52  C   LIG d   1       9.678   7.443  -1.442  0.00  0.00    -0.048 A 
ATOM     53  H   LIG d   1       8.994   7.356  -2.274  0.00  0.00     0.063 H 
BRANCH  50  54
ATOM     54  C   LIG d   1       8.657   9.664  -0.918  0.00  0.00    -0.040 C 
ATOM     55  H   LIG d   1       8.375  10.148   0.017  0.00  0.00     0.028 H 
ATOM     56  H   LIG d   1       9.110  10.399  -1.585  0.00  0.00     0.028 H 
ATOM     57  H   LIG d   1       7.770   9.244  -1.392  0.00  0.00     0.028 H 
ENDBRANCH  50  54
ENDBRANCH  41  44
ENDBRANCH   1  39
TORSDOF 7
ENDMDL
