MODEL 1
REMARK VINA RESULT:      -4.7      0.000      0.000
REMARK  2 active torsions:
REMARK  status: ('A' for Active; 'I' for Inactive)
REMARK    1  A    between atoms: C_2  and  O_11 
REMARK    2  A    between atoms: C_5  and  O_8 
ROOT
ATOM      1  C   LIG d   1       6.953  -0.713  -3.638  0.00  0.00     0.003 A 
ATOM      2  C   LIG d   1       6.220   0.415  -3.303  0.00  0.00     0.138 A 
ATOM      3  C   LIG d   1       4.848   0.321  -3.113  0.00  0.00     0.104 A 
ATOM      4  C   LIG d   1       4.213  -0.901  -3.253  0.00  0.00     0.105 A 
ATOM      5  C   LIG d   1       4.948  -2.030  -3.582  0.00  0.00     0.155 A 
ATOM      6  C   LIG d   1       6.320  -1.934  -3.772  0.00  0.00     0.087 A 
ATOM      7 CL   LIG d   1       7.239  -3.347  -4.185  0.00  0.00    -0.080 Cl
ATOM      8 CL   LIG d   1       2.498  -1.020  -3.016  0.00  0.00    -0.078 Cl
ATOM      9 CL   LIG d   1       3.930   1.735  -2.701  0.00  0.00    -0.078 Cl
ATOM     10  H   LIG d   1       8.020  -0.638  -3.789  0.00  0.00     0.067 H 
ENDROOT
BRANCH   2  11
ATOM     11  O   LIG d   1       6.844   1.616  -3.165  0.00  0.00    -0.505 OA
ATOM     12  H   LIG d   1       7.134   1.808  -2.263  0.00  0.00     0.292 HD
ENDBRANCH   2  11
BRANCH   5  13
ATOM     13  O   LIG d   1       4.325  -3.231  -3.721  0.00  0.00    -0.504 OA
ATOM     14  H   LIG d   1       4.298  -3.757  -2.910  0.00  0.00     0.292 HD
ENDBRANCH   5  13
TORSDOF 2
ENDMDL
MODEL 2
REMARK VINA RESULT:      -4.6      1.684      3.459
REMARK  2 active torsions:
REMARK  status: ('A' for Active; 'I' for Inactive)
REMARK    1  A    between atoms: C_2  and  O_11 
REMARK    2  A    between atoms: C_5  and  O_8 
ROOT
ATOM      1  C   LIG d   1       6.569  -1.453  -4.930  0.00  0.00     0.003 A 
ATOM      2  C   LIG d   1       5.584  -2.072  -4.174  0.00  0.00     0.138 A 
ATOM      3  C   LIG d   1       4.971  -1.384  -3.137  0.00  0.00     0.104 A 
ATOM      4  C   LIG d   1       5.338  -0.079  -2.860  0.00  0.00     0.105 A 
ATOM      5  C   LIG d   1       6.318   0.541  -3.620  0.00  0.00     0.155 A 
ATOM      6  C   LIG d   1       6.932  -0.148  -4.658  0.00  0.00     0.087 A 
ATOM      7 CL   LIG d   1       8.159   0.628  -5.608  0.00  0.00    -0.080 Cl
ATOM      8 CL   LIG d   1       4.571   0.782  -1.563  0.00  0.00    -0.078 Cl
ATOM      9 CL   LIG d   1       3.744  -2.162  -2.186  0.00  0.00    -0.078 Cl
ATOM     10  H   LIG d   1       7.049  -1.990  -5.735  0.00  0.00     0.067 H 
ENDROOT
BRANCH   2  11
ATOM     11  O   LIG d   1       5.224  -3.355  -4.447  0.00  0.00    -0.505 OA
ATOM     12  H   LIG d   1       4.371  -3.613  -4.071  0.00  0.00     0.292 HD
ENDBRANCH   2  11
BRANCH   5  13
ATOM     13  O   LIG d   1       6.680   1.824  -3.349  0.00  0.00    -0.504 OA
ATOM     14  H   LIG d   1       7.093   2.282  -4.093  0.00  0.00     0.292 HD
ENDBRANCH   5  13
TORSDOF 2
ENDMDL
MODEL 3
REMARK VINA RESULT:      -4.5      2.181      3.500
REMARK  2 active torsions:
REMARK  status: ('A' for Active; 'I' for Inactive)
REMARK    1  A    between atoms: C_2  and  O_11 
REMARK    2  A    between atoms: C_5  and  O_8 
ROOT
ATOM      1  C   LIG d   1       5.670   1.367  -2.860  0.00  0.00     0.003 A 
ATOM      2  C   LIG d   1       4.742   0.391  -2.526  0.00  0.00     0.138 A 
ATOM      3  C   LIG d   1       4.993  -0.939  -2.832  0.00  0.00     0.104 A 
ATOM      4  C   LIG d   1       6.172  -1.292  -3.467  0.00  0.00     0.105 A 
ATOM      5  C   LIG d   1       7.101  -0.316  -3.795  0.00  0.00     0.155 A 
ATOM      6  C   LIG d   1       6.849   1.014  -3.488  0.00  0.00     0.087 A 
ATOM      7 CL   LIG d   1       8.012   2.235  -3.900  0.00  0.00    -0.080 Cl
ATOM      8 CL   LIG d   1       6.486  -2.955  -3.850  0.00  0.00    -0.078 Cl
ATOM      9 CL   LIG d   1       3.829  -2.159  -2.421  0.00  0.00    -0.078 Cl
ATOM     10  H   LIG d   1       5.472   2.403  -2.625  0.00  0.00     0.067 H 
ENDROOT
BRANCH   2  11
ATOM     11  O   LIG d   1       3.584   0.739  -1.903  0.00  0.00    -0.505 OA
ATOM     12  H   LIG d   1       3.284   1.636  -2.103  0.00  0.00     0.292 HD
ENDBRANCH   2  11
BRANCH   5  13
ATOM     13  O   LIG d   1       8.259  -0.662  -4.419  0.00  0.00    -0.504 OA
ATOM     14  H   LIG d   1       8.759  -1.354  -3.966  0.00  0.00     0.292 HD
ENDBRANCH   5  13
TORSDOF 2
ENDMDL
MODEL 4
REMARK VINA RESULT:      -4.4      1.225      4.440
REMARK  2 active torsions:
REMARK  status: ('A' for Active; 'I' for Inactive)
REMARK    1  A    between atoms: C_2  and  O_11 
REMARK    2  A    between atoms: C_5  and  O_8 
ROOT
ATOM      1  C   LIG d   1       4.383  -1.304  -2.701  0.00  0.00     0.003 A 
ATOM      2  C   LIG d   1       4.870  -2.294  -3.542  0.00  0.00     0.138 A 
ATOM      3  C   LIG d   1       6.039  -2.083  -4.258  0.00  0.00     0.104 A 
ATOM      4  C   LIG d   1       6.723  -0.887  -4.129  0.00  0.00     0.105 A 
ATOM      5  C   LIG d   1       6.239   0.100  -3.284  0.00  0.00     0.155 A 
ATOM      6  C   LIG d   1       5.069  -0.112  -2.568  0.00  0.00     0.087 A 
ATOM      7 CL   LIG d   1       4.464   1.124  -1.510  0.00  0.00    -0.080 Cl
ATOM      8 CL   LIG d   1       8.186  -0.623  -5.025  0.00  0.00    -0.078 Cl
ATOM      9 CL   LIG d   1       6.644  -3.320  -5.317  0.00  0.00    -0.078 Cl
ATOM     10  H   LIG d   1       3.471  -1.467  -2.147  0.00  0.00     0.067 H 
ENDROOT
BRANCH   2  11
ATOM     11  O   LIG d   1       4.197  -3.469  -3.668  0.00  0.00    -0.505 OA
ATOM     12  H   LIG d   1       3.235  -3.376  -3.646  0.00  0.00     0.292 HD
ENDBRANCH   2  11
BRANCH   5  13
ATOM     13  O   LIG d   1       6.910   1.276  -3.157  0.00  0.00    -0.504 OA
ATOM     14  H   LIG d   1       6.562   1.990  -3.709  0.00  0.00     0.292 HD
ENDBRANCH   5  13
TORSDOF 2
ENDMDL
MODEL 5
REMARK VINA RESULT:      -4.4      2.694      3.680
REMARK  2 active torsions:
REMARK  status: ('A' for Active; 'I' for Inactive)
REMARK    1  A    between atoms: C_2  and  O_11 
REMARK    2  A    between atoms: C_5  and  O_8 
ROOT
ATOM      1  C   LIG d   1       3.022   0.802  -4.552  0.00  0.00     0.003 A 
ATOM      2  C   LIG d   1       3.396   0.313  -3.309  0.00  0.00     0.138 A 
ATOM      3  C   LIG d   1       4.002  -0.931  -3.206  0.00  0.00     0.104 A 
ATOM      4  C   LIG d   1       4.237  -1.682  -4.344  0.00  0.00     0.105 A 
ATOM      5  C   LIG d   1       3.868  -1.190  -5.587  0.00  0.00     0.155 A 
ATOM      6  C   LIG d   1       3.262   0.054  -5.689  0.00  0.00     0.087 A 
ATOM      7 CL   LIG d   1       2.800   0.669  -7.245  0.00  0.00    -0.080 Cl
ATOM      8 CL   LIG d   1       4.995  -3.238  -4.216  0.00  0.00    -0.078 Cl
ATOM      9 CL   LIG d   1       4.463  -1.546  -1.649  0.00  0.00    -0.078 Cl
ATOM     10  H   LIG d   1       2.547   1.768  -4.631  0.00  0.00     0.067 H 
ENDROOT
BRANCH   2  11
ATOM     11  O   LIG d   1       3.164   1.051  -2.190  0.00  0.00    -0.505 OA
ATOM     12  H   LIG d   1       2.331   0.842  -1.746  0.00  0.00     0.292 HD
ENDBRANCH   2  11
BRANCH   5  13
ATOM     13  O   LIG d   1       4.099  -1.928  -6.707  0.00  0.00    -0.504 OA
ATOM     14  H   LIG d   1       3.355  -2.487  -6.970  0.00  0.00     0.292 HD
ENDBRANCH   5  13
TORSDOF 2
ENDMDL
MODEL 6
REMARK VINA RESULT:      -4.4      2.340      3.905
REMARK  2 active torsions:
REMARK  status: ('A' for Active; 'I' for Inactive)
REMARK    1  A    between atoms: C_2  and  O_11 
REMARK    2  A    between atoms: C_5  and  O_8 
ROOT
ATOM      1  C   LIG d   1       5.311  -1.270  -3.033  0.00  0.00     0.003 A 
ATOM      2  C   LIG d   1       5.314  -2.020  -4.200  0.00  0.00     0.138 A 
ATOM      3  C   LIG d   1       4.587  -1.591  -5.302  0.00  0.00     0.104 A 
ATOM      4  C   LIG d   1       3.863  -0.413  -5.237  0.00  0.00     0.105 A 
ATOM      5  C   LIG d   1       3.866   0.339  -4.072  0.00  0.00     0.155 A 
ATOM      6  C   LIG d   1       4.593  -0.090  -2.971  0.00  0.00     0.087 A 
ATOM      7 CL   LIG d   1       4.596   0.851  -1.512  0.00  0.00    -0.080 Cl
ATOM      8 CL   LIG d   1       2.953   0.122  -6.614  0.00  0.00    -0.078 Cl
ATOM      9 CL   LIG d   1       4.583  -2.534  -6.759  0.00  0.00    -0.078 Cl
ATOM     10  H   LIG d   1       5.874  -1.605  -2.175  0.00  0.00     0.067 H 
ENDROOT
BRANCH   2  11
ATOM     11  O   LIG d   1       6.025  -3.177  -4.262  0.00  0.00    -0.505 OA
ATOM     12  H   LIG d   1       5.595  -3.876  -4.774  0.00  0.00     0.292 HD
ENDBRANCH   2  11
BRANCH   5  13
ATOM     13  O   LIG d   1       3.154   1.496  -4.007  0.00  0.00    -0.504 OA
ATOM     14  H   LIG d   1       3.678   2.291  -4.178  0.00  0.00     0.292 HD
ENDBRANCH   5  13
TORSDOF 2
ENDMDL
MODEL 7
REMARK VINA RESULT:      -4.3      1.368      3.335
REMARK  2 active torsions:
REMARK  status: ('A' for Active; 'I' for Inactive)
REMARK    1  A    between atoms: C_2  and  O_11 
REMARK    2  A    between atoms: C_5  and  O_8 
ROOT
ATOM      1  C   LIG d   1       5.992   0.823  -3.063  0.00  0.00     0.003 A 
ATOM      2  C   LIG d   1       6.943  -0.047  -3.576  0.00  0.00     0.138 A 
ATOM      3  C   LIG d   1       6.583  -1.341  -3.925  0.00  0.00     0.104 A 
ATOM      4  C   LIG d   1       5.274  -1.762  -3.766  0.00  0.00     0.105 A 
ATOM      5  C   LIG d   1       4.323  -0.890  -3.259  0.00  0.00     0.155 A 
ATOM      6  C   LIG d   1       4.683   0.404  -2.910  0.00  0.00     0.087 A 
ATOM      7 CL   LIG d   1       3.492   1.495  -2.274  0.00  0.00    -0.080 Cl
ATOM      8 CL   LIG d   1       4.824  -3.380  -4.203  0.00  0.00    -0.078 Cl
ATOM      9 CL   LIG d   1       7.775  -2.432  -4.560  0.00  0.00    -0.078 Cl
ATOM     10  H   LIG d   1       6.273   1.828  -2.787  0.00  0.00     0.067 H 
ENDROOT
BRANCH   2  11
ATOM     11  O   LIG d   1       8.229   0.367  -3.731  0.00  0.00    -0.505 OA
ATOM     12  H   LIG d   1       8.376   0.907  -4.520  0.00  0.00     0.292 HD
ENDBRANCH   2  11
BRANCH   5  13
ATOM     13  O   LIG d   1       3.036  -1.303  -3.102  0.00  0.00    -0.504 OA
ATOM     14  H   LIG d   1       2.386  -0.588  -3.140  0.00  0.00     0.292 HD
ENDBRANCH   5  13
TORSDOF 2
ENDMDL
MODEL 8
REMARK VINA RESULT:      -4.2      2.641      2.779
REMARK  2 active torsions:
REMARK  status: ('A' for Active; 'I' for Inactive)
REMARK    1  A    between atoms: C_2  and  O_11 
REMARK    2  A    between atoms: C_5  and  O_8 
ROOT
ATOM      1  C   LIG d   1       6.289  -0.746  -5.199  0.00  0.00     0.003 A 
ATOM      2  C   LIG d   1       6.131  -0.972  -3.840  0.00  0.00     0.138 A 
ATOM      3  C   LIG d   1       4.865  -0.936  -3.273  0.00  0.00     0.104 A 
ATOM      4  C   LIG d   1       3.760  -0.679  -4.065  0.00  0.00     0.105 A 
ATOM      5  C   LIG d   1       3.918  -0.460  -5.425  0.00  0.00     0.155 A 
ATOM      6  C   LIG d   1       5.185  -0.496  -5.991  0.00  0.00     0.087 A 
ATOM      7 CL   LIG d   1       5.383  -0.221  -7.693  0.00  0.00    -0.080 Cl
ATOM      8 CL   LIG d   1       2.176  -0.634  -3.357  0.00  0.00    -0.078 Cl
ATOM      9 CL   LIG d   1       4.668  -1.210  -1.570  0.00  0.00    -0.078 Cl
ATOM     10  H   LIG d   1       7.275  -0.771  -5.639  0.00  0.00     0.067 H 
ENDROOT
BRANCH   2  11
ATOM     11  O   LIG d   1       7.218  -1.224  -3.061  0.00  0.00    -0.505 OA
ATOM     12  H   LIG d   1       7.740  -1.985  -3.350  0.00  0.00     0.292 HD
ENDBRANCH   2  11
BRANCH   5  13
ATOM     13  O   LIG d   1       2.832  -0.207  -6.205  0.00  0.00    -0.504 OA
ATOM     14  H   LIG d   1       3.041  -0.079  -7.140  0.00  0.00     0.292 HD
ENDBRANCH   5  13
TORSDOF 2
ENDMDL
MODEL 9
REMARK VINA RESULT:      -4.2      2.391      3.055
REMARK  2 active torsions:
REMARK  status: ('A' for Active; 'I' for Inactive)
REMARK    1  A    between atoms: C_2  and  O_11 
REMARK    2  A    between atoms: C_5  and  O_8 
ROOT
ATOM      1  C   LIG d   1       5.271  -0.507  -6.176  0.00  0.00     0.003 A 
ATOM      2  C   LIG d   1       3.985  -0.466  -5.657  0.00  0.00     0.138 A 
ATOM      3  C   LIG d   1       3.786  -0.560  -4.287  0.00  0.00     0.104 A 
ATOM      4  C   LIG d   1       4.871  -0.690  -3.438  0.00  0.00     0.105 A 
ATOM      5  C   LIG d   1       6.157  -0.726  -3.957  0.00  0.00     0.155 A 
ATOM      6  C   LIG d   1       6.355  -0.631  -5.328  0.00  0.00     0.087 A 
ATOM      7 CL   LIG d   1       7.964  -0.677  -5.977  0.00  0.00    -0.080 Cl
ATOM      8 CL   LIG d   1       4.623  -0.808  -1.725  0.00  0.00    -0.078 Cl
ATOM      9 CL   LIG d   1       2.176  -0.515  -3.639  0.00  0.00    -0.078 Cl
ATOM     10  H   LIG d   1       5.425  -0.438  -7.243  0.00  0.00     0.067 H 
ENDROOT
BRANCH   2  11
ATOM     11  O   LIG d   1       2.919  -0.338  -6.492  0.00  0.00    -0.505 OA
ATOM     12  H   LIG d   1       3.158  -0.146  -7.409  0.00  0.00     0.292 HD
ENDBRANCH   2  11
BRANCH   5  13
ATOM     13  O   LIG d   1       7.224  -0.855  -3.124  0.00  0.00    -0.504 OA
ATOM     14  H   LIG d   1       7.319  -1.737  -2.740  0.00  0.00     0.292 HD
ENDBRANCH   5  13
TORSDOF 2
ENDMDL
