MODEL 1
REMARK VINA RESULT:      -6.0      0.000      0.000
REMARK  11 active torsions:
REMARK  status: ('A' for Active; 'I' for Inactive)
REMARK    1  A    between atoms: C_1  and  C_2 
REMARK    2  A    between atoms: C_3  and  O_19 
REMARK    3  A    between atoms: C_12  and  C_13 
REMARK    4  A    between atoms: O_19  and  C_20 
REMARK    5  A    between atoms: C_20  and  C_21 
REMARK    6  A    between atoms: C_22  and  C_23 
REMARK    7  A    between atoms: C_22  and  C_24 
REMARK    8  A    between atoms: C_24  and  C_25 
REMARK    9  A    between atoms: C_25  and  C_26 
REMARK   10  A    between atoms: C_27  and  C_28 
REMARK   11  A    between atoms: C_27  and  C_29 
ROOT
ATOM      1  C   LIG d   1       6.229  -5.186  -6.283  0.00  0.00     0.034 A 
ATOM      2  C   LIG d   1       4.935  -4.932  -6.710  0.00  0.00     0.127 A 
ATOM      3  C   LIG d   1       4.213  -3.865  -6.180  0.00  0.00    -0.019 A 
ATOM      4  C   LIG d   1       4.774  -3.052  -5.236  0.00  0.00    -0.047 A 
ATOM      5  C   LIG d   1       6.078  -3.292  -4.799  0.00  0.00     0.026 A 
ATOM      6  C   LIG d   1       6.814  -4.366  -5.330  0.00  0.00     0.146 A 
ATOM      7  O   LIG d   1       8.076  -4.595  -4.907  0.00  0.00    -0.422 OA
ATOM      8  C   LIG d   1       8.665  -3.821  -3.982  0.00  0.00     0.338 A 
ATOM      9  O   LIG d   1       9.806  -4.075  -3.637  0.00  0.00    -0.245 OA
ATOM     10  C   LIG d   1       8.003  -2.727  -3.399  0.00  0.00     0.031 A 
ATOM     11  C   LIG d   1       6.709  -2.433  -3.783  0.00  0.00    -0.001 A 
ATOM     12  H   LIG d   1       3.205  -3.680  -6.518  0.00  0.00     0.065 H 
ATOM     13  H   LIG d   1       4.210  -2.227  -4.828  0.00  0.00     0.063 H 
ATOM     14  H   LIG d   1       8.501  -2.122  -2.658  0.00  0.00     0.070 H 
ENDROOT
BRANCH   2  15
ATOM     15  O   LIG d   1       4.366  -5.731  -7.647  0.00  0.00    -0.488 OA
BRANCH  15  16
ATOM     16  C   LIG d   1       3.567  -5.093  -8.646  0.00  0.00     0.108 C 
ATOM     17  H   LIG d   1       3.020  -5.848  -9.209  0.00  0.00     0.074 H 
ATOM     18  H   LIG d   1       2.861  -4.414  -8.167  0.00  0.00     0.074 H 
BRANCH  16  19
ATOM     19  C   LIG d   1       4.458  -4.316  -9.580  0.00  0.00    -0.048 C 
ATOM     20  C   LIG d   1       4.212  -3.050  -9.816  0.00  0.00    -0.073 C 
ATOM     21  H   LIG d   1       5.297  -4.800 -10.056  0.00  0.00     0.060 H 
BRANCH  20  22
ATOM     22  C   LIG d   1       5.177  -2.237 -10.641  0.00  0.00    -0.044 C 
ATOM     23  H   LIG d   1       5.564  -1.413 -10.041  0.00  0.00     0.027 H 
ATOM     24  H   LIG d   1       6.004  -2.871 -10.962  0.00  0.00     0.027 H 
ATOM     25  H   LIG d   1       4.663  -1.840 -11.516  0.00  0.00     0.027 H 
ENDBRANCH  20  22
BRANCH  20  26
ATOM     26  C   LIG d   1       2.966  -2.408  -9.265  0.00  0.00    -0.029 C 
ATOM     27  H   LIG d   1       2.122  -2.633  -9.916  0.00  0.00     0.031 H 
ATOM     28  H   LIG d   1       2.768  -2.798  -8.266  0.00  0.00     0.031 H 
BRANCH  26  29
ATOM     29  C   LIG d   1       3.164  -0.893  -9.190  0.00  0.00    -0.031 C 
ATOM     30  H   LIG d   1       4.224  -0.659  -9.281  0.00  0.00     0.031 H 
ATOM     31  H   LIG d   1       2.615  -0.414 -10.002  0.00  0.00     0.031 H 
BRANCH  29  32
ATOM     32  C   LIG d   1       2.649  -0.383  -7.868  0.00  0.00    -0.085 C 
ATOM     33  C   LIG d   1       3.490  -0.097  -6.905  0.00  0.00    -0.080 C 
ATOM     34  H   LIG d   1       1.588  -0.255  -7.715  0.00  0.00     0.057 H 
BRANCH  33  35
ATOM     35  C   LIG d   1       4.973  -0.089  -7.175  0.00  0.00    -0.044 C 
ATOM     36  H   LIG d   1       5.432   0.754  -6.657  0.00  0.00     0.027 H 
ATOM     37  H   LIG d   1       5.413  -1.019  -6.818  0.00  0.00     0.027 H 
ATOM     38  H   LIG d   1       5.146   0.007  -8.247  0.00  0.00     0.027 H 
ENDBRANCH  33  35
BRANCH  33  39
ATOM     39  C   LIG d   1       2.974   0.227  -5.527  0.00  0.00    -0.044 C 
ATOM     40  H   LIG d   1       3.734   0.781  -4.975  0.00  0.00     0.027 H 
ATOM     41  H   LIG d   1       2.072   0.832  -5.609  0.00  0.00     0.027 H 
ATOM     42  H   LIG d   1       2.744  -0.698  -4.998  0.00  0.00     0.027 H 
ENDBRANCH  33  39
ENDBRANCH  29  32
ENDBRANCH  26  29
ENDBRANCH  20  26
ENDBRANCH  16  19
ENDBRANCH  15  16
ENDBRANCH   2  15
BRANCH   1  43
ATOM     43  C   LIG d   1       7.001  -6.346  -6.858  0.00  0.00    -0.033 C 
ATOM     44  H   LIG d   1       7.149  -6.191  -7.926  0.00  0.00     0.028 H 
ATOM     45  H   LIG d   1       7.968  -6.420  -6.363  0.00  0.00     0.028 H 
ATOM     46  H   LIG d   1       6.440  -7.268  -6.701  0.00  0.00     0.028 H 
ENDBRANCH   1  43
BRANCH  11  47
ATOM     47  C   LIG d   1       5.978  -1.289  -3.193  0.00  0.00    -0.017 A 
ATOM     48  C   LIG d   1       4.914  -1.513  -2.319  0.00  0.00    -0.054 A 
ATOM     49  C   LIG d   1       4.238  -0.443  -1.770  0.00  0.00    -0.061 A 
ATOM     50  H   LIG d   1       4.620  -2.523  -2.072  0.00  0.00     0.062 H 
ATOM     51  C   LIG d   1       4.612   0.851  -2.086  0.00  0.00    -0.062 A 
ATOM     52  H   LIG d   1       3.414  -0.615  -1.095  0.00  0.00     0.062 H 
ATOM     53  C   LIG d   1       5.667   1.081  -2.952  0.00  0.00    -0.061 A 
ATOM     54  H   LIG d   1       4.080   1.685  -1.654  0.00  0.00     0.062 H 
ATOM     55  C   LIG d   1       6.355   0.018  -3.503  0.00  0.00    -0.054 A 
ATOM     56  H   LIG d   1       5.954   2.093  -3.195  0.00  0.00     0.062 H 
ATOM     57  H   LIG d   1       7.181   0.199  -4.175  0.00  0.00     0.062 H 
ENDBRANCH  11  47
TORSDOF 11
ENDMDL
MODEL 2
REMARK VINA RESULT:      -5.9      5.094      7.359
REMARK  11 active torsions:
REMARK  status: ('A' for Active; 'I' for Inactive)
REMARK    1  A    between atoms: C_1  and  C_2 
REMARK    2  A    between atoms: C_3  and  O_19 
REMARK    3  A    between atoms: C_12  and  C_13 
REMARK    4  A    between atoms: O_19  and  C_20 
REMARK    5  A    between atoms: C_20  and  C_21 
REMARK    6  A    between atoms: C_22  and  C_23 
REMARK    7  A    between atoms: C_22  and  C_24 
REMARK    8  A    between atoms: C_24  and  C_25 
REMARK    9  A    between atoms: C_25  and  C_26 
REMARK   10  A    between atoms: C_27  and  C_28 
REMARK   11  A    between atoms: C_27  and  C_29 
ROOT
ATOM      1  C   LIG d   1       8.514   1.869  -6.356  0.00  0.00     0.034 A 
ATOM      2  C   LIG d   1       8.098   1.093  -5.287  0.00  0.00     0.127 A 
ATOM      3  C   LIG d   1       8.277   1.537  -3.979  0.00  0.00    -0.019 A 
ATOM      4  C   LIG d   1       8.860   2.748  -3.734  0.00  0.00    -0.047 A 
ATOM      5  C   LIG d   1       9.281   3.544  -4.801  0.00  0.00     0.026 A 
ATOM      6  C   LIG d   1       9.104   3.103  -6.125  0.00  0.00     0.146 A 
ATOM      7  O   LIG d   1       9.510   3.876  -7.154  0.00  0.00    -0.422 OA
ATOM      8  C   LIG d   1      10.088   5.071  -6.959  0.00  0.00     0.338 A 
ATOM      9  O   LIG d   1      10.436   5.726  -7.926  0.00  0.00    -0.245 OA
ATOM     10  C   LIG d   1      10.303   5.589  -5.670  0.00  0.00     0.031 A 
ATOM     11  C   LIG d   1       9.913   4.854  -4.568  0.00  0.00    -0.001 A 
ATOM     12  H   LIG d   1       7.951   0.921  -3.154  0.00  0.00     0.065 H 
ATOM     13  H   LIG d   1       8.997   3.087  -2.719  0.00  0.00     0.063 H 
ATOM     14  H   LIG d   1      10.770   6.554  -5.543  0.00  0.00     0.070 H 
ENDROOT
BRANCH   2  15
ATOM     15  O   LIG d   1       7.516  -0.111  -5.515  0.00  0.00    -0.488 OA
BRANCH  15  16
ATOM     16  C   LIG d   1       6.123  -0.227  -5.217  0.00  0.00     0.108 C 
ATOM     17  H   LIG d   1       5.956   0.010  -4.167  0.00  0.00     0.074 H 
ATOM     18  H   LIG d   1       5.559   0.467  -5.840  0.00  0.00     0.074 H 
BRANCH  16  19
ATOM     19  C   LIG d   1       5.666  -1.636  -5.493  0.00  0.00    -0.048 C 
ATOM     20  C   LIG d   1       5.489  -2.473  -4.500  0.00  0.00    -0.073 C 
ATOM     21  H   LIG d   1       5.483  -1.956  -6.508  0.00  0.00     0.060 H 
BRANCH  20  22
ATOM     22  C   LIG d   1       4.903  -3.837  -4.761  0.00  0.00    -0.044 C 
ATOM     23  H   LIG d   1       4.866  -4.401  -3.829  0.00  0.00     0.027 H 
ATOM     24  H   LIG d   1       3.893  -3.728  -5.158  0.00  0.00     0.027 H 
ATOM     25  H   LIG d   1       5.523  -4.367  -5.483  0.00  0.00     0.027 H 
ENDBRANCH  20  22
BRANCH  20  26
ATOM     26  C   LIG d   1       5.872  -2.073  -3.100  0.00  0.00    -0.029 C 
ATOM     27  H   LIG d   1       6.503  -2.846  -2.660  0.00  0.00     0.031 H 
ATOM     28  H   LIG d   1       6.420  -1.130  -3.128  0.00  0.00     0.031 H 
BRANCH  26  29
ATOM     29  C   LIG d   1       4.608  -1.903  -2.254  0.00  0.00    -0.031 C 
ATOM     30  H   LIG d   1       3.751  -2.299  -2.798  0.00  0.00     0.031 H 
ATOM     31  H   LIG d   1       4.724  -2.444  -1.314  0.00  0.00     0.031 H 
BRANCH  29  32
ATOM     32  C   LIG d   1       4.388  -0.440  -1.966  0.00  0.00    -0.085 C 
ATOM     33  C   LIG d   1       3.477   0.228  -2.630  0.00  0.00    -0.080 C 
ATOM     34  H   LIG d   1       4.983   0.058  -1.215  0.00  0.00     0.057 H 
BRANCH  33  35
ATOM     35  C   LIG d   1       2.519  -0.501  -3.537  0.00  0.00    -0.044 C 
ATOM     36  H   LIG d   1       1.496  -0.320  -3.204  0.00  0.00     0.027 H 
ATOM     37  H   LIG d   1       2.639  -0.140  -4.558  0.00  0.00     0.027 H 
ATOM     38  H   LIG d   1       2.728  -1.570  -3.503  0.00  0.00     0.027 H 
ENDBRANCH  33  35
BRANCH  33  39
ATOM     39  C   LIG d   1       3.386   1.725  -2.485  0.00  0.00    -0.044 C 
ATOM     40  H   LIG d   1       4.066   2.201  -3.191  0.00  0.00     0.027 H 
ATOM     41  H   LIG d   1       2.366   2.048  -2.690  0.00  0.00     0.027 H 
ATOM     42  H   LIG d   1       3.660   2.010  -1.469  0.00  0.00     0.027 H 
ENDBRANCH  33  39
ENDBRANCH  29  32
ENDBRANCH  26  29
ENDBRANCH  20  26
ENDBRANCH  16  19
ENDBRANCH  15  16
ENDBRANCH   2  15
BRANCH   1  43
ATOM     43  C   LIG d   1       8.322   1.377  -7.768  0.00  0.00    -0.033 C 
ATOM     44  H   LIG d   1       8.752   2.096  -8.465  0.00  0.00     0.028 H 
ATOM     45  H   LIG d   1       8.816   0.414  -7.888  0.00  0.00     0.028 H 
ATOM     46  H   LIG d   1       7.257   1.267  -7.972  0.00  0.00     0.028 H 
ENDBRANCH   1  43
BRANCH  11  47
ATOM     47  C   LIG d   1      10.124   5.365  -3.195  0.00  0.00    -0.017 A 
ATOM     48  C   LIG d   1      11.022   4.727  -2.339  0.00  0.00    -0.054 A 
ATOM     49  C   LIG d   1      11.215   5.209  -1.061  0.00  0.00    -0.061 A 
ATOM     50  H   LIG d   1      11.566   3.857  -2.677  0.00  0.00     0.062 H 
ATOM     51  C   LIG d   1      10.518   6.323  -0.627  0.00  0.00    -0.062 A 
ATOM     52  H   LIG d   1      11.909   4.715  -0.398  0.00  0.00     0.062 H 
ATOM     53  C   LIG d   1       9.625   6.961  -1.470  0.00  0.00    -0.061 A 
ATOM     54  H   LIG d   1      10.673   6.696   0.374  0.00  0.00     0.062 H 
ATOM     55  C   LIG d   1       9.428   6.492  -2.753  0.00  0.00    -0.054 A 
ATOM     56  H   LIG d   1       9.085   7.829  -1.125  0.00  0.00     0.062 H 
ATOM     57  H   LIG d   1       8.735   6.993  -3.412  0.00  0.00     0.062 H 
ENDBRANCH  11  47
TORSDOF 11
ENDMDL
MODEL 3
REMARK VINA RESULT:      -5.8      2.609      7.564
REMARK  11 active torsions:
REMARK  status: ('A' for Active; 'I' for Inactive)
REMARK    1  A    between atoms: C_1  and  C_2 
REMARK    2  A    between atoms: C_3  and  O_19 
REMARK    3  A    between atoms: C_12  and  C_13 
REMARK    4  A    between atoms: O_19  and  C_20 
REMARK    5  A    between atoms: C_20  and  C_21 
REMARK    6  A    between atoms: C_22  and  C_23 
REMARK    7  A    between atoms: C_22  and  C_24 
REMARK    8  A    between atoms: C_24  and  C_25 
REMARK    9  A    between atoms: C_25  and  C_26 
REMARK   10  A    between atoms: C_27  and  C_28 
REMARK   11  A    between atoms: C_27  and  C_29 
ROOT
ATOM      1  C   LIG d   1       4.508  -0.476  -7.659  0.00  0.00     0.034 A 
ATOM      2  C   LIG d   1       3.298   0.138  -7.377  0.00  0.00     0.127 A 
ATOM      3  C   LIG d   1       2.178  -0.111  -8.167  0.00  0.00    -0.019 A 
ATOM      4  C   LIG d   1       2.258  -0.970  -9.226  0.00  0.00    -0.047 A 
ATOM      5  C   LIG d   1       3.468  -1.601  -9.520  0.00  0.00     0.026 A 
ATOM      6  C   LIG d   1       4.603  -1.354  -8.727  0.00  0.00     0.146 A 
ATOM      7  O   LIG d   1       5.772  -1.967  -9.013  0.00  0.00    -0.422 OA
ATOM      8  C   LIG d   1       5.894  -2.817 -10.044  0.00  0.00     0.338 A 
ATOM      9  O   LIG d   1       6.974  -3.340 -10.255  0.00  0.00    -0.245 OA
ATOM     10  C   LIG d   1       4.811  -3.121 -10.887  0.00  0.00     0.031 A 
ATOM     11  C   LIG d   1       3.583  -2.531 -10.656  0.00  0.00    -0.001 A 
ATOM     12  H   LIG d   1       1.242   0.376  -7.939  0.00  0.00     0.065 H 
ATOM     13  H   LIG d   1       1.387  -1.160  -9.835  0.00  0.00     0.063 H 
ATOM     14  H   LIG d   1       4.938  -3.809 -11.709  0.00  0.00     0.070 H 
ENDROOT
BRANCH   2  15
ATOM     15  O   LIG d   1       3.205   0.993  -6.327  0.00  0.00    -0.488 OA
BRANCH  15  16
ATOM     16  C   LIG d   1       2.594   0.494  -5.136  0.00  0.00     0.108 C 
ATOM     17  H   LIG d   1       1.545   0.788  -5.114  0.00  0.00     0.074 H 
ATOM     18  H   LIG d   1       2.667  -0.594  -5.118  0.00  0.00     0.074 H 
BRANCH  16  19
ATOM     19  C   LIG d   1       3.300   1.065  -3.933  0.00  0.00    -0.048 C 
ATOM     20  C   LIG d   1       3.508   0.314  -2.879  0.00  0.00    -0.073 C 
ATOM     21  H   LIG d   1       3.634   2.091  -3.938  0.00  0.00     0.060 H 
BRANCH  20  22
ATOM     22  C   LIG d   1       4.332   0.840  -1.731  0.00  0.00    -0.044 C 
ATOM     23  H   LIG d   1       4.031   0.341  -0.809  0.00  0.00     0.027 H 
ATOM     24  H   LIG d   1       5.387   0.643  -1.921  0.00  0.00     0.027 H 
ATOM     25  H   LIG d   1       4.174   1.913  -1.632  0.00  0.00     0.027 H 
ENDBRANCH  20  22
BRANCH  20  26
ATOM     26  C   LIG d   1       2.925  -1.073  -2.814  0.00  0.00    -0.029 C 
ATOM     27  H   LIG d   1       2.106  -1.091  -2.096  0.00  0.00     0.031 H 
ATOM     28  H   LIG d   1       2.550  -1.356  -3.799  0.00  0.00     0.031 H 
BRANCH  26  29
ATOM     29  C   LIG d   1       4.008  -2.062  -2.377  0.00  0.00    -0.031 C 
ATOM     30  H   LIG d   1       4.865  -1.514  -1.989  0.00  0.00     0.031 H 
ATOM     31  H   LIG d   1       3.611  -2.715  -1.599  0.00  0.00     0.031 H 
BRANCH  29  32
ATOM     32  C   LIG d   1       4.437  -2.893  -3.559  0.00  0.00    -0.085 C 
ATOM     33  C   LIG d   1       5.631  -2.733  -4.073  0.00  0.00    -0.080 C 
ATOM     34  H   LIG d   1       3.759  -3.619  -3.984  0.00  0.00     0.057 H 
BRANCH  33  35
ATOM     35  C   LIG d   1       6.645  -1.865  -3.371  0.00  0.00    -0.044 C 
ATOM     36  H   LIG d   1       7.524  -2.462  -3.125  0.00  0.00     0.027 H 
ATOM     37  H   LIG d   1       6.934  -1.043  -4.025  0.00  0.00     0.027 H 
ATOM     38  H   LIG d   1       6.208  -1.466  -2.455  0.00  0.00     0.027 H 
ENDBRANCH  33  35
BRANCH  33  39
ATOM     39  C   LIG d   1       5.993  -3.418  -5.366  0.00  0.00    -0.044 C 
ATOM     40  H   LIG d   1       5.991  -4.498  -5.218  0.00  0.00     0.027 H 
ATOM     41  H   LIG d   1       5.265  -3.156  -6.132  0.00  0.00     0.027 H 
ATOM     42  H   LIG d   1       6.985  -3.097  -5.683  0.00  0.00     0.027 H 
ENDBRANCH  33  39
ENDBRANCH  29  32
ENDBRANCH  26  29
ENDBRANCH  20  26
ENDBRANCH  16  19
ENDBRANCH  15  16
ENDBRANCH   2  15
BRANCH   1  43
ATOM     43  C   LIG d   1       5.716  -0.195  -6.802  0.00  0.00    -0.033 C 
ATOM     44  H   LIG d   1       6.452   0.361  -7.382  0.00  0.00     0.028 H 
ATOM     45  H   LIG d   1       5.418   0.393  -5.935  0.00  0.00     0.028 H 
ATOM     46  H   LIG d   1       6.153  -1.137  -6.470  0.00  0.00     0.028 H 
ENDBRANCH   1  43
BRANCH  11  47
ATOM     47  C   LIG d   1       2.420  -2.825 -11.521  0.00  0.00    -0.017 A 
ATOM     48  C   LIG d   1       1.536  -3.851 -11.183  0.00  0.00    -0.054 A 
ATOM     49  C   LIG d   1       0.452  -4.119 -11.993  0.00  0.00    -0.061 A 
ATOM     50  H   LIG d   1       1.700  -4.433 -10.289  0.00  0.00     0.062 H 
ATOM     51  C   LIG d   1       0.241  -3.374 -13.140  0.00  0.00    -0.062 A 
ATOM     52  H   LIG d   1      -0.232  -4.913 -11.733  0.00  0.00     0.062 H 
ATOM     53  C   LIG d   1       1.113  -2.356 -13.482  0.00  0.00    -0.061 A 
ATOM     54  H   LIG d   1      -0.609  -3.589 -13.771  0.00  0.00     0.062 H 
ATOM     55  C   LIG d   1       2.198  -2.074 -12.676  0.00  0.00    -0.054 A 
ATOM     56  H   LIG d   1       0.943  -1.779 -14.378  0.00  0.00     0.062 H 
ATOM     57  H   LIG d   1       2.875  -1.276 -12.941  0.00  0.00     0.062 H 
ENDBRANCH  11  47
TORSDOF 11
ENDMDL
MODEL 4
REMARK VINA RESULT:      -5.8      2.845      7.526
REMARK  11 active torsions:
REMARK  status: ('A' for Active; 'I' for Inactive)
REMARK    1  A    between atoms: C_1  and  C_2 
REMARK    2  A    between atoms: C_3  and  O_19 
REMARK    3  A    between atoms: C_12  and  C_13 
REMARK    4  A    between atoms: O_19  and  C_20 
REMARK    5  A    between atoms: C_20  and  C_21 
REMARK    6  A    between atoms: C_22  and  C_23 
REMARK    7  A    between atoms: C_22  and  C_24 
REMARK    8  A    between atoms: C_24  and  C_25 
REMARK    9  A    between atoms: C_25  and  C_26 
REMARK   10  A    between atoms: C_27  and  C_28 
REMARK   11  A    between atoms: C_27  and  C_29 
ROOT
ATOM      1  C   LIG d   1       4.642  -0.881  -7.566  0.00  0.00     0.034 A 
ATOM      2  C   LIG d   1       3.533  -0.129  -7.213  0.00  0.00     0.127 A 
ATOM      3  C   LIG d   1       2.362  -0.203  -7.964  0.00  0.00    -0.019 A 
ATOM      4  C   LIG d   1       2.290  -1.025  -9.053  0.00  0.00    -0.047 A 
ATOM      5  C   LIG d   1       3.397  -1.793  -9.418  0.00  0.00     0.026 A 
ATOM      6  C   LIG d   1       4.583  -1.724  -8.666  0.00  0.00     0.146 A 
ATOM      7  O   LIG d   1       5.652  -2.469  -9.020  0.00  0.00    -0.422 OA
ATOM      8  C   LIG d   1       5.625  -3.288 -10.083  0.00  0.00     0.338 A 
ATOM      9  O   LIG d   1       6.620  -3.936 -10.356  0.00  0.00    -0.245 OA
ATOM     10  C   LIG d   1       4.481  -3.419 -10.889  0.00  0.00     0.031 A 
ATOM     11  C   LIG d   1       3.349  -2.686 -10.587  0.00  0.00    -0.001 A 
ATOM     12  H   LIG d   1       1.505   0.390  -7.681  0.00  0.00     0.065 H 
ATOM     13  H   LIG d   1       1.380  -1.078  -9.631  0.00  0.00     0.063 H 
ATOM     14  H   LIG d   1       4.487  -4.085 -11.738  0.00  0.00     0.070 H 
ENDROOT
BRANCH   2  15
ATOM     15  O   LIG d   1       3.590   0.690  -6.133  0.00  0.00    -0.488 OA
BRANCH  15  16
ATOM     16  C   LIG d   1       2.658   0.441  -5.079  0.00  0.00     0.108 C 
ATOM     17  H   LIG d   1       2.677   1.270  -4.374  0.00  0.00     0.074 H 
ATOM     18  H   LIG d   1       1.656   0.341  -5.496  0.00  0.00     0.074 H 
BRANCH  16  19
ATOM     19  C   LIG d   1       3.035  -0.833  -4.367  0.00  0.00    -0.048 C 
ATOM     20  C   LIG d   1       3.325  -0.806  -3.089  0.00  0.00    -0.073 C 
ATOM     21  H   LIG d   1       3.066  -1.766  -4.907  0.00  0.00     0.060 H 
BRANCH  20  22
ATOM     22  C   LIG d   1       3.569  -2.094  -2.346  0.00  0.00    -0.044 C 
ATOM     23  H   LIG d   1       3.256  -1.980  -1.308  0.00  0.00     0.027 H 
ATOM     24  H   LIG d   1       2.996  -2.896  -2.811  0.00  0.00     0.027 H 
ATOM     25  H   LIG d   1       4.630  -2.339  -2.380  0.00  0.00     0.027 H 
ENDBRANCH  20  22
BRANCH  20  26
ATOM     26  C   LIG d   1       3.416   0.511  -2.364  0.00  0.00    -0.029 C 
ATOM     27  H   LIG d   1       3.176   1.322  -3.051  0.00  0.00     0.031 H 
ATOM     28  H   LIG d   1       2.710   0.518  -1.533  0.00  0.00     0.031 H 
BRANCH  26  29
ATOM     29  C   LIG d   1       4.837   0.701  -1.828  0.00  0.00    -0.031 C 
ATOM     30  H   LIG d   1       4.806   1.306  -0.922  0.00  0.00     0.031 H 
ATOM     31  H   LIG d   1       5.273  -0.273  -1.600  0.00  0.00     0.031 H 
BRANCH  29  32
ATOM     32  C   LIG d   1       5.678   1.396  -2.867  0.00  0.00    -0.085 C 
ATOM     33  C   LIG d   1       6.675   0.763  -3.434  0.00  0.00    -0.080 C 
ATOM     34  H   LIG d   1       5.460   2.417  -3.144  0.00  0.00     0.057 H 
BRANCH  33  35
ATOM     35  C   LIG d   1       6.864  -0.714  -3.195  0.00  0.00    -0.044 C 
ATOM     36  H   LIG d   1       6.417  -0.986  -2.238  0.00  0.00     0.027 H 
ATOM     37  H   LIG d   1       6.382  -1.276  -3.994  0.00  0.00     0.027 H 
ATOM     38  H   LIG d   1       7.929  -0.945  -3.177  0.00  0.00     0.027 H 
ENDBRANCH  33  35
BRANCH  33  39
ATOM     39  C   LIG d   1       7.632   1.510  -4.326  0.00  0.00    -0.044 C 
ATOM     40  H   LIG d   1       8.459   0.855  -4.601  0.00  0.00     0.027 H 
ATOM     41  H   LIG d   1       7.112   1.834  -5.226  0.00  0.00     0.027 H 
ATOM     42  H   LIG d   1       8.020   2.380  -3.797  0.00  0.00     0.027 H 
ENDBRANCH  33  39
ENDBRANCH  29  32
ENDBRANCH  26  29
ENDBRANCH  20  26
ENDBRANCH  16  19
ENDBRANCH  15  16
ENDBRANCH   2  15
BRANCH   1  43
ATOM     43  C   LIG d   1       5.908  -0.790  -6.751  0.00  0.00    -0.033 C 
ATOM     44  H   LIG d   1       5.667  -0.460  -5.741  0.00  0.00     0.028 H 
ATOM     45  H   LIG d   1       6.385  -1.768  -6.711  0.00  0.00     0.028 H 
ATOM     46  H   LIG d   1       6.586  -0.073  -7.215  0.00  0.00     0.028 H 
ENDBRANCH   1  43
BRANCH  11  47
ATOM     47  C   LIG d   1       2.126  -2.796 -11.413  0.00  0.00    -0.017 A 
ATOM     48  C   LIG d   1       1.964  -1.987 -12.538  0.00  0.00    -0.054 A 
ATOM     49  C   LIG d   1       0.822  -2.095 -13.304  0.00  0.00    -0.061 A 
ATOM     50  H   LIG d   1       2.732  -1.277 -12.808  0.00  0.00     0.062 H 
ATOM     51  C   LIG d   1      -0.163  -3.003 -12.959  0.00  0.00    -0.062 A 
ATOM     52  H   LIG d   1       0.696  -1.469 -14.174  0.00  0.00     0.062 H 
ATOM     53  C   LIG d   1      -0.009  -3.809 -11.844  0.00  0.00    -0.061 A 
ATOM     54  H   LIG d   1      -1.055  -3.084 -13.562  0.00  0.00     0.062 H 
ATOM     55  C   LIG d   1       1.131  -3.714 -11.073  0.00  0.00    -0.054 A 
ATOM     56  H   LIG d   1      -0.782  -4.515 -11.580  0.00  0.00     0.062 H 
ATOM     57  H   LIG d   1       1.252  -4.347 -10.206  0.00  0.00     0.062 H 
ENDBRANCH  11  47
TORSDOF 11
ENDMDL
MODEL 5
REMARK VINA RESULT:      -5.7      4.298      7.157
REMARK  11 active torsions:
REMARK  status: ('A' for Active; 'I' for Inactive)
REMARK    1  A    between atoms: C_1  and  C_2 
REMARK    2  A    between atoms: C_3  and  O_19 
REMARK    3  A    between atoms: C_12  and  C_13 
REMARK    4  A    between atoms: O_19  and  C_20 
REMARK    5  A    between atoms: C_20  and  C_21 
REMARK    6  A    between atoms: C_22  and  C_23 
REMARK    7  A    between atoms: C_22  and  C_24 
REMARK    8  A    between atoms: C_24  and  C_25 
REMARK    9  A    between atoms: C_25  and  C_26 
REMARK   10  A    between atoms: C_27  and  C_28 
REMARK   11  A    between atoms: C_27  and  C_29 
ROOT
ATOM      1  C   LIG d   1       5.681  -7.236  -5.701  0.00  0.00     0.034 A 
ATOM      2  C   LIG d   1       6.962  -6.738  -5.876  0.00  0.00     0.127 A 
ATOM      3  C   LIG d   1       8.033  -7.276  -5.165  0.00  0.00    -0.019 A 
ATOM      4  C   LIG d   1       7.833  -8.306  -4.290  0.00  0.00    -0.047 A 
ATOM      5  C   LIG d   1       6.549  -8.822  -4.106  0.00  0.00     0.026 A 
ATOM      6  C   LIG d   1       5.463  -8.285  -4.820  0.00  0.00     0.146 A 
ATOM      7  O   LIG d   1       4.223  -8.788  -4.642  0.00  0.00    -0.422 OA
ATOM      8  C   LIG d   1       3.982  -9.799  -3.793  0.00  0.00     0.338 A 
ATOM      9  O   LIG d   1       2.842 -10.212  -3.672  0.00  0.00    -0.245 OA
ATOM     10  C   LIG d   1       5.009 -10.395  -3.040  0.00  0.00     0.031 A 
ATOM     11  C   LIG d   1       6.304  -9.932  -3.170  0.00  0.00    -0.001 A 
ATOM     12  H   LIG d   1       9.026  -6.876  -5.307  0.00  0.00     0.065 H 
ATOM     13  H   LIG d   1       8.666  -8.718  -3.741  0.00  0.00     0.063 H 
ATOM     14  H   LIG d   1       4.786 -11.207  -2.365  0.00  0.00     0.070 H 
ENDROOT
BRANCH   2  15
ATOM     15  O   LIG d   1       7.175  -5.716  -6.742  0.00  0.00    -0.488 OA
BRANCH  15  16
ATOM     16  C   LIG d   1       7.433  -4.429  -6.176  0.00  0.00     0.108 C 
ATOM     17  H   LIG d   1       7.417  -4.500  -5.089  0.00  0.00     0.074 H 
ATOM     18  H   LIG d   1       8.412  -4.078  -6.503  0.00  0.00     0.074 H 
BRANCH  16  19
ATOM     19  C   LIG d   1       6.374  -3.458  -6.632  0.00  0.00    -0.048 C 
ATOM     20  C   LIG d   1       5.642  -2.827  -5.747  0.00  0.00    -0.073 C 
ATOM     21  H   LIG d   1       6.218  -3.283  -7.685  0.00  0.00     0.060 H 
BRANCH  20  22
ATOM     22  C   LIG d   1       4.678  -1.758  -6.194  0.00  0.00    -0.044 C 
ATOM     23  H   LIG d   1       3.747  -1.850  -5.633  0.00  0.00     0.027 H 
ATOM     24  H   LIG d   1       5.114  -0.776  -6.012  0.00  0.00     0.027 H 
ATOM     25  H   LIG d   1       4.473  -1.874  -7.258  0.00  0.00     0.027 H 
ENDBRANCH  20  22
BRANCH  20  26
ATOM     26  C   LIG d   1       5.763  -3.169  -4.285  0.00  0.00    -0.029 C 
ATOM     27  H   LIG d   1       5.866  -4.248  -4.171  0.00  0.00     0.031 H 
ATOM     28  H   LIG d   1       6.640  -2.674  -3.868  0.00  0.00     0.031 H 
BRANCH  26  29
ATOM     29  C   LIG d   1       4.510  -2.695  -3.545  0.00  0.00    -0.031 C 
ATOM     30  H   LIG d   1       3.773  -2.343  -4.267  0.00  0.00     0.031 H 
ATOM     31  H   LIG d   1       4.091  -3.524  -2.973  0.00  0.00     0.031 H 
BRANCH  29  32
ATOM     32  C   LIG d   1       4.873  -1.571  -2.609  0.00  0.00    -0.085 C 
ATOM     33  C   LIG d   1       4.058  -0.557  -2.456  0.00  0.00    -0.080 C 
ATOM     34  H   LIG d   1       5.807  -1.601  -2.066  0.00  0.00     0.057 H 
BRANCH  33  35
ATOM     35  C   LIG d   1       2.677  -0.602  -3.059  0.00  0.00    -0.044 C 
ATOM     36  H   LIG d   1       2.696  -1.211  -3.964  0.00  0.00     0.027 H 
ATOM     37  H   LIG d   1       1.982  -1.037  -2.342  0.00  0.00     0.027 H 
ATOM     38  H   LIG d   1       2.357   0.410  -3.309  0.00  0.00     0.027 H 
ENDBRANCH  33  35
BRANCH  33  39
ATOM     39  C   LIG d   1       4.500   0.654  -1.676  0.00  0.00    -0.044 C 
ATOM     40  H   LIG d   1       4.310   0.492  -0.615  0.00  0.00     0.027 H 
ATOM     41  H   LIG d   1       5.566   0.818  -1.832  0.00  0.00     0.027 H 
ATOM     42  H   LIG d   1       3.945   1.528  -2.015  0.00  0.00     0.027 H 
ENDBRANCH  33  39
ENDBRANCH  29  32
ENDBRANCH  26  29
ENDBRANCH  20  26
ENDBRANCH  16  19
ENDBRANCH  15  16
ENDBRANCH   2  15
BRANCH   1  43
ATOM     43  C   LIG d   1       4.528  -6.644  -6.470  0.00  0.00    -0.033 C 
ATOM     44  H   LIG d   1       3.780  -7.415  -6.655  0.00  0.00     0.028 H 
ATOM     45  H   LIG d   1       4.082  -5.836  -5.892  0.00  0.00     0.028 H 
ATOM     46  H   LIG d   1       4.889  -6.253  -7.422  0.00  0.00     0.028 H 
ENDBRANCH   1  43
BRANCH  11  47
ATOM     47  C   LIG d   1       7.411 -10.533  -2.394  0.00  0.00    -0.017 A 
ATOM     48  C   LIG d   1       7.793  -9.977  -1.172  0.00  0.00    -0.054 A 
ATOM     49  C   LIG d   1       8.825 -10.543  -0.452  0.00  0.00    -0.061 A 
ATOM     50  H   LIG d   1       7.282  -9.106  -0.791  0.00  0.00     0.062 H 
ATOM     51  C   LIG d   1       9.482 -11.659  -0.940  0.00  0.00    -0.062 A 
ATOM     52  H   LIG d   1       9.122 -10.113   0.493  0.00  0.00     0.062 H 
ATOM     53  C   LIG d   1       9.109 -12.215  -2.151  0.00  0.00    -0.061 A 
ATOM     54  H   LIG d   1      10.289 -12.098  -0.373  0.00  0.00     0.062 H 
ATOM     55  C   LIG d   1       8.074 -11.662  -2.878  0.00  0.00    -0.054 A 
ATOM     56  H   LIG d   1       9.626 -13.085  -2.526  0.00  0.00     0.062 H 
ATOM     57  H   LIG d   1       7.780 -12.100  -3.820  0.00  0.00     0.062 H 
ENDBRANCH  11  47
TORSDOF 11
ENDMDL
MODEL 6
REMARK VINA RESULT:      -5.7      2.435      4.181
REMARK  11 active torsions:
REMARK  status: ('A' for Active; 'I' for Inactive)
REMARK    1  A    between atoms: C_1  and  C_2 
REMARK    2  A    between atoms: C_3  and  O_19 
REMARK    3  A    between atoms: C_12  and  C_13 
REMARK    4  A    between atoms: O_19  and  C_20 
REMARK    5  A    between atoms: C_20  and  C_21 
REMARK    6  A    between atoms: C_22  and  C_23 
REMARK    7  A    between atoms: C_22  and  C_24 
REMARK    8  A    between atoms: C_24  and  C_25 
REMARK    9  A    between atoms: C_25  and  C_26 
REMARK   10  A    between atoms: C_27  and  C_28 
REMARK   11  A    between atoms: C_27  and  C_29 
ROOT
ATOM      1  C   LIG d   1       4.597   0.059  -9.067  0.00  0.00     0.034 A 
ATOM      2  C   LIG d   1       3.234   0.176  -8.852  0.00  0.00     0.127 A 
ATOM      3  C   LIG d   1       2.711   0.083  -7.564  0.00  0.00    -0.019 A 
ATOM      4  C   LIG d   1       3.538  -0.119  -6.496  0.00  0.00    -0.047 A 
ATOM      5  C   LIG d   1       4.915  -0.234  -6.695  0.00  0.00     0.026 A 
ATOM      6  C   LIG d   1       5.450  -0.141  -7.992  0.00  0.00     0.146 A 
ATOM      7  O   LIG d   1       6.783  -0.251  -8.182  0.00  0.00    -0.422 OA
ATOM      8  C   LIG d   1       7.630  -0.450  -7.161  0.00  0.00     0.338 A 
ATOM      9  O   LIG d   1       8.824  -0.542  -7.391  0.00  0.00    -0.245 OA
ATOM     10  C   LIG d   1       7.181  -0.555  -5.833  0.00  0.00     0.031 A 
ATOM     11  C   LIG d   1       5.830  -0.452  -5.563  0.00  0.00    -0.001 A 
ATOM     12  H   LIG d   1       1.646   0.173  -7.411  0.00  0.00     0.065 H 
ATOM     13  H   LIG d   1       3.127  -0.191  -5.500  0.00  0.00     0.063 H 
ATOM     14  H   LIG d   1       7.886  -0.714  -5.031  0.00  0.00     0.070 H 
ENDROOT
BRANCH   2  15
ATOM     15  O   LIG d   1       2.401   0.378  -9.904  0.00  0.00    -0.488 OA
BRANCH  15  16
ATOM     16  C   LIG d   1       1.436  -0.642 -10.173  0.00  0.00     0.108 C 
ATOM     17  H   LIG d   1       1.343  -1.292  -9.304  0.00  0.00     0.074 H 
ATOM     18  H   LIG d   1       0.471  -0.181 -10.387  0.00  0.00     0.074 H 
BRANCH  16  19
ATOM     19  C   LIG d   1       1.881  -1.453 -11.362  0.00  0.00    -0.048 C 
ATOM     20  C   LIG d   1       2.281  -2.690 -11.198  0.00  0.00    -0.073 C 
ATOM     21  H   LIG d   1       1.871  -1.016 -12.350  0.00  0.00     0.060 H 
BRANCH  20  22
ATOM     22  C   LIG d   1       2.596  -3.545 -12.398  0.00  0.00    -0.044 C 
ATOM     23  H   LIG d   1       2.414  -4.593 -12.157  0.00  0.00     0.027 H 
ATOM     24  H   LIG d   1       1.959  -3.249 -13.232  0.00  0.00     0.027 H 
ATOM     25  H   LIG d   1       3.642  -3.413 -12.675  0.00  0.00     0.027 H 
ENDBRANCH  20  22
BRANCH  20  26
ATOM     26  C   LIG d   1       2.426  -3.257  -9.810  0.00  0.00    -0.029 C 
ATOM     27  H   LIG d   1       1.989  -2.568  -9.088  0.00  0.00     0.031 H 
ATOM     28  H   LIG d   1       1.911  -4.217  -9.754  0.00  0.00     0.031 H 
BRANCH  26  29
ATOM     29  C   LIG d   1       3.910  -3.456  -9.493  0.00  0.00    -0.031 C 
ATOM     30  H   LIG d   1       4.279  -4.335 -10.020  0.00  0.00     0.031 H 
ATOM     31  H   LIG d   1       4.471  -2.578  -9.814  0.00  0.00     0.031 H 
BRANCH  29  32
ATOM     32  C   LIG d   1       4.085  -3.649  -8.009  0.00  0.00    -0.085 C 
ATOM     33  C   LIG d   1       5.277  -3.876  -7.515  0.00  0.00    -0.080 C 
ATOM     34  H   LIG d   1       3.228  -3.603  -7.353  0.00  0.00     0.057 H 
BRANCH  33  35
ATOM     35  C   LIG d   1       6.495  -3.752  -8.394  0.00  0.00    -0.044 C 
ATOM     36  H   LIG d   1       6.519  -4.584  -9.100  0.00  0.00     0.027 H 
ATOM     37  H   LIG d   1       6.452  -2.811  -8.943  0.00  0.00     0.027 H 
ATOM     38  H   LIG d   1       7.393  -3.773  -7.777  0.00  0.00     0.027 H 
ENDBRANCH  33  35
BRANCH  33  39
ATOM     39  C   LIG d   1       5.431  -4.260  -6.066  0.00  0.00    -0.044 C 
ATOM     40  H   LIG d   1       5.166  -3.411  -5.435  0.00  0.00     0.027 H 
ATOM     41  H   LIG d   1       4.773  -5.098  -5.840  0.00  0.00     0.027 H 
ATOM     42  H   LIG d   1       6.464  -4.547  -5.873  0.00  0.00     0.027 H 
ENDBRANCH  33  39
ENDBRANCH  29  32
ENDBRANCH  26  29
ENDBRANCH  20  26
ENDBRANCH  16  19
ENDBRANCH  15  16
ENDBRANCH   2  15
BRANCH   1  43
ATOM     43  C   LIG d   1       5.154   0.155 -10.465  0.00  0.00    -0.033 C 
ATOM     44  H   LIG d   1       6.242   0.189 -10.422  0.00  0.00     0.028 H 
ATOM     45  H   LIG d   1       4.840  -0.714 -11.041  0.00  0.00     0.028 H 
ATOM     46  H   LIG d   1       4.781   1.062 -10.942  0.00  0.00     0.028 H 
ENDBRANCH   1  43
BRANCH  11  47
ATOM     47  C   LIG d   1       5.318  -0.558  -4.178  0.00  0.00    -0.017 A 
ATOM     48  C   LIG d   1       4.854  -1.782  -3.694  0.00  0.00    -0.054 A 
ATOM     49  C   LIG d   1       4.380  -1.874  -2.402  0.00  0.00    -0.061 A 
ATOM     50  H   LIG d   1       4.868  -2.655  -4.329  0.00  0.00     0.062 H 
ATOM     51  C   LIG d   1       4.361  -0.756  -1.587  0.00  0.00    -0.062 A 
ATOM     52  H   LIG d   1       4.021  -2.820  -2.026  0.00  0.00     0.062 H 
ATOM     53  C   LIG d   1       4.819   0.461  -2.061  0.00  0.00    -0.061 A 
ATOM     54  H   LIG d   1       3.989  -0.834  -0.576  0.00  0.00     0.062 H 
ATOM     55  C   LIG d   1       5.302   0.565  -3.350  0.00  0.00    -0.054 A 
ATOM     56  H   LIG d   1       4.802   1.329  -1.420  0.00  0.00     0.062 H 
ATOM     57  H   LIG d   1       5.663   1.514  -3.717  0.00  0.00     0.062 H 
ENDBRANCH  11  47
TORSDOF 11
ENDMDL
MODEL 7
REMARK VINA RESULT:      -5.7      2.091      3.616
REMARK  11 active torsions:
REMARK  status: ('A' for Active; 'I' for Inactive)
REMARK    1  A    between atoms: C_1  and  C_2 
REMARK    2  A    between atoms: C_3  and  O_19 
REMARK    3  A    between atoms: C_12  and  C_13 
REMARK    4  A    between atoms: O_19  and  C_20 
REMARK    5  A    between atoms: C_20  and  C_21 
REMARK    6  A    between atoms: C_22  and  C_23 
REMARK    7  A    between atoms: C_22  and  C_24 
REMARK    8  A    between atoms: C_24  and  C_25 
REMARK    9  A    between atoms: C_25  and  C_26 
REMARK   10  A    between atoms: C_27  and  C_28 
REMARK   11  A    between atoms: C_27  and  C_29 
ROOT
ATOM      1  C   LIG d   1       3.665  -2.444  -8.504  0.00  0.00     0.034 A 
ATOM      2  C   LIG d   1       2.952  -1.276  -8.720  0.00  0.00     0.127 A 
ATOM      3  C   LIG d   1       2.882  -0.298  -7.730  0.00  0.00    -0.019 A 
ATOM      4  C   LIG d   1       3.522  -0.477  -6.536  0.00  0.00    -0.047 A 
ATOM      5  C   LIG d   1       4.248  -1.647  -6.305  0.00  0.00     0.026 A 
ATOM      6  C   LIG d   1       4.324  -2.638  -7.299  0.00  0.00     0.146 A 
ATOM      7  O   LIG d   1       5.029  -3.768  -7.074  0.00  0.00    -0.422 OA
ATOM      8  C   LIG d   1       5.672  -3.983  -5.916  0.00  0.00     0.338 A 
ATOM      9  O   LIG d   1       6.292  -5.022  -5.767  0.00  0.00    -0.245 OA
ATOM     10  C   LIG d   1       5.649  -3.046  -4.869  0.00  0.00     0.031 A 
ATOM     11  C   LIG d   1       4.947  -1.866  -5.028  0.00  0.00    -0.001 A 
ATOM     12  H   LIG d   1       2.320   0.606  -7.909  0.00  0.00     0.065 H 
ATOM     13  H   LIG d   1       3.463   0.284  -5.772  0.00  0.00     0.063 H 
ATOM     14  H   LIG d   1       6.176  -3.246  -3.948  0.00  0.00     0.070 H 
ENDROOT
BRANCH   2  15
ATOM     15  O   LIG d   1       2.313  -1.085  -9.901  0.00  0.00    -0.488 OA
BRANCH  15  16
ATOM     16  C   LIG d   1       2.770  -0.008 -10.720  0.00  0.00     0.108 C 
ATOM     17  H   LIG d   1       1.941   0.374 -11.314  0.00  0.00     0.074 H 
ATOM     18  H   LIG d   1       3.161   0.789 -10.087  0.00  0.00     0.074 H 
BRANCH  16  19
ATOM     19  C   LIG d   1       3.859  -0.501 -11.637  0.00  0.00    -0.048 C 
ATOM     20  C   LIG d   1       5.111  -0.207 -11.384  0.00  0.00    -0.073 C 
ATOM     21  H   LIG d   1       3.610  -1.097 -12.502  0.00  0.00     0.060 H 
BRANCH  20  22
ATOM     22  C   LIG d   1       6.210  -0.811 -12.220  0.00  0.00    -0.044 C 
ATOM     23  H   LIG d   1       5.777  -1.495 -12.950  0.00  0.00     0.027 H 
ATOM     24  H   LIG d   1       6.747  -0.018 -12.741  0.00  0.00     0.027 H 
ATOM     25  H   LIG d   1       6.900  -1.355 -11.576  0.00  0.00     0.027 H 
ENDBRANCH  20  22
BRANCH  20  26
ATOM     26  C   LIG d   1       5.451   0.735 -10.259  0.00  0.00    -0.029 C 
ATOM     27  H   LIG d   1       5.994   1.594 -10.655  0.00  0.00     0.031 H 
ATOM     28  H   LIG d   1       4.533   1.076  -9.780  0.00  0.00     0.031 H 
BRANCH  26  29
ATOM     29  C   LIG d   1       6.324   0.010  -9.233  0.00  0.00    -0.031 C 
ATOM     30  H   LIG d   1       5.704  -0.661  -8.639  0.00  0.00     0.031 H 
ATOM     31  H   LIG d   1       7.091  -0.567  -9.750  0.00  0.00     0.031 H 
BRANCH  29  32
ATOM     32  C   LIG d   1       6.981   1.020  -8.327  0.00  0.00    -0.085 C 
ATOM     33  C   LIG d   1       7.615   0.621  -7.253  0.00  0.00    -0.080 C 
ATOM     34  H   LIG d   1       6.927   2.072  -8.563  0.00  0.00     0.057 H 
BRANCH  33  35
ATOM     35  C   LIG d   1       7.857  -0.849  -7.022  0.00  0.00    -0.044 C 
ATOM     36  H   LIG d   1       7.244  -1.430  -7.711  0.00  0.00     0.027 H 
ATOM     37  H   LIG d   1       8.909  -1.075  -7.191  0.00  0.00     0.027 H 
ATOM     38  H   LIG d   1       7.591  -1.104  -5.996  0.00  0.00     0.027 H 
ENDBRANCH  33  35
BRANCH  33  39
ATOM     39  C   LIG d   1       8.104   1.632  -6.248  0.00  0.00    -0.044 C 
ATOM     40  H   LIG d   1       8.530   2.487  -6.771  0.00  0.00     0.027 H 
ATOM     41  H   LIG d   1       7.270   1.964  -5.631  0.00  0.00     0.027 H 
ATOM     42  H   LIG d   1       8.866   1.177  -5.615  0.00  0.00     0.027 H 
ENDBRANCH  33  39
ENDBRANCH  29  32
ENDBRANCH  26  29
ENDBRANCH  20  26
ENDBRANCH  16  19
ENDBRANCH  15  16
ENDBRANCH   2  15
BRANCH   1  43
ATOM     43  C   LIG d   1       3.730  -3.500  -9.578  0.00  0.00    -0.033 C 
ATOM     44  H   LIG d   1       2.753  -3.970  -9.685  0.00  0.00     0.028 H 
ATOM     45  H   LIG d   1       4.018  -3.040 -10.523  0.00  0.00     0.028 H 
ATOM     46  H   LIG d   1       4.467  -4.255  -9.302  0.00  0.00     0.028 H 
ENDBRANCH   1  43
BRANCH  11  47
ATOM     47  C   LIG d   1       4.900  -0.855  -3.949  0.00  0.00    -0.017 A 
ATOM     48  C   LIG d   1       3.910  -0.924  -2.967  0.00  0.00    -0.054 A 
ATOM     49  C   LIG d   1       3.872   0.021  -1.963  0.00  0.00    -0.061 A 
ATOM     50  H   LIG d   1       3.177  -1.715  -2.993  0.00  0.00     0.062 H 
ATOM     51  C   LIG d   1       4.811   1.038  -1.928  0.00  0.00    -0.062 A 
ATOM     52  H   LIG d   1       3.107  -0.031  -1.203  0.00  0.00     0.062 H 
ATOM     53  C   LIG d   1       5.795   1.112  -2.899  0.00  0.00    -0.061 A 
ATOM     54  H   LIG d   1       4.777   1.774  -1.140  0.00  0.00     0.062 H 
ATOM     55  C   LIG d   1       5.847   0.169  -3.906  0.00  0.00    -0.054 A 
ATOM     56  H   LIG d   1       6.524   1.907  -2.867  0.00  0.00     0.062 H 
ATOM     57  H   LIG d   1       6.618   0.225  -4.660  0.00  0.00     0.062 H 
ENDBRANCH  11  47
TORSDOF 11
ENDMDL
MODEL 8
REMARK VINA RESULT:      -5.4      3.464      4.456
REMARK  11 active torsions:
REMARK  status: ('A' for Active; 'I' for Inactive)
REMARK    1  A    between atoms: C_1  and  C_2 
REMARK    2  A    between atoms: C_3  and  O_19 
REMARK    3  A    between atoms: C_12  and  C_13 
REMARK    4  A    between atoms: O_19  and  C_20 
REMARK    5  A    between atoms: C_20  and  C_21 
REMARK    6  A    between atoms: C_22  and  C_23 
REMARK    7  A    between atoms: C_22  and  C_24 
REMARK    8  A    between atoms: C_24  and  C_25 
REMARK    9  A    between atoms: C_25  and  C_26 
REMARK   10  A    between atoms: C_27  and  C_28 
REMARK   11  A    between atoms: C_27  and  C_29 
ROOT
ATOM      1  C   LIG d   1       7.882   0.823  -7.915  0.00  0.00     0.034 A 
ATOM      2  C   LIG d   1       7.024   0.045  -8.676  0.00  0.00     0.127 A 
ATOM      3  C   LIG d   1       5.960  -0.625  -8.076  0.00  0.00    -0.019 A 
ATOM      4  C   LIG d   1       5.745  -0.517  -6.731  0.00  0.00    -0.047 A 
ATOM      5  C   LIG d   1       6.599   0.267  -5.952  0.00  0.00     0.026 A 
ATOM      6  C   LIG d   1       7.675   0.946  -6.550  0.00  0.00     0.146 A 
ATOM      7  O   LIG d   1       8.497   1.705  -5.794  0.00  0.00    -0.422 OA
ATOM      8  C   LIG d   1       8.323   1.838  -4.470  0.00  0.00     0.338 A 
ATOM      9  O   LIG d   1       9.097   2.535  -3.838  0.00  0.00    -0.245 OA
ATOM     10  C   LIG d   1       7.274   1.194  -3.792  0.00  0.00     0.031 A 
ATOM     11  C   LIG d   1       6.392   0.400  -4.500  0.00  0.00    -0.001 A 
ATOM     12  H   LIG d   1       5.300  -1.231  -8.679  0.00  0.00     0.065 H 
ATOM     13  H   LIG d   1       4.919  -1.039  -6.272  0.00  0.00     0.063 H 
ATOM     14  H   LIG d   1       7.157   1.319  -2.726  0.00  0.00     0.070 H 
ENDROOT
BRANCH   2  15
ATOM     15  O   LIG d   1       7.224  -0.070 -10.012  0.00  0.00    -0.488 OA
BRANCH  15  16
ATOM     16  C   LIG d   1       6.936  -1.337 -10.606  0.00  0.00     0.108 C 
ATOM     17  H   LIG d   1       7.810  -1.982 -10.528  0.00  0.00     0.074 H 
ATOM     18  H   LIG d   1       6.095  -1.799 -10.086  0.00  0.00     0.074 H 
BRANCH  16  19
ATOM     19  C   LIG d   1       6.583  -1.143 -12.058  0.00  0.00    -0.048 C 
ATOM     20  C   LIG d   1       5.326  -1.061 -12.421  0.00  0.00    -0.073 C 
ATOM     21  H   LIG d   1       7.365  -1.072 -12.799  0.00  0.00     0.060 H 
BRANCH  20  22
ATOM     22  C   LIG d   1       4.976  -0.732 -13.850  0.00  0.00    -0.044 C 
ATOM     23  H   LIG d   1       4.048  -0.159 -13.874  0.00  0.00     0.027 H 
ATOM     24  H   LIG d   1       5.777  -0.141 -14.293  0.00  0.00     0.027 H 
ATOM     25  H   LIG d   1       4.849  -1.654 -14.415  0.00  0.00     0.027 H 
ENDBRANCH  20  22
BRANCH  20  26
ATOM     26  C   LIG d   1       4.233  -1.296 -11.412  0.00  0.00    -0.029 C 
ATOM     27  H   LIG d   1       3.682  -2.198 -11.676  0.00  0.00     0.031 H 
ATOM     28  H   LIG d   1       4.673  -1.416 -10.421  0.00  0.00     0.031 H 
BRANCH  26  29
ATOM     29  C   LIG d   1       3.280  -0.100 -11.406  0.00  0.00    -0.031 C 
ATOM     30  H   LIG d   1       2.955   0.112 -12.424  0.00  0.00     0.031 H 
ATOM     31  H   LIG d   1       2.411  -0.331 -10.788  0.00  0.00     0.031 H 
BRANCH  29  32
ATOM     32  C   LIG d   1       3.988   1.106 -10.843  0.00  0.00    -0.085 C 
ATOM     33  C   LIG d   1       3.615   1.607  -9.692  0.00  0.00    -0.080 C 
ATOM     34  H   LIG d   1       4.803   1.557 -11.390  0.00  0.00     0.057 H 
BRANCH  33  35
ATOM     35  C   LIG d   1       2.613   0.871  -8.838  0.00  0.00    -0.044 C 
ATOM     36  H   LIG d   1       2.489   1.397  -7.891  0.00  0.00     0.027 H 
ATOM     37  H   LIG d   1       1.657   0.826  -9.358  0.00  0.00     0.027 H 
ATOM     38  H   LIG d   1       2.972  -0.140  -8.648  0.00  0.00     0.027 H 
ENDBRANCH  33  35
BRANCH  33  39
ATOM     39  C   LIG d   1       4.187   2.918  -9.220  0.00  0.00    -0.044 C 
ATOM     40  H   LIG d   1       5.027   3.198  -9.856  0.00  0.00     0.027 H 
ATOM     41  H   LIG d   1       3.420   3.690  -9.273  0.00  0.00     0.027 H 
ATOM     42  H   LIG d   1       4.529   2.817  -8.190  0.00  0.00     0.027 H 
ENDBRANCH  33  39
ENDBRANCH  29  32
ENDBRANCH  26  29
ENDBRANCH  20  26
ENDBRANCH  16  19
ENDBRANCH  15  16
ENDBRANCH   2  15
BRANCH   1  43
ATOM     43  C   LIG d   1       9.035   1.539  -8.572  0.00  0.00    -0.033 C 
ATOM     44  H   LIG d   1       8.693   2.497  -8.962  0.00  0.00     0.028 H 
ATOM     45  H   LIG d   1       9.824   1.706  -7.839  0.00  0.00     0.028 H 
ATOM     46  H   LIG d   1       9.421   0.931  -9.390  0.00  0.00     0.028 H 
ENDBRANCH   1  43
BRANCH  11  47
ATOM     47  C   LIG d   1       5.275  -0.294  -3.822  0.00  0.00    -0.017 A 
ATOM     48  C   LIG d   1       5.451  -1.585  -3.324  0.00  0.00    -0.054 A 
ATOM     49  C   LIG d   1       4.406  -2.226  -2.691  0.00  0.00    -0.061 A 
ATOM     50  H   LIG d   1       6.404  -2.081  -3.433  0.00  0.00     0.062 H 
ATOM     51  C   LIG d   1       3.184  -1.592  -2.551  0.00  0.00    -0.062 A 
ATOM     52  H   LIG d   1       4.542  -3.226  -2.305  0.00  0.00     0.062 H 
ATOM     53  C   LIG d   1       3.002  -0.311  -3.044  0.00  0.00    -0.061 A 
ATOM     54  H   LIG d   1       2.370  -2.098  -2.055  0.00  0.00     0.062 H 
ATOM     55  C   LIG d   1       4.042   0.343  -3.673  0.00  0.00    -0.054 A 
ATOM     56  H   LIG d   1       2.047   0.177  -2.932  0.00  0.00     0.062 H 
ATOM     57  H   LIG d   1       3.900   1.344  -4.053  0.00  0.00     0.062 H 
ENDBRANCH  11  47
TORSDOF 11
ENDMDL
MODEL 9
REMARK VINA RESULT:      -5.4      3.208      5.937
REMARK  11 active torsions:
REMARK  status: ('A' for Active; 'I' for Inactive)
REMARK    1  A    between atoms: C_1  and  C_2 
REMARK    2  A    between atoms: C_3  and  O_19 
REMARK    3  A    between atoms: C_12  and  C_13 
REMARK    4  A    between atoms: O_19  and  C_20 
REMARK    5  A    between atoms: C_20  and  C_21 
REMARK    6  A    between atoms: C_22  and  C_23 
REMARK    7  A    between atoms: C_22  and  C_24 
REMARK    8  A    between atoms: C_24  and  C_25 
REMARK    9  A    between atoms: C_25  and  C_26 
REMARK   10  A    between atoms: C_27  and  C_28 
REMARK   11  A    between atoms: C_27  and  C_29 
ROOT
ATOM      1  C   LIG d   1       7.175  -6.128  -5.924  0.00  0.00     0.034 A 
ATOM      2  C   LIG d   1       5.928  -6.660  -6.206  0.00  0.00     0.127 A 
ATOM      3  C   LIG d   1       4.770  -5.947  -5.901  0.00  0.00    -0.019 A 
ATOM      4  C   LIG d   1       4.852  -4.711  -5.326  0.00  0.00    -0.047 A 
ATOM      5  C   LIG d   1       6.102  -4.159  -5.040  0.00  0.00     0.026 A 
ATOM      6  C   LIG d   1       7.275  -4.872  -5.345  0.00  0.00     0.146 A 
ATOM      7  O   LIG d   1       8.483  -4.334  -5.068  0.00  0.00    -0.422 OA
ATOM      8  C   LIG d   1       8.608  -3.124  -4.504  0.00  0.00     0.338 A 
ATOM      9  O   LIG d   1       9.723  -2.689  -4.276  0.00  0.00    -0.245 OA
ATOM     10  C   LIG d   1       7.489  -2.343  -4.167  0.00  0.00     0.031 A 
ATOM     11  C   LIG d   1       6.220  -2.828  -4.420  0.00  0.00    -0.001 A 
ATOM     12  H   LIG d   1       3.804  -6.375  -6.123  0.00  0.00     0.065 H 
ATOM     13  H   LIG d   1       3.951  -4.163  -5.092  0.00  0.00     0.063 H 
ATOM     14  H   LIG d   1       7.619  -1.372  -3.714  0.00  0.00     0.070 H 
ENDROOT
BRANCH   2  15
ATOM     15  O   LIG d   1       5.832  -7.887  -6.778  0.00  0.00    -0.488 OA
BRANCH  15  16
ATOM     16  C   LIG d   1       4.540  -8.496  -6.794  0.00  0.00     0.108 C 
ATOM     17  H   LIG d   1       3.951  -8.122  -5.958  0.00  0.00     0.074 H 
ATOM     18  H   LIG d   1       4.036  -8.256  -7.731  0.00  0.00     0.074 H 
BRANCH  16  19
ATOM     19  C   LIG d   1       4.689  -9.991  -6.674  0.00  0.00    -0.048 C 
ATOM     20  C   LIG d   1       4.556 -10.570  -5.505  0.00  0.00    -0.073 C 
ATOM     21  H   LIG d   1       4.904 -10.586  -7.549  0.00  0.00     0.060 H 
BRANCH  20  22
ATOM     22  C   LIG d   1       4.569 -12.074  -5.404  0.00  0.00    -0.044 C 
ATOM     23  H   LIG d   1       5.566 -12.410  -5.118  0.00  0.00     0.027 H 
ATOM     24  H   LIG d   1       3.848 -12.393  -4.651  0.00  0.00     0.027 H 
ATOM     25  H   LIG d   1       4.303 -12.505  -6.369  0.00  0.00     0.027 H 
ENDBRANCH  20  22
BRANCH  20  26
ATOM     26  C   LIG d   1       4.392  -9.733  -4.264  0.00  0.00    -0.029 C 
ATOM     27  H   LIG d   1       4.477  -8.678  -4.522  0.00  0.00     0.031 H 
ATOM     28  H   LIG d   1       3.411  -9.921  -3.826  0.00  0.00     0.031 H 
BRANCH  26  29
ATOM     29  C   LIG d   1       5.480 -10.101  -3.253  0.00  0.00    -0.031 C 
ATOM     30  H   LIG d   1       5.148  -9.835  -2.250  0.00  0.00     0.031 H 
ATOM     31  H   LIG d   1       5.673 -11.173  -3.301  0.00  0.00     0.031 H 
BRANCH  29  32
ATOM     32  C   LIG d   1       6.744  -9.348  -3.580  0.00  0.00    -0.085 C 
ATOM     33  C   LIG d   1       7.646  -9.149  -2.650  0.00  0.00    -0.080 C 
ATOM     34  H   LIG d   1       6.906  -8.972  -4.579  0.00  0.00     0.057 H 
BRANCH  33  35
ATOM     35  C   LIG d   1       7.516  -9.833  -1.314  0.00  0.00    -0.044 C 
ATOM     36  H   LIG d   1       6.915  -9.214  -0.647  0.00  0.00     0.027 H 
ATOM     37  H   LIG d   1       7.032 -10.801  -1.446  0.00  0.00     0.027 H 
ATOM     38  H   LIG d   1       8.506  -9.978  -0.881  0.00  0.00     0.027 H 
ENDBRANCH  33  35
BRANCH  33  39
ATOM     39  C   LIG d   1       8.815  -8.237  -2.919  0.00  0.00    -0.044 C 
ATOM     40  H   LIG d   1       9.337  -8.031  -1.984  0.00  0.00     0.027 H 
ATOM     41  H   LIG d   1       9.499  -8.719  -3.617  0.00  0.00     0.027 H 
ATOM     42  H   LIG d   1       8.457  -7.302  -3.348  0.00  0.00     0.027 H 
ENDBRANCH  33  39
ENDBRANCH  29  32
ENDBRANCH  26  29
ENDBRANCH  20  26
ENDBRANCH  16  19
ENDBRANCH  15  16
ENDBRANCH   2  15
BRANCH   1  43
ATOM     43  C   LIG d   1       8.423  -6.909  -6.251  0.00  0.00    -0.033 C 
ATOM     44  H   LIG d   1       8.216  -7.976  -6.168  0.00  0.00     0.028 H 
ATOM     45  H   LIG d   1       8.740  -6.678  -7.267  0.00  0.00     0.028 H 
ATOM     46  H   LIG d   1       9.214  -6.639  -5.552  0.00  0.00     0.028 H 
ENDBRANCH   1  43
BRANCH  11  47
ATOM     47  C   LIG d   1       5.017  -2.036  -4.080  0.00  0.00    -0.017 A 
ATOM     48  C   LIG d   1       4.543  -1.067  -4.964  0.00  0.00    -0.054 A 
ATOM     49  C   LIG d   1       3.420  -0.333  -4.642  0.00  0.00    -0.061 A 
ATOM     50  H   LIG d   1       5.053  -0.892  -5.899  0.00  0.00     0.062 H 
ATOM     51  C   LIG d   1       2.765  -0.555  -3.443  0.00  0.00    -0.062 A 
ATOM     52  H   LIG d   1       3.053   0.418  -5.325  0.00  0.00     0.062 H 
ATOM     53  C   LIG d   1       3.230  -1.515  -2.561  0.00  0.00    -0.061 A 
ATOM     54  H   LIG d   1       1.887   0.022  -3.196  0.00  0.00     0.062 H 
ATOM     55  C   LIG d   1       4.349  -2.260  -2.875  0.00  0.00    -0.054 A 
ATOM     56  H   LIG d   1       2.715  -1.683  -1.628  0.00  0.00     0.062 H 
ATOM     57  H   LIG d   1       4.708  -3.012  -2.188  0.00  0.00     0.062 H 
ENDBRANCH  11  47
TORSDOF 11
ENDMDL
