MODEL 1
REMARK VINA RESULT:      -6.6      0.000      0.000
REMARK  11 active torsions:
REMARK  status: ('A' for Active; 'I' for Inactive)
REMARK    1  A    between atoms: C_1  and  N_2 
REMARK    2  A    between atoms: N_2  and  C_3 
REMARK    3  A    between atoms: N_2  and  C_15 
REMARK    4  A    between atoms: C_3  and  C_4 
REMARK    5  A    between atoms: C_4  and  C_5 
REMARK    6  A    between atoms: C_8  and  O_13 
REMARK    7  A    between atoms: C_9  and  O_11 
REMARK    8  A    between atoms: O_11  and  C_12 
REMARK    9  A    between atoms: O_13  and  C_14 
REMARK   10  A    between atoms: C_25  and  O_26 
REMARK   11  A    between atoms: O_26  and  C_27 
ROOT
ATOM      1  N   LIG d   1       3.939  -4.836  -6.322  0.00  0.00    -0.316 NA
ENDROOT
BRANCH   1   2
ATOM      2  C   LIG d   1       3.769  -5.421  -7.658  0.00  0.00     0.002 C 
ATOM      3  H   LIG d   1       3.486  -6.469  -7.563  0.00  0.00     0.043 H 
ATOM      4  H   LIG d   1       2.988  -4.882  -8.194  0.00  0.00     0.043 H 
ATOM      5  H   LIG d   1       4.706  -5.346  -8.210  0.00  0.00     0.043 H 
ENDBRANCH   1   2
BRANCH   1   6
ATOM      6  C   LIG d   1       4.533  -5.807  -5.394  0.00  0.00     0.017 C 
ATOM      7  H   LIG d   1       3.833  -6.010  -4.583  0.00  0.00     0.047 H 
ATOM      8  H   LIG d   1       5.457  -5.399  -4.983  0.00  0.00     0.047 H 
BRANCH   6   9
ATOM      9  C   LIG d   1       4.836  -7.107  -6.142  0.00  0.00    -0.012 C 
ATOM     10  H   LIG d   1       5.523  -6.901  -6.964  0.00  0.00     0.033 H 
ATOM     11  H   LIG d   1       3.910  -7.523  -6.539  0.00  0.00     0.033 H 
BRANCH   9  12
ATOM     12  C   LIG d   1       5.468  -8.096  -5.195  0.00  0.00    -0.042 A 
ATOM     13  C   LIG d   1       4.695  -9.082  -4.612  0.00  0.00    -0.013 A 
ATOM     14  C   LIG d   1       5.273  -9.991  -3.741  0.00  0.00     0.162 A 
ATOM     15  H   LIG d   1       3.640  -9.144  -4.835  0.00  0.00     0.066 H 
ATOM     16  C   LIG d   1       6.632  -9.908  -3.455  0.00  0.00     0.162 A 
ATOM     17  C   LIG d   1       7.401  -8.917  -4.044  0.00  0.00    -0.016 A 
ATOM     18  C   LIG d   1       6.817  -8.009  -4.907  0.00  0.00    -0.055 A 
ATOM     19  H   LIG d   1       8.457  -8.851  -3.824  0.00  0.00     0.066 H 
ATOM     20  H   LIG d   1       7.417  -7.234  -5.361  0.00  0.00     0.062 H 
BRANCH  14  21
ATOM     21  O   LIG d   1       4.513 -10.962  -3.167  0.00  0.00    -0.491 OA
BRANCH  21  22
ATOM     22  C   LIG d   1       3.136 -11.016  -3.541  0.00  0.00     0.079 C 
ATOM     23  H   LIG d   1       2.652 -10.075  -3.283  0.00  0.00     0.066 H 
ATOM     24  H   LIG d   1       3.057 -11.181  -4.616  0.00  0.00     0.066 H 
ATOM     25  H   LIG d   1       2.647 -11.833  -3.013  0.00  0.00     0.066 H 
ENDBRANCH  21  22
ENDBRANCH  14  21
BRANCH  16  26
ATOM     26  O   LIG d   1       7.204 -10.798  -2.602  0.00  0.00    -0.491 OA
BRANCH  26  27
ATOM     27  C   LIG d   1       7.468 -10.345  -1.272  0.00  0.00     0.079 C 
ATOM     28  H   LIG d   1       8.544 -10.321  -1.104  0.00  0.00     0.066 H 
ATOM     29  H   LIG d   1       7.058  -9.344  -1.141  0.00  0.00     0.066 H 
ATOM     30  H   LIG d   1       7.003 -11.024  -0.557  0.00  0.00     0.066 H 
ENDBRANCH  26  27
ENDBRANCH  16  26
ENDBRANCH   9  12
ENDBRANCH   6   9
ENDBRANCH   1   6
BRANCH   1  31
ATOM     31  C   LIG d   1       4.698  -3.676  -6.381  0.00  0.00     0.148 A 
ATOM     32  N   LIG d   1       5.465  -3.422  -7.435  0.00  0.00    -0.219 NA
ATOM     33  C   LIG d   1       6.189  -2.319  -7.506  0.00  0.00     0.119 A 
ATOM     34  N   LIG d   1       6.199  -1.425  -6.542  0.00  0.00    -0.233 NA
ATOM     35  H   LIG d   1       6.796  -2.149  -8.382  0.00  0.00     0.105 H 
ATOM     36  C   LIG d   1       5.463  -1.602  -5.444  0.00  0.00     0.105 A 
ATOM     37  C   LIG d   1       4.675  -2.754  -5.326  0.00  0.00     0.107 A 
ATOM     38  C   LIG d   1       5.249  -0.824  -4.215  0.00  0.00     0.067 A 
ATOM     39  N   LIG d   1       4.011  -2.710  -4.115  0.00  0.00    -0.350 N 
ATOM     40  C   LIG d   1       4.344  -1.556  -3.431  0.00  0.00     0.053 A 
ATOM     41  H   LIG d   1       3.400  -3.391  -3.791  0.00  0.00     0.166 HD
ATOM     42  C   LIG d   1       3.951  -1.054  -2.194  0.00  0.00    -0.037 A 
ATOM     43  C   LIG d   1       4.449   0.150  -1.745  0.00  0.00    -0.056 A 
ATOM     44  H   LIG d   1       3.255  -1.610  -1.582  0.00  0.00     0.064 H 
ATOM     45  C   LIG d   1       5.343   0.876  -2.516  0.00  0.00    -0.019 A 
ATOM     46  H   LIG d   1       4.140   0.532  -0.784  0.00  0.00     0.062 H 
ATOM     47  C   LIG d   1       5.747   0.398  -3.749  0.00  0.00     0.131 A 
ATOM     48  H   LIG d   1       5.725   1.818  -2.153  0.00  0.00     0.065 H 
BRANCH  47  49
ATOM     49  O   LIG d   1       6.623   1.109  -4.504  0.00  0.00    -0.494 OA
BRANCH  49  50
ATOM     50  C   LIG d   1       7.784   1.618  -3.843  0.00  0.00     0.079 C 
ATOM     51  H   LIG d   1       8.232   0.830  -3.238  0.00  0.00     0.066 H 
ATOM     52  H   LIG d   1       8.504   1.960  -4.586  0.00  0.00     0.066 H 
ATOM     53  H   LIG d   1       7.501   2.452  -3.201  0.00  0.00     0.066 H 
ENDBRANCH  49  50
ENDBRANCH  47  49
ENDBRANCH   1  31
TORSDOF 11
ENDMDL
MODEL 2
REMARK VINA RESULT:      -6.5      4.499      7.300
REMARK  11 active torsions:
REMARK  status: ('A' for Active; 'I' for Inactive)
REMARK    1  A    between atoms: C_1  and  N_2 
REMARK    2  A    between atoms: N_2  and  C_3 
REMARK    3  A    between atoms: N_2  and  C_15 
REMARK    4  A    between atoms: C_3  and  C_4 
REMARK    5  A    between atoms: C_4  and  C_5 
REMARK    6  A    between atoms: C_8  and  O_13 
REMARK    7  A    between atoms: C_9  and  O_11 
REMARK    8  A    between atoms: O_11  and  C_12 
REMARK    9  A    between atoms: O_13  and  C_14 
REMARK   10  A    between atoms: C_25  and  O_26 
REMARK   11  A    between atoms: O_26  and  C_27 
ROOT
ATOM      1  N   LIG d   1       4.370  -4.031  -6.323  0.00  0.00    -0.316 NA
ENDROOT
BRANCH   1   2
ATOM      2  C   LIG d   1       3.975  -5.437  -6.474  0.00  0.00     0.002 C 
ATOM      3  H   LIG d   1       3.358  -5.548  -7.366  0.00  0.00     0.043 H 
ATOM      4  H   LIG d   1       4.866  -6.057  -6.570  0.00  0.00     0.043 H 
ATOM      5  H   LIG d   1       3.407  -5.751  -5.599  0.00  0.00     0.043 H 
ENDBRANCH   1   2
BRANCH   1   6
ATOM      6  C   LIG d   1       5.453  -3.890  -5.341  0.00  0.00     0.017 C 
ATOM      7  H   LIG d   1       6.255  -3.288  -5.768  0.00  0.00     0.047 H 
ATOM      8  H   LIG d   1       5.838  -4.876  -5.080  0.00  0.00     0.047 H 
BRANCH   6   9
ATOM      9  C   LIG d   1       4.914  -3.203  -4.084  0.00  0.00    -0.012 C 
ATOM     10  H   LIG d   1       5.110  -3.832  -3.215  0.00  0.00     0.033 H 
ATOM     11  H   LIG d   1       3.840  -3.048  -4.186  0.00  0.00     0.033 H 
BRANCH   9  12
ATOM     12  C   LIG d   1       5.600  -1.873  -3.906  0.00  0.00    -0.042 A 
ATOM     13  C   LIG d   1       5.058  -0.926  -3.058  0.00  0.00    -0.013 A 
ATOM     14  C   LIG d   1       5.687   0.297  -2.893  0.00  0.00     0.162 A 
ATOM     15  H   LIG d   1       4.144  -1.140  -2.523  0.00  0.00     0.066 H 
ATOM     16  C   LIG d   1       6.864   0.570  -3.584  0.00  0.00     0.162 A 
ATOM     17  C   LIG d   1       7.402  -0.384  -4.433  0.00  0.00    -0.016 A 
ATOM     18  C   LIG d   1       6.766  -1.600  -4.597  0.00  0.00    -0.055 A 
ATOM     19  H   LIG d   1       8.315  -0.175  -4.969  0.00  0.00     0.066 H 
ATOM     20  H   LIG d   1       7.184  -2.340  -5.263  0.00  0.00     0.062 H 
BRANCH  14  21
ATOM     21  O   LIG d   1       5.154   1.230  -2.058  0.00  0.00    -0.491 OA
BRANCH  21  22
ATOM     22  C   LIG d   1       3.753   1.482  -2.175  0.00  0.00     0.079 C 
ATOM     23  H   LIG d   1       3.251   0.585  -2.537  0.00  0.00     0.066 H 
ATOM     24  H   LIG d   1       3.350   1.755  -1.199  0.00  0.00     0.066 H 
ATOM     25  H   LIG d   1       3.588   2.299  -2.876  0.00  0.00     0.066 H 
ENDBRANCH  21  22
ENDBRANCH  14  21
BRANCH  16  26
ATOM     26  O   LIG d   1       7.484   1.769  -3.425  0.00  0.00    -0.491 OA
BRANCH  26  27
ATOM     27  C   LIG d   1       8.389   2.173  -4.455  0.00  0.00     0.079 C 
ATOM     28  H   LIG d   1       9.394   1.830  -4.210  0.00  0.00     0.066 H 
ATOM     29  H   LIG d   1       8.078   1.737  -5.404  0.00  0.00     0.066 H 
ATOM     30  H   LIG d   1       8.387   3.260  -4.536  0.00  0.00     0.066 H 
ENDBRANCH  26  27
ENDBRANCH  16  26
ENDBRANCH   9  12
ENDBRANCH   6   9
ENDBRANCH   1   6
BRANCH   1  31
ATOM     31  C   LIG d   1       4.733  -3.484  -7.545  0.00  0.00     0.148 A 
ATOM     32  N   LIG d   1       5.459  -4.183  -8.412  0.00  0.00    -0.219 NA
ATOM     33  C   LIG d   1       5.807  -3.676  -9.580  0.00  0.00     0.119 A 
ATOM     34  N   LIG d   1       5.468  -2.458  -9.944  0.00  0.00    -0.233 NA
ATOM     35  H   LIG d   1       6.394  -4.279 -10.257  0.00  0.00     0.105 H 
ATOM     36  C   LIG d   1       4.746  -1.684  -9.135  0.00  0.00     0.105 A 
ATOM     37  C   LIG d   1       4.349  -2.181  -7.886  0.00  0.00     0.107 A 
ATOM     38  C   LIG d   1       4.212  -0.317  -9.227  0.00  0.00     0.067 A 
ATOM     39  N   LIG d   1       3.617  -1.204  -7.237  0.00  0.00    -0.350 N 
ATOM     40  C   LIG d   1       3.525  -0.074  -8.028  0.00  0.00     0.053 A 
ATOM     41  H   LIG d   1       3.226  -1.297  -6.354  0.00  0.00     0.166 HD
ATOM     42  C   LIG d   1       2.906   1.158  -7.833  0.00  0.00    -0.037 A 
ATOM     43  C   LIG d   1       2.972   2.128  -8.810  0.00  0.00    -0.056 A 
ATOM     44  H   LIG d   1       2.375   1.355  -6.913  0.00  0.00     0.064 H 
ATOM     45  C   LIG d   1       3.649   1.892  -9.995  0.00  0.00    -0.019 A 
ATOM     46  H   LIG d   1       2.489   3.081  -8.650  0.00  0.00     0.062 H 
ATOM     47  C   LIG d   1       4.271   0.675 -10.212  0.00  0.00     0.131 A 
ATOM     48  H   LIG d   1       3.692   2.660 -10.753  0.00  0.00     0.065 H 
BRANCH  47  49
ATOM     49  O   LIG d   1       4.935   0.445 -11.373  0.00  0.00    -0.494 OA
BRANCH  49  50
ATOM     50  C   LIG d   1       4.205  -0.196 -12.422  0.00  0.00     0.079 C 
ATOM     51  H   LIG d   1       4.841  -0.937 -12.906  0.00  0.00     0.066 H 
ATOM     52  H   LIG d   1       3.326  -0.688 -12.005  0.00  0.00     0.066 H 
ATOM     53  H   LIG d   1       3.892   0.548 -13.154  0.00  0.00     0.066 H 
ENDBRANCH  49  50
ENDBRANCH  47  49
ENDBRANCH   1  31
TORSDOF 11
ENDMDL
MODEL 3
REMARK VINA RESULT:      -6.5      1.801      2.389
REMARK  11 active torsions:
REMARK  status: ('A' for Active; 'I' for Inactive)
REMARK    1  A    between atoms: C_1  and  N_2 
REMARK    2  A    between atoms: N_2  and  C_3 
REMARK    3  A    between atoms: N_2  and  C_15 
REMARK    4  A    between atoms: C_3  and  C_4 
REMARK    5  A    between atoms: C_4  and  C_5 
REMARK    6  A    between atoms: C_8  and  O_13 
REMARK    7  A    between atoms: C_9  and  O_11 
REMARK    8  A    between atoms: O_11  and  C_12 
REMARK    9  A    between atoms: O_13  and  C_14 
REMARK   10  A    between atoms: C_25  and  O_26 
REMARK   11  A    between atoms: O_26  and  C_27 
ROOT
ATOM      1  N   LIG d   1       4.274  -5.125  -5.566  0.00  0.00    -0.316 NA
ENDROOT
BRANCH   1   2
ATOM      2  C   LIG d   1       3.807  -4.926  -6.944  0.00  0.00     0.002 C 
ATOM      3  H   LIG d   1       3.594  -3.870  -7.107  0.00  0.00     0.043 H 
ATOM      4  H   LIG d   1       4.580  -5.252  -7.640  0.00  0.00     0.043 H 
ATOM      5  H   LIG d   1       2.901  -5.508  -7.108  0.00  0.00     0.043 H 
ENDBRANCH   1   2
BRANCH   1   6
ATOM      6  C   LIG d   1       4.764  -6.495  -5.368  0.00  0.00     0.017 C 
ATOM      7  H   LIG d   1       4.149  -6.997  -4.620  0.00  0.00     0.047 H 
ATOM      8  H   LIG d   1       5.799  -6.465  -5.026  0.00  0.00     0.047 H 
BRANCH   6   9
ATOM      9  C   LIG d   1       4.685  -7.260  -6.690  0.00  0.00    -0.012 C 
ATOM     10  H   LIG d   1       5.550  -7.012  -7.306  0.00  0.00     0.033 H 
ATOM     11  H   LIG d   1       3.772  -6.982  -7.217  0.00  0.00     0.033 H 
BRANCH   9  12
ATOM     12  C   LIG d   1       4.675  -8.742  -6.413  0.00  0.00    -0.042 A 
ATOM     13  C   LIG d   1       4.657  -9.199  -5.109  0.00  0.00    -0.013 A 
ATOM     14  C   LIG d   1       4.648 -10.560  -4.852  0.00  0.00     0.162 A 
ATOM     15  H   LIG d   1       4.650  -8.495  -4.290  0.00  0.00     0.066 H 
ATOM     16  C   LIG d   1       4.658 -11.465  -5.909  0.00  0.00     0.162 A 
ATOM     17  C   LIG d   1       4.676 -10.999  -7.215  0.00  0.00    -0.016 A 
ATOM     18  C   LIG d   1       4.691  -9.640  -7.463  0.00  0.00    -0.055 A 
ATOM     19  H   LIG d   1       4.683 -11.700  -8.037  0.00  0.00     0.066 H 
ATOM     20  H   LIG d   1       4.710  -9.279  -8.481  0.00  0.00     0.062 H 
BRANCH  14  21
ATOM     21  O   LIG d   1       4.630 -11.012  -3.569  0.00  0.00    -0.491 OA
BRANCH  21  22
ATOM     22  C   LIG d   1       5.655 -10.532  -2.697  0.00  0.00     0.079 C 
ATOM     23  H   LIG d   1       5.827 -11.258  -1.904  0.00  0.00     0.066 H 
ATOM     24  H   LIG d   1       6.576 -10.387  -3.264  0.00  0.00     0.066 H 
ATOM     25  H   LIG d   1       5.346  -9.583  -2.261  0.00  0.00     0.066 H 
ENDBRANCH  21  22
ENDBRANCH  14  21
BRANCH  16  26
ATOM     26  O   LIG d   1       4.650 -12.802  -5.663  0.00  0.00    -0.491 OA
BRANCH  26  27
ATOM     27  C   LIG d   1       4.233 -13.656  -6.729  0.00  0.00     0.079 C 
ATOM     28  H   LIG d   1       4.648 -14.652  -6.580  0.00  0.00     0.066 H 
ATOM     29  H   LIG d   1       3.145 -13.715  -6.744  0.00  0.00     0.066 H 
ATOM     30  H   LIG d   1       4.588 -13.254  -7.678  0.00  0.00     0.066 H 
ENDBRANCH  26  27
ENDBRANCH  16  26
ENDBRANCH   9  12
ENDBRANCH   6   9
ENDBRANCH   1   6
BRANCH   1  31
ATOM     31  C   LIG d   1       5.248  -4.195  -5.233  0.00  0.00     0.148 A 
ATOM     32  N   LIG d   1       6.523  -4.410  -5.541  0.00  0.00    -0.219 NA
ATOM     33  C   LIG d   1       7.460  -3.531  -5.234  0.00  0.00     0.119 A 
ATOM     34  N   LIG d   1       7.188  -2.409  -4.602  0.00  0.00    -0.233 NA
ATOM     35  H   LIG d   1       8.483  -3.743  -5.506  0.00  0.00     0.105 H 
ATOM     36  C   LIG d   1       5.937  -2.115  -4.249  0.00  0.00     0.105 A 
ATOM     37  C   LIG d   1       4.908  -3.015  -4.558  0.00  0.00     0.107 A 
ATOM     38  C   LIG d   1       5.305  -0.984  -3.556  0.00  0.00     0.067 A 
ATOM     39  N   LIG d   1       3.715  -2.493  -4.096  0.00  0.00    -0.350 N 
ATOM     40  C   LIG d   1       3.933  -1.272  -3.489  0.00  0.00     0.053 A 
ATOM     41  H   LIG d   1       2.849  -2.923  -4.184  0.00  0.00     0.166 HD
ATOM     42  C   LIG d   1       3.074  -0.363  -2.877  0.00  0.00    -0.037 A 
ATOM     43  C   LIG d   1       3.569   0.806  -2.342  0.00  0.00    -0.056 A 
ATOM     44  H   LIG d   1       2.016  -0.575  -2.820  0.00  0.00     0.064 H 
ATOM     45  C   LIG d   1       4.923   1.095  -2.405  0.00  0.00    -0.019 A 
ATOM     46  H   LIG d   1       2.896   1.505  -1.869  0.00  0.00     0.062 H 
ATOM     47  C   LIG d   1       5.796   0.207  -3.009  0.00  0.00     0.131 A 
ATOM     48  H   LIG d   1       5.298   2.015  -1.983  0.00  0.00     0.065 H 
BRANCH  47  49
ATOM     49  O   LIG d   1       7.122   0.489  -3.070  0.00  0.00    -0.494 OA
BRANCH  49  50
ATOM     50  C   LIG d   1       7.509   1.619  -3.856  0.00  0.00     0.079 C 
ATOM     51  H   LIG d   1       8.552   1.512  -4.155  0.00  0.00     0.066 H 
ATOM     52  H   LIG d   1       6.881   1.676  -4.745  0.00  0.00     0.066 H 
ATOM     53  H   LIG d   1       7.391   2.528  -3.268  0.00  0.00     0.066 H 
ENDBRANCH  49  50
ENDBRANCH  47  49
ENDBRANCH   1  31
TORSDOF 11
ENDMDL
MODEL 4
REMARK VINA RESULT:      -6.4      4.779     11.344
REMARK  11 active torsions:
REMARK  status: ('A' for Active; 'I' for Inactive)
REMARK    1  A    between atoms: C_1  and  N_2 
REMARK    2  A    between atoms: N_2  and  C_3 
REMARK    3  A    between atoms: N_2  and  C_15 
REMARK    4  A    between atoms: C_3  and  C_4 
REMARK    5  A    between atoms: C_4  and  C_5 
REMARK    6  A    between atoms: C_8  and  O_13 
REMARK    7  A    between atoms: C_9  and  O_11 
REMARK    8  A    between atoms: O_11  and  C_12 
REMARK    9  A    between atoms: O_13  and  C_14 
REMARK   10  A    between atoms: C_25  and  O_26 
REMARK   11  A    between atoms: O_26  and  C_27 
ROOT
ATOM      1  N   LIG d   1       9.654   2.265  -4.668  0.00  0.00    -0.316 NA
ENDROOT
BRANCH   1   2
ATOM      2  C   LIG d   1       9.115   3.086  -5.760  0.00  0.00     0.002 C 
ATOM      3  H   LIG d   1       9.198   4.140  -5.497  0.00  0.00     0.043 H 
ATOM      4  H   LIG d   1       9.680   2.895  -6.672  0.00  0.00     0.043 H 
ATOM      5  H   LIG d   1       8.067   2.834  -5.922  0.00  0.00     0.043 H 
ENDBRANCH   1   2
BRANCH   1   6
ATOM      6  C   LIG d   1       9.456   2.920  -3.369  0.00  0.00     0.017 C 
ATOM      7  H   LIG d   1       9.049   2.201  -2.657  0.00  0.00     0.047 H 
ATOM      8  H   LIG d   1       8.760   3.752  -3.483  0.00  0.00     0.047 H 
BRANCH   6   9
ATOM      9  C   LIG d   1      10.797   3.444  -2.853  0.00  0.00    -0.012 C 
ATOM     10  H   LIG d   1      11.482   3.577  -3.692  0.00  0.00     0.033 H 
ATOM     11  H   LIG d   1      11.221   2.728  -2.149  0.00  0.00     0.033 H 
BRANCH   9  12
ATOM     12  C   LIG d   1      10.588   4.766  -2.161  0.00  0.00    -0.042 A 
ATOM     13  C   LIG d   1      11.153   4.992  -0.920  0.00  0.00    -0.013 A 
ATOM     14  C   LIG d   1      10.961   6.206  -0.282  0.00  0.00     0.162 A 
ATOM     15  H   LIG d   1      11.744   4.222  -0.447  0.00  0.00     0.066 H 
ATOM     16  C   LIG d   1      10.198   7.197  -0.892  0.00  0.00     0.162 A 
ATOM     17  C   LIG d   1       9.634   6.964  -2.136  0.00  0.00    -0.016 A 
ATOM     18  C   LIG d   1       9.825   5.748  -2.765  0.00  0.00    -0.055 A 
ATOM     19  H   LIG d   1       9.042   7.732  -2.612  0.00  0.00     0.066 H 
ATOM     20  H   LIG d   1       9.380   5.566  -3.732  0.00  0.00     0.062 H 
BRANCH  14  21
ATOM     21  O   LIG d   1      11.517   6.430   0.940  0.00  0.00    -0.491 OA
BRANCH  21  22
ATOM     22  C   LIG d   1      10.961   5.719   2.047  0.00  0.00     0.079 C 
ATOM     23  H   LIG d   1       9.994   5.304   1.763  0.00  0.00     0.066 H 
ATOM     24  H   LIG d   1      11.633   4.911   2.335  0.00  0.00     0.066 H 
ATOM     25  H   LIG d   1      10.831   6.400   2.888  0.00  0.00     0.066 H 
ENDBRANCH  21  22
ENDBRANCH  14  21
BRANCH  16  26
ATOM     26  O   LIG d   1      10.007   8.390  -0.270  0.00  0.00    -0.491 OA
BRANCH  26  27
ATOM     27  C   LIG d   1       8.986   9.241  -0.796  0.00  0.00     0.079 C 
ATOM     28  H   LIG d   1       8.013   8.904  -0.439  0.00  0.00     0.066 H 
ATOM     29  H   LIG d   1       9.160  10.264  -0.466  0.00  0.00     0.066 H 
ATOM     30  H   LIG d   1       9.006   9.202  -1.885  0.00  0.00     0.066 H 
ENDBRANCH  26  27
ENDBRANCH  16  26
ENDBRANCH   9  12
ENDBRANCH   6   9
ENDBRANCH   1   6
BRANCH   1  31
ATOM     31  C   LIG d   1       9.090   0.997  -4.676  0.00  0.00     0.148 A 
ATOM     32  N   LIG d   1       9.741  -0.030  -5.212  0.00  0.00    -0.219 NA
ATOM     33  C   LIG d   1       9.218  -1.243  -5.223  0.00  0.00     0.119 A 
ATOM     34  N   LIG d   1       8.031  -1.498  -4.717  0.00  0.00    -0.233 NA
ATOM     35  H   LIG d   1       9.782  -2.050  -5.665  0.00  0.00     0.105 H 
ATOM     36  C   LIG d   1       7.305  -0.526  -4.164  0.00  0.00     0.105 A 
ATOM     37  C   LIG d   1       7.821   0.777  -4.126  0.00  0.00     0.107 A 
ATOM     38  C   LIG d   1       5.982  -0.468  -3.527  0.00  0.00     0.067 A 
ATOM     39  N   LIG d   1       6.895   1.597  -3.510  0.00  0.00    -0.350 N 
ATOM     40  C   LIG d   1       5.781   0.867  -3.143  0.00  0.00     0.053 A 
ATOM     41  H   LIG d   1       7.010   2.549  -3.358  0.00  0.00     0.166 HD
ATOM     42  C   LIG d   1       4.596   1.223  -2.505  0.00  0.00    -0.037 A 
ATOM     43  C   LIG d   1       3.631   0.271  -2.256  0.00  0.00    -0.056 A 
ATOM     44  H   LIG d   1       4.431   2.248  -2.206  0.00  0.00     0.064 H 
ATOM     45  C   LIG d   1       3.825  -1.048  -2.633  0.00  0.00    -0.019 A 
ATOM     46  H   LIG d   1       2.714   0.556  -1.761  0.00  0.00     0.062 H 
ATOM     47  C   LIG d   1       4.995  -1.425  -3.268  0.00  0.00     0.131 A 
ATOM     48  H   LIG d   1       3.061  -1.783  -2.431  0.00  0.00     0.065 H 
BRANCH  47  49
ATOM     49  O   LIG d   1       5.184  -2.717  -3.638  0.00  0.00    -0.494 OA
BRANCH  49  50
ATOM     50  C   LIG d   1       4.706  -3.099  -4.930  0.00  0.00     0.079 C 
ATOM     51  H   LIG d   1       3.819  -3.722  -4.819  0.00  0.00     0.066 H 
ATOM     52  H   LIG d   1       4.453  -2.206  -5.502  0.00  0.00     0.066 H 
ATOM     53  H   LIG d   1       5.480  -3.659  -5.454  0.00  0.00     0.066 H 
ENDBRANCH  49  50
ENDBRANCH  47  49
ENDBRANCH   1  31
TORSDOF 11
ENDMDL
MODEL 5
REMARK VINA RESULT:      -6.3      1.526      2.220
REMARK  11 active torsions:
REMARK  status: ('A' for Active; 'I' for Inactive)
REMARK    1  A    between atoms: C_1  and  N_2 
REMARK    2  A    between atoms: N_2  and  C_3 
REMARK    3  A    between atoms: N_2  and  C_15 
REMARK    4  A    between atoms: C_3  and  C_4 
REMARK    5  A    between atoms: C_4  and  C_5 
REMARK    6  A    between atoms: C_8  and  O_13 
REMARK    7  A    between atoms: C_9  and  O_11 
REMARK    8  A    between atoms: O_11  and  C_12 
REMARK    9  A    between atoms: O_13  and  C_14 
REMARK   10  A    between atoms: C_25  and  O_26 
REMARK   11  A    between atoms: O_26  and  C_27 
ROOT
ATOM      1  N   LIG d   1       5.030  -6.013  -5.903  0.00  0.00    -0.316 NA
ENDROOT
BRANCH   1   2
ATOM      2  C   LIG d   1       4.081  -5.711  -6.982  0.00  0.00     0.002 C 
ATOM      3  H   LIG d   1       4.507  -6.016  -7.938  0.00  0.00     0.043 H 
ATOM      4  H   LIG d   1       3.151  -6.252  -6.811  0.00  0.00     0.043 H 
ATOM      5  H   LIG d   1       3.880  -4.640  -7.000  0.00  0.00     0.043 H 
ENDBRANCH   1   2
BRANCH   1   6
ATOM      6  C   LIG d   1       5.792  -7.233  -6.199  0.00  0.00     0.017 C 
ATOM      7  H   LIG d   1       6.671  -7.278  -5.555  0.00  0.00     0.047 H 
ATOM      8  H   LIG d   1       6.107  -7.221  -7.243  0.00  0.00     0.047 H 
BRANCH   6   9
ATOM      9  C   LIG d   1       4.912  -8.459  -5.945  0.00  0.00    -0.012 C 
ATOM     10  H   LIG d   1       5.068  -9.189  -6.740  0.00  0.00     0.033 H 
ATOM     11  H   LIG d   1       3.865  -8.157  -5.930  0.00  0.00     0.033 H 
BRANCH   9  12
ATOM     12  C   LIG d   1       5.279  -9.074  -4.618  0.00  0.00    -0.042 A 
ATOM     13  C   LIG d   1       6.563  -8.938  -4.127  0.00  0.00    -0.013 A 
ATOM     14  C   LIG d   1       6.901  -9.503  -2.908  0.00  0.00     0.162 A 
ATOM     15  H   LIG d   1       7.303  -8.391  -4.692  0.00  0.00     0.066 H 
ATOM     16  C   LIG d   1       5.947 -10.207  -2.182  0.00  0.00     0.162 A 
ATOM     17  C   LIG d   1       4.660 -10.340  -2.681  0.00  0.00    -0.016 A 
ATOM     18  C   LIG d   1       4.331  -9.778  -3.900  0.00  0.00    -0.055 A 
ATOM     19  H   LIG d   1       3.917 -10.886  -2.119  0.00  0.00     0.066 H 
ATOM     20  H   LIG d   1       3.330  -9.887  -4.290  0.00  0.00     0.062 H 
BRANCH  14  21
ATOM     21  O   LIG d   1       8.165  -9.370  -2.423  0.00  0.00    -0.491 OA
BRANCH  21  22
ATOM     22  C   LIG d   1       9.172 -10.206  -2.995  0.00  0.00     0.079 C 
ATOM     23  H   LIG d   1       8.813 -10.613  -3.939  0.00  0.00     0.066 H 
ATOM     24  H   LIG d   1      10.075  -9.619  -3.172  0.00  0.00     0.066 H 
ATOM     25  H   LIG d   1       9.400 -11.022  -2.310  0.00  0.00     0.066 H 
ENDBRANCH  21  22
ENDBRANCH  14  21
BRANCH  16  26
ATOM     26  O   LIG d   1       6.274 -10.764  -0.986  0.00  0.00    -0.491 OA
BRANCH  26  27
ATOM     27  C   LIG d   1       6.524 -12.171  -0.971  0.00  0.00     0.079 C 
ATOM     28  H   LIG d   1       5.837 -12.669  -1.655  0.00  0.00     0.066 H 
ATOM     29  H   LIG d   1       7.550 -12.361  -1.284  0.00  0.00     0.066 H 
ATOM     30  H   LIG d   1       6.374 -12.556   0.038  0.00  0.00     0.066 H 
ENDBRANCH  26  27
ENDBRANCH  16  26
ENDBRANCH   9  12
ENDBRANCH   6   9
ENDBRANCH   1   6
BRANCH   1  31
ATOM     31  C   LIG d   1       5.878  -4.940  -5.673  0.00  0.00     0.148 A 
ATOM     32  N   LIG d   1       7.085  -4.900  -6.229  0.00  0.00    -0.219 NA
ATOM     33  C   LIG d   1       7.901  -3.882  -6.022  0.00  0.00     0.119 A 
ATOM     34  N   LIG d   1       7.573  -2.866  -5.253  0.00  0.00    -0.233 NA
ATOM     35  H   LIG d   1       8.871  -3.887  -6.495  0.00  0.00     0.105 H 
ATOM     36  C   LIG d   1       6.384  -2.827  -4.652  0.00  0.00     0.105 A 
ATOM     37  C   LIG d   1       5.483  -3.882  -4.845  0.00  0.00     0.107 A 
ATOM     38  C   LIG d   1       5.718  -1.871  -3.755  0.00  0.00     0.067 A 
ATOM     39  N   LIG d   1       4.332  -3.615  -4.127  0.00  0.00    -0.350 N 
ATOM     40  C   LIG d   1       4.455  -2.409  -3.463  0.00  0.00     0.053 A 
ATOM     41  H   LIG d   1       3.552  -4.191  -4.092  0.00  0.00     0.166 HD
ATOM     42  C   LIG d   1       3.592  -1.709  -2.625  0.00  0.00    -0.037 A 
ATOM     43  C   LIG d   1       3.977  -0.500  -2.088  0.00  0.00    -0.056 A 
ATOM     44  H   LIG d   1       2.617  -2.115  -2.394  0.00  0.00     0.064 H 
ATOM     45  C   LIG d   1       5.223   0.035  -2.373  0.00  0.00    -0.019 A 
ATOM     46  H   LIG d   1       3.301   0.036  -1.438  0.00  0.00     0.062 H 
ATOM     47  C   LIG d   1       6.098  -0.642  -3.204  0.00  0.00     0.131 A 
ATOM     48  H   LIG d   1       5.512   0.984  -1.946  0.00  0.00     0.065 H 
BRANCH  47  49
ATOM     49  O   LIG d   1       7.319  -0.118  -3.482  0.00  0.00    -0.494 OA
BRANCH  49  50
ATOM     50  C   LIG d   1       7.379   0.874  -4.510  0.00  0.00     0.079 C 
ATOM     51  H   LIG d   1       7.898   1.756  -4.133  0.00  0.00     0.066 H 
ATOM     52  H   LIG d   1       7.920   0.474  -5.369  0.00  0.00     0.066 H 
ATOM     53  H   LIG d   1       6.369   1.147  -4.812  0.00  0.00     0.066 H 
ENDBRANCH  49  50
ENDBRANCH  47  49
ENDBRANCH   1  31
TORSDOF 11
ENDMDL
MODEL 6
REMARK VINA RESULT:      -6.3      4.783     11.225
REMARK  11 active torsions:
REMARK  status: ('A' for Active; 'I' for Inactive)
REMARK    1  A    between atoms: C_1  and  N_2 
REMARK    2  A    between atoms: N_2  and  C_3 
REMARK    3  A    between atoms: N_2  and  C_15 
REMARK    4  A    between atoms: C_3  and  C_4 
REMARK    5  A    between atoms: C_4  and  C_5 
REMARK    6  A    between atoms: C_8  and  O_13 
REMARK    7  A    between atoms: C_9  and  O_11 
REMARK    8  A    between atoms: O_11  and  C_12 
REMARK    9  A    between atoms: O_13  and  C_14 
REMARK   10  A    between atoms: C_25  and  O_26 
REMARK   11  A    between atoms: O_26  and  C_27 
ROOT
ATOM      1  N   LIG d   1       9.718   2.201  -4.990  0.00  0.00    -0.316 NA
ENDROOT
BRANCH   1   2
ATOM      2  C   LIG d   1       9.035   3.003  -6.013  0.00  0.00     0.002 C 
ATOM      3  H   LIG d   1       9.774   3.528  -6.617  0.00  0.00     0.043 H 
ATOM      4  H   LIG d   1       8.442   2.349  -6.652  0.00  0.00     0.043 H 
ATOM      5  H   LIG d   1       8.380   3.728  -5.529  0.00  0.00     0.043 H 
ENDBRANCH   1   2
BRANCH   1   6
ATOM      6  C   LIG d   1       9.718   2.891  -3.693  0.00  0.00     0.017 C 
ATOM      7  H   LIG d   1      10.569   2.552  -3.101  0.00  0.00     0.047 H 
ATOM      8  H   LIG d   1       8.793   2.667  -3.162  0.00  0.00     0.047 H 
BRANCH   6   9
ATOM      9  C   LIG d   1       9.825   4.401  -3.919  0.00  0.00    -0.012 C 
ATOM     10  H   LIG d   1       8.866   4.784  -4.271  0.00  0.00     0.033 H 
ATOM     11  H   LIG d   1      10.593   4.604  -4.666  0.00  0.00     0.033 H 
BRANCH   9  12
ATOM     12  C   LIG d   1      10.191   5.078  -2.623  0.00  0.00    -0.042 A 
ATOM     13  C   LIG d   1       9.558   6.250  -2.255  0.00  0.00    -0.013 A 
ATOM     14  C   LIG d   1       9.894   6.874  -1.064  0.00  0.00     0.162 A 
ATOM     15  H   LIG d   1       8.801   6.679  -2.894  0.00  0.00     0.066 H 
ATOM     16  C   LIG d   1      10.869   6.319  -0.242  0.00  0.00     0.162 A 
ATOM     17  C   LIG d   1      11.501   5.144  -0.618  0.00  0.00    -0.016 A 
ATOM     18  C   LIG d   1      11.165   4.529  -1.810  0.00  0.00    -0.055 A 
ATOM     19  H   LIG d   1      12.258   4.711   0.018  0.00  0.00     0.066 H 
ATOM     20  H   LIG d   1      11.661   3.617  -2.104  0.00  0.00     0.062 H 
BRANCH  14  21
ATOM     21  O   LIG d   1       9.270   8.027  -0.700  0.00  0.00    -0.491 OA
BRANCH  21  22
ATOM     22  C   LIG d   1       9.589   9.201  -1.448  0.00  0.00     0.079 C 
ATOM     23  H   LIG d   1       8.908   9.291  -2.293  0.00  0.00     0.066 H 
ATOM     24  H   LIG d   1       9.491  10.078  -0.806  0.00  0.00     0.066 H 
ATOM     25  H   LIG d   1      10.614   9.133  -1.812  0.00  0.00     0.066 H 
ENDBRANCH  21  22
ENDBRANCH  14  21
BRANCH  16  26
ATOM     26  O   LIG d   1      11.202   6.928   0.927  0.00  0.00    -0.491 OA
BRANCH  26  27
ATOM     27  C   LIG d   1      11.027   6.171   2.126  0.00  0.00     0.079 C 
ATOM     28  H   LIG d   1      11.864   6.357   2.798  0.00  0.00     0.066 H 
ATOM     29  H   LIG d   1      10.098   6.468   2.611  0.00  0.00     0.066 H 
ATOM     30  H   LIG d   1      10.987   5.109   1.884  0.00  0.00     0.066 H 
ENDBRANCH  26  27
ENDBRANCH  16  26
ENDBRANCH   9  12
ENDBRANCH   6   9
ENDBRANCH   1   6
BRANCH   1  31
ATOM     31  C   LIG d   1       9.147   0.942  -4.883  0.00  0.00     0.148 A 
ATOM     32  N   LIG d   1       9.760  -0.125  -5.384  0.00  0.00    -0.219 NA
ATOM     33  C   LIG d   1       9.229  -1.330  -5.285  0.00  0.00     0.119 A 
ATOM     34  N   LIG d   1       8.070  -1.539  -4.699  0.00  0.00    -0.233 NA
ATOM     35  H   LIG d   1       9.762  -2.171  -5.704  0.00  0.00     0.105 H 
ATOM     36  C   LIG d   1       7.383  -0.526  -4.173  0.00  0.00     0.105 A 
ATOM     37  C   LIG d   1       7.909   0.771  -4.249  0.00  0.00     0.107 A 
ATOM     38  C   LIG d   1       6.098  -0.412  -3.468  0.00  0.00     0.067 A 
ATOM     39  N   LIG d   1       7.024   1.640  -3.639  0.00  0.00    -0.350 N 
ATOM     40  C   LIG d   1       5.928   0.947  -3.163  0.00  0.00     0.053 A 
ATOM     41  H   LIG d   1       7.154   2.599  -3.558  0.00  0.00     0.166 HD
ATOM     42  C   LIG d   1       4.782   1.356  -2.486  0.00  0.00    -0.037 A 
ATOM     43  C   LIG d   1       3.826   0.433  -2.121  0.00  0.00    -0.056 A 
ATOM     44  H   LIG d   1       4.641   2.400  -2.246  0.00  0.00     0.064 H 
ATOM     45  C   LIG d   1       3.990  -0.910  -2.420  0.00  0.00    -0.019 A 
ATOM     46  H   LIG d   1       2.941   0.759  -1.596  0.00  0.00     0.062 H 
ATOM     47  C   LIG d   1       5.121  -1.340  -3.092  0.00  0.00     0.131 A 
ATOM     48  H   LIG d   1       3.234  -1.623  -2.128  0.00  0.00     0.065 H 
BRANCH  47  49
ATOM     49  O   LIG d   1       5.281  -2.656  -3.386  0.00  0.00    -0.494 OA
BRANCH  49  50
ATOM     50  C   LIG d   1       4.768  -3.107  -4.641  0.00  0.00     0.079 C 
ATOM     51  H   LIG d   1       4.901  -2.326  -5.390  0.00  0.00     0.066 H 
ATOM     52  H   LIG d   1       5.305  -4.004  -4.952  0.00  0.00     0.066 H 
ATOM     53  H   LIG d   1       3.707  -3.336  -4.540  0.00  0.00     0.066 H 
ENDBRANCH  49  50
ENDBRANCH  47  49
ENDBRANCH   1  31
TORSDOF 11
ENDMDL
MODEL 7
REMARK VINA RESULT:      -6.2      5.041     12.044
REMARK  11 active torsions:
REMARK  status: ('A' for Active; 'I' for Inactive)
REMARK    1  A    between atoms: C_1  and  N_2 
REMARK    2  A    between atoms: N_2  and  C_3 
REMARK    3  A    between atoms: N_2  and  C_15 
REMARK    4  A    between atoms: C_3  and  C_4 
REMARK    5  A    between atoms: C_4  and  C_5 
REMARK    6  A    between atoms: C_8  and  O_13 
REMARK    7  A    between atoms: C_9  and  O_11 
REMARK    8  A    between atoms: O_11  and  C_12 
REMARK    9  A    between atoms: O_13  and  C_14 
REMARK   10  A    between atoms: C_25  and  O_26 
REMARK   11  A    between atoms: O_26  and  C_27 
ROOT
ATOM      1  N   LIG d   1       8.836   2.867  -4.030  0.00  0.00    -0.316 NA
ENDROOT
BRANCH   1   2
ATOM      2  C   LIG d   1       9.901   3.015  -3.030  0.00  0.00     0.002 C 
ATOM      3  H   LIG d   1       9.528   3.596  -2.186  0.00  0.00     0.043 H 
ATOM      4  H   LIG d   1      10.213   2.031  -2.682  0.00  0.00     0.043 H 
ATOM      5  H   LIG d   1      10.751   3.529  -3.477  0.00  0.00     0.043 H 
ENDBRANCH   1   2
BRANCH   1   6
ATOM      6  C   LIG d   1       9.146   3.630  -5.246  0.00  0.00     0.017 C 
ATOM      7  H   LIG d   1       8.222   3.849  -5.783  0.00  0.00     0.047 H 
ATOM      8  H   LIG d   1       9.806   3.043  -5.885  0.00  0.00     0.047 H 
BRANCH   6   9
ATOM      9  C   LIG d   1       9.837   4.940  -4.864  0.00  0.00    -0.012 C 
ATOM     10  H   LIG d   1      10.885   4.745  -4.635  0.00  0.00     0.033 H 
ATOM     11  H   LIG d   1       9.347   5.367  -3.988  0.00  0.00     0.033 H 
BRANCH   9  12
ATOM     12  C   LIG d   1       9.746   5.910  -6.014  0.00  0.00    -0.042 A 
ATOM     13  C   LIG d   1       9.567   7.258  -5.766  0.00  0.00    -0.013 A 
ATOM     14  C   LIG d   1       9.484   8.151  -6.822  0.00  0.00     0.162 A 
ATOM     15  H   LIG d   1       9.493   7.616  -4.750  0.00  0.00     0.066 H 
ATOM     16  C   LIG d   1       9.579   7.688  -8.130  0.00  0.00     0.162 A 
ATOM     17  C   LIG d   1       9.758   6.335  -8.371  0.00  0.00    -0.016 A 
ATOM     18  C   LIG d   1       9.835   5.449  -7.314  0.00  0.00    -0.055 A 
ATOM     19  H   LIG d   1       9.833   5.973  -9.386  0.00  0.00     0.066 H 
ATOM     20  H   LIG d   1       9.970   4.394  -7.503  0.00  0.00     0.062 H 
BRANCH  14  21
ATOM     21  O   LIG d   1       9.308   9.478  -6.579  0.00  0.00    -0.491 OA
BRANCH  21  22
ATOM     22  C   LIG d   1       9.516   9.926  -5.239  0.00  0.00     0.079 C 
ATOM     23  H   LIG d   1       9.294  10.991  -5.173  0.00  0.00     0.066 H 
ATOM     24  H   LIG d   1       8.858   9.376  -4.566  0.00  0.00     0.066 H 
ATOM     25  H   LIG d   1      10.553   9.753  -4.954  0.00  0.00     0.066 H 
ENDBRANCH  21  22
ENDBRANCH  14  21
BRANCH  16  26
ATOM     26  O   LIG d   1       9.497   8.561  -9.170  0.00  0.00    -0.491 OA
BRANCH  26  27
ATOM     27  C   LIG d   1      10.553   8.525 -10.132  0.00  0.00     0.079 C 
ATOM     28  H   LIG d   1      10.192   8.919 -11.081  0.00  0.00     0.066 H 
ATOM     29  H   LIG d   1      11.387   9.132  -9.780  0.00  0.00     0.066 H 
ATOM     30  H   LIG d   1      10.886   7.496 -10.270  0.00  0.00     0.066 H 
ENDBRANCH  26  27
ENDBRANCH  16  26
ENDBRANCH   9  12
ENDBRANCH   6   9
ENDBRANCH   1   6
BRANCH   1  31
ATOM     31  C   LIG d   1       8.615   1.530  -4.325  0.00  0.00     0.148 A 
ATOM     32  N   LIG d   1       9.500   0.837  -5.034  0.00  0.00    -0.219 NA
ATOM     33  C   LIG d   1       9.304  -0.438  -5.318  0.00  0.00     0.119 A 
ATOM     34  N   LIG d   1       8.227  -1.085  -4.928  0.00  0.00    -0.233 NA
ATOM     35  H   LIG d   1      10.050  -0.965  -5.893  0.00  0.00     0.105 H 
ATOM     36  C   LIG d   1       7.284  -0.466  -4.217  0.00  0.00     0.105 A 
ATOM     37  C   LIG d   1       7.450   0.885  -3.888  0.00  0.00     0.107 A 
ATOM     38  C   LIG d   1       5.997  -0.880  -3.639  0.00  0.00     0.067 A 
ATOM     39  N   LIG d   1       6.353   1.297  -3.155  0.00  0.00    -0.350 N 
ATOM     40  C   LIG d   1       5.466   0.249  -2.996  0.00  0.00     0.053 A 
ATOM     41  H   LIG d   1       6.223   2.193  -2.805  0.00  0.00     0.166 HD
ATOM     42  C   LIG d   1       4.237   0.152  -2.349  0.00  0.00    -0.037 A 
ATOM     43  C   LIG d   1       3.550  -1.043  -2.345  0.00  0.00    -0.056 A 
ATOM     44  H   LIG d   1       3.820   1.015  -1.851  0.00  0.00     0.064 H 
ATOM     45  C   LIG d   1       4.070  -2.160  -2.979  0.00  0.00    -0.019 A 
ATOM     46  H   LIG d   1       2.597  -1.109  -1.841  0.00  0.00     0.062 H 
ATOM     47  C   LIG d   1       5.290  -2.087  -3.627  0.00  0.00     0.131 A 
ATOM     48  H   LIG d   1       3.521  -3.090  -2.966  0.00  0.00     0.065 H 
BRANCH  47  49
ATOM     49  O   LIG d   1       5.799  -3.182  -4.248  0.00  0.00    -0.494 OA
BRANCH  49  50
ATOM     50  C   LIG d   1       5.073  -3.686  -5.372  0.00  0.00     0.079 C 
ATOM     51  H   LIG d   1       5.430  -3.203  -6.281  0.00  0.00     0.066 H 
ATOM     52  H   LIG d   1       5.225  -4.763  -5.449  0.00  0.00     0.066 H 
ATOM     53  H   LIG d   1       4.011  -3.477  -5.242  0.00  0.00     0.066 H 
ENDBRANCH  49  50
ENDBRANCH  47  49
ENDBRANCH   1  31
TORSDOF 11
ENDMDL
MODEL 8
REMARK VINA RESULT:      -6.1      1.857      2.513
REMARK  11 active torsions:
REMARK  status: ('A' for Active; 'I' for Inactive)
REMARK    1  A    between atoms: C_1  and  N_2 
REMARK    2  A    between atoms: N_2  and  C_3 
REMARK    3  A    between atoms: N_2  and  C_15 
REMARK    4  A    between atoms: C_3  and  C_4 
REMARK    5  A    between atoms: C_4  and  C_5 
REMARK    6  A    between atoms: C_8  and  O_13 
REMARK    7  A    between atoms: C_9  and  O_11 
REMARK    8  A    between atoms: O_11  and  C_12 
REMARK    9  A    between atoms: O_13  and  C_14 
REMARK   10  A    between atoms: C_25  and  O_26 
REMARK   11  A    between atoms: O_26  and  C_27 
ROOT
ATOM      1  N   LIG d   1       3.925  -3.732  -7.759  0.00  0.00    -0.316 NA
ENDROOT
BRANCH   1   2
ATOM      2  C   LIG d   1       3.246  -3.619  -9.056  0.00  0.00     0.002 C 
ATOM      3  H   LIG d   1       2.190  -3.402  -8.896  0.00  0.00     0.043 H 
ATOM      4  H   LIG d   1       3.698  -2.815  -9.635  0.00  0.00     0.043 H 
ATOM      5  H   LIG d   1       3.344  -4.559  -9.601  0.00  0.00     0.043 H 
ENDBRANCH   1   2
BRANCH   1   6
ATOM      6  C   LIG d   1       4.949  -4.784  -7.790  0.00  0.00     0.017 C 
ATOM      7  H   LIG d   1       5.936  -4.335  -7.674  0.00  0.00     0.047 H 
ATOM      8  H   LIG d   1       4.900  -5.311  -8.743  0.00  0.00     0.047 H 
BRANCH   6   9
ATOM      9  C   LIG d   1       4.701  -5.771  -6.647  0.00  0.00    -0.012 C 
ATOM     10  H   LIG d   1       4.323  -6.709  -7.054  0.00  0.00     0.033 H 
ATOM     11  H   LIG d   1       3.967  -5.352  -5.958  0.00  0.00     0.033 H 
BRANCH   9  12
ATOM     12  C   LIG d   1       5.992  -6.025  -5.913  0.00  0.00    -0.042 A 
ATOM     13  C   LIG d   1       6.334  -7.312  -5.544  0.00  0.00    -0.013 A 
ATOM     14  C   LIG d   1       7.520  -7.548  -4.870  0.00  0.00     0.162 A 
ATOM     15  H   LIG d   1       5.676  -8.135  -5.783  0.00  0.00     0.066 H 
ATOM     16  C   LIG d   1       8.366  -6.487  -4.564  0.00  0.00     0.162 A 
ATOM     17  C   LIG d   1       8.018  -5.198  -4.937  0.00  0.00    -0.016 A 
ATOM     18  C   LIG d   1       6.829  -4.969  -5.604  0.00  0.00    -0.055 A 
ATOM     19  H   LIG d   1       8.673  -4.372  -4.700  0.00  0.00     0.066 H 
ATOM     20  H   LIG d   1       6.557  -3.964  -5.890  0.00  0.00     0.062 H 
BRANCH  14  21
ATOM     21  O   LIG d   1       7.858  -8.815  -4.507  0.00  0.00    -0.491 OA
BRANCH  21  22
ATOM     22  C   LIG d   1       7.039  -9.448  -3.522  0.00  0.00     0.079 C 
ATOM     23  H   LIG d   1       6.005  -9.131  -3.650  0.00  0.00     0.066 H 
ATOM     24  H   LIG d   1       7.104 -10.531  -3.637  0.00  0.00     0.066 H 
ATOM     25  H   LIG d   1       7.385  -9.169  -2.527  0.00  0.00     0.066 H 
ENDBRANCH  21  22
ENDBRANCH  14  21
BRANCH  16  26
ATOM     26  O   LIG d   1       9.531  -6.713  -3.901  0.00  0.00    -0.491 OA
BRANCH  26  27
ATOM     27  C   LIG d   1       9.568  -6.368  -2.515  0.00  0.00     0.079 C 
ATOM     28  H   LIG d   1       8.694  -5.765  -2.268  0.00  0.00     0.066 H 
ATOM     29  H   LIG d   1       9.563  -7.277  -1.914  0.00  0.00     0.066 H 
ATOM     30  H   LIG d   1      10.473  -5.798  -2.305  0.00  0.00     0.066 H 
ENDBRANCH  26  27
ENDBRANCH  16  26
ENDBRANCH   9  12
ENDBRANCH   6   9
ENDBRANCH   1   6
BRANCH   1  31
ATOM     31  C   LIG d   1       4.473  -2.516  -7.379  0.00  0.00     0.148 A 
ATOM     32  N   LIG d   1       5.030  -1.713  -8.279  0.00  0.00    -0.219 NA
ATOM     33  C   LIG d   1       5.551  -0.550  -7.931  0.00  0.00     0.119 A 
ATOM     34  N   LIG d   1       5.559  -0.131  -6.685  0.00  0.00    -0.233 NA
ATOM     35  H   LIG d   1       5.991   0.074  -8.695  0.00  0.00     0.105 H 
ATOM     36  C   LIG d   1       5.027  -0.875  -5.715  0.00  0.00     0.105 A 
ATOM     37  C   LIG d   1       4.457  -2.114  -6.037  0.00  0.00     0.107 A 
ATOM     38  C   LIG d   1       4.871  -0.711  -4.262  0.00  0.00     0.067 A 
ATOM     39  N   LIG d   1       3.977  -2.691  -4.876  0.00  0.00    -0.350 N 
ATOM     40  C   LIG d   1       4.218  -1.863  -3.798  0.00  0.00     0.053 A 
ATOM     41  H   LIG d   1       3.536  -3.554  -4.826  0.00  0.00     0.166 HD
ATOM     42  C   LIG d   1       3.933  -1.985  -2.440  0.00  0.00    -0.037 A 
ATOM     43  C   LIG d   1       4.294  -0.984  -1.564  0.00  0.00    -0.056 A 
ATOM     44  H   LIG d   1       3.430  -2.867  -2.072  0.00  0.00     0.064 H 
ATOM     45  C   LIG d   1       4.939   0.155  -2.019  0.00  0.00    -0.019 A 
ATOM     46  H   LIG d   1       4.070  -1.087  -0.513  0.00  0.00     0.062 H 
ATOM     47  C   LIG d   1       5.232   0.299  -3.363  0.00  0.00     0.131 A 
ATOM     48  H   LIG d   1       5.215   0.932  -1.322  0.00  0.00     0.065 H 
BRANCH  47  49
ATOM     49  O   LIG d   1       5.865   1.414  -3.808  0.00  0.00    -0.494 OA
BRANCH  49  50
ATOM     50  C   LIG d   1       7.294   1.390  -3.812  0.00  0.00     0.079 C 
ATOM     51  H   LIG d   1       7.652   0.924  -2.894  0.00  0.00     0.066 H 
ATOM     52  H   LIG d   1       7.646   0.818  -4.671  0.00  0.00     0.066 H 
ATOM     53  H   LIG d   1       7.675   2.409  -3.874  0.00  0.00     0.066 H 
ENDBRANCH  49  50
ENDBRANCH  47  49
ENDBRANCH   1  31
TORSDOF 11
ENDMDL
MODEL 9
REMARK VINA RESULT:      -6.1      5.672      9.755
REMARK  11 active torsions:
REMARK  status: ('A' for Active; 'I' for Inactive)
REMARK    1  A    between atoms: C_1  and  N_2 
REMARK    2  A    between atoms: N_2  and  C_3 
REMARK    3  A    between atoms: N_2  and  C_15 
REMARK    4  A    between atoms: C_3  and  C_4 
REMARK    5  A    between atoms: C_4  and  C_5 
REMARK    6  A    between atoms: C_8  and  O_13 
REMARK    7  A    between atoms: C_9  and  O_11 
REMARK    8  A    between atoms: O_11  and  C_12 
REMARK    9  A    between atoms: O_13  and  C_14 
REMARK   10  A    between atoms: C_25  and  O_26 
REMARK   11  A    between atoms: O_26  and  C_27 
ROOT
ATOM      1  N   LIG d   1      10.266   3.187  -4.173  0.00  0.00    -0.316 NA
ENDROOT
BRANCH   1   2
ATOM      2  C   LIG d   1      11.614   2.775  -3.759  0.00  0.00     0.002 C 
ATOM      3  H   LIG d   1      11.588   2.436  -2.724  0.00  0.00     0.043 H 
ATOM      4  H   LIG d   1      11.958   1.962  -4.398  0.00  0.00     0.043 H 
ATOM      5  H   LIG d   1      12.296   3.620  -3.847  0.00  0.00     0.043 H 
ENDBRANCH   1   2
BRANCH   1   6
ATOM      6  C   LIG d   1       9.238   2.409  -3.470  0.00  0.00     0.017 C 
ATOM      7  H   LIG d   1       8.863   2.983  -2.623  0.00  0.00     0.047 H 
ATOM      8  H   LIG d   1       9.671   1.474  -3.112  0.00  0.00     0.047 H 
BRANCH   6   9
ATOM      9  C   LIG d   1       8.086   2.104  -4.430  0.00  0.00    -0.012 C 
ATOM     10  H   LIG d   1       8.486   1.712  -5.365  0.00  0.00     0.033 H 
ATOM     11  H   LIG d   1       7.527   3.018  -4.629  0.00  0.00     0.033 H 
BRANCH   9  12
ATOM     12  C   LIG d   1       7.171   1.081  -3.807  0.00  0.00    -0.042 A 
ATOM     13  C   LIG d   1       7.429  -0.267  -3.973  0.00  0.00    -0.013 A 
ATOM     14  C   LIG d   1       6.589  -1.208  -3.401  0.00  0.00     0.162 A 
ATOM     15  H   LIG d   1       8.286  -0.586  -4.548  0.00  0.00     0.066 H 
ATOM     16  C   LIG d   1       5.486  -0.795  -2.662  0.00  0.00     0.162 A 
ATOM     17  C   LIG d   1       5.233   0.558  -2.499  0.00  0.00    -0.016 A 
ATOM     18  C   LIG d   1       6.071   1.492  -3.077  0.00  0.00    -0.055 A 
ATOM     19  H   LIG d   1       4.377   0.882  -1.925  0.00  0.00     0.066 H 
ATOM     20  H   LIG d   1       5.870   2.546  -2.953  0.00  0.00     0.062 H 
BRANCH  14  21
ATOM     21  O   LIG d   1       6.842  -2.535  -3.564  0.00  0.00    -0.491 OA
BRANCH  21  22
ATOM     22  C   LIG d   1       6.477  -3.118  -4.815  0.00  0.00     0.079 C 
ATOM     23  H   LIG d   1       5.501  -3.594  -4.724  0.00  0.00     0.066 H 
ATOM     24  H   LIG d   1       6.432  -2.341  -5.579  0.00  0.00     0.066 H 
ATOM     25  H   LIG d   1       7.219  -3.863  -5.101  0.00  0.00     0.066 H 
ENDBRANCH  21  22
ENDBRANCH  14  21
BRANCH  16  26
ATOM     26  O   LIG d   1       4.658  -1.715  -2.099  0.00  0.00    -0.491 OA
BRANCH  26  27
ATOM     27  C   LIG d   1       3.345  -1.830  -2.650  0.00  0.00     0.079 C 
ATOM     28  H   LIG d   1       2.759  -0.953  -2.377  0.00  0.00     0.066 H 
ATOM     29  H   LIG d   1       3.410  -1.899  -3.735  0.00  0.00     0.066 H 
ATOM     30  H   LIG d   1       2.862  -2.725  -2.257  0.00  0.00     0.066 H 
ENDBRANCH  26  27
ENDBRANCH  16  26
ENDBRANCH   9  12
ENDBRANCH   6   9
ENDBRANCH   1   6
BRANCH   1  31
ATOM     31  C   LIG d   1      10.081   4.548  -3.975  0.00  0.00     0.148 A 
ATOM     32  N   LIG d   1       9.663   5.325  -4.968  0.00  0.00    -0.219 NA
ATOM     33  C   LIG d   1       9.478   6.621  -4.792  0.00  0.00     0.119 A 
ATOM     34  N   LIG d   1       9.705   7.211  -3.639  0.00  0.00    -0.233 NA
ATOM     35  H   LIG d   1       9.133   7.216  -5.624  0.00  0.00     0.105 H 
ATOM     36  C   LIG d   1      10.132   6.508  -2.590  0.00  0.00     0.105 A 
ATOM     37  C   LIG d   1      10.338   5.129  -2.727  0.00  0.00     0.107 A 
ATOM     38  C   LIG d   1      10.473   6.843  -1.199  0.00  0.00     0.067 A 
ATOM     39  N   LIG d   1      10.776   4.628  -1.515  0.00  0.00    -0.350 N 
ATOM     40  C   LIG d   1      10.864   5.644  -0.584  0.00  0.00     0.053 A 
ATOM     41  H   LIG d   1      10.991   3.697  -1.344  0.00  0.00     0.166 HD
ATOM     42  C   LIG d   1      11.246   5.658   0.755  0.00  0.00    -0.037 A 
ATOM     43  C   LIG d   1      11.242   6.839   1.465  0.00  0.00    -0.056 A 
ATOM     44  H   LIG d   1      11.549   4.740   1.238  0.00  0.00     0.064 H 
ATOM     45  C   LIG d   1      10.857   8.025   0.861  0.00  0.00    -0.019 A 
ATOM     46  H   LIG d   1      11.540   6.840   2.503  0.00  0.00     0.062 H 
ATOM     47  C   LIG d   1      10.472   8.036  -0.468  0.00  0.00     0.131 A 
ATOM     48  H   LIG d   1      10.857   8.943   1.429  0.00  0.00     0.065 H 
BRANCH  47  49
ATOM     49  O   LIG d   1      10.096   9.198  -1.060  0.00  0.00    -0.494 OA
BRANCH  49  50
ATOM     50  C   LIG d   1       8.762   9.649  -0.814  0.00  0.00     0.079 C 
ATOM     51  H   LIG d   1       8.170   9.543  -1.724  0.00  0.00     0.066 H 
ATOM     52  H   LIG d   1       8.316   9.050  -0.020  0.00  0.00     0.066 H 
ATOM     53  H   LIG d   1       8.781  10.696  -0.513  0.00  0.00     0.066 H 
ENDBRANCH  49  50
ENDBRANCH  47  49
ENDBRANCH   1  31
TORSDOF 11
ENDMDL
MODEL 10
REMARK VINA RESULT:      -6.1      4.897     11.866
REMARK  11 active torsions:
REMARK  status: ('A' for Active; 'I' for Inactive)
REMARK    1  A    between atoms: C_1  and  N_2 
REMARK    2  A    between atoms: N_2  and  C_3 
REMARK    3  A    between atoms: N_2  and  C_15 
REMARK    4  A    between atoms: C_3  and  C_4 
REMARK    5  A    between atoms: C_4  and  C_5 
REMARK    6  A    between atoms: C_8  and  O_13 
REMARK    7  A    between atoms: C_9  and  O_11 
REMARK    8  A    between atoms: O_11  and  C_12 
REMARK    9  A    between atoms: O_13  and  C_14 
REMARK   10  A    between atoms: C_25  and  O_26 
REMARK   11  A    between atoms: O_26  and  C_27 
ROOT
ATOM      1  N   LIG d   1       8.857   2.653  -3.980  0.00  0.00    -0.316 NA
ENDROOT
BRANCH   1   2
ATOM      2  C   LIG d   1      10.069   2.732  -3.154  0.00  0.00     0.002 C 
ATOM      3  H   LIG d   1      10.946   2.570  -3.780  0.00  0.00     0.043 H 
ATOM      4  H   LIG d   1      10.131   3.717  -2.691  0.00  0.00     0.043 H 
ATOM      5  H   LIG d   1      10.030   1.968  -2.378  0.00  0.00     0.043 H 
ENDBRANCH   1   2
BRANCH   1   6
ATOM      6  C   LIG d   1       9.020   3.409  -5.228  0.00  0.00     0.017 C 
ATOM      7  H   LIG d   1       8.126   4.005  -5.412  0.00  0.00     0.047 H 
ATOM      8  H   LIG d   1       9.171   2.716  -6.056  0.00  0.00     0.047 H 
BRANCH   6   9
ATOM      9  C   LIG d   1      10.233   4.334  -5.109  0.00  0.00    -0.012 C 
ATOM     10  H   LIG d   1      11.102   3.854  -5.561  0.00  0.00     0.033 H 
ATOM     11  H   LIG d   1      10.436   4.535  -4.057  0.00  0.00     0.033 H 
BRANCH   9  12
ATOM     12  C   LIG d   1       9.948   5.630  -5.824  0.00  0.00    -0.042 A 
ATOM     13  C   LIG d   1      10.117   5.715  -7.193  0.00  0.00    -0.013 A 
ATOM     14  C   LIG d   1       9.856   6.905  -7.851  0.00  0.00     0.162 A 
ATOM     15  H   LIG d   1      10.452   4.852  -7.750  0.00  0.00     0.066 H 
ATOM     16  C   LIG d   1       9.424   8.015  -7.131  0.00  0.00     0.162 A 
ATOM     17  C   LIG d   1       9.257   7.923  -5.758  0.00  0.00    -0.016 A 
ATOM     18  C   LIG d   1       9.525   6.734  -5.107  0.00  0.00    -0.055 A 
ATOM     19  H   LIG d   1       8.922   8.783  -5.197  0.00  0.00     0.066 H 
ATOM     20  H   LIG d   1       9.399   6.666  -4.037  0.00  0.00     0.062 H 
BRANCH  14  21
ATOM     21  O   LIG d   1      10.021   6.989  -9.199  0.00  0.00    -0.491 OA
BRANCH  21  22
ATOM     22  C   LIG d   1      11.361   7.089  -9.684  0.00  0.00     0.079 C 
ATOM     23  H   LIG d   1      11.348   7.430 -10.718  0.00  0.00     0.066 H 
ATOM     24  H   LIG d   1      11.916   7.801  -9.072  0.00  0.00     0.066 H 
ATOM     25  H   LIG d   1      11.841   6.113  -9.629  0.00  0.00     0.066 H 
ENDBRANCH  21  22
ENDBRANCH  14  21
BRANCH  16  26
ATOM     26  O   LIG d   1       9.167   9.185  -7.773  0.00  0.00    -0.491 OA
BRANCH  26  27
ATOM     27  C   LIG d   1       9.979  10.308  -7.425  0.00  0.00     0.079 C 
ATOM     28  H   LIG d   1      10.012  11.006  -8.262  0.00  0.00     0.066 H 
ATOM     29  H   LIG d   1       9.556  10.807  -6.554  0.00  0.00     0.066 H 
ATOM     30  H   LIG d   1      10.990   9.970  -7.196  0.00  0.00     0.066 H 
ENDBRANCH  26  27
ENDBRANCH  16  26
ENDBRANCH   9  12
ENDBRANCH   6   9
ENDBRANCH   1   6
BRANCH   1  31
ATOM     31  C   LIG d   1       8.518   1.333  -4.238  0.00  0.00     0.148 A 
ATOM     32  N   LIG d   1       9.366   0.527  -4.868  0.00  0.00    -0.219 NA
ATOM     33  C   LIG d   1       9.057  -0.733  -5.117  0.00  0.00     0.119 A 
ATOM     34  N   LIG d   1       7.901  -1.253  -4.767  0.00  0.00    -0.233 NA
ATOM     35  H   LIG d   1       9.776  -1.355  -5.628  0.00  0.00     0.105 H 
ATOM     36  C   LIG d   1       6.988  -0.515  -4.135  0.00  0.00     0.105 A 
ATOM     37  C   LIG d   1       7.272   0.826  -3.846  0.00  0.00     0.107 A 
ATOM     38  C   LIG d   1       5.637  -0.774  -3.618  0.00  0.00     0.067 A 
ATOM     39  N   LIG d   1       6.184   1.375  -3.194  0.00  0.00    -0.350 N 
ATOM     40  C   LIG d   1       5.189   0.428  -3.048  0.00  0.00     0.053 A 
ATOM     41  H   LIG d   1       6.127   2.293  -2.885  0.00  0.00     0.166 HD
ATOM     42  C   LIG d   1       3.923   0.480  -2.472  0.00  0.00    -0.037 A 
ATOM     43  C   LIG d   1       3.119  -0.639  -2.464  0.00  0.00    -0.056 A 
ATOM     44  H   LIG d   1       3.569   1.401  -2.031  0.00  0.00     0.064 H 
ATOM     45  C   LIG d   1       3.557  -1.828  -3.025  0.00  0.00    -0.019 A 
ATOM     46  H   LIG d   1       2.138  -0.590  -2.015  0.00  0.00     0.062 H 
ATOM     47  C   LIG d   1       4.811  -1.904  -3.603  0.00  0.00     0.131 A 
ATOM     48  H   LIG d   1       2.917  -2.697  -3.011  0.00  0.00     0.065 H 
BRANCH  47  49
ATOM     49  O   LIG d   1       5.240  -3.068  -4.154  0.00  0.00    -0.494 OA
BRANCH  49  50
ATOM     50  C   LIG d   1       4.744  -3.392  -5.455  0.00  0.00     0.079 C 
ATOM     51  H   LIG d   1       5.385  -2.938  -6.211  0.00  0.00     0.066 H 
ATOM     52  H   LIG d   1       4.741  -4.475  -5.583  0.00  0.00     0.066 H 
ATOM     53  H   LIG d   1       3.729  -3.010  -5.562  0.00  0.00     0.066 H 
ENDBRANCH  49  50
ENDBRANCH  47  49
ENDBRANCH   1  31
TORSDOF 11
ENDMDL
