MODEL 1
REMARK VINA RESULT:      -4.9      0.000      0.000
REMARK  3 active torsions:
REMARK  status: ('A' for Active; 'I' for Inactive)
REMARK    1  A    between atoms: C_1  and  N_2 
REMARK    2  A    between atoms: C_9  and  O_12 
REMARK    3  A    between atoms: O_12  and  C_13 
ROOT
ATOM      1  N   LIG d   1       3.970  -1.498  -8.144  0.00  0.00    -0.301 N 
ATOM      2  C   LIG d   1       3.263  -0.230  -8.381  0.00  0.00     0.003 C 
ATOM      3  C   LIG d   1       2.408   0.087  -7.155  0.00  0.00    -0.014 C 
ATOM      4  C   LIG d   1       3.245  -0.014  -5.905  0.00  0.00    -0.035 A 
ATOM      5  C   LIG d   1       2.768   0.574  -4.742  0.00  0.00    -0.012 A 
ATOM      6  C   LIG d   1       3.498   0.504  -3.569  0.00  0.00     0.170 A 
ATOM      7  C   LIG d   1       4.719  -0.162  -3.555  0.00  0.00     0.208 A 
ATOM      8  C   LIG d   1       5.194  -0.748  -4.719  0.00  0.00     0.170 A 
ATOM      9  C   LIG d   1       4.456  -0.672  -5.897  0.00  0.00     0.015 A 
ATOM     10  C   LIG d   1       5.021  -1.314  -7.138  0.00  0.00     0.028 C 
ATOM     11  O   LIG d   1       5.240  -0.094  -2.294  0.00  0.00    -0.449 OA
ATOM     12  C   LIG d   1       4.522   0.969  -1.640  0.00  0.00     0.233 C 
ATOM     13  O   LIG d   1       3.252   0.991  -2.317  0.00  0.00    -0.453 OA
ATOM     14  H   LIG d   1       3.988   0.569  -8.540  0.00  0.00     0.043 H 
ATOM     15  H   LIG d   1       2.623  -0.326  -9.259  0.00  0.00     0.043 H 
ATOM     16  H   LIG d   1       2.009   1.098  -7.242  0.00  0.00     0.033 H 
ATOM     17  H   LIG d   1       1.582  -0.622  -7.096  0.00  0.00     0.033 H 
ATOM     18  H   LIG d   1       1.819   1.090  -4.754  0.00  0.00     0.066 H 
ATOM     19  H   LIG d   1       5.446  -2.283  -6.880  0.00  0.00     0.048 H 
ATOM     20  H   LIG d   1       5.803  -0.676  -7.549  0.00  0.00     0.048 H 
ATOM     21  H   LIG d   1       4.388   0.744  -0.581  0.00  0.00     0.117 H 
ATOM     22  H   LIG d   1       5.043   1.918  -1.767  0.00  0.00     0.117 H 
ENDROOT
BRANCH   8  23
ATOM     23  O   LIG d   1       6.387  -1.401  -4.711  0.00  0.00    -0.491 OA
BRANCH  23  24
ATOM     24  C   LIG d   1       6.396  -2.729  -4.184  0.00  0.00     0.079 C 
ATOM     25  H   LIG d   1       5.781  -2.767  -3.285  0.00  0.00     0.066 H 
ATOM     26  H   LIG d   1       5.995  -3.418  -4.929  0.00  0.00     0.066 H 
ATOM     27  H   LIG d   1       7.418  -3.016  -3.938  0.00  0.00     0.066 H 
ENDBRANCH  23  24
ENDBRANCH   8  23
BRANCH   1  28
ATOM     28  C   LIG d   1       4.526  -2.034  -9.394  0.00  0.00    -0.012 C 
ATOM     29  H   LIG d   1       5.283  -2.784  -9.162  0.00  0.00     0.039 H 
ATOM     30  H   LIG d   1       3.729  -2.491  -9.979  0.00  0.00     0.039 H 
ATOM     31  H   LIG d   1       4.979  -1.224  -9.965  0.00  0.00     0.039 H 
ENDBRANCH   1  28
TORSDOF 3
ENDMDL
MODEL 2
REMARK VINA RESULT:      -4.8      1.938      3.114
REMARK  3 active torsions:
REMARK  status: ('A' for Active; 'I' for Inactive)
REMARK    1  A    between atoms: C_1  and  N_2 
REMARK    2  A    between atoms: C_9  and  O_12 
REMARK    3  A    between atoms: O_12  and  C_13 
ROOT
ATOM      1  N   LIG d   1       5.344  -3.770  -7.257  0.00  0.00    -0.301 N 
ATOM      2  C   LIG d   1       4.635  -4.704  -6.368  0.00  0.00     0.003 C 
ATOM      3  C   LIG d   1       4.937  -4.321  -4.919  0.00  0.00    -0.014 C 
ATOM      4  C   LIG d   1       4.689  -2.848  -4.715  0.00  0.00    -0.035 A 
ATOM      5  C   LIG d   1       4.556  -2.376  -3.417  0.00  0.00    -0.012 A 
ATOM      6  C   LIG d   1       4.331  -1.032  -3.177  0.00  0.00     0.170 A 
ATOM      7  C   LIG d   1       4.239  -0.147  -4.247  0.00  0.00     0.208 A 
ATOM      8  C   LIG d   1       4.371  -0.622  -5.543  0.00  0.00     0.170 A 
ATOM      9  C   LIG d   1       4.595  -1.976  -5.777  0.00  0.00     0.015 A 
ATOM     10  C   LIG d   1       4.719  -2.445  -7.204  0.00  0.00     0.028 C 
ATOM     11  O   LIG d   1       4.018   1.109  -3.757  0.00  0.00    -0.449 OA
ATOM     12  C   LIG d   1       3.568   0.919  -2.403  0.00  0.00     0.233 C 
ATOM     13  O   LIG d   1       4.167  -0.332  -2.016  0.00  0.00    -0.453 OA
ATOM     14  H   LIG d   1       3.562  -4.637  -6.549  0.00  0.00     0.043 H 
ATOM     15  H   LIG d   1       4.977  -5.722  -6.558  0.00  0.00     0.043 H 
ATOM     16  H   LIG d   1       4.293  -4.893  -4.251  0.00  0.00     0.033 H 
ATOM     17  H   LIG d   1       5.980  -4.547  -4.696  0.00  0.00     0.033 H 
ATOM     18  H   LIG d   1       4.628  -3.064  -2.587  0.00  0.00     0.066 H 
ATOM     19  H   LIG d   1       5.329  -1.736  -7.763  0.00  0.00     0.048 H 
ATOM     20  H   LIG d   1       3.727  -2.497  -7.653  0.00  0.00     0.048 H 
ATOM     21  H   LIG d   1       3.925   1.728  -1.764  0.00  0.00     0.117 H 
ATOM     22  H   LIG d   1       2.481   0.852  -2.366  0.00  0.00     0.117 H 
ENDROOT
BRANCH   8  23
ATOM     23  O   LIG d   1       4.282   0.239  -6.592  0.00  0.00    -0.491 OA
BRANCH  23  24
ATOM     24  C   LIG d   1       2.974   0.516  -7.095  0.00  0.00     0.079 C 
ATOM     25  H   LIG d   1       2.520   1.314  -6.507  0.00  0.00     0.066 H 
ATOM     26  H   LIG d   1       3.043   0.827  -8.138  0.00  0.00     0.066 H 
ATOM     27  H   LIG d   1       2.359  -0.381  -7.024  0.00  0.00     0.066 H 
ENDBRANCH  23  24
ENDBRANCH   8  23
BRANCH   1  28
ATOM     28  C   LIG d   1       5.383  -4.279  -8.634  0.00  0.00    -0.012 C 
ATOM     29  H   LIG d   1       4.395  -4.648  -8.912  0.00  0.00     0.039 H 
ATOM     30  H   LIG d   1       5.674  -3.476  -9.311  0.00  0.00     0.039 H 
ATOM     31  H   LIG d   1       6.107  -5.091  -8.700  0.00  0.00     0.039 H 
ENDBRANCH   1  28
TORSDOF 3
ENDMDL
MODEL 3
REMARK VINA RESULT:      -4.8      3.062      3.601
REMARK  3 active torsions:
REMARK  status: ('A' for Active; 'I' for Inactive)
REMARK    1  A    between atoms: C_1  and  N_2 
REMARK    2  A    between atoms: C_9  and  O_12 
REMARK    3  A    between atoms: O_12  and  C_13 
ROOT
ATOM      1  N   LIG d   1       7.448  -3.873  -4.756  0.00  0.00    -0.301 N 
ATOM      2  C   LIG d   1       6.215  -4.168  -5.505  0.00  0.00     0.003 C 
ATOM      3  C   LIG d   1       5.017  -3.860  -4.608  0.00  0.00    -0.014 C 
ATOM      4  C   LIG d   1       5.155  -2.478  -4.021  0.00  0.00    -0.035 A 
ATOM      5  C   LIG d   1       4.029  -1.875  -3.482  0.00  0.00    -0.012 A 
ATOM      6  C   LIG d   1       4.107  -0.608  -2.928  0.00  0.00     0.170 A 
ATOM      7  C   LIG d   1       5.325   0.064  -2.912  0.00  0.00     0.208 A 
ATOM      8  C   LIG d   1       6.449  -0.542  -3.453  0.00  0.00     0.170 A 
ATOM      9  C   LIG d   1       6.364  -1.815  -4.010  0.00  0.00     0.015 A 
ATOM     10  C   LIG d   1       7.611  -2.425  -4.597  0.00  0.00     0.028 C 
ATOM     11  O   LIG d   1       5.145   1.280  -2.318  0.00  0.00    -0.449 OA
ATOM     12  C   LIG d   1       3.724   1.512  -2.342  0.00  0.00     0.233 C 
ATOM     13  O   LIG d   1       3.161   0.186  -2.346  0.00  0.00    -0.453 OA
ATOM     14  H   LIG d   1       6.173  -3.547  -6.399  0.00  0.00     0.043 H 
ATOM     15  H   LIG d   1       6.201  -5.221  -5.786  0.00  0.00     0.043 H 
ATOM     16  H   LIG d   1       4.101  -3.913  -5.196  0.00  0.00     0.033 H 
ATOM     17  H   LIG d   1       4.970  -4.592  -3.801  0.00  0.00     0.033 H 
ATOM     18  H   LIG d   1       3.084  -2.397  -3.495  0.00  0.00     0.066 H 
ATOM     19  H   LIG d   1       8.453  -2.228  -3.934  0.00  0.00     0.048 H 
ATOM     20  H   LIG d   1       7.807  -1.976  -5.570  0.00  0.00     0.048 H 
ATOM     21  H   LIG d   1       3.411   2.058  -1.451  0.00  0.00     0.117 H 
ATOM     22  H   LIG d   1       3.439   2.053  -3.244  0.00  0.00     0.117 H 
ENDROOT
BRANCH   8  23
ATOM     23  O   LIG d   1       7.643   0.110  -3.439  0.00  0.00    -0.491 OA
BRANCH  23  24
ATOM     24  C   LIG d   1       7.787   1.216  -4.332  0.00  0.00     0.079 C 
ATOM     25  H   LIG d   1       8.120   2.092  -3.775  0.00  0.00     0.066 H 
ATOM     26  H   LIG d   1       8.524   0.970  -5.098  0.00  0.00     0.066 H 
ATOM     27  H   LIG d   1       6.829   1.429  -4.805  0.00  0.00     0.066 H 
ENDBRANCH  23  24
ENDBRANCH   8  23
BRANCH   1  28
ATOM     28  C   LIG d   1       8.619  -4.465  -5.416  0.00  0.00    -0.012 C 
ATOM     29  H   LIG d   1       8.363  -5.457  -5.789  0.00  0.00     0.039 H 
ATOM     30  H   LIG d   1       8.926  -3.832  -6.249  0.00  0.00     0.039 H 
ATOM     31  H   LIG d   1       9.437  -4.545  -4.700  0.00  0.00     0.039 H 
ENDBRANCH   1  28
TORSDOF 3
ENDMDL
MODEL 4
REMARK VINA RESULT:      -4.6      9.261     10.792
REMARK  3 active torsions:
REMARK  status: ('A' for Active; 'I' for Inactive)
REMARK    1  A    between atoms: C_1  and  N_2 
REMARK    2  A    between atoms: C_9  and  O_12 
REMARK    3  A    between atoms: O_12  and  C_13 
ROOT
ATOM      1  N   LIG d   1      10.011   4.382  -2.585  0.00  0.00    -0.301 N 
ATOM      2  C   LIG d   1      10.140   5.263  -3.756  0.00  0.00     0.003 C 
ATOM      3  C   LIG d   1       9.473   6.600  -3.435  0.00  0.00    -0.014 C 
ATOM      4  C   LIG d   1       9.982   7.125  -2.117  0.00  0.00    -0.035 A 
ATOM      5  C   LIG d   1       9.783   8.465  -1.819  0.00  0.00    -0.012 A 
ATOM      6  C   LIG d   1      10.229   8.993  -0.620  0.00  0.00     0.170 A 
ATOM      7  C   LIG d   1      10.880   8.172   0.295  0.00  0.00     0.208 A 
ATOM      8  C   LIG d   1      11.078   6.832  -0.005  0.00  0.00     0.170 A 
ATOM      9  C   LIG d   1      10.630   6.308  -1.215  0.00  0.00     0.015 A 
ATOM     10  C   LIG d   1      10.880   4.850  -1.500  0.00  0.00     0.028 C 
ATOM     11  O   LIG d   1      11.217   8.917   1.388  0.00  0.00    -0.449 OA
ATOM     12  C   LIG d   1      11.131  10.288   0.959  0.00  0.00     0.233 C 
ATOM     13  O   LIG d   1      10.158  10.254  -0.102  0.00  0.00    -0.453 OA
ATOM     14  H   LIG d   1      11.195   5.424  -3.979  0.00  0.00     0.043 H 
ATOM     15  H   LIG d   1       9.648   4.805  -4.615  0.00  0.00     0.043 H 
ATOM     16  H   LIG d   1       9.701   7.318  -4.223  0.00  0.00     0.033 H 
ATOM     17  H   LIG d   1       8.393   6.461  -3.376  0.00  0.00     0.033 H 
ATOM     18  H   LIG d   1       9.277   9.101  -2.530  0.00  0.00     0.066 H 
ATOM     19  H   LIG d   1      10.678   4.268  -0.601  0.00  0.00     0.048 H 
ATOM     20  H   LIG d   1      11.922   4.713  -1.790  0.00  0.00     0.048 H 
ATOM     21  H   LIG d   1      10.785  10.924   1.776  0.00  0.00     0.117 H 
ATOM     22  H   LIG d   1      12.094  10.634   0.586  0.00  0.00     0.117 H 
ENDROOT
BRANCH   8  23
ATOM     23  O   LIG d   1      11.714   6.025   0.886  0.00  0.00    -0.491 OA
BRANCH  23  24
ATOM     24  C   LIG d   1      10.964   5.601   2.026  0.00  0.00     0.079 C 
ATOM     25  H   LIG d   1      11.136   6.292   2.851  0.00  0.00     0.066 H 
ATOM     26  H   LIG d   1       9.902   5.587   1.778  0.00  0.00     0.066 H 
ATOM     27  H   LIG d   1      11.281   4.600   2.319  0.00  0.00     0.066 H 
ENDBRANCH  23  24
ENDBRANCH   8  23
BRANCH   1  28
ATOM     28  C   LIG d   1      10.314   2.988  -2.937  0.00  0.00    -0.012 C 
ATOM     29  H   LIG d   1       9.605   2.643  -3.690  0.00  0.00     0.039 H 
ATOM     30  H   LIG d   1      11.326   2.926  -3.335  0.00  0.00     0.039 H 
ATOM     31  H   LIG d   1      10.233   2.364  -2.048  0.00  0.00     0.039 H 
ENDBRANCH   1  28
TORSDOF 3
ENDMDL
MODEL 5
REMARK VINA RESULT:      -4.3      3.842      5.508
REMARK  3 active torsions:
REMARK  status: ('A' for Active; 'I' for Inactive)
REMARK    1  A    between atoms: C_1  and  N_2 
REMARK    2  A    between atoms: C_9  and  O_12 
REMARK    3  A    between atoms: O_12  and  C_13 
ROOT
ATOM      1  N   LIG d   1       4.292   0.392  -2.875  0.00  0.00    -0.301 N 
ATOM      2  C   LIG d   1       4.387  -0.760  -1.964  0.00  0.00     0.003 C 
ATOM      3  C   LIG d   1       4.957  -1.947  -2.740  0.00  0.00    -0.014 C 
ATOM      4  C   LIG d   1       6.212  -1.533  -3.465  0.00  0.00    -0.035 A 
ATOM      5  C   LIG d   1       7.066  -2.525  -3.924  0.00  0.00    -0.012 A 
ATOM      6  C   LIG d   1       8.229  -2.195  -4.599  0.00  0.00     0.170 A 
ATOM      7  C   LIG d   1       8.542  -0.857  -4.819  0.00  0.00     0.208 A 
ATOM      8  C   LIG d   1       7.686   0.133  -4.359  0.00  0.00     0.170 A 
ATOM      9  C   LIG d   1       6.520  -0.206  -3.679  0.00  0.00     0.015 A 
ATOM     10  C   LIG d   1       5.629   0.905  -3.187  0.00  0.00     0.028 C 
ATOM     11  O   LIG d   1       9.725  -0.792  -5.499  0.00  0.00    -0.449 OA
ATOM     12  C   LIG d   1      10.335  -2.085  -5.332  0.00  0.00     0.233 C 
ATOM     13  O   LIG d   1       9.215  -2.969  -5.139  0.00  0.00    -0.453 OA
ATOM     14  H   LIG d   1       5.048  -0.515  -1.133  0.00  0.00     0.043 H 
ATOM     15  H   LIG d   1       3.396  -1.011  -1.585  0.00  0.00     0.043 H 
ATOM     16  H   LIG d   1       5.189  -2.755  -2.047  0.00  0.00     0.033 H 
ATOM     17  H   LIG d   1       4.218  -2.294  -3.464  0.00  0.00     0.033 H 
ATOM     18  H   LIG d   1       6.822  -3.563  -3.752  0.00  0.00     0.066 H 
ATOM     19  H   LIG d   1       5.550   1.670  -3.959  0.00  0.00     0.048 H 
ATOM     20  H   LIG d   1       6.064   1.344  -2.289  0.00  0.00     0.048 H 
ATOM     21  H   LIG d   1      10.893  -2.363  -6.227  0.00  0.00     0.117 H 
ATOM     22  H   LIG d   1      10.985  -2.091  -4.458  0.00  0.00     0.117 H 
ENDROOT
BRANCH   8  23
ATOM     23  O   LIG d   1       7.987   1.441  -4.572  0.00  0.00    -0.491 OA
BRANCH  23  24
ATOM     24  C   LIG d   1       8.992   2.020  -3.737  0.00  0.00     0.079 C 
ATOM     25  H   LIG d   1       9.780   2.446  -4.359  0.00  0.00     0.066 H 
ATOM     26  H   LIG d   1       8.547   2.805  -3.125  0.00  0.00     0.066 H 
ATOM     27  H   LIG d   1       9.415   1.251  -3.091  0.00  0.00     0.066 H 
ENDBRANCH  23  24
ENDBRANCH   8  23
BRANCH   1  28
ATOM     28  C   LIG d   1       3.443   1.446  -2.304  0.00  0.00    -0.012 C 
ATOM     29  H   LIG d   1       2.506   1.011  -1.958  0.00  0.00     0.039 H 
ATOM     30  H   LIG d   1       3.958   1.912  -1.464  0.00  0.00     0.039 H 
ATOM     31  H   LIG d   1       3.236   2.198  -3.066  0.00  0.00     0.039 H 
ENDBRANCH   1  28
TORSDOF 3
ENDMDL
MODEL 6
REMARK VINA RESULT:      -4.3      3.734      5.460
REMARK  3 active torsions:
REMARK  status: ('A' for Active; 'I' for Inactive)
REMARK    1  A    between atoms: C_1  and  N_2 
REMARK    2  A    between atoms: C_9  and  O_12 
REMARK    3  A    between atoms: O_12  and  C_13 
ROOT
ATOM      1  N   LIG d   1       4.725  -0.065  -2.622  0.00  0.00    -0.301 N 
ATOM      2  C   LIG d   1       4.174  -1.245  -1.937  0.00  0.00     0.003 C 
ATOM      3  C   LIG d   1       3.918  -2.335  -2.977  0.00  0.00    -0.014 C 
ATOM      4  C   LIG d   1       5.150  -2.538  -3.822  0.00  0.00    -0.035 A 
ATOM      5  C   LIG d   1       5.253  -3.703  -4.569  0.00  0.00    -0.012 A 
ATOM      6  C   LIG d   1       6.363  -3.933  -5.363  0.00  0.00     0.170 A 
ATOM      7  C   LIG d   1       7.383  -2.989  -5.413  0.00  0.00     0.208 A 
ATOM      8  C   LIG d   1       7.278  -1.825  -4.665  0.00  0.00     0.170 A 
ATOM      9  C   LIG d   1       6.160  -1.601  -3.866  0.00  0.00     0.015 A 
ATOM     10  C   LIG d   1       6.098  -0.328  -3.062  0.00  0.00     0.028 C 
ATOM     11  O   LIG d   1       8.356  -3.441  -6.258  0.00  0.00    -0.449 OA
ATOM     12  C   LIG d   1       8.111  -4.852  -6.405  0.00  0.00     0.233 C 
ATOM     13  O   LIG d   1       6.695  -4.979  -6.176  0.00  0.00    -0.453 OA
ATOM     14  H   LIG d   1       4.888  -1.605  -1.197  0.00  0.00     0.043 H 
ATOM     15  H   LIG d   1       3.237  -0.980  -1.446  0.00  0.00     0.043 H 
ATOM     16  H   LIG d   1       3.668  -3.268  -2.472  0.00  0.00     0.033 H 
ATOM     17  H   LIG d   1       3.086  -2.038  -3.617  0.00  0.00     0.033 H 
ATOM     18  H   LIG d   1       4.460  -4.436  -4.530  0.00  0.00     0.066 H 
ATOM     19  H   LIG d   1       6.445   0.502  -3.676  0.00  0.00     0.048 H 
ATOM     20  H   LIG d   1       6.744  -0.423  -2.189  0.00  0.00     0.048 H 
ATOM     21  H   LIG d   1       8.367  -5.182  -7.412  0.00  0.00     0.117 H 
ATOM     22  H   LIG d   1       8.673  -5.417  -5.662  0.00  0.00     0.117 H 
ENDROOT
BRANCH   8  23
ATOM     23  O   LIG d   1       8.272  -0.899  -4.711  0.00  0.00    -0.491 OA
BRANCH  23  24
ATOM     24  C   LIG d   1       8.328  -0.065  -5.870  0.00  0.00     0.079 C 
ATOM     25  H   LIG d   1       7.322   0.070  -6.269  0.00  0.00     0.066 H 
ATOM     26  H   LIG d   1       8.745   0.906  -5.599  0.00  0.00     0.066 H 
ATOM     27  H   LIG d   1       8.959  -0.533  -6.625  0.00  0.00     0.066 H 
ENDBRANCH  23  24
ENDBRANCH   8  23
BRANCH   1  28
ATOM     28  C   LIG d   1       4.668   1.121  -1.756  0.00  0.00    -0.012 C 
ATOM     29  H   LIG d   1       5.165   1.956  -2.251  0.00  0.00     0.039 H 
ATOM     30  H   LIG d   1       3.627   1.381  -1.564  0.00  0.00     0.039 H 
ATOM     31  H   LIG d   1       5.170   0.906  -0.813  0.00  0.00     0.039 H 
ENDBRANCH   1  28
TORSDOF 3
ENDMDL
MODEL 7
REMARK VINA RESULT:      -4.2      9.630     11.245
REMARK  3 active torsions:
REMARK  status: ('A' for Active; 'I' for Inactive)
REMARK    1  A    between atoms: C_1  and  N_2 
REMARK    2  A    between atoms: C_9  and  O_12 
REMARK    3  A    between atoms: O_12  and  C_13 
ROOT
ATOM      1  N   LIG d   1      10.489   6.070  -0.677  0.00  0.00    -0.301 N 
ATOM      2  C   LIG d   1      10.919   4.953  -1.533  0.00  0.00     0.003 C 
ATOM      3  C   LIG d   1      10.026   4.920  -2.773  0.00  0.00    -0.014 C 
ATOM      4  C   LIG d   1       9.966   6.290  -3.401  0.00  0.00    -0.035 A 
ATOM      5  C   LIG d   1       9.516   6.397  -4.709  0.00  0.00    -0.012 A 
ATOM      6  C   LIG d   1       9.440   7.633  -5.327  0.00  0.00     0.170 A 
ATOM      7  C   LIG d   1       9.817   8.777  -4.630  0.00  0.00     0.208 A 
ATOM      8  C   LIG d   1      10.268   8.666  -3.323  0.00  0.00     0.170 A 
ATOM      9  C   LIG d   1      10.345   7.420  -2.708  0.00  0.00     0.015 A 
ATOM     10  C   LIG d   1      10.853   7.351  -1.291  0.00  0.00     0.028 C 
ATOM     11  O   LIG d   1       9.652   9.859  -5.446  0.00  0.00    -0.449 OA
ATOM     12  C   LIG d   1       9.560   9.324  -6.780  0.00  0.00     0.233 C 
ATOM     13  O   LIG d   1       9.039   7.997  -6.580  0.00  0.00    -0.453 OA
ATOM     14  H   LIG d   1      11.956   5.100  -1.833  0.00  0.00     0.043 H 
ATOM     15  H   LIG d   1      10.822   4.014  -0.987  0.00  0.00     0.043 H 
ATOM     16  H   LIG d   1      10.431   4.209  -3.493  0.00  0.00     0.033 H 
ATOM     17  H   LIG d   1       9.020   4.609  -2.487  0.00  0.00     0.033 H 
ATOM     18  H   LIG d   1       9.223   5.508  -5.248  0.00  0.00     0.066 H 
ATOM     19  H   LIG d   1      10.416   8.164  -0.713  0.00  0.00     0.048 H 
ATOM     20  H   LIG d   1      11.938   7.453  -1.293  0.00  0.00     0.048 H 
ATOM     21  H   LIG d   1       8.874   9.918  -7.384  0.00  0.00     0.117 H 
ATOM     22  H   LIG d   1      10.545   9.284  -7.245  0.00  0.00     0.117 H 
ENDROOT
BRANCH   8  23
ATOM     23  O   LIG d   1      10.637   9.781  -2.638  0.00  0.00    -0.491 OA
BRANCH  23  24
ATOM     24  C   LIG d   1       9.588  10.600  -2.118  0.00  0.00     0.079 C 
ATOM     25  H   LIG d   1       9.350  11.385  -2.837  0.00  0.00     0.066 H 
ATOM     26  H   LIG d   1       8.703   9.988  -1.941  0.00  0.00     0.066 H 
ATOM     27  H   LIG d   1       9.910  11.052  -1.180  0.00  0.00     0.066 H 
ENDBRANCH  23  24
ENDBRANCH   8  23
BRANCH   1  28
ATOM     28  C   LIG d   1      11.061   5.951   0.671  0.00  0.00    -0.012 C 
ATOM     29  H   LIG d   1      11.065   4.903   0.972  0.00  0.00     0.039 H 
ATOM     30  H   LIG d   1      12.082   6.332   0.667  0.00  0.00     0.039 H 
ATOM     31  H   LIG d   1      10.460   6.529   1.373  0.00  0.00     0.039 H 
ENDBRANCH   1  28
TORSDOF 3
ENDMDL
MODEL 8
REMARK VINA RESULT:      -4.1      9.428     10.588
REMARK  3 active torsions:
REMARK  status: ('A' for Active; 'I' for Inactive)
REMARK    1  A    between atoms: C_1  and  N_2 
REMARK    2  A    between atoms: C_9  and  O_12 
REMARK    3  A    between atoms: O_12  and  C_13 
ROOT
ATOM      1  N   LIG d   1       9.471   8.499  -5.388  0.00  0.00    -0.301 N 
ATOM      2  C   LIG d   1      10.570   9.463  -5.218  0.00  0.00     0.003 C 
ATOM      3  C   LIG d   1      10.525  10.006  -3.790  0.00  0.00    -0.014 C 
ATOM      4  C   LIG d   1      10.448   8.864  -2.809  0.00  0.00    -0.035 A 
ATOM      5  C   LIG d   1      10.757   9.115  -1.480  0.00  0.00    -0.012 A 
ATOM      6  C   LIG d   1      10.698   8.100  -0.540  0.00  0.00     0.170 A 
ATOM      7  C   LIG d   1      10.324   6.819  -0.932  0.00  0.00     0.208 A 
ATOM      8  C   LIG d   1      10.017   6.570  -2.262  0.00  0.00     0.170 A 
ATOM      9  C   LIG d   1      10.082   7.595  -3.202  0.00  0.00     0.015 A 
ATOM     10  C   LIG d   1       9.751   7.272  -4.636  0.00  0.00     0.028 C 
ATOM     11  O   LIG d   1      10.340   6.005   0.164  0.00  0.00    -0.449 OA
ATOM     12  C   LIG d   1      11.120   6.704   1.151  0.00  0.00     0.233 C 
ATOM     13  O   LIG d   1      10.948   8.091   0.802  0.00  0.00    -0.453 OA
ATOM     14  H   LIG d   1      11.524   8.964  -5.391  0.00  0.00     0.043 H 
ATOM     15  H   LIG d   1      10.451  10.283  -5.926  0.00  0.00     0.043 H 
ATOM     16  H   LIG d   1      11.423  10.590  -3.596  0.00  0.00     0.033 H 
ATOM     17  H   LIG d   1       9.647  10.643  -3.673  0.00  0.00     0.033 H 
ATOM     18  H   LIG d   1      11.046  10.110  -1.176  0.00  0.00     0.066 H 
ATOM     19  H   LIG d   1       8.876   6.624  -4.666  0.00  0.00     0.048 H 
ATOM     20  H   LIG d   1      10.595   6.756  -5.093  0.00  0.00     0.048 H 
ATOM     21  H   LIG d   1      10.734   6.511   2.152  0.00  0.00     0.117 H 
ATOM     22  H   LIG d   1      12.170   6.419   1.082  0.00  0.00     0.117 H 
ENDROOT
BRANCH   8  23
ATOM     23  O   LIG d   1       9.652   5.319  -2.650  0.00  0.00    -0.491 OA
BRANCH  23  24
ATOM     24  C   LIG d   1      10.673   4.321  -2.666  0.00  0.00     0.079 C 
ATOM     25  H   LIG d   1      11.638   4.791  -2.858  0.00  0.00     0.066 H 
ATOM     26  H   LIG d   1      10.702   3.815  -1.700  0.00  0.00     0.066 H 
ATOM     27  H   LIG d   1      10.461   3.594  -3.450  0.00  0.00     0.066 H 
ENDBRANCH  23  24
ENDBRANCH   8  23
BRANCH   1  28
ATOM     28  C   LIG d   1       9.242   8.206  -6.809  0.00  0.00    -0.012 C 
ATOM     29  H   LIG d   1       9.239   9.137  -7.376  0.00  0.00     0.039 H 
ATOM     30  H   LIG d   1      10.037   7.558  -7.179  0.00  0.00     0.039 H 
ATOM     31  H   LIG d   1       8.281   7.705  -6.926  0.00  0.00     0.039 H 
ENDBRANCH   1  28
TORSDOF 3
ENDMDL
MODEL 9
REMARK VINA RESULT:      -4.1      2.394      3.994
REMARK  3 active torsions:
REMARK  status: ('A' for Active; 'I' for Inactive)
REMARK    1  A    between atoms: C_1  and  N_2 
REMARK    2  A    between atoms: C_9  and  O_12 
REMARK    3  A    between atoms: O_12  and  C_13 
ROOT
ATOM      1  N   LIG d   1       8.695  -1.485  -6.111  0.00  0.00    -0.301 N 
ATOM      2  C   LIG d   1       8.648  -2.792  -5.437  0.00  0.00     0.003 C 
ATOM      3  C   LIG d   1       7.987  -2.612  -4.071  0.00  0.00    -0.014 C 
ATOM      4  C   LIG d   1       6.686  -1.866  -4.224  0.00  0.00    -0.035 A 
ATOM      5  C   LIG d   1       5.773  -1.913  -3.181  0.00  0.00    -0.012 A 
ATOM      6  C   LIG d   1       4.566  -1.242  -3.273  0.00  0.00     0.170 A 
ATOM      7  C   LIG d   1       4.268  -0.512  -4.420  0.00  0.00     0.208 A 
ATOM      8  C   LIG d   1       5.183  -0.468  -5.461  0.00  0.00     0.170 A 
ATOM      9  C   LIG d   1       6.394  -1.148  -5.363  0.00  0.00     0.015 A 
ATOM     10  C   LIG d   1       7.349  -1.079  -6.527  0.00  0.00     0.028 C 
ATOM     11  O   LIG d   1       3.034   0.053  -4.269  0.00  0.00    -0.449 OA
ATOM     12  C   LIG d   1       2.409  -0.670  -3.193  0.00  0.00     0.233 C 
ATOM     13  O   LIG d   1       3.519  -1.134  -2.402  0.00  0.00    -0.453 OA
ATOM     14  H   LIG d   1       8.066  -3.492  -6.036  0.00  0.00     0.043 H 
ATOM     15  H   LIG d   1       9.662  -3.174  -5.307  0.00  0.00     0.043 H 
ATOM     16  H   LIG d   1       7.794  -3.589  -3.629  0.00  0.00     0.033 H 
ATOM     17  H   LIG d   1       8.654  -2.047  -3.418  0.00  0.00     0.033 H 
ATOM     18  H   LIG d   1       6.005  -2.479  -2.291  0.00  0.00     0.066 H 
ATOM     19  H   LIG d   1       7.381  -0.058  -6.905  0.00  0.00     0.048 H 
ATOM     20  H   LIG d   1       7.002  -1.745  -7.317  0.00  0.00     0.048 H 
ATOM     21  H   LIG d   1       1.771  -0.007  -2.606  0.00  0.00     0.117 H 
ATOM     22  H   LIG d   1       1.834  -1.511  -3.580  0.00  0.00     0.117 H 
ENDROOT
BRANCH   8  23
ATOM     23  O   LIG d   1       4.897   0.243  -6.584  0.00  0.00    -0.491 OA
BRANCH  23  24
ATOM     24  C   LIG d   1       3.940  -0.322  -7.483  0.00  0.00     0.079 C 
ATOM     25  H   LIG d   1       4.277  -1.310  -7.798  0.00  0.00     0.066 H 
ATOM     26  H   LIG d   1       2.976  -0.409  -6.981  0.00  0.00     0.066 H 
ATOM     27  H   LIG d   1       3.838   0.322  -8.357  0.00  0.00     0.066 H 
ENDBRANCH  23  24
ENDBRANCH   8  23
BRANCH   1  28
ATOM     28  C   LIG d   1       9.614  -1.515  -7.257  0.00  0.00    -0.012 C 
ATOM     29  H   LIG d   1       9.968  -2.534  -7.411  0.00  0.00     0.039 H 
ATOM     30  H   LIG d   1       9.091  -1.173  -8.150  0.00  0.00     0.039 H 
ATOM     31  H   LIG d   1      10.462  -0.861  -7.059  0.00  0.00     0.039 H 
ENDBRANCH   1  28
TORSDOF 3
ENDMDL
MODEL 10
REMARK VINA RESULT:      -4.1      9.869     12.075
REMARK  3 active torsions:
REMARK  status: ('A' for Active; 'I' for Inactive)
REMARK    1  A    between atoms: C_1  and  N_2 
REMARK    2  A    between atoms: C_9  and  O_12 
REMARK    3  A    between atoms: O_12  and  C_13 
ROOT
ATOM      1  N   LIG d   1      10.791   9.899   0.715  0.00  0.00    -0.301 N 
ATOM      2  C   LIG d   1      11.763   8.962   1.300  0.00  0.00     0.003 C 
ATOM      3  C   LIG d   1      11.202   7.544   1.183  0.00  0.00    -0.014 C 
ATOM      4  C   LIG d   1      10.758   7.284  -0.234  0.00  0.00    -0.035 A 
ATOM      5  C   LIG d   1      10.560   5.970  -0.632  0.00  0.00    -0.012 A 
ATOM      6  C   LIG d   1      10.149   5.680  -1.921  0.00  0.00     0.170 A 
ATOM      7  C   LIG d   1       9.930   6.715  -2.825  0.00  0.00     0.208 A 
ATOM      8  C   LIG d   1      10.130   8.028  -2.424  0.00  0.00     0.170 A 
ATOM      9  C   LIG d   1      10.547   8.313  -1.127  0.00  0.00     0.015 A 
ATOM     10  C   LIG d   1      10.762   9.754  -0.744  0.00  0.00     0.028 C 
ATOM     11  O   LIG d   1       9.533   6.179  -4.016  0.00  0.00    -0.449 OA
ATOM     12  C   LIG d   1       9.905   4.790  -3.955  0.00  0.00     0.233 C 
ATOM     13  O   LIG d   1       9.889   4.493  -2.546  0.00  0.00    -0.453 OA
ATOM     14  H   LIG d   1      12.707   9.029   0.761  0.00  0.00     0.043 H 
ATOM     15  H   LIG d   1      11.921   9.207   2.351  0.00  0.00     0.043 H 
ATOM     16  H   LIG d   1      11.974   6.826   1.458  0.00  0.00     0.033 H 
ATOM     17  H   LIG d   1      10.351   7.435   1.855  0.00  0.00     0.033 H 
ATOM     18  H   LIG d   1      10.729   5.167   0.070  0.00  0.00     0.066 H 
ATOM     19  H   LIG d   1       9.951  10.358  -1.150  0.00  0.00     0.048 H 
ATOM     20  H   LIG d   1      11.709  10.099  -1.159  0.00  0.00     0.048 H 
ATOM     21  H   LIG d   1       9.176   4.174  -4.484  0.00  0.00     0.117 H 
ATOM     22  H   LIG d   1      10.903   4.641  -4.367  0.00  0.00     0.117 H 
ENDROOT
BRANCH   8  23
ATOM     23  O   LIG d   1       9.918   9.044  -3.304  0.00  0.00    -0.491 OA
BRANCH  23  24
ATOM     24  C   LIG d   1      10.915   9.252  -4.306  0.00  0.00     0.079 C 
ATOM     25  H   LIG d   1      10.460   9.723  -5.178  0.00  0.00     0.066 H 
ATOM     26  H   LIG d   1      11.698   9.900  -3.910  0.00  0.00     0.066 H 
ATOM     27  H   LIG d   1      11.347   8.294  -4.594  0.00  0.00     0.066 H 
ENDBRANCH  23  24
ENDBRANCH   8  23
BRANCH   1  28
ATOM     28  C   LIG d   1      11.097  11.284   1.100  0.00  0.00    -0.012 C 
ATOM     29  H   LIG d   1      10.406  11.604   1.880  0.00  0.00     0.039 H 
ATOM     30  H   LIG d   1      12.119  11.340   1.474  0.00  0.00     0.039 H 
ATOM     31  H   LIG d   1      10.991  11.934   0.231  0.00  0.00     0.039 H 
ENDBRANCH   1  28
TORSDOF 3
ENDMDL
