MODEL 1
REMARK VINA RESULT:      -6.7      0.000      0.000
REMARK  15 active torsions:
REMARK  status: ('A' for Active; 'I' for Inactive)
REMARK    1  A    between atoms: C_1  and  C_2 
REMARK    2  A    between atoms: C_2  and  O_3 
REMARK    3  A    between atoms: O_3  and  C_4 
REMARK    4  A    between atoms: C_6  and  O_40 
REMARK    5  A    between atoms: C_8  and  O_32 
REMARK    6  A    between atoms: C_10  and  C_13 
REMARK    7  A    between atoms: C_13  and  C_15 
REMARK    8  A    between atoms: C_13  and  O_24 
REMARK    9  A    between atoms: C_15  and  O_16 
REMARK   10  A    between atoms: O_16  and  C_17 
REMARK   11  A    between atoms: C_17  and  C_18 
REMARK   12  A    between atoms: O_24  and  C_25 
REMARK   13  A    between atoms: C_25  and  C_26 
REMARK   14  A    between atoms: O_32  and  C_33 
REMARK   15  A    between atoms: C_33  and  C_34 
ROOT
ATOM      1  C   LIG d   1       7.640   0.455  -6.624  0.00  0.00     0.111 C 
ATOM      2  H   LIG d   1       6.676   0.755  -6.213  0.00  0.00     0.065 H 
ENDROOT
BRANCH   1   3
ATOM      3  C   LIG d   1       8.759   0.901  -5.679  0.00  0.00     0.119 C 
ATOM      4  C   LIG d   1       8.194   1.100  -4.257  0.00  0.00     0.118 C 
ATOM      5  C   LIG d   1       8.952   2.368  -3.777  0.00  0.00     0.134 C 
ATOM      6  H   LIG d   1       8.428   0.245  -3.623  0.00  0.00     0.065 H 
ATOM      7  C   LIG d   1       9.078   3.156  -5.104  0.00  0.00     0.188 C 
ATOM      8  H   LIG d   1       8.365   2.924  -3.045  0.00  0.00     0.067 H 
ATOM      9  H   LIG d   1       8.160   3.708  -5.306  0.00  0.00     0.094 H 
ATOM     10  O   LIG d   1       9.290   2.157  -6.115  0.00  0.00    -0.340 OA
ATOM     11  H   LIG d   1       9.549   0.150  -5.664  0.00  0.00     0.065 H 
BRANCH   4  12
ATOM     12  O   LIG d   1       6.785   1.335  -4.298  0.00  0.00    -0.367 OA
BRANCH  12  13
ATOM     13  C   LIG d   1       6.168   1.392  -3.009  0.00  0.00     0.073 C 
ATOM     14  H   LIG d   1       6.918   1.216  -2.239  0.00  0.00     0.061 H 
ATOM     15  H   LIG d   1       5.721   2.377  -2.864  0.00  0.00     0.061 H 
BRANCH  13  16
ATOM     16  C   LIG d   1       5.096   0.337  -2.919  0.00  0.00    -0.022 A 
ATOM     17  C   LIG d   1       5.447  -0.997  -2.813  0.00  0.00    -0.056 A 
ATOM     18  C   LIG d   1       4.464  -1.965  -2.729  0.00  0.00    -0.061 A 
ATOM     19  H   LIG d   1       6.488  -1.281  -2.795  0.00  0.00     0.062 H 
ATOM     20  C   LIG d   1       3.131  -1.600  -2.751  0.00  0.00    -0.062 A 
ATOM     21  H   LIG d   1       4.738  -3.006  -2.647  0.00  0.00     0.062 H 
ATOM     22  C   LIG d   1       2.780  -0.267  -2.857  0.00  0.00    -0.061 A 
ATOM     23  H   LIG d   1       2.363  -2.357  -2.687  0.00  0.00     0.062 H 
ATOM     24  C   LIG d   1       3.763   0.702  -2.935  0.00  0.00    -0.056 A 
ATOM     25  H   LIG d   1       1.739   0.018  -2.875  0.00  0.00     0.062 H 
ATOM     26  H   LIG d   1       3.489   1.744  -3.014  0.00  0.00     0.062 H 
ENDBRANCH  13  16
ENDBRANCH  12  13
ENDBRANCH   4  12
BRANCH   5  27
ATOM     27  O   LIG d   1      10.238   2.033  -3.252  0.00  0.00    -0.384 OA
ATOM     28  H   LIG d   1      10.889   1.798  -3.928  0.00  0.00     0.210 HD
ENDBRANCH   5  27
BRANCH   7  29
ATOM     29  O   LIG d   1      10.191   4.051  -5.050  0.00  0.00    -0.349 OA
BRANCH  29  30
ATOM     30  C   LIG d   1       9.929   5.340  -5.607  0.00  0.00     0.048 C 
ATOM     31  H   LIG d   1      10.873   5.847  -5.808  0.00  0.00     0.056 H 
ATOM     32  H   LIG d   1       9.372   5.228  -6.536  0.00  0.00     0.056 H 
BRANCH  30  33
ATOM     33  C   LIG d   1       9.106   6.165  -4.616  0.00  0.00    -0.042 C 
ATOM     34  H   LIG d   1       8.305   5.549  -4.206  0.00  0.00     0.025 H 
ATOM     35  H   LIG d   1       9.750   6.510  -3.807  0.00  0.00     0.025 H 
ATOM     36  H   LIG d   1       8.676   7.025  -5.130  0.00  0.00     0.025 H 
ENDBRANCH  30  33
ENDBRANCH  29  30
ENDBRANCH   7  29
ENDBRANCH   1   3
BRANCH   1  37
ATOM     37  C   LIG d   1       7.677  -1.067  -6.776  0.00  0.00     0.077 C 
ATOM     38  H   LIG d   1       8.650  -1.440  -6.457  0.00  0.00     0.059 H 
ATOM     39  H   LIG d   1       7.512  -1.332  -7.821  0.00  0.00     0.059 H 
BRANCH  37  40
ATOM     40  O   LIG d   1       6.654  -1.652  -5.968  0.00  0.00    -0.372 OA
BRANCH  40  41
ATOM     41  C   LIG d   1       5.754  -2.494  -6.690  0.00  0.00     0.073 C 
ATOM     42  H   LIG d   1       5.427  -3.310  -6.046  0.00  0.00     0.061 H 
ATOM     43  H   LIG d   1       6.259  -2.902  -7.565  0.00  0.00     0.061 H 
BRANCH  41  44
ATOM     44  C   LIG d   1       4.557  -1.691  -7.130  0.00  0.00    -0.022 A 
ATOM     45  C   LIG d   1       3.872  -2.043  -8.278  0.00  0.00    -0.056 A 
ATOM     46  C   LIG d   1       2.772  -1.308  -8.679  0.00  0.00    -0.061 A 
ATOM     47  H   LIG d   1       4.194  -2.894  -8.860  0.00  0.00     0.062 H 
ATOM     48  C   LIG d   1       2.362  -0.215  -7.937  0.00  0.00    -0.062 A 
ATOM     49  H   LIG d   1       2.234  -1.586  -9.574  0.00  0.00     0.062 H 
ATOM     50  C   LIG d   1       3.047   0.135  -6.788  0.00  0.00    -0.061 A 
ATOM     51  H   LIG d   1       1.505   0.360  -8.252  0.00  0.00     0.062 H 
ATOM     52  C   LIG d   1       4.145  -0.602  -6.386  0.00  0.00    -0.056 A 
ATOM     53  H   LIG d   1       2.725   0.987  -6.207  0.00  0.00     0.062 H 
ATOM     54  H   LIG d   1       4.680  -0.327  -5.489  0.00  0.00     0.062 H 
ENDBRANCH  41  44
ENDBRANCH  40  41
ENDBRANCH  37  40
ENDBRANCH   1  37
BRANCH   1  55
ATOM     55  O   LIG d   1       7.825   1.067  -7.903  0.00  0.00    -0.367 OA
BRANCH  55  56
ATOM     56  C   LIG d   1       7.339   0.285  -8.996  0.00  0.00     0.073 C 
ATOM     57  H   LIG d   1       8.080   0.277  -9.794  0.00  0.00     0.061 H 
ATOM     58  H   LIG d   1       7.155  -0.735  -8.660  0.00  0.00     0.061 H 
BRANCH  56  59
ATOM     59  C   LIG d   1       6.055   0.885  -9.509  0.00  0.00    -0.022 A 
ATOM     60  C   LIG d   1       5.412   0.319 -10.594  0.00  0.00    -0.056 A 
ATOM     61  C   LIG d   1       4.234   0.869 -11.063  0.00  0.00    -0.061 A 
ATOM     62  H   LIG d   1       5.831  -0.552 -11.075  0.00  0.00     0.062 H 
ATOM     63  C   LIG d   1       3.698   1.984 -10.447  0.00  0.00    -0.062 A 
ATOM     64  H   LIG d   1       3.733   0.427 -11.912  0.00  0.00     0.062 H 
ATOM     65  C   LIG d   1       4.341   2.550  -9.362  0.00  0.00    -0.061 A 
ATOM     66  H   LIG d   1       2.777   2.414 -10.814  0.00  0.00     0.062 H 
ATOM     67  C   LIG d   1       5.516   1.997  -8.889  0.00  0.00    -0.056 A 
ATOM     68  H   LIG d   1       3.922   3.421  -8.881  0.00  0.00     0.062 H 
ATOM     69  H   LIG d   1       6.015   2.436  -8.038  0.00  0.00     0.062 H 
ENDBRANCH  56  59
ENDBRANCH  55  56
ENDBRANCH   1  55
TORSDOF 15
ENDMDL
MODEL 2
REMARK VINA RESULT:      -6.5      2.186      3.763
REMARK  15 active torsions:
REMARK  status: ('A' for Active; 'I' for Inactive)
REMARK    1  A    between atoms: C_1  and  C_2 
REMARK    2  A    between atoms: C_2  and  O_3 
REMARK    3  A    between atoms: O_3  and  C_4 
REMARK    4  A    between atoms: C_6  and  O_40 
REMARK    5  A    between atoms: C_8  and  O_32 
REMARK    6  A    between atoms: C_10  and  C_13 
REMARK    7  A    between atoms: C_13  and  C_15 
REMARK    8  A    between atoms: C_13  and  O_24 
REMARK    9  A    between atoms: C_15  and  O_16 
REMARK   10  A    between atoms: O_16  and  C_17 
REMARK   11  A    between atoms: C_17  and  C_18 
REMARK   12  A    between atoms: O_24  and  C_25 
REMARK   13  A    between atoms: C_25  and  C_26 
REMARK   14  A    between atoms: O_32  and  C_33 
REMARK   15  A    between atoms: C_33  and  C_34 
ROOT
ATOM      1  C   LIG d   1       5.398  -3.098  -6.957  0.00  0.00     0.111 C 
ATOM      2  H   LIG d   1       4.496  -3.310  -6.383  0.00  0.00     0.065 H 
ENDROOT
BRANCH   1   3
ATOM      3  C   LIG d   1       6.609  -3.090  -6.021  0.00  0.00     0.119 C 
ATOM      4  C   LIG d   1       6.139  -3.237  -4.558  0.00  0.00     0.118 C 
ATOM      5  C   LIG d   1       7.095  -2.269  -3.808  0.00  0.00     0.134 C 
ATOM      6  H   LIG d   1       6.273  -4.261  -4.209  0.00  0.00     0.065 H 
ATOM      7  C   LIG d   1       7.279  -1.156  -4.869  0.00  0.00     0.188 C 
ATOM      8  H   LIG d   1       6.627  -1.877  -2.904  0.00  0.00     0.067 H 
ATOM      9  H   LIG d   1       6.444  -0.456  -4.833  0.00  0.00     0.094 H 
ATOM     10  O   LIG d   1       7.299  -1.841  -6.131  0.00  0.00    -0.340 OA
ATOM     11  H   LIG d   1       7.281  -3.909  -6.280  0.00  0.00     0.065 H 
BRANCH   4  12
ATOM     12  O   LIG d   1       4.780  -2.822  -4.415  0.00  0.00    -0.367 OA
BRANCH  12  13
ATOM     13  C   LIG d   1       4.395  -2.547  -3.067  0.00  0.00     0.073 C 
ATOM     14  H   LIG d   1       3.500  -3.117  -2.821  0.00  0.00     0.061 H 
ATOM     15  H   LIG d   1       5.204  -2.831  -2.393  0.00  0.00     0.061 H 
BRANCH  13  16
ATOM     16  C   LIG d   1       4.110  -1.075  -2.915  0.00  0.00    -0.022 A 
ATOM     17  C   LIG d   1       3.361  -0.414  -3.872  0.00  0.00    -0.056 A 
ATOM     18  C   LIG d   1       3.100   0.937  -3.733  0.00  0.00    -0.061 A 
ATOM     19  H   LIG d   1       2.980  -0.953  -4.726  0.00  0.00     0.062 H 
ATOM     20  C   LIG d   1       3.587   1.626  -2.639  0.00  0.00    -0.062 A 
ATOM     21  H   LIG d   1       2.514   1.452  -4.480  0.00  0.00     0.062 H 
ATOM     22  C   LIG d   1       4.337   0.965  -1.682  0.00  0.00    -0.061 A 
ATOM     23  H   LIG d   1       3.383   2.681  -2.530  0.00  0.00     0.062 H 
ATOM     24  C   LIG d   1       4.593  -0.386  -1.819  0.00  0.00    -0.056 A 
ATOM     25  H   LIG d   1       4.718   1.504  -0.828  0.00  0.00     0.062 H 
ATOM     26  H   LIG d   1       5.175  -0.903  -1.069  0.00  0.00     0.062 H 
ENDBRANCH  13  16
ENDBRANCH  12  13
ENDBRANCH   4  12
BRANCH   5  27
ATOM     27  O   LIG d   1       8.339  -2.903  -3.505  0.00  0.00    -0.384 OA
ATOM     28  H   LIG d   1       8.839  -3.181  -4.285  0.00  0.00     0.210 HD
ENDBRANCH   5  27
BRANCH   7  29
ATOM     29  O   LIG d   1       8.512  -0.465  -4.659  0.00  0.00    -0.349 OA
BRANCH  29  30
ATOM     30  C   LIG d   1       8.404   0.957  -4.743  0.00  0.00     0.048 C 
ATOM     31  H   LIG d   1       9.365   1.409  -4.495  0.00  0.00     0.056 H 
ATOM     32  H   LIG d   1       8.120   1.241  -5.755  0.00  0.00     0.056 H 
BRANCH  30  33
ATOM     33  C   LIG d   1       7.340   1.446  -3.758  0.00  0.00    -0.042 C 
ATOM     34  H   LIG d   1       6.437   1.719  -4.305  0.00  0.00     0.025 H 
ATOM     35  H   LIG d   1       7.110   0.652  -3.048  0.00  0.00     0.025 H 
ATOM     36  H   LIG d   1       7.717   2.317  -3.221  0.00  0.00     0.025 H 
ENDBRANCH  30  33
ENDBRANCH  29  30
ENDBRANCH   7  29
ENDBRANCH   1   3
BRANCH   1  37
ATOM     37  C   LIG d   1       5.587  -4.177  -8.026  0.00  0.00     0.077 C 
ATOM     38  H   LIG d   1       5.804  -5.131  -7.544  0.00  0.00     0.059 H 
ATOM     39  H   LIG d   1       6.416  -3.902  -8.678  0.00  0.00     0.059 H 
BRANCH  37  40
ATOM     40  O   LIG d   1       4.392  -4.295  -8.800  0.00  0.00    -0.372 OA
BRANCH  40  41
ATOM     41  C   LIG d   1       4.540  -3.897 -10.164  0.00  0.00     0.073 C 
ATOM     42  H   LIG d   1       4.296  -4.736 -10.815  0.00  0.00     0.061 H 
ATOM     43  H   LIG d   1       5.569  -3.586 -10.342  0.00  0.00     0.061 H 
BRANCH  41  44
ATOM     44  C   LIG d   1       3.610  -2.747 -10.456  0.00  0.00    -0.022 A 
ATOM     45  C   LIG d   1       4.014  -1.727 -11.296  0.00  0.00    -0.056 A 
ATOM     46  C   LIG d   1       3.159  -0.675 -11.568  0.00  0.00    -0.061 A 
ATOM     47  H   LIG d   1       4.996  -1.754 -11.745  0.00  0.00     0.062 H 
ATOM     48  C   LIG d   1       1.903  -0.639 -10.990  0.00  0.00    -0.062 A 
ATOM     49  H   LIG d   1       3.473   0.119 -12.228  0.00  0.00     0.062 H 
ATOM     50  C   LIG d   1       1.499  -1.660 -10.150  0.00  0.00    -0.061 A 
ATOM     51  H   LIG d   1       1.237   0.185 -11.199  0.00  0.00     0.062 H 
ATOM     52  C   LIG d   1       2.353  -2.713  -9.882  0.00  0.00    -0.056 A 
ATOM     53  H   LIG d   1       0.517  -1.633  -9.701  0.00  0.00     0.062 H 
ATOM     54  H   LIG d   1       2.037  -3.510  -9.226  0.00  0.00     0.062 H 
ENDBRANCH  41  44
ENDBRANCH  40  41
ENDBRANCH  37  40
ENDBRANCH   1  37
BRANCH   1  55
ATOM     55  O   LIG d   1       5.274  -1.821  -7.587  0.00  0.00    -0.367 OA
BRANCH  55  56
ATOM     56  C   LIG d   1       4.110  -1.091  -7.195  0.00  0.00     0.073 C 
ATOM     57  H   LIG d   1       3.220  -1.675  -7.430  0.00  0.00     0.061 H 
ATOM     58  H   LIG d   1       4.145  -0.898  -6.123  0.00  0.00     0.061 H 
BRANCH  56  59
ATOM     59  C   LIG d   1       4.064   0.218  -7.941  0.00  0.00    -0.022 A 
ATOM     60  C   LIG d   1       5.167   0.646  -8.655  0.00  0.00    -0.056 A 
ATOM     61  C   LIG d   1       5.123   1.846  -9.339  0.00  0.00    -0.061 A 
ATOM     62  H   LIG d   1       6.063   0.044  -8.676  0.00  0.00     0.062 H 
ATOM     63  C   LIG d   1       3.976   2.617  -9.312  0.00  0.00    -0.062 A 
ATOM     64  H   LIG d   1       5.986   2.181  -9.896  0.00  0.00     0.062 H 
ATOM     65  C   LIG d   1       2.873   2.188  -8.598  0.00  0.00    -0.061 A 
ATOM     66  H   LIG d   1       3.943   3.555  -9.847  0.00  0.00     0.062 H 
ATOM     67  C   LIG d   1       2.914   0.985  -7.917  0.00  0.00    -0.056 A 
ATOM     68  H   LIG d   1       1.977   2.791  -8.577  0.00  0.00     0.062 H 
ATOM     69  H   LIG d   1       2.050   0.649  -7.365  0.00  0.00     0.062 H 
ENDBRANCH  56  59
ENDBRANCH  55  56
ENDBRANCH   1  55
TORSDOF 15
ENDMDL
MODEL 3
REMARK VINA RESULT:      -6.1      3.099      6.636
REMARK  15 active torsions:
REMARK  status: ('A' for Active; 'I' for Inactive)
REMARK    1  A    between atoms: C_1  and  C_2 
REMARK    2  A    between atoms: C_2  and  O_3 
REMARK    3  A    between atoms: O_3  and  C_4 
REMARK    4  A    between atoms: C_6  and  O_40 
REMARK    5  A    between atoms: C_8  and  O_32 
REMARK    6  A    between atoms: C_10  and  C_13 
REMARK    7  A    between atoms: C_13  and  C_15 
REMARK    8  A    between atoms: C_13  and  O_24 
REMARK    9  A    between atoms: C_15  and  O_16 
REMARK   10  A    between atoms: O_16  and  C_17 
REMARK   11  A    between atoms: C_17  and  C_18 
REMARK   12  A    between atoms: O_24  and  C_25 
REMARK   13  A    between atoms: C_25  and  C_26 
REMARK   14  A    between atoms: O_32  and  C_33 
REMARK   15  A    between atoms: C_33  and  C_34 
ROOT
ATOM      1  C   LIG d   1       3.549   0.344  -8.447  0.00  0.00     0.111 C 
ATOM      2  H   LIG d   1       4.511   0.006  -8.062  0.00  0.00     0.065 H 
ENDROOT
BRANCH   1   3
ATOM      3  C   LIG d   1       2.772  -0.854  -8.998  0.00  0.00     0.119 C 
ATOM      4  C   LIG d   1       3.339  -2.162  -8.407  0.00  0.00     0.118 C 
ATOM      5  C   LIG d   1       3.284  -3.125  -9.625  0.00  0.00     0.134 C 
ATOM      6  H   LIG d   1       2.709  -2.527  -7.596  0.00  0.00     0.065 H 
ATOM      7  C   LIG d   1       3.578  -2.145 -10.788  0.00  0.00     0.188 C 
ATOM      8  H   LIG d   1       4.055  -3.893  -9.554  0.00  0.00     0.067 H 
ATOM      9  H   LIG d   1       4.651  -1.985 -10.886  0.00  0.00     0.094 H 
ATOM     10  O   LIG d   1       2.924  -0.919 -10.420  0.00  0.00    -0.340 OA
ATOM     11  H   LIG d   1       1.716  -0.758  -8.743  0.00  0.00     0.065 H 
BRANCH   4  12
ATOM     12  O   LIG d   1       4.685  -1.979  -7.965  0.00  0.00    -0.367 OA
BRANCH  12  13
ATOM     13  C   LIG d   1       5.110  -2.931  -6.987  0.00  0.00     0.073 C 
ATOM     14  H   LIG d   1       4.239  -3.417  -6.550  0.00  0.00     0.061 H 
ATOM     15  H   LIG d   1       5.746  -3.680  -7.461  0.00  0.00     0.061 H 
BRANCH  13  16
ATOM     16  C   LIG d   1       5.887  -2.226  -5.904  0.00  0.00    -0.022 A 
ATOM     17  C   LIG d   1       6.400  -2.946  -4.841  0.00  0.00    -0.056 A 
ATOM     18  C   LIG d   1       7.113  -2.300  -3.849  0.00  0.00    -0.061 A 
ATOM     19  H   LIG d   1       6.243  -4.013  -4.786  0.00  0.00     0.062 H 
ATOM     20  C   LIG d   1       7.314  -0.934  -3.920  0.00  0.00    -0.062 A 
ATOM     21  H   LIG d   1       7.513  -2.863  -3.019  0.00  0.00     0.062 H 
ATOM     22  C   LIG d   1       6.801  -0.214  -4.983  0.00  0.00    -0.061 A 
ATOM     23  H   LIG d   1       7.871  -0.429  -3.144  0.00  0.00     0.062 H 
ATOM     24  C   LIG d   1       6.093  -0.861  -5.978  0.00  0.00    -0.056 A 
ATOM     25  H   LIG d   1       6.958   0.853  -5.038  0.00  0.00     0.062 H 
ATOM     26  H   LIG d   1       5.696  -0.299  -6.811  0.00  0.00     0.062 H 
ENDBRANCH  13  16
ENDBRANCH  12  13
ENDBRANCH   4  12
BRANCH   5  27
ATOM     27  O   LIG d   1       1.988  -3.712  -9.760  0.00  0.00    -0.384 OA
ATOM     28  H   LIG d   1       1.259  -3.086  -9.643  0.00  0.00     0.210 HD
ENDBRANCH   5  27
BRANCH   7  29
ATOM     29  O   LIG d   1       3.038  -2.647 -12.012  0.00  0.00    -0.349 OA
BRANCH  29  30
ATOM     30  C   LIG d   1       2.250  -1.698 -12.733  0.00  0.00     0.048 C 
ATOM     31  H   LIG d   1       2.215  -0.760 -12.179  0.00  0.00     0.056 H 
ATOM     32  H   LIG d   1       2.696  -1.525 -13.712  0.00  0.00     0.056 H 
BRANCH  30  33
ATOM     33  C   LIG d   1       0.831  -2.242 -12.908  0.00  0.00    -0.042 C 
ATOM     34  H   LIG d   1       0.785  -2.857 -13.808  0.00  0.00     0.025 H 
ATOM     35  H   LIG d   1       0.564  -2.846 -12.041  0.00  0.00     0.025 H 
ATOM     36  H   LIG d   1       0.133  -1.410 -13.001  0.00  0.00     0.025 H 
ENDBRANCH  30  33
ENDBRANCH  29  30
ENDBRANCH   7  29
ENDBRANCH   1   3
BRANCH   1  37
ATOM     37  C   LIG d   1       2.748   0.996  -7.319  0.00  0.00     0.077 C 
ATOM     38  H   LIG d   1       1.731   0.603  -7.322  0.00  0.00     0.059 H 
ATOM     39  H   LIG d   1       2.721   2.076  -7.469  0.00  0.00     0.059 H 
BRANCH  37  40
ATOM     40  O   LIG d   1       3.367   0.705  -6.065  0.00  0.00    -0.372 OA
BRANCH  40  41
ATOM     41  C   LIG d   1       2.447   0.562  -4.981  0.00  0.00     0.073 C 
ATOM     42  H   LIG d   1       1.664  -0.142  -5.261  0.00  0.00     0.061 H 
ATOM     43  H   LIG d   1       2.002   1.530  -4.752  0.00  0.00     0.061 H 
BRANCH  41  44
ATOM     44  C   LIG d   1       3.177   0.045  -3.767  0.00  0.00    -0.022 A 
ATOM     45  C   LIG d   1       3.174  -1.307  -3.484  0.00  0.00    -0.056 A 
ATOM     46  C   LIG d   1       3.847  -1.782  -2.373  0.00  0.00    -0.061 A 
ATOM     47  H   LIG d   1       2.651  -1.994  -4.132  0.00  0.00     0.062 H 
ATOM     48  C   LIG d   1       4.514  -0.902  -1.540  0.00  0.00    -0.062 A 
ATOM     49  H   LIG d   1       3.849  -2.839  -2.154  0.00  0.00     0.062 H 
ATOM     50  C   LIG d   1       4.516   0.451  -1.825  0.00  0.00    -0.061 A 
ATOM     51  H   LIG d   1       5.036  -1.272  -0.671  0.00  0.00     0.062 H 
ATOM     52  C   LIG d   1       3.847   0.924  -2.938  0.00  0.00    -0.056 A 
ATOM     53  H   LIG d   1       5.040   1.138  -1.177  0.00  0.00     0.062 H 
ATOM     54  H   LIG d   1       3.849   1.981  -3.160  0.00  0.00     0.062 H 
ENDBRANCH  41  44
ENDBRANCH  40  41
ENDBRANCH  37  40
ENDBRANCH   1  37
BRANCH   1  55
ATOM     55  O   LIG d   1       3.761   1.295  -9.493  0.00  0.00    -0.367 OA
BRANCH  55  56
ATOM     56  C   LIG d   1       4.840   2.199  -9.246  0.00  0.00     0.073 C 
ATOM     57  H   LIG d   1       4.895   2.929 -10.053  0.00  0.00     0.061 H 
ATOM     58  H   LIG d   1       4.673   2.714  -8.300  0.00  0.00     0.061 H 
BRANCH  56  59
ATOM     59  C   LIG d   1       6.134   1.428  -9.177  0.00  0.00    -0.022 A 
ATOM     60  C   LIG d   1       7.111   1.795  -8.271  0.00  0.00    -0.056 A 
ATOM     61  C   LIG d   1       8.296   1.087  -8.208  0.00  0.00    -0.061 A 
ATOM     62  H   LIG d   1       6.947   2.636  -7.613  0.00  0.00     0.062 H 
ATOM     63  C   LIG d   1       8.504   0.012  -9.050  0.00  0.00    -0.062 A 
ATOM     64  H   LIG d   1       9.059   1.376  -7.500  0.00  0.00     0.062 H 
ATOM     65  C   LIG d   1       7.528  -0.355  -9.956  0.00  0.00    -0.061 A 
ATOM     66  H   LIG d   1       9.431  -0.541  -9.001  0.00  0.00     0.062 H 
ATOM     67  C   LIG d   1       6.339   0.349 -10.016  0.00  0.00    -0.056 A 
ATOM     68  H   LIG d   1       7.691  -1.196 -10.614  0.00  0.00     0.062 H 
ATOM     69  H   LIG d   1       5.575   0.058 -10.721  0.00  0.00     0.062 H 
ENDBRANCH  56  59
ENDBRANCH  55  56
ENDBRANCH   1  55
TORSDOF 15
ENDMDL
MODEL 4
REMARK VINA RESULT:      -6.0      3.100      7.788
REMARK  15 active torsions:
REMARK  status: ('A' for Active; 'I' for Inactive)
REMARK    1  A    between atoms: C_1  and  C_2 
REMARK    2  A    between atoms: C_2  and  O_3 
REMARK    3  A    between atoms: O_3  and  C_4 
REMARK    4  A    between atoms: C_6  and  O_40 
REMARK    5  A    between atoms: C_8  and  O_32 
REMARK    6  A    between atoms: C_10  and  C_13 
REMARK    7  A    between atoms: C_13  and  C_15 
REMARK    8  A    between atoms: C_13  and  O_24 
REMARK    9  A    between atoms: C_15  and  O_16 
REMARK   10  A    between atoms: O_16  and  C_17 
REMARK   11  A    between atoms: C_17  and  C_18 
REMARK   12  A    between atoms: O_24  and  C_25 
REMARK   13  A    between atoms: C_25  and  C_26 
REMARK   14  A    between atoms: O_32  and  C_33 
REMARK   15  A    between atoms: C_33  and  C_34 
ROOT
ATOM      1  C   LIG d   1       5.428  -3.039  -5.987  0.00  0.00     0.111 C 
ATOM      2  H   LIG d   1       4.586  -2.747  -6.615  0.00  0.00     0.065 H 
ENDROOT
BRANCH   1   3
ATOM      3  C   LIG d   1       5.972  -4.389  -6.459  0.00  0.00     0.119 C 
ATOM      4  C   LIG d   1       5.805  -4.514  -7.989  0.00  0.00     0.118 C 
ATOM      5  C   LIG d   1       5.396  -6.004  -8.154  0.00  0.00     0.134 C 
ATOM      6  H   LIG d   1       6.747  -4.312  -8.499  0.00  0.00     0.065 H 
ATOM      7  C   LIG d   1       4.563  -6.225  -6.867  0.00  0.00     0.188 C 
ATOM      8  H   LIG d   1       4.786  -6.147  -9.047  0.00  0.00     0.067 H 
ATOM      9  H   LIG d   1       3.544  -5.867  -7.009  0.00  0.00     0.094 H 
ATOM     10  O   LIG d   1       5.226  -5.451  -5.854  0.00  0.00    -0.340 OA
ATOM     11  H   LIG d   1       7.025  -4.477  -6.191  0.00  0.00     0.065 H 
BRANCH   4  12
ATOM     12  O   LIG d   1       4.772  -3.648  -8.461  0.00  0.00    -0.367 OA
BRANCH  12  13
ATOM     13  C   LIG d   1       5.057  -3.038  -9.721  0.00  0.00     0.073 C 
ATOM     14  H   LIG d   1       5.919  -2.380  -9.621  0.00  0.00     0.061 H 
ATOM     15  H   LIG d   1       5.273  -3.811 -10.459  0.00  0.00     0.061 H 
BRANCH  13  16
ATOM     16  C   LIG d   1       3.863  -2.235 -10.172  0.00  0.00    -0.022 A 
ATOM     17  C   LIG d   1       3.996  -1.314 -11.194  0.00  0.00    -0.056 A 
ATOM     18  C   LIG d   1       2.900  -0.578 -11.608  0.00  0.00    -0.061 A 
ATOM     19  H   LIG d   1       4.954  -1.170 -11.670  0.00  0.00     0.062 H 
ATOM     20  C   LIG d   1       1.673  -0.764 -10.999  0.00  0.00    -0.062 A 
ATOM     21  H   LIG d   1       3.005   0.140 -12.407  0.00  0.00     0.062 H 
ATOM     22  C   LIG d   1       1.541  -1.685  -9.976  0.00  0.00    -0.061 A 
ATOM     23  H   LIG d   1       0.818  -0.189 -11.322  0.00  0.00     0.062 H 
ATOM     24  C   LIG d   1       2.635  -2.424  -9.567  0.00  0.00    -0.056 A 
ATOM     25  H   LIG d   1       0.582  -1.829  -9.500  0.00  0.00     0.062 H 
ATOM     26  H   LIG d   1       2.530  -3.147  -8.770  0.00  0.00     0.062 H 
ENDBRANCH  13  16
ENDBRANCH  12  13
ENDBRANCH   4  12
BRANCH   5  27
ATOM     27  O   LIG d   1       6.544  -6.855  -8.178  0.00  0.00    -0.384 OA
ATOM     28  H   LIG d   1       7.164  -6.698  -7.453  0.00  0.00     0.210 HD
ENDBRANCH   5  27
BRANCH   7  29
ATOM     29  O   LIG d   1       4.556  -7.609  -6.509  0.00  0.00    -0.349 OA
BRANCH  29  30
ATOM     30  C   LIG d   1       5.088  -7.877  -5.211  0.00  0.00     0.048 C 
ATOM     31  H   LIG d   1       6.177  -7.839  -5.250  0.00  0.00     0.056 H 
ATOM     32  H   LIG d   1       4.724  -7.128  -4.508  0.00  0.00     0.056 H 
BRANCH  30  33
ATOM     33  C   LIG d   1       4.641  -9.266  -4.753  0.00  0.00    -0.042 C 
ATOM     34  H   LIG d   1       4.939  -9.421  -3.716  0.00  0.00     0.025 H 
ATOM     35  H   LIG d   1       3.557  -9.344  -4.836  0.00  0.00     0.025 H 
ATOM     36  H   LIG d   1       5.109 -10.023  -5.383  0.00  0.00     0.025 H 
ENDBRANCH  30  33
ENDBRANCH  29  30
ENDBRANCH   7  29
ENDBRANCH   1   3
BRANCH   1  37
ATOM     37  C   LIG d   1       6.530  -1.982  -6.087  0.00  0.00     0.077 C 
ATOM     38  H   LIG d   1       7.426  -2.432  -6.515  0.00  0.00     0.059 H 
ATOM     39  H   LIG d   1       6.755  -1.597  -5.093  0.00  0.00     0.059 H 
BRANCH  37  40
ATOM     40  O   LIG d   1       6.088  -0.912  -6.925  0.00  0.00    -0.372 OA
BRANCH  40  41
ATOM     41  C   LIG d   1       4.689  -0.637  -6.829  0.00  0.00     0.073 C 
ATOM     42  H   LIG d   1       4.451  -0.320  -5.814  0.00  0.00     0.061 H 
ATOM     43  H   LIG d   1       4.124  -1.538  -7.070  0.00  0.00     0.061 H 
BRANCH  41  44
ATOM     44  C   LIG d   1       4.324   0.459  -7.797  0.00  0.00    -0.022 A 
ATOM     45  C   LIG d   1       5.285   0.981  -8.643  0.00  0.00    -0.056 A 
ATOM     46  C   LIG d   1       4.949   1.983  -9.534  0.00  0.00    -0.061 A 
ATOM     47  H   LIG d   1       6.296   0.603  -8.611  0.00  0.00     0.062 H 
ATOM     48  C   LIG d   1       3.655   2.470  -9.572  0.00  0.00    -0.062 A 
ATOM     49  H   LIG d   1       5.698   2.388 -10.199  0.00  0.00     0.062 H 
ATOM     50  C   LIG d   1       2.695   1.946  -8.726  0.00  0.00    -0.061 A 
ATOM     51  H   LIG d   1       3.394   3.255 -10.266  0.00  0.00     0.062 H 
ATOM     52  C   LIG d   1       3.030   0.941  -7.838  0.00  0.00    -0.056 A 
ATOM     53  H   LIG d   1       1.684   2.324  -8.758  0.00  0.00     0.062 H 
ATOM     54  H   LIG d   1       2.280   0.533  -7.177  0.00  0.00     0.062 H 
ENDBRANCH  41  44
ENDBRANCH  40  41
ENDBRANCH  37  40
ENDBRANCH   1  37
BRANCH   1  55
ATOM     55  O   LIG d   1       4.995  -3.149  -4.629  0.00  0.00    -0.367 OA
BRANCH  55  56
ATOM     56  C   LIG d   1       5.797  -2.414  -3.703  0.00  0.00     0.073 C 
ATOM     57  H   LIG d   1       6.050  -3.051  -2.856  0.00  0.00     0.061 H 
ATOM     58  H   LIG d   1       6.711  -2.084  -4.196  0.00  0.00     0.061 H 
BRANCH  56  59
ATOM     59  C   LIG d   1       5.027  -1.213  -3.216  0.00  0.00    -0.022 A 
ATOM     60  C   LIG d   1       3.646  -1.244  -3.180  0.00  0.00    -0.056 A 
ATOM     61  C   LIG d   1       2.941  -0.143  -2.732  0.00  0.00    -0.061 A 
ATOM     62  H   LIG d   1       3.118  -2.130  -3.503  0.00  0.00     0.062 H 
ATOM     63  C   LIG d   1       3.617   0.989  -2.319  0.00  0.00    -0.062 A 
ATOM     64  H   LIG d   1       1.861  -0.169  -2.705  0.00  0.00     0.062 H 
ATOM     65  C   LIG d   1       4.998   1.021  -2.355  0.00  0.00    -0.061 A 
ATOM     66  H   LIG d   1       3.065   1.850  -1.969  0.00  0.00     0.062 H 
ATOM     67  C   LIG d   1       5.704  -0.082  -2.797  0.00  0.00    -0.056 A 
ATOM     68  H   LIG d   1       5.526   1.906  -2.031  0.00  0.00     0.062 H 
ATOM     69  H   LIG d   1       6.783  -0.059  -2.820  0.00  0.00     0.062 H 
ENDBRANCH  56  59
ENDBRANCH  55  56
ENDBRANCH   1  55
TORSDOF 15
ENDMDL
MODEL 5
REMARK VINA RESULT:      -6.0      3.475      7.444
REMARK  15 active torsions:
REMARK  status: ('A' for Active; 'I' for Inactive)
REMARK    1  A    between atoms: C_1  and  C_2 
REMARK    2  A    between atoms: C_2  and  O_3 
REMARK    3  A    between atoms: O_3  and  C_4 
REMARK    4  A    between atoms: C_6  and  O_40 
REMARK    5  A    between atoms: C_8  and  O_32 
REMARK    6  A    between atoms: C_10  and  C_13 
REMARK    7  A    between atoms: C_13  and  C_15 
REMARK    8  A    between atoms: C_13  and  O_24 
REMARK    9  A    between atoms: C_15  and  O_16 
REMARK   10  A    between atoms: O_16  and  C_17 
REMARK   11  A    between atoms: C_17  and  C_18 
REMARK   12  A    between atoms: O_24  and  C_25 
REMARK   13  A    between atoms: C_25  and  C_26 
REMARK   14  A    between atoms: O_32  and  C_33 
REMARK   15  A    between atoms: C_33  and  C_34 
ROOT
ATOM      1  C   LIG d   1       7.031  -2.704  -6.114  0.00  0.00     0.111 C 
ATOM      2  H   LIG d   1       6.754  -2.097  -5.252  0.00  0.00     0.065 H 
ENDROOT
BRANCH   1   3
ATOM      3  C   LIG d   1       5.839  -3.569  -6.533  0.00  0.00     0.119 C 
ATOM      4  C   LIG d   1       4.695  -3.415  -5.509  0.00  0.00     0.118 C 
ATOM      5  C   LIG d   1       4.146  -4.864  -5.410  0.00  0.00     0.134 C 
ATOM      6  H   LIG d   1       3.930  -2.735  -5.882  0.00  0.00     0.065 H 
ATOM      7  C   LIG d   1       5.446  -5.685  -5.593  0.00  0.00     0.188 C 
ATOM      8  H   LIG d   1       3.699  -5.049  -4.432  0.00  0.00     0.067 H 
ATOM      9  H   LIG d   1       5.983  -5.760  -4.648  0.00  0.00     0.094 H 
ATOM     10  O   LIG d   1       6.223  -4.948  -6.550  0.00  0.00    -0.340 OA
ATOM     11  H   LIG d   1       5.495  -3.269  -7.523  0.00  0.00     0.065 H 
BRANCH   4  12
ATOM     12  O   LIG d   1       5.198  -2.974  -4.246  0.00  0.00    -0.367 OA
BRANCH  12  13
ATOM     13  C   LIG d   1       4.186  -2.757  -3.261  0.00  0.00     0.073 C 
ATOM     14  H   LIG d   1       3.243  -3.177  -3.610  0.00  0.00     0.061 H 
ATOM     15  H   LIG d   1       4.477  -3.242  -2.328  0.00  0.00     0.061 H 
BRANCH  13  16
ATOM     16  C   LIG d   1       4.022  -1.277  -3.028  0.00  0.00    -0.022 A 
ATOM     17  C   LIG d   1       3.283  -0.516  -3.915  0.00  0.00    -0.056 A 
ATOM     18  C   LIG d   1       3.132   0.842  -3.700  0.00  0.00    -0.061 A 
ATOM     19  H   LIG d   1       2.825  -0.981  -4.774  0.00  0.00     0.062 H 
ATOM     20  C   LIG d   1       3.719   1.437  -2.600  0.00  0.00    -0.062 A 
ATOM     21  H   LIG d   1       2.556   1.436  -4.393  0.00  0.00     0.062 H 
ATOM     22  C   LIG d   1       4.457   0.675  -1.712  0.00  0.00    -0.061 A 
ATOM     23  H   LIG d   1       3.601   2.497  -2.432  0.00  0.00     0.062 H 
ATOM     24  C   LIG d   1       4.603  -0.683  -1.924  0.00  0.00    -0.056 A 
ATOM     25  H   LIG d   1       4.915   1.141  -0.853  0.00  0.00     0.062 H 
ATOM     26  H   LIG d   1       5.177  -1.278  -1.228  0.00  0.00     0.062 H 
ENDBRANCH  13  16
ENDBRANCH  12  13
ENDBRANCH   4  12
BRANCH   5  27
ATOM     27  O   LIG d   1       3.212  -5.135  -6.458  0.00  0.00    -0.384 OA
ATOM     28  H   LIG d   1       3.089  -4.400  -7.074  0.00  0.00     0.210 HD
ENDBRANCH   5  27
BRANCH   7  29
ATOM     29  O   LIG d   1       5.146  -6.989  -6.096  0.00  0.00    -0.349 OA
BRANCH  29  30
ATOM     30  C   LIG d   1       5.845  -8.044  -5.432  0.00  0.00     0.048 C 
ATOM     31  H   LIG d   1       6.390  -8.637  -6.167  0.00  0.00     0.056 H 
ATOM     32  H   LIG d   1       6.547  -7.619  -4.715  0.00  0.00     0.056 H 
BRANCH  30  33
ATOM     33  C   LIG d   1       4.843  -8.936  -4.697  0.00  0.00    -0.042 C 
ATOM     34  H   LIG d   1       4.233  -9.474  -5.423  0.00  0.00     0.025 H 
ATOM     35  H   LIG d   1       5.382  -9.650  -4.075  0.00  0.00     0.025 H 
ATOM     36  H   LIG d   1       4.201  -8.319  -4.069  0.00  0.00     0.025 H 
ENDBRANCH  30  33
ENDBRANCH  29  30
ENDBRANCH   7  29
ENDBRANCH   1   3
BRANCH   1  37
ATOM     37  C   LIG d   1       7.430  -1.790  -7.275  0.00  0.00     0.077 C 
ATOM     38  H   LIG d   1       7.123  -2.244  -8.217  0.00  0.00     0.059 H 
ATOM     39  H   LIG d   1       8.512  -1.652  -7.273  0.00  0.00     0.059 H 
BRANCH  37  40
ATOM     40  O   LIG d   1       6.787  -0.523  -7.125  0.00  0.00    -0.372 OA
BRANCH  40  41
ATOM     41  C   LIG d   1       6.699   0.231  -8.336  0.00  0.00     0.073 C 
ATOM     42  H   LIG d   1       6.853  -0.432  -9.187  0.00  0.00     0.061 H 
ATOM     43  H   LIG d   1       7.463   1.008  -8.337  0.00  0.00     0.061 H 
BRANCH  41  44
ATOM     44  C   LIG d   1       5.336   0.867  -8.434  0.00  0.00    -0.022 A 
ATOM     45  C   LIG d   1       4.255   0.286  -7.798  0.00  0.00    -0.056 A 
ATOM     46  C   LIG d   1       3.006   0.872  -7.885  0.00  0.00    -0.061 A 
ATOM     47  H   LIG d   1       4.387  -0.623  -7.231  0.00  0.00     0.062 H 
ATOM     48  C   LIG d   1       2.836   2.034  -8.615  0.00  0.00    -0.062 A 
ATOM     49  H   LIG d   1       2.162   0.421  -7.384  0.00  0.00     0.062 H 
ATOM     50  C   LIG d   1       3.919   2.615  -9.249  0.00  0.00    -0.061 A 
ATOM     51  H   LIG d   1       1.860   2.490  -8.685  0.00  0.00     0.062 H 
ATOM     52  C   LIG d   1       5.168   2.031  -9.159  0.00  0.00    -0.056 A 
ATOM     53  H   LIG d   1       3.787   3.525  -9.817  0.00  0.00     0.062 H 
ATOM     54  H   LIG d   1       6.013   2.485  -9.656  0.00  0.00     0.062 H 
ENDBRANCH  41  44
ENDBRANCH  40  41
ENDBRANCH  37  40
ENDBRANCH   1  37
BRANCH   1  55
ATOM     55  O   LIG d   1       8.133  -3.546  -5.770  0.00  0.00    -0.367 OA
BRANCH  55  56
ATOM     56  C   LIG d   1       8.776  -3.189  -4.545  0.00  0.00     0.073 C 
ATOM     57  H   LIG d   1       9.714  -2.678  -4.763  0.00  0.00     0.061 H 
ATOM     58  H   LIG d   1       8.127  -2.528  -3.973  0.00  0.00     0.061 H 
BRANCH  56  59
ATOM     59  C   LIG d   1       9.058  -4.435  -3.745  0.00  0.00    -0.022 A 
ATOM     60  C   LIG d   1       8.843  -5.680  -4.305  0.00  0.00    -0.056 A 
ATOM     61  C   LIG d   1       9.102  -6.822  -3.571  0.00  0.00    -0.061 A 
ATOM     62  H   LIG d   1       8.473  -5.760  -5.317  0.00  0.00     0.062 H 
ATOM     63  C   LIG d   1       9.576  -6.719  -2.277  0.00  0.00    -0.062 A 
ATOM     64  H   LIG d   1       8.934  -7.795  -4.009  0.00  0.00     0.062 H 
ATOM     65  C   LIG d   1       9.791  -5.474  -1.717  0.00  0.00    -0.061 A 
ATOM     66  H   LIG d   1       9.779  -7.612  -1.703  0.00  0.00     0.062 H 
ATOM     67  C   LIG d   1       9.537  -4.332  -2.452  0.00  0.00    -0.056 A 
ATOM     68  H   LIG d   1      10.161  -5.394  -0.705  0.00  0.00     0.062 H 
ATOM     69  H   LIG d   1       9.709  -3.360  -2.016  0.00  0.00     0.062 H 
ENDBRANCH  56  59
ENDBRANCH  55  56
ENDBRANCH   1  55
TORSDOF 15
ENDMDL
MODEL 6
REMARK VINA RESULT:      -6.0      2.688      5.490
REMARK  15 active torsions:
REMARK  status: ('A' for Active; 'I' for Inactive)
REMARK    1  A    between atoms: C_1  and  C_2 
REMARK    2  A    between atoms: C_2  and  O_3 
REMARK    3  A    between atoms: O_3  and  C_4 
REMARK    4  A    between atoms: C_6  and  O_40 
REMARK    5  A    between atoms: C_8  and  O_32 
REMARK    6  A    between atoms: C_10  and  C_13 
REMARK    7  A    between atoms: C_13  and  C_15 
REMARK    8  A    between atoms: C_13  and  O_24 
REMARK    9  A    between atoms: C_15  and  O_16 
REMARK   10  A    between atoms: O_16  and  C_17 
REMARK   11  A    between atoms: C_17  and  C_18 
REMARK   12  A    between atoms: O_24  and  C_25 
REMARK   13  A    between atoms: C_25  and  C_26 
REMARK   14  A    between atoms: O_32  and  C_33 
REMARK   15  A    between atoms: C_33  and  C_34 
ROOT
ATOM      1  C   LIG d   1       5.108  -2.712  -6.617  0.00  0.00     0.111 C 
ATOM      2  H   LIG d   1       5.568  -3.501  -6.022  0.00  0.00     0.065 H 
ENDROOT
BRANCH   1   3
ATOM      3  C   LIG d   1       6.200  -1.808  -7.196  0.00  0.00     0.119 C 
ATOM      4  C   LIG d   1       7.588  -2.309  -6.743  0.00  0.00     0.118 C 
ATOM      5  C   LIG d   1       8.343  -0.979  -6.469  0.00  0.00     0.134 C 
ATOM      6  H   LIG d   1       8.075  -2.874  -7.537  0.00  0.00     0.065 H 
ATOM      7  C   LIG d   1       7.192  -0.091  -5.937  0.00  0.00     0.188 C 
ATOM      8  H   LIG d   1       9.117  -1.116  -5.712  0.00  0.00     0.067 H 
ATOM      9  H   LIG d   1       7.023  -0.283  -4.878  0.00  0.00     0.094 H 
ATOM     10  O   LIG d   1       6.038  -0.474  -6.702  0.00  0.00    -0.340 OA
ATOM     11  H   LIG d   1       6.141  -1.809  -8.285  0.00  0.00     0.065 H 
BRANCH   4  12
ATOM     12  O   LIG d   1       7.483  -3.089  -5.551  0.00  0.00    -0.367 OA
BRANCH  12  13
ATOM     13  C   LIG d   1       8.049  -4.397  -5.661  0.00  0.00     0.073 C 
ATOM     14  H   LIG d   1       7.267  -5.111  -5.915  0.00  0.00     0.061 H 
ATOM     15  H   LIG d   1       8.811  -4.399  -6.442  0.00  0.00     0.061 H 
BRANCH  13  16
ATOM     16  C   LIG d   1       8.676  -4.785  -4.347  0.00  0.00    -0.022 A 
ATOM     17  C   LIG d   1       8.927  -6.116  -4.068  0.00  0.00    -0.056 A 
ATOM     18  C   LIG d   1       9.503  -6.473  -2.862  0.00  0.00    -0.061 A 
ATOM     19  H   LIG d   1       8.674  -6.877  -4.791  0.00  0.00     0.062 H 
ATOM     20  C   LIG d   1       9.828  -5.499  -1.937  0.00  0.00    -0.062 A 
ATOM     21  H   LIG d   1       9.699  -7.512  -2.645  0.00  0.00     0.062 H 
ATOM     22  C   LIG d   1       9.577  -4.168  -2.216  0.00  0.00    -0.061 A 
ATOM     23  H   LIG d   1      10.277  -5.777  -0.995  0.00  0.00     0.062 H 
ATOM     24  C   LIG d   1       9.006  -3.811  -3.424  0.00  0.00    -0.056 A 
ATOM     25  H   LIG d   1       9.830  -3.408  -1.493  0.00  0.00     0.062 H 
ATOM     26  H   LIG d   1       8.814  -2.771  -3.643  0.00  0.00     0.062 H 
ENDBRANCH  13  16
ENDBRANCH  12  13
ENDBRANCH   4  12
BRANCH   5  27
ATOM     27  O   LIG d   1       8.896  -0.442  -7.673  0.00  0.00    -0.384 OA
ATOM     28  H   LIG d   1       9.863  -0.432  -7.691  0.00  0.00     0.210 HD
ENDBRANCH   5  27
BRANCH   7  29
ATOM     29  O   LIG d   1       7.490   1.291  -6.147  0.00  0.00    -0.349 OA
BRANCH  29  30
ATOM     30  C   LIG d   1       8.064   1.942  -5.012  0.00  0.00     0.048 C 
ATOM     31  H   LIG d   1       9.130   1.718  -4.966  0.00  0.00     0.056 H 
ATOM     32  H   LIG d   1       7.922   3.019  -5.100  0.00  0.00     0.056 H 
BRANCH  30  33
ATOM     33  C   LIG d   1       7.381   1.440  -3.738  0.00  0.00    -0.042 C 
ATOM     34  H   LIG d   1       8.100   1.435  -2.918  0.00  0.00     0.025 H 
ATOM     35  H   LIG d   1       6.550   2.099  -3.488  0.00  0.00     0.025 H 
ATOM     36  H   LIG d   1       7.007   0.430  -3.901  0.00  0.00     0.025 H 
ENDBRANCH  30  33
ENDBRANCH  29  30
ENDBRANCH   7  29
ENDBRANCH   1   3
BRANCH   1  37
ATOM     37  C   LIG d   1       4.305  -3.337  -7.759  0.00  0.00     0.077 C 
ATOM     38  H   LIG d   1       3.294  -3.556  -7.415  0.00  0.00     0.059 H 
ATOM     39  H   LIG d   1       4.788  -4.260  -8.081  0.00  0.00     0.059 H 
BRANCH  37  40
ATOM     40  O   LIG d   1       4.246  -2.423  -8.856  0.00  0.00    -0.372 OA
BRANCH  40  41
ATOM     41  C   LIG d   1       2.973  -1.796  -9.023  0.00  0.00     0.073 C 
ATOM     42  H   LIG d   1       2.365  -1.968  -8.135  0.00  0.00     0.061 H 
ATOM     43  H   LIG d   1       2.472  -2.218  -9.894  0.00  0.00     0.061 H 
BRANCH  41  44
ATOM     44  C   LIG d   1       3.164  -0.314  -9.223  0.00  0.00    -0.022 A 
ATOM     45  C   LIG d   1       3.654   0.163 -10.424  0.00  0.00    -0.056 A 
ATOM     46  C   LIG d   1       3.826   1.523 -10.609  0.00  0.00    -0.061 A 
ATOM     47  H   LIG d   1       3.899  -0.525 -11.220  0.00  0.00     0.062 H 
ATOM     48  C   LIG d   1       3.516   2.403  -9.589  0.00  0.00    -0.062 A 
ATOM     49  H   LIG d   1       4.204   1.896 -11.549  0.00  0.00     0.062 H 
ATOM     50  C   LIG d   1       3.025   1.925  -8.388  0.00  0.00    -0.061 A 
ATOM     51  H   LIG d   1       3.653   3.465  -9.732  0.00  0.00     0.062 H 
ATOM     52  C   LIG d   1       2.850   0.566  -8.205  0.00  0.00    -0.056 A 
ATOM     53  H   LIG d   1       2.780   2.613  -7.593  0.00  0.00     0.062 H 
ATOM     54  H   LIG d   1       2.467   0.193  -7.267  0.00  0.00     0.062 H 
ENDBRANCH  41  44
ENDBRANCH  40  41
ENDBRANCH  37  40
ENDBRANCH   1  37
BRANCH   1  55
ATOM     55  O   LIG d   1       4.237  -1.936  -5.790  0.00  0.00    -0.367 OA
BRANCH  55  56
ATOM     56  C   LIG d   1       4.324  -2.252  -4.400  0.00  0.00     0.073 C 
ATOM     57  H   LIG d   1       3.530  -2.950  -4.136  0.00  0.00     0.061 H 
ATOM     58  H   LIG d   1       5.292  -2.705  -4.189  0.00  0.00     0.061 H 
BRANCH  56  59
ATOM     59  C   LIG d   1       4.172  -0.990  -3.589  0.00  0.00    -0.022 A 
ATOM     60  C   LIG d   1       4.702  -0.920  -2.314  0.00  0.00    -0.056 A 
ATOM     61  C   LIG d   1       4.563   0.238  -1.572  0.00  0.00    -0.061 A 
ATOM     62  H   LIG d   1       5.222  -1.770  -1.898  0.00  0.00     0.062 H 
ATOM     63  C   LIG d   1       3.897   1.325  -2.104  0.00  0.00    -0.062 A 
ATOM     64  H   LIG d   1       4.977   0.292  -0.575  0.00  0.00     0.062 H 
ATOM     65  C   LIG d   1       3.368   1.255  -3.379  0.00  0.00    -0.061 A 
ATOM     66  H   LIG d   1       3.789   2.230  -1.523  0.00  0.00     0.062 H 
ATOM     67  C   LIG d   1       3.511   0.099  -4.124  0.00  0.00    -0.056 A 
ATOM     68  H   LIG d   1       2.847   2.105  -3.795  0.00  0.00     0.062 H 
ATOM     69  H   LIG d   1       3.102   0.047  -5.122  0.00  0.00     0.062 H 
ENDBRANCH  56  59
ENDBRANCH  55  56
ENDBRANCH   1  55
TORSDOF 15
ENDMDL
MODEL 7
REMARK VINA RESULT:      -5.9      2.882      6.511
REMARK  15 active torsions:
REMARK  status: ('A' for Active; 'I' for Inactive)
REMARK    1  A    between atoms: C_1  and  C_2 
REMARK    2  A    between atoms: C_2  and  O_3 
REMARK    3  A    between atoms: O_3  and  C_4 
REMARK    4  A    between atoms: C_6  and  O_40 
REMARK    5  A    between atoms: C_8  and  O_32 
REMARK    6  A    between atoms: C_10  and  C_13 
REMARK    7  A    between atoms: C_13  and  C_15 
REMARK    8  A    between atoms: C_13  and  O_24 
REMARK    9  A    between atoms: C_15  and  O_16 
REMARK   10  A    between atoms: O_16  and  C_17 
REMARK   11  A    between atoms: C_17  and  C_18 
REMARK   12  A    between atoms: O_24  and  C_25 
REMARK   13  A    between atoms: C_25  and  C_26 
REMARK   14  A    between atoms: O_32  and  C_33 
REMARK   15  A    between atoms: C_33  and  C_34 
ROOT
ATOM      1  C   LIG d   1       4.649  -0.859  -7.533  0.00  0.00     0.111 C 
ATOM      2  H   LIG d   1       5.632  -0.902  -7.065  0.00  0.00     0.065 H 
ENDROOT
BRANCH   1   3
ATOM      3  C   LIG d   1       3.885  -2.152  -7.235  0.00  0.00     0.119 C 
ATOM      4  C   LIG d   1       4.709  -3.037  -6.276  0.00  0.00     0.118 C 
ATOM      5  C   LIG d   1       4.454  -4.461  -6.842  0.00  0.00     0.134 C 
ATOM      6  H   LIG d   1       4.337  -2.953  -5.255  0.00  0.00     0.065 H 
ATOM      7  C   LIG d   1       4.353  -4.161  -8.358  0.00  0.00     0.188 C 
ATOM      8  H   LIG d   1       5.292  -5.125  -6.627  0.00  0.00     0.067 H 
ATOM      9  H   LIG d   1       5.348  -4.099  -8.799  0.00  0.00     0.094 H 
ATOM     10  O   LIG d   1       3.690  -2.890  -8.446  0.00  0.00    -0.340 OA
ATOM     11  H   LIG d   1       2.920  -1.915  -6.787  0.00  0.00     0.065 H 
BRANCH   4  12
ATOM     12  O   LIG d   1       6.097  -2.704  -6.343  0.00  0.00    -0.367 OA
BRANCH  12  13
ATOM     13  C   LIG d   1       6.698  -2.464  -5.069  0.00  0.00     0.073 C 
ATOM     14  H   LIG d   1       5.959  -2.614  -4.283  0.00  0.00     0.061 H 
ATOM     15  H   LIG d   1       7.529  -3.155  -4.923  0.00  0.00     0.061 H 
BRANCH  13  16
ATOM     16  C   LIG d   1       7.209  -1.047  -5.014  0.00  0.00    -0.022 A 
ATOM     17  C   LIG d   1       7.788  -0.478  -6.134  0.00  0.00    -0.056 A 
ATOM     18  C   LIG d   1       8.257   0.822  -6.084  0.00  0.00    -0.061 A 
ATOM     19  H   LIG d   1       7.874  -1.049  -7.046  0.00  0.00     0.062 H 
ATOM     20  C   LIG d   1       8.146   1.552  -4.916  0.00  0.00    -0.062 A 
ATOM     21  H   LIG d   1       8.709   1.265  -6.959  0.00  0.00     0.062 H 
ATOM     22  C   LIG d   1       7.567   0.983  -3.797  0.00  0.00    -0.061 A 
ATOM     23  H   LIG d   1       8.512   2.567  -4.877  0.00  0.00     0.062 H 
ATOM     24  C   LIG d   1       7.094  -0.315  -3.848  0.00  0.00    -0.056 A 
ATOM     25  H   LIG d   1       7.481   1.554  -2.884  0.00  0.00     0.062 H 
ATOM     26  H   LIG d   1       6.638  -0.757  -2.974  0.00  0.00     0.062 H 
ENDBRANCH  13  16
ENDBRANCH  12  13
ENDBRANCH   4  12
BRANCH   5  27
ATOM     27  O   LIG d   1       3.230  -5.004  -6.341  0.00  0.00    -0.384 OA
ATOM     28  H   LIG d   1       3.260  -5.957  -6.181  0.00  0.00     0.210 HD
ENDBRANCH   5  27
BRANCH   7  29
ATOM     29  O   LIG d   1       3.583  -5.170  -9.016  0.00  0.00    -0.349 OA
BRANCH  29  30
ATOM     30  C   LIG d   1       3.073  -4.774 -10.290  0.00  0.00     0.048 C 
ATOM     31  H   LIG d   1       3.322  -3.728 -10.472  0.00  0.00     0.056 H 
ATOM     32  H   LIG d   1       3.518  -5.393 -11.068  0.00  0.00     0.056 H 
BRANCH  30  33
ATOM     33  C   LIG d   1       1.553  -4.948 -10.308  0.00  0.00    -0.042 C 
ATOM     34  H   LIG d   1       1.309  -5.997 -10.476  0.00  0.00     0.025 H 
ATOM     35  H   LIG d   1       1.140  -4.627  -9.352  0.00  0.00     0.025 H 
ATOM     36  H   LIG d   1       1.128  -4.342 -11.108  0.00  0.00     0.025 H 
ENDBRANCH  30  33
ENDBRANCH  29  30
ENDBRANCH   7  29
ENDBRANCH   1   3
BRANCH   1  37
ATOM     37  C   LIG d   1       3.869   0.334  -6.975  0.00  0.00     0.077 C 
ATOM     38  H   LIG d   1       3.491   0.938  -7.800  0.00  0.00     0.059 H 
ATOM     39  H   LIG d   1       4.528   0.939  -6.352  0.00  0.00     0.059 H 
BRANCH  37  40
ATOM     40  O   LIG d   1       2.773  -0.139  -6.191  0.00  0.00    -0.372 OA
BRANCH  40  41
ATOM     41  C   LIG d   1       2.426   0.717  -5.101  0.00  0.00     0.073 C 
ATOM     42  H   LIG d   1       1.348   0.684  -4.943  0.00  0.00     0.061 H 
ATOM     43  H   LIG d   1       2.728   1.738  -5.330  0.00  0.00     0.061 H 
BRANCH  41  44
ATOM     44  C   LIG d   1       3.131   0.253  -3.852  0.00  0.00    -0.022 A 
ATOM     45  C   LIG d   1       3.214  -1.097  -3.566  0.00  0.00    -0.056 A 
ATOM     46  C   LIG d   1       3.865  -1.523  -2.423  0.00  0.00    -0.061 A 
ATOM     47  H   LIG d   1       2.774  -1.819  -4.238  0.00  0.00     0.062 H 
ATOM     48  C   LIG d   1       4.425  -0.598  -1.562  0.00  0.00    -0.062 A 
ATOM     49  H   LIG d   1       3.934  -2.578  -2.203  0.00  0.00     0.062 H 
ATOM     50  C   LIG d   1       4.342   0.752  -1.849  0.00  0.00    -0.061 A 
ATOM     51  H   LIG d   1       4.930  -0.930  -0.667  0.00  0.00     0.062 H 
ATOM     52  C   LIG d   1       3.695   1.177  -2.994  0.00  0.00    -0.056 A 
ATOM     53  H   LIG d   1       4.783   1.474  -1.177  0.00  0.00     0.062 H 
ATOM     54  H   LIG d   1       3.630   2.232  -3.217  0.00  0.00     0.062 H 
ENDBRANCH  41  44
ENDBRANCH  40  41
ENDBRANCH  37  40
ENDBRANCH   1  37
BRANCH   1  55
ATOM     55  O   LIG d   1       4.800  -0.711  -8.947  0.00  0.00    -0.367 OA
BRANCH  55  56
ATOM     56  C   LIG d   1       3.925   0.260  -9.525  0.00  0.00     0.073 C 
ATOM     57  H   LIG d   1       3.284   0.679  -8.750  0.00  0.00     0.061 H 
ATOM     58  H   LIG d   1       4.515   1.056  -9.979  0.00  0.00     0.061 H 
BRANCH  56  59
ATOM     59  C   LIG d   1       3.072  -0.398 -10.580  0.00  0.00    -0.022 A 
ATOM     60  C   LIG d   1       1.731  -0.630 -10.340  0.00  0.00    -0.056 A 
ATOM     61  C   LIG d   1       0.950  -1.232 -11.307  0.00  0.00    -0.061 A 
ATOM     62  H   LIG d   1       1.294  -0.340  -9.395  0.00  0.00     0.062 H 
ATOM     63  C   LIG d   1       1.510  -1.602 -12.515  0.00  0.00    -0.062 A 
ATOM     64  H   LIG d   1      -0.098  -1.414 -11.119  0.00  0.00     0.062 H 
ATOM     65  C   LIG d   1       2.851  -1.371 -12.756  0.00  0.00    -0.061 A 
ATOM     66  H   LIG d   1       0.898  -2.074 -13.272  0.00  0.00     0.062 H 
ATOM     67  C   LIG d   1       3.632  -0.763 -11.790  0.00  0.00    -0.056 A 
ATOM     68  H   LIG d   1       3.288  -1.660 -13.700  0.00  0.00     0.062 H 
ATOM     69  H   LIG d   1       4.678  -0.578 -11.980  0.00  0.00     0.062 H 
ENDBRANCH  56  59
ENDBRANCH  55  56
ENDBRANCH   1  55
TORSDOF 15
ENDMDL
MODEL 8
REMARK VINA RESULT:      -5.7      4.158      7.834
REMARK  15 active torsions:
REMARK  status: ('A' for Active; 'I' for Inactive)
REMARK    1  A    between atoms: C_1  and  C_2 
REMARK    2  A    between atoms: C_2  and  O_3 
REMARK    3  A    between atoms: O_3  and  C_4 
REMARK    4  A    between atoms: C_6  and  O_40 
REMARK    5  A    between atoms: C_8  and  O_32 
REMARK    6  A    between atoms: C_10  and  C_13 
REMARK    7  A    between atoms: C_13  and  C_15 
REMARK    8  A    between atoms: C_13  and  O_24 
REMARK    9  A    between atoms: C_15  and  O_16 
REMARK   10  A    between atoms: O_16  and  C_17 
REMARK   11  A    between atoms: C_17  and  C_18 
REMARK   12  A    between atoms: O_24  and  C_25 
REMARK   13  A    between atoms: C_25  and  C_26 
REMARK   14  A    between atoms: O_32  and  C_33 
REMARK   15  A    between atoms: C_33  and  C_34 
ROOT
ATOM      1  C   LIG d   1       5.319  -4.065  -5.813  0.00  0.00     0.111 C 
ATOM      2  H   LIG d   1       6.328  -4.173  -6.212  0.00  0.00     0.065 H 
ENDROOT
BRANCH   1   3
ATOM      3  C   LIG d   1       4.702  -5.450  -5.608  0.00  0.00     0.119 C 
ATOM      4  C   LIG d   1       5.819  -6.503  -5.451  0.00  0.00     0.118 C 
ATOM      5  C   LIG d   1       5.245  -7.712  -6.241  0.00  0.00     0.134 C 
ATOM      6  H   LIG d   1       5.966  -6.760  -4.402  0.00  0.00     0.065 H 
ATOM      7  C   LIG d   1       4.475  -6.986  -7.371  0.00  0.00     0.188 C 
ATOM      8  H   LIG d   1       6.045  -8.332  -6.646  0.00  0.00     0.067 H 
ATOM      9  H   LIG d   1       5.156  -6.707  -8.175  0.00  0.00     0.094 H 
ATOM     10  O   LIG d   1       3.925  -5.810  -6.755  0.00  0.00    -0.340 OA
ATOM     11  H   LIG d   1       4.069  -5.445  -4.720  0.00  0.00     0.065 H 
BRANCH   4  12
ATOM     12  O   LIG d   1       7.037  -6.044  -6.040  0.00  0.00    -0.367 OA
BRANCH  12  13
ATOM     13  C   LIG d   1       8.204  -6.713  -5.556  0.00  0.00     0.073 C 
ATOM     14  H   LIG d   1       7.950  -7.735  -5.279  0.00  0.00     0.061 H 
ATOM     15  H   LIG d   1       8.965  -6.726  -6.338  0.00  0.00     0.061 H 
BRANCH  13  16
ATOM     16  C   LIG d   1       8.737  -5.983  -4.350  0.00  0.00    -0.022 A 
ATOM     17  C   LIG d   1       8.789  -4.601  -4.346  0.00  0.00    -0.056 A 
ATOM     18  C   LIG d   1       9.277  -3.931  -3.239  0.00  0.00    -0.061 A 
ATOM     19  H   LIG d   1       8.448  -4.045  -5.207  0.00  0.00     0.062 H 
ATOM     20  C   LIG d   1       9.713  -4.642  -2.138  0.00  0.00    -0.062 A 
ATOM     21  H   LIG d   1       9.317  -2.852  -3.237  0.00  0.00     0.062 H 
ATOM     22  C   LIG d   1       9.661  -6.024  -2.142  0.00  0.00    -0.061 A 
ATOM     23  H   LIG d   1      10.095  -4.119  -1.274  0.00  0.00     0.062 H 
ATOM     24  C   LIG d   1       9.168  -6.694  -3.246  0.00  0.00    -0.056 A 
ATOM     25  H   LIG d   1      10.002  -6.580  -1.281  0.00  0.00     0.062 H 
ATOM     26  H   LIG d   1       9.124  -7.773  -3.247  0.00  0.00     0.062 H 
ENDBRANCH  13  16
ENDBRANCH  12  13
ENDBRANCH   4  12
BRANCH   5  27
ATOM     27  O   LIG d   1       4.359  -8.485  -5.428  0.00  0.00    -0.384 OA
ATOM     28  H   LIG d   1       3.713  -7.958  -4.939  0.00  0.00     0.210 HD
ENDBRANCH   5  27
BRANCH   7  29
ATOM     29  O   LIG d   1       3.427  -7.817  -7.876  0.00  0.00    -0.349 OA
BRANCH  29  30
ATOM     30  C   LIG d   1       3.505  -8.062  -9.281  0.00  0.00     0.048 C 
ATOM     31  H   LIG d   1       2.546  -7.829  -9.744  0.00  0.00     0.056 H 
ATOM     32  H   LIG d   1       4.281  -7.433  -9.717  0.00  0.00     0.056 H 
BRANCH  30  33
ATOM     33  C   LIG d   1       3.846  -9.534  -9.524  0.00  0.00    -0.042 C 
ATOM     34  H   LIG d   1       4.928  -9.653  -9.579  0.00  0.00     0.025 H 
ATOM     35  H   LIG d   1       3.455 -10.137  -8.705  0.00  0.00     0.025 H 
ATOM     36  H   LIG d   1       3.396  -9.860 -10.462  0.00  0.00     0.025 H 
ENDBRANCH  30  33
ENDBRANCH  29  30
ENDBRANCH   7  29
ENDBRANCH   1   3
BRANCH   1  37
ATOM     37  C   LIG d   1       5.378  -3.329  -4.472  0.00  0.00     0.077 C 
ATOM     38  H   LIG d   1       5.855  -2.359  -4.611  0.00  0.00     0.059 H 
ATOM     39  H   LIG d   1       5.954  -3.919  -3.759  0.00  0.00     0.059 H 
BRANCH  37  40
ATOM     40  O   LIG d   1       4.052  -3.141  -3.974  0.00  0.00    -0.372 OA
BRANCH  40  41
ATOM     41  C   LIG d   1       3.999  -2.588  -2.658  0.00  0.00     0.073 C 
ATOM     42  H   LIG d   1       4.914  -2.839  -2.122  0.00  0.00     0.061 H 
ATOM     43  H   LIG d   1       3.142  -2.999  -2.125  0.00  0.00     0.061 H 
BRANCH  41  44
ATOM     44  C   LIG d   1       3.863  -1.089  -2.747  0.00  0.00    -0.022 A 
ATOM     45  C   LIG d   1       4.438  -0.284  -1.781  0.00  0.00    -0.056 A 
ATOM     46  C   LIG d   1       4.317   1.090  -1.866  0.00  0.00    -0.061 A 
ATOM     47  H   LIG d   1       4.985  -0.729  -0.963  0.00  0.00     0.062 H 
ATOM     48  C   LIG d   1       3.612   1.659  -2.911  0.00  0.00    -0.062 A 
ATOM     49  H   LIG d   1       4.770   1.719  -1.114  0.00  0.00     0.062 H 
ATOM     50  C   LIG d   1       3.038   0.853  -3.877  0.00  0.00    -0.061 A 
ATOM     51  H   LIG d   1       3.514   2.733  -2.975  0.00  0.00     0.062 H 
ATOM     52  C   LIG d   1       3.163  -0.521  -3.794  0.00  0.00    -0.056 A 
ATOM     53  H   LIG d   1       2.491   1.298  -4.695  0.00  0.00     0.062 H 
ATOM     54  H   LIG d   1       2.714  -1.150  -4.548  0.00  0.00     0.062 H 
ENDBRANCH  41  44
ENDBRANCH  40  41
ENDBRANCH  37  40
ENDBRANCH   1  37
BRANCH   1  55
ATOM     55  O   LIG d   1       4.519  -3.318  -6.731  0.00  0.00    -0.367 OA
BRANCH  55  56
ATOM     56  C   LIG d   1       5.040  -2.023  -7.036  0.00  0.00     0.073 C 
ATOM     57  H   LIG d   1       5.301  -1.510  -6.110  0.00  0.00     0.061 H 
ATOM     58  H   LIG d   1       5.929  -2.125  -7.657  0.00  0.00     0.061 H 
BRANCH  56  59
ATOM     59  C   LIG d   1       3.997  -1.224  -7.776  0.00  0.00    -0.022 A 
ATOM     60  C   LIG d   1       3.195  -1.839  -8.718  0.00  0.00    -0.056 A 
ATOM     61  C   LIG d   1       2.239  -1.106  -9.396  0.00  0.00    -0.061 A 
ATOM     62  H   LIG d   1       3.317  -2.892  -8.926  0.00  0.00     0.062 H 
ATOM     63  C   LIG d   1       2.085   0.241  -9.130  0.00  0.00    -0.062 A 
ATOM     64  H   LIG d   1       1.613  -1.588 -10.133  0.00  0.00     0.062 H 
ATOM     65  C   LIG d   1       2.887   0.856  -8.188  0.00  0.00    -0.061 A 
ATOM     66  H   LIG d   1       1.337   0.813  -9.660  0.00  0.00     0.062 H 
ATOM     67  C   LIG d   1       3.839   0.123  -7.506  0.00  0.00    -0.056 A 
ATOM     68  H   LIG d   1       2.765   1.909  -7.980  0.00  0.00     0.062 H 
ATOM     69  H   LIG d   1       4.462   0.602  -6.766  0.00  0.00     0.062 H 
ENDBRANCH  56  59
ENDBRANCH  55  56
ENDBRANCH   1  55
TORSDOF 15
ENDMDL
MODEL 9
REMARK VINA RESULT:      -5.7      2.468      5.767
REMARK  15 active torsions:
REMARK  status: ('A' for Active; 'I' for Inactive)
REMARK    1  A    between atoms: C_1  and  C_2 
REMARK    2  A    between atoms: C_2  and  O_3 
REMARK    3  A    between atoms: O_3  and  C_4 
REMARK    4  A    between atoms: C_6  and  O_40 
REMARK    5  A    between atoms: C_8  and  O_32 
REMARK    6  A    between atoms: C_10  and  C_13 
REMARK    7  A    between atoms: C_13  and  C_15 
REMARK    8  A    between atoms: C_13  and  O_24 
REMARK    9  A    between atoms: C_15  and  O_16 
REMARK   10  A    between atoms: O_16  and  C_17 
REMARK   11  A    between atoms: C_17  and  C_18 
REMARK   12  A    between atoms: O_24  and  C_25 
REMARK   13  A    between atoms: C_25  and  C_26 
REMARK   14  A    between atoms: O_32  and  C_33 
REMARK   15  A    between atoms: C_33  and  C_34 
ROOT
ATOM      1  C   LIG d   1       4.206   0.203  -7.574  0.00  0.00     0.111 C 
ATOM      2  H   LIG d   1       4.897   0.657  -6.864  0.00  0.00     0.065 H 
ENDROOT
BRANCH   1   3
ATOM      3  C   LIG d   1       4.500  -1.295  -7.686  0.00  0.00     0.119 C 
ATOM      4  C   LIG d   1       5.138  -1.802  -6.375  0.00  0.00     0.118 C 
ATOM      5  C   LIG d   1       6.210  -2.799  -6.895  0.00  0.00     0.134 C 
ATOM      6  H   LIG d   1       4.401  -2.313  -5.757  0.00  0.00     0.065 H 
ATOM      7  C   LIG d   1       6.641  -2.108  -8.212  0.00  0.00     0.188 C 
ATOM      8  H   LIG d   1       7.046  -2.875  -6.199  0.00  0.00     0.067 H 
ATOM      9  H   LIG d   1       7.376  -1.330  -8.009  0.00  0.00     0.094 H 
ATOM     10  O   LIG d   1       5.438  -1.528  -8.742  0.00  0.00    -0.340 OA
ATOM     11  H   LIG d   1       3.576  -1.839  -7.884  0.00  0.00     0.065 H 
BRANCH   4  12
ATOM     12  O   LIG d   1       5.749  -0.727  -5.658  0.00  0.00    -0.367 OA
BRANCH  12  13
ATOM     13  C   LIG d   1       6.737  -1.147  -4.714  0.00  0.00     0.073 C 
ATOM     14  H   LIG d   1       6.265  -1.328  -3.749  0.00  0.00     0.061 H 
ATOM     15  H   LIG d   1       7.209  -2.065  -5.066  0.00  0.00     0.061 H 
BRANCH  13  16
ATOM     16  C   LIG d   1       7.781  -0.070  -4.568  0.00  0.00    -0.022 A 
ATOM     17  C   LIG d   1       7.492   1.081  -3.858  0.00  0.00    -0.056 A 
ATOM     18  C   LIG d   1       8.450   2.069  -3.724  0.00  0.00    -0.061 A 
ATOM     19  H   LIG d   1       6.519   1.208  -3.408  0.00  0.00     0.062 H 
ATOM     20  C   LIG d   1       9.696   1.907  -4.299  0.00  0.00    -0.062 A 
ATOM     21  H   LIG d   1       8.224   2.967  -3.169  0.00  0.00     0.062 H 
ATOM     22  C   LIG d   1       9.985   0.756  -5.009  0.00  0.00    -0.061 A 
ATOM     23  H   LIG d   1      10.444   2.678  -4.195  0.00  0.00     0.062 H 
ATOM     24  C   LIG d   1       9.029  -0.234  -5.139  0.00  0.00    -0.056 A 
ATOM     25  H   LIG d   1      10.958   0.629  -5.459  0.00  0.00     0.062 H 
ATOM     26  H   LIG d   1       9.257  -1.135  -5.690  0.00  0.00     0.062 H 
ENDBRANCH  13  16
ENDBRANCH  12  13
ENDBRANCH   4  12
BRANCH   5  27
ATOM     27  O   LIG d   1       5.638  -4.084  -7.150  0.00  0.00    -0.384 OA
ATOM     28  H   LIG d   1       5.216  -4.486  -6.378  0.00  0.00     0.210 HD
ENDBRANCH   5  27
BRANCH   7  29
ATOM     29  O   LIG d   1       7.175  -3.067  -9.127  0.00  0.00    -0.349 OA
BRANCH  29  30
ATOM     30  C   LIG d   1       6.541  -3.066 -10.407  0.00  0.00     0.048 C 
ATOM     31  H   LIG d   1       6.299  -4.089 -10.694  0.00  0.00     0.056 H 
ATOM     32  H   LIG d   1       5.625  -2.477 -10.358  0.00  0.00     0.056 H 
BRANCH  30  33
ATOM     33  C   LIG d   1       7.485  -2.454 -11.444  0.00  0.00    -0.042 C 
ATOM     34  H   LIG d   1       8.446  -2.237 -10.977  0.00  0.00     0.025 H 
ATOM     35  H   LIG d   1       7.629  -3.157 -12.263  0.00  0.00     0.025 H 
ATOM     36  H   LIG d   1       7.052  -1.531 -11.829  0.00  0.00     0.025 H 
ENDBRANCH  30  33
ENDBRANCH  29  30
ENDBRANCH   7  29
ENDBRANCH   1   3
BRANCH   1  37
ATOM     37  C   LIG d   1       2.769   0.406  -7.089  0.00  0.00     0.077 C 
ATOM     38  H   LIG d   1       2.268  -0.560  -7.024  0.00  0.00     0.059 H 
ATOM     39  H   LIG d   1       2.235   1.046  -7.792  0.00  0.00     0.059 H 
BRANCH  37  40
ATOM     40  O   LIG d   1       2.785   1.021  -5.800  0.00  0.00    -0.372 OA
BRANCH  40  41
ATOM     41  C   LIG d   1       2.054   0.304  -4.804  0.00  0.00     0.073 C 
ATOM     42  H   LIG d   1       1.668  -0.621  -5.233  0.00  0.00     0.061 H 
ATOM     43  H   LIG d   1       1.224   0.915  -4.451  0.00  0.00     0.061 H 
BRANCH  41  44
ATOM     44  C   LIG d   1       2.965  -0.021  -3.648  0.00  0.00    -0.022 A 
ATOM     45  C   LIG d   1       3.589   0.998  -2.953  0.00  0.00    -0.056 A 
ATOM     46  C   LIG d   1       4.422   0.700  -1.890  0.00  0.00    -0.061 A 
ATOM     47  H   LIG d   1       3.422   2.027  -3.236  0.00  0.00     0.062 H 
ATOM     48  C   LIG d   1       4.639  -0.617  -1.529  0.00  0.00    -0.062 A 
ATOM     49  H   LIG d   1       4.905   1.497  -1.343  0.00  0.00     0.062 H 
ATOM     50  C   LIG d   1       4.014  -1.635  -2.225  0.00  0.00    -0.061 A 
ATOM     51  H   LIG d   1       5.292  -0.850  -0.701  0.00  0.00     0.062 H 
ATOM     52  C   LIG d   1       3.178  -1.337  -3.285  0.00  0.00    -0.056 A 
ATOM     53  H   LIG d   1       4.180  -2.664  -1.941  0.00  0.00     0.062 H 
ATOM     54  H   LIG d   1       2.691  -2.133  -3.828  0.00  0.00     0.062 H 
ENDBRANCH  41  44
ENDBRANCH  40  41
ENDBRANCH  37  40
ENDBRANCH   1  37
BRANCH   1  55
ATOM     55  O   LIG d   1       4.367   0.816  -8.855  0.00  0.00    -0.367 OA
BRANCH  55  56
ATOM     56  C   LIG d   1       3.142   1.009  -9.565  0.00  0.00     0.073 C 
ATOM     57  H   LIG d   1       2.307   0.703  -8.936  0.00  0.00     0.061 H 
ATOM     58  H   LIG d   1       3.035   2.061  -9.826  0.00  0.00     0.061 H 
BRANCH  56  59
ATOM     59  C   LIG d   1       3.156   0.178 -10.823  0.00  0.00    -0.022 A 
ATOM     60  C   LIG d   1       2.116  -0.693 -11.087  0.00  0.00    -0.056 A 
ATOM     61  C   LIG d   1       2.128  -1.454 -12.241  0.00  0.00    -0.061 A 
ATOM     62  H   LIG d   1       1.294  -0.779 -10.391  0.00  0.00     0.062 H 
ATOM     63  C   LIG d   1       3.180  -1.343 -13.130  0.00  0.00    -0.062 A 
ATOM     64  H   LIG d   1       1.315  -2.135 -12.446  0.00  0.00     0.062 H 
ATOM     65  C   LIG d   1       4.220  -0.473 -12.866  0.00  0.00    -0.061 A 
ATOM     66  H   LIG d   1       3.189  -1.939 -14.032  0.00  0.00     0.062 H 
ATOM     67  C   LIG d   1       4.205   0.293 -11.715  0.00  0.00    -0.056 A 
ATOM     68  H   LIG d   1       5.042  -0.387 -13.562  0.00  0.00     0.062 H 
ATOM     69  H   LIG d   1       5.015   0.976 -11.512  0.00  0.00     0.062 H 
ENDBRANCH  56  59
ENDBRANCH  55  56
ENDBRANCH   1  55
TORSDOF 15
ENDMDL
