MODEL 1
REMARK VINA RESULT:      -5.9      0.000      0.000
REMARK  9 active torsions:
REMARK  status: ('A' for Active; 'I' for Inactive)
REMARK    1  A    between atoms: C_1  and  O_2 
REMARK    2  A    between atoms: O_2  and  C_3 
REMARK    3  A    between atoms: C_3  and  C_4 
REMARK    4  A    between atoms: C_4  and  O_5 
REMARK    5  A    between atoms: O_5  and  C_6 
REMARK    6  A    between atoms: C_7  and  C_12 
REMARK    7  A    between atoms: C_14  and  C_17 
REMARK    8  A    between atoms: N_22  and  C_23 
REMARK    9  A    between atoms: C_23  and  C_24 
ROOT
ATOM      1  C   LIG d   1       3.199   0.857  -7.332  0.00  0.00     0.207 A 
ATOM      2  N   LIG d   1       3.571  -0.017  -6.379  0.00  0.00    -0.190 NA
ATOM      3  C   LIG d   1       3.175   0.401  -5.210  0.00  0.00     0.245 A 
ATOM      4  O   LIG d   1       2.530   1.563  -5.372  0.00  0.00    -0.336 OA
ATOM      5  N   LIG d   1       2.560   1.850  -6.762  0.00  0.00    -0.056 NA
ENDROOT
BRANCH   3   6
ATOM      6  C   LIG d   1       3.402  -0.306  -3.899  0.00  0.00     0.090 C 
ATOM      7  H   LIG d   1       2.569  -0.971  -3.672  0.00  0.00     0.056 H 
ATOM      8  N   LIG d   1       4.681  -1.060  -3.925  0.00  0.00    -0.287 N 
ATOM      9  C   LIG d   1       5.074  -1.234  -2.508  0.00  0.00     0.000 C 
ATOM     10  C   LIG d   1       4.418  -0.091  -1.712  0.00  0.00    -0.038 C 
ATOM     11  H   LIG d   1       6.159  -1.178  -2.413  0.00  0.00     0.043 H 
ATOM     12  H   LIG d   1       4.716  -2.195  -2.142  0.00  0.00     0.043 H 
ATOM     13  C   LIG d   1       3.612   0.718  -2.755  0.00  0.00    -0.027 C 
ATOM     14  H   LIG d   1       5.181   0.538  -1.254  0.00  0.00     0.028 H 
ATOM     15  H   LIG d   1       3.752  -0.495  -0.950  0.00  0.00     0.028 H 
ATOM     16  H   LIG d   1       4.187   1.575  -3.105  0.00  0.00     0.029 H 
ATOM     17  H   LIG d   1       2.656   1.035  -2.341  0.00  0.00     0.029 H 
BRANCH   8  18
ATOM     18  C   LIG d   1       4.515  -2.358  -4.592  0.00  0.00     0.031 C 
ATOM     19  H   LIG d   1       4.293  -3.123  -3.847  0.00  0.00     0.048 H 
ATOM     20  H   LIG d   1       3.693  -2.298  -5.305  0.00  0.00     0.048 H 
BRANCH  18  21
ATOM     21  C   LIG d   1       5.785  -2.717  -5.319  0.00  0.00     0.004 A 
ATOM     22  S   LIG d   1       7.317  -3.352  -4.659  0.00  0.00    -0.100 SA
ATOM     23  C   LIG d   1       8.222  -3.475  -6.194  0.00  0.00    -0.024 A 
ATOM     24  C   LIG d   1       7.312  -3.023  -7.091  0.00  0.00    -0.054 A 
ATOM     25  H   LIG d   1       9.232  -3.816  -6.362  0.00  0.00     0.069 H 
ATOM     26  C   LIG d   1       6.063  -2.635  -6.644  0.00  0.00    -0.050 A 
ATOM     27  H   LIG d   1       7.558  -2.968  -8.141  0.00  0.00     0.062 H 
ATOM     28  H   LIG d   1       5.320  -2.272  -7.337  0.00  0.00     0.063 H 
ENDBRANCH  18  21
ENDBRANCH   8  18
ENDBRANCH   3   6
BRANCH   1  29
ATOM     29  C   LIG d   1       3.471   0.724  -8.783  0.00  0.00     0.084 A 
ATOM     30  C   LIG d   1       4.631   1.273  -9.343  0.00  0.00     0.226 A 
ATOM     31  N   LIG d   1       4.869   1.157 -10.637  0.00  0.00    -0.221 NA
ATOM     32  C   LIG d   1       4.041   0.518 -11.443  0.00  0.00     0.031 A 
ATOM     33  C   LIG d   1       2.876  -0.050 -10.963  0.00  0.00    -0.043 A 
ATOM     34  H   LIG d   1       4.275   0.442 -12.494  0.00  0.00     0.083 H 
ATOM     35  C   LIG d   1       2.576   0.048  -9.613  0.00  0.00    -0.044 A 
ATOM     36  H   LIG d   1       2.205  -0.566 -11.634  0.00  0.00     0.063 H 
ATOM     37  H   LIG d   1       1.672  -0.388  -9.215  0.00  0.00     0.063 H 
BRANCH  30  38
ATOM     38  O   LIG d   1       5.513   1.933  -8.553  0.00  0.00    -0.474 OA
BRANCH  38  39
ATOM     39  C   LIG d   1       6.902   1.731  -8.822  0.00  0.00     0.115 C 
ATOM     40  H   LIG d   1       7.292   2.582  -9.379  0.00  0.00     0.072 H 
ATOM     41  H   LIG d   1       7.029   0.822  -9.409  0.00  0.00     0.072 H 
BRANCH  39  42
ATOM     42  C   LIG d   1       7.662   1.594  -7.500  0.00  0.00     0.081 C 
ATOM     43  H   LIG d   1       7.849   2.585  -7.086  0.00  0.00     0.059 H 
ATOM     44  H   LIG d   1       8.611   1.090  -7.679  0.00  0.00     0.059 H 
BRANCH  42  45
ATOM     45  O   LIG d   1       6.882   0.831  -6.578  0.00  0.00    -0.380 OA
BRANCH  45  46
ATOM     46  C   LIG d   1       7.539   0.575  -5.335  0.00  0.00     0.037 C 
ATOM     47  H   LIG d   1       7.526   1.477  -4.725  0.00  0.00     0.052 H 
ATOM     48  H   LIG d   1       7.020  -0.226  -4.809  0.00  0.00     0.052 H 
ATOM     49  H   LIG d   1       8.570   0.278  -5.524  0.00  0.00     0.052 H 
ENDBRANCH  45  46
ENDBRANCH  42  45
ENDBRANCH  39  42
ENDBRANCH  38  39
ENDBRANCH  30  38
ENDBRANCH   1  29
TORSDOF 9
ENDMDL
MODEL 2
REMARK VINA RESULT:      -5.9      2.969      6.026
REMARK  9 active torsions:
REMARK  status: ('A' for Active; 'I' for Inactive)
REMARK    1  A    between atoms: C_1  and  O_2 
REMARK    2  A    between atoms: O_2  and  C_3 
REMARK    3  A    between atoms: C_3  and  C_4 
REMARK    4  A    between atoms: C_4  and  O_5 
REMARK    5  A    between atoms: O_5  and  C_6 
REMARK    6  A    between atoms: C_7  and  C_12 
REMARK    7  A    between atoms: C_14  and  C_17 
REMARK    8  A    between atoms: N_22  and  C_23 
REMARK    9  A    between atoms: C_23  and  C_24 
ROOT
ATOM      1  C   LIG d   1       5.120  -2.386  -4.222  0.00  0.00     0.207 A 
ATOM      2  N   LIG d   1       4.286  -3.308  -4.739  0.00  0.00    -0.190 NA
ATOM      3  C   LIG d   1       4.970  -4.301  -5.231  0.00  0.00     0.245 A 
ATOM      4  O   LIG d   1       6.273  -4.053  -5.046  0.00  0.00    -0.336 OA
ATOM      5  N   LIG d   1       6.353  -2.796  -4.392  0.00  0.00    -0.056 NA
ENDROOT
BRANCH   3   6
ATOM      6  C   LIG d   1       4.392  -5.524  -5.895  0.00  0.00     0.090 C 
ATOM      7  H   LIG d   1       3.336  -5.632  -5.647  0.00  0.00     0.056 H 
ATOM      8  N   LIG d   1       4.581  -5.462  -7.366  0.00  0.00    -0.287 N 
ATOM      9  C   LIG d   1       4.509  -6.862  -7.841  0.00  0.00     0.000 C 
ATOM     10  C   LIG d   1       4.908  -7.763  -6.657  0.00  0.00    -0.038 C 
ATOM     11  H   LIG d   1       5.201  -7.011  -8.671  0.00  0.00     0.043 H 
ATOM     12  H   LIG d   1       3.492  -7.092  -8.156  0.00  0.00     0.043 H 
ATOM     13  C   LIG d   1       5.181  -6.793  -5.485  0.00  0.00    -0.027 C 
ATOM     14  H   LIG d   1       5.809  -8.328  -6.898  0.00  0.00     0.028 H 
ATOM     15  H   LIG d   1       4.092  -8.441  -6.406  0.00  0.00     0.028 H 
ATOM     16  H   LIG d   1       6.246  -6.576  -5.404  0.00  0.00     0.029 H 
ATOM     17  H   LIG d   1       4.797  -7.201  -4.550  0.00  0.00     0.029 H 
BRANCH   8  18
ATOM     18  C   LIG d   1       3.545  -4.634  -7.996  0.00  0.00     0.031 C 
ATOM     19  H   LIG d   1       2.948  -5.250  -8.670  0.00  0.00     0.048 H 
ATOM     20  H   LIG d   1       2.901  -4.209  -7.226  0.00  0.00     0.048 H 
BRANCH  18  21
ATOM     21  C   LIG d   1       4.195  -3.521  -8.777  0.00  0.00     0.004 A 
ATOM     22  S   LIG d   1       5.626  -2.540  -8.357  0.00  0.00    -0.100 SA
ATOM     23  C   LIG d   1       5.662  -1.509  -9.814  0.00  0.00    -0.024 A 
ATOM     24  C   LIG d   1       4.593  -1.970 -10.509  0.00  0.00    -0.054 A 
ATOM     25  H   LIG d   1       6.354  -0.721 -10.072  0.00  0.00     0.069 H 
ATOM     26  C   LIG d   1       3.841  -3.001  -9.978  0.00  0.00    -0.050 A 
ATOM     27  H   LIG d   1       4.333  -1.538 -11.464  0.00  0.00     0.062 H 
ATOM     28  H   LIG d   1       2.986  -3.386 -10.511  0.00  0.00     0.063 H 
ENDBRANCH  18  21
ENDBRANCH   8  18
ENDBRANCH   3   6
BRANCH   1  29
ATOM     29  C   LIG d   1       4.711  -1.116  -3.575  0.00  0.00     0.084 A 
ATOM     30  C   LIG d   1       4.253  -0.040  -4.345  0.00  0.00     0.226 A 
ATOM     31  N   LIG d   1       3.894   1.092  -3.766  0.00  0.00    -0.221 NA
ATOM     32  C   LIG d   1       3.942   1.250  -2.456  0.00  0.00     0.031 A 
ATOM     33  C   LIG d   1       4.383   0.233  -1.631  0.00  0.00    -0.043 A 
ATOM     34  H   LIG d   1       3.635   2.190  -2.023  0.00  0.00     0.083 H 
ATOM     35  C   LIG d   1       4.776  -0.974  -2.188  0.00  0.00    -0.044 A 
ATOM     36  H   LIG d   1       4.421   0.378  -0.562  0.00  0.00     0.063 H 
ATOM     37  H   LIG d   1       5.124  -1.783  -1.564  0.00  0.00     0.063 H 
BRANCH  30  38
ATOM     38  O   LIG d   1       4.182  -0.158  -5.694  0.00  0.00    -0.474 OA
BRANCH  38  39
ATOM     39  C   LIG d   1       2.962   0.245  -6.317  0.00  0.00     0.115 C 
ATOM     40  H   LIG d   1       2.576   1.134  -5.819  0.00  0.00     0.072 H 
ATOM     41  H   LIG d   1       2.231  -0.561  -6.240  0.00  0.00     0.072 H 
BRANCH  39  42
ATOM     42  C   LIG d   1       3.221   0.558  -7.792  0.00  0.00     0.081 C 
ATOM     43  H   LIG d   1       2.458   0.078  -8.404  0.00  0.00     0.059 H 
ATOM     44  H   LIG d   1       4.204   0.180  -8.075  0.00  0.00     0.059 H 
BRANCH  42  45
ATOM     45  O   LIG d   1       3.177   1.971  -7.995  0.00  0.00    -0.380 OA
BRANCH  45  46
ATOM     46  C   LIG d   1       3.897   2.416  -9.146  0.00  0.00     0.037 C 
ATOM     47  H   LIG d   1       3.266   3.081  -9.735  0.00  0.00     0.052 H 
ATOM     48  H   LIG d   1       4.793   2.950  -8.830  0.00  0.00     0.052 H 
ATOM     49  H   LIG d   1       4.181   1.555  -9.751  0.00  0.00     0.052 H 
ENDBRANCH  45  46
ENDBRANCH  42  45
ENDBRANCH  39  42
ENDBRANCH  38  39
ENDBRANCH  30  38
ENDBRANCH   1  29
TORSDOF 9
ENDMDL
MODEL 3
REMARK VINA RESULT:      -5.9      1.686      2.571
REMARK  9 active torsions:
REMARK  status: ('A' for Active; 'I' for Inactive)
REMARK    1  A    between atoms: C_1  and  O_2 
REMARK    2  A    between atoms: O_2  and  C_3 
REMARK    3  A    between atoms: C_3  and  C_4 
REMARK    4  A    between atoms: C_4  and  O_5 
REMARK    5  A    between atoms: O_5  and  C_6 
REMARK    6  A    between atoms: C_7  and  C_12 
REMARK    7  A    between atoms: C_14  and  C_17 
REMARK    8  A    between atoms: N_22  and  C_23 
REMARK    9  A    between atoms: C_23  and  C_24 
ROOT
ATOM      1  C   LIG d   1       3.467   0.262  -7.463  0.00  0.00     0.207 A 
ATOM      2  N   LIG d   1       4.038  -0.703  -6.719  0.00  0.00    -0.190 NA
ATOM      3  C   LIG d   1       3.806  -0.488  -5.455  0.00  0.00     0.245 A 
ATOM      4  O   LIG d   1       3.073   0.627  -5.342  0.00  0.00    -0.336 OA
ATOM      5  N   LIG d   1       2.866   1.108  -6.662  0.00  0.00    -0.056 NA
ENDROOT
BRANCH   3   6
ATOM      6  C   LIG d   1       4.280  -1.351  -4.314  0.00  0.00     0.090 C 
ATOM      7  H   LIG d   1       4.493  -2.362  -4.661  0.00  0.00     0.056 H 
ATOM      8  N   LIG d   1       5.477  -0.755  -3.669  0.00  0.00    -0.287 N 
ATOM      9  C   LIG d   1       5.521  -1.322  -2.302  0.00  0.00     0.000 C 
ATOM     10  C   LIG d   1       4.081  -1.722  -1.931  0.00  0.00    -0.038 C 
ATOM     11  H   LIG d   1       5.892  -0.574  -1.600  0.00  0.00     0.043 H 
ATOM     12  H   LIG d   1       6.165  -2.200  -2.288  0.00  0.00     0.043 H 
ATOM     13  C   LIG d   1       3.231  -1.374  -3.174  0.00  0.00    -0.027 C 
ATOM     14  H   LIG d   1       3.740  -1.150  -1.068  0.00  0.00     0.028 H 
ATOM     15  H   LIG d   1       4.027  -2.791  -1.722  0.00  0.00     0.028 H 
ATOM     16  H   LIG d   1       2.764  -0.396  -3.060  0.00  0.00     0.029 H 
ATOM     17  H   LIG d   1       2.481  -2.143  -3.355  0.00  0.00     0.029 H 
BRANCH   8  18
ATOM     18  C   LIG d   1       6.697  -1.081  -4.418  0.00  0.00     0.031 C 
ATOM     19  H   LIG d   1       7.179  -1.949  -3.968  0.00  0.00     0.048 H 
ATOM     20  H   LIG d   1       6.439  -1.305  -5.453  0.00  0.00     0.048 H 
BRANCH  18  21
ATOM     21  C   LIG d   1       7.640   0.093  -4.379  0.00  0.00     0.004 A 
ATOM     22  S   LIG d   1       9.291   0.232  -5.044  0.00  0.00    -0.100 SA
ATOM     23  C   LIG d   1       9.623   1.915  -4.546  0.00  0.00    -0.024 A 
ATOM     24  C   LIG d   1       8.474   2.250  -3.909  0.00  0.00    -0.054 A 
ATOM     25  H   LIG d   1      10.511   2.508  -4.707  0.00  0.00     0.069 H 
ATOM     26  C   LIG d   1       7.458   1.317  -3.824  0.00  0.00    -0.050 A 
ATOM     27  H   LIG d   1       8.354   3.231  -3.477  0.00  0.00     0.062 H 
ATOM     28  H   LIG d   1       6.533   1.558  -3.323  0.00  0.00     0.063 H 
ENDBRANCH  18  21
ENDBRANCH   8  18
ENDBRANCH   3   6
BRANCH   1  29
ATOM     29  C   LIG d   1       3.515   0.357  -8.942  0.00  0.00     0.084 A 
ATOM     30  C   LIG d   1       4.340   1.300  -9.569  0.00  0.00     0.226 A 
ATOM     31  N   LIG d   1       4.378   1.386 -10.886  0.00  0.00    -0.221 NA
ATOM     32  C   LIG d   1       3.658   0.591 -11.656  0.00  0.00     0.031 A 
ATOM     33  C   LIG d   1       2.820  -0.363 -11.111  0.00  0.00    -0.043 A 
ATOM     34  H   LIG d   1       3.721   0.691 -12.729  0.00  0.00     0.083 H 
ATOM     35  C   LIG d   1       2.740  -0.491  -9.733  0.00  0.00    -0.044 A 
ATOM     36  H   LIG d   1       2.234  -1.003 -11.753  0.00  0.00     0.063 H 
ATOM     37  H   LIG d   1       2.093  -1.229  -9.283  0.00  0.00     0.063 H 
BRANCH  30  38
ATOM     38  O   LIG d   1       5.102   2.133  -8.817  0.00  0.00    -0.474 OA
BRANCH  38  39
ATOM     39  C   LIG d   1       6.518   2.034  -8.973  0.00  0.00     0.115 C 
ATOM     40  H   LIG d   1       6.971   3.012  -8.813  0.00  0.00     0.072 H 
ATOM     41  H   LIG d   1       6.749   1.686  -9.980  0.00  0.00     0.072 H 
BRANCH  39  42
ATOM     42  C   LIG d   1       7.075   1.040  -7.951  0.00  0.00     0.081 C 
ATOM     43  H   LIG d   1       6.284   0.356  -7.642  0.00  0.00     0.059 H 
ATOM     44  H   LIG d   1       7.445   1.583  -7.081  0.00  0.00     0.059 H 
BRANCH  42  45
ATOM     45  O   LIG d   1       8.144   0.298  -8.540  0.00  0.00    -0.380 OA
BRANCH  45  46
ATOM     46  C   LIG d   1       8.595   0.823  -9.791  0.00  0.00     0.037 C 
ATOM     47  H   LIG d   1       7.788   1.384 -10.261  0.00  0.00     0.052 H 
ATOM     48  H   LIG d   1       9.446   1.483  -9.622  0.00  0.00     0.052 H 
ATOM     49  H   LIG d   1       8.895   0.002 -10.442  0.00  0.00     0.052 H 
ENDBRANCH  45  46
ENDBRANCH  42  45
ENDBRANCH  39  42
ENDBRANCH  38  39
ENDBRANCH  30  38
ENDBRANCH   1  29
TORSDOF 9
ENDMDL
MODEL 4
REMARK VINA RESULT:      -5.8      2.532      6.021
REMARK  9 active torsions:
REMARK  status: ('A' for Active; 'I' for Inactive)
REMARK    1  A    between atoms: C_1  and  O_2 
REMARK    2  A    between atoms: O_2  and  C_3 
REMARK    3  A    between atoms: C_3  and  C_4 
REMARK    4  A    between atoms: C_4  and  O_5 
REMARK    5  A    between atoms: O_5  and  C_6 
REMARK    6  A    between atoms: C_7  and  C_12 
REMARK    7  A    between atoms: C_14  and  C_17 
REMARK    8  A    between atoms: N_22  and  C_23 
REMARK    9  A    between atoms: C_23  and  C_24 
ROOT
ATOM      1  C   LIG d   1       4.492  -2.146  -4.308  0.00  0.00     0.207 A 
ATOM      2  N   LIG d   1       4.684  -2.243  -5.637  0.00  0.00    -0.190 NA
ATOM      3  C   LIG d   1       4.618  -3.490  -6.008  0.00  0.00     0.245 A 
ATOM      4  O   LIG d   1       4.380  -4.242  -4.926  0.00  0.00    -0.336 OA
ATOM      5  N   LIG d   1       4.307  -3.350  -3.824  0.00  0.00    -0.056 NA
ENDROOT
BRANCH   3   6
ATOM      6  C   LIG d   1       4.780  -3.999  -7.417  0.00  0.00     0.090 C 
ATOM      7  H   LIG d   1       3.989  -4.706  -7.663  0.00  0.00     0.056 H 
ATOM      8  N   LIG d   1       4.793  -2.871  -8.383  0.00  0.00    -0.287 N 
ATOM      9  C   LIG d   1       5.485  -3.382  -9.588  0.00  0.00     0.000 C 
ATOM     10  C   LIG d   1       6.407  -4.527  -9.129  0.00  0.00    -0.038 C 
ATOM     11  H   LIG d   1       6.078  -2.587 -10.042  0.00  0.00     0.043 H 
ATOM     12  H   LIG d   1       4.754  -3.758 -10.302  0.00  0.00     0.043 H 
ATOM     13  C   LIG d   1       6.174  -4.649  -7.606  0.00  0.00    -0.027 C 
ATOM     14  H   LIG d   1       7.449  -4.278  -9.333  0.00  0.00     0.028 H 
ATOM     15  H   LIG d   1       6.135  -5.456  -9.630  0.00  0.00     0.028 H 
ATOM     16  H   LIG d   1       6.935  -4.098  -7.054  0.00  0.00     0.029 H 
ATOM     17  H   LIG d   1       6.156  -5.695  -7.302  0.00  0.00     0.029 H 
BRANCH   8  18
ATOM     18  C   LIG d   1       3.427  -2.435  -8.702  0.00  0.00     0.031 C 
ATOM     19  H   LIG d   1       3.123  -2.861  -9.659  0.00  0.00     0.048 H 
ATOM     20  H   LIG d   1       2.746  -2.773  -7.921  0.00  0.00     0.048 H 
BRANCH  18  21
ATOM     21  C   LIG d   1       3.386  -0.931  -8.787  0.00  0.00     0.004 A 
ATOM     22  S   LIG d   1       4.700   0.247  -8.516  0.00  0.00    -0.100 SA
ATOM     23  C   LIG d   1       3.770   1.739  -8.825  0.00  0.00    -0.024 A 
ATOM     24  C   LIG d   1       2.537   1.248  -9.102  0.00  0.00    -0.054 A 
ATOM     25  H   LIG d   1       4.102   2.766  -8.794  0.00  0.00     0.069 H 
ATOM     26  C   LIG d   1       2.340  -0.121  -9.083  0.00  0.00    -0.050 A 
ATOM     27  H   LIG d   1       1.722   1.915  -9.336  0.00  0.00     0.062 H 
ATOM     28  H   LIG d   1       1.369  -0.538  -9.301  0.00  0.00     0.063 H 
ENDBRANCH  18  21
ENDBRANCH   8  18
ENDBRANCH   3   6
BRANCH   1  29
ATOM     29  C   LIG d   1       4.497  -0.889  -3.522  0.00  0.00     0.084 A 
ATOM     30  C   LIG d   1       5.703  -0.248  -3.212  0.00  0.00     0.226 A 
ATOM     31  N   LIG d   1       5.706   0.869  -2.507  0.00  0.00    -0.221 NA
ATOM     32  C   LIG d   1       4.587   1.425  -2.082  0.00  0.00     0.031 A 
ATOM     33  C   LIG d   1       3.358   0.851  -2.348  0.00  0.00    -0.043 A 
ATOM     34  H   LIG d   1       4.632   2.342  -1.512  0.00  0.00     0.083 H 
ATOM     35  C   LIG d   1       3.301  -0.325  -3.079  0.00  0.00    -0.044 A 
ATOM     36  H   LIG d   1       2.451   1.315  -1.990  0.00  0.00     0.063 H 
ATOM     37  H   LIG d   1       2.353  -0.792  -3.300  0.00  0.00     0.063 H 
BRANCH  30  38
ATOM     38  O   LIG d   1       6.877  -0.780  -3.634  0.00  0.00    -0.474 OA
BRANCH  38  39
ATOM     39  C   LIG d   1       7.782   0.096  -4.307  0.00  0.00     0.115 C 
ATOM     40  H   LIG d   1       8.801  -0.269  -4.183  0.00  0.00     0.072 H 
ATOM     41  H   LIG d   1       7.700   1.097  -3.883  0.00  0.00     0.072 H 
BRANCH  39  42
ATOM     42  C   LIG d   1       7.434   0.144  -5.796  0.00  0.00     0.081 C 
ATOM     43  H   LIG d   1       6.474  -0.346  -5.960  0.00  0.00     0.059 H 
ATOM     44  H   LIG d   1       8.207  -0.371  -6.366  0.00  0.00     0.059 H 
BRANCH  42  45
ATOM     45  O   LIG d   1       7.353   1.505  -6.224  0.00  0.00    -0.380 OA
BRANCH  45  46
ATOM     46  C   LIG d   1       8.120   1.792  -7.395  0.00  0.00     0.037 C 
ATOM     47  H   LIG d   1       7.899   2.803  -7.735  0.00  0.00     0.052 H 
ATOM     48  H   LIG d   1       9.181   1.710  -7.164  0.00  0.00     0.052 H 
ATOM     49  H   LIG d   1       7.862   1.081  -8.180  0.00  0.00     0.052 H 
ENDBRANCH  45  46
ENDBRANCH  42  45
ENDBRANCH  39  42
ENDBRANCH  38  39
ENDBRANCH  30  38
ENDBRANCH   1  29
TORSDOF 9
ENDMDL
MODEL 5
REMARK VINA RESULT:      -5.6      3.146      6.830
REMARK  9 active torsions:
REMARK  status: ('A' for Active; 'I' for Inactive)
REMARK    1  A    between atoms: C_1  and  O_2 
REMARK    2  A    between atoms: O_2  and  C_3 
REMARK    3  A    between atoms: C_3  and  C_4 
REMARK    4  A    between atoms: C_4  and  O_5 
REMARK    5  A    between atoms: O_5  and  C_6 
REMARK    6  A    between atoms: C_7  and  C_12 
REMARK    7  A    between atoms: C_14  and  C_17 
REMARK    8  A    between atoms: N_22  and  C_23 
REMARK    9  A    between atoms: C_23  and  C_24 
ROOT
ATOM      1  C   LIG d   1       5.590  -0.622  -5.740  0.00  0.00     0.207 A 
ATOM      2  N   LIG d   1       4.870  -0.148  -6.775  0.00  0.00    -0.190 NA
ATOM      3  C   LIG d   1       5.649   0.069  -7.796  0.00  0.00     0.245 A 
ATOM      4  O   LIG d   1       6.901  -0.259  -7.453  0.00  0.00    -0.336 OA
ATOM      5  N   LIG d   1       6.846  -0.703  -6.106  0.00  0.00    -0.056 NA
ENDROOT
BRANCH   3   6
ATOM      6  C   LIG d   1       5.213   0.600  -9.138  0.00  0.00     0.090 C 
ATOM      7  H   LIG d   1       6.029   0.539  -9.858  0.00  0.00     0.056 H 
ATOM      8  N   LIG d   1       4.023  -0.139  -9.632  0.00  0.00    -0.287 N 
ATOM      9  C   LIG d   1       3.365   0.763 -10.604  0.00  0.00     0.000 C 
ATOM     10  C   LIG d   1       3.764   2.203 -10.229  0.00  0.00    -0.038 C 
ATOM     11  H   LIG d   1       2.282   0.650 -10.544  0.00  0.00     0.043 H 
ATOM     12  H   LIG d   1       3.710   0.534 -11.612  0.00  0.00     0.043 H 
ATOM     13  C   LIG d   1       4.703   2.058  -9.009  0.00  0.00    -0.027 C 
ATOM     14  H   LIG d   1       2.881   2.782  -9.959  0.00  0.00     0.028 H 
ATOM     15  H   LIG d   1       4.289   2.678 -11.057  0.00  0.00     0.028 H 
ATOM     16  H   LIG d   1       4.151   2.193  -8.080  0.00  0.00     0.029 H 
ATOM     17  H   LIG d   1       5.531   2.763  -9.075  0.00  0.00     0.029 H 
BRANCH   8  18
ATOM     18  C   LIG d   1       4.413  -1.406 -10.263  0.00  0.00     0.031 C 
ATOM     19  H   LIG d   1       5.023  -1.200 -11.144  0.00  0.00     0.048 H 
ATOM     20  H   LIG d   1       4.987  -2.003  -9.556  0.00  0.00     0.048 H 
BRANCH  18  21
ATOM     21  C   LIG d   1       3.178  -2.164 -10.674  0.00  0.00     0.004 A 
ATOM     22  S   LIG d   1       2.620  -2.602 -12.312  0.00  0.00    -0.100 SA
ATOM     23  C   LIG d   1       1.124  -3.460 -11.849  0.00  0.00    -0.024 A 
ATOM     24  C   LIG d   1       1.146  -3.350 -10.498  0.00  0.00    -0.054 A 
ATOM     25  H   LIG d   1       0.391  -3.937 -12.481  0.00  0.00     0.069 H 
ATOM     26  C   LIG d   1       2.198  -2.687  -9.895  0.00  0.00    -0.050 A 
ATOM     27  H   LIG d   1       0.354  -3.776  -9.901  0.00  0.00     0.062 H 
ATOM     28  H   LIG d   1       2.240  -2.586  -8.822  0.00  0.00     0.063 H 
ENDBRANCH  18  21
ENDBRANCH   8  18
ENDBRANCH   3   6
BRANCH   1  29
ATOM     29  C   LIG d   1       5.052  -0.986  -4.407  0.00  0.00     0.084 A 
ATOM     30  C   LIG d   1       4.467  -2.241  -4.194  0.00  0.00     0.226 A 
ATOM     31  N   LIG d   1       3.984  -2.561  -3.007  0.00  0.00    -0.221 NA
ATOM     32  C   LIG d   1       4.041  -1.728  -1.984  0.00  0.00     0.031 A 
ATOM     33  C   LIG d   1       4.604  -0.472  -2.118  0.00  0.00    -0.043 A 
ATOM     34  H   LIG d   1       3.639  -2.030  -1.029  0.00  0.00     0.083 H 
ATOM     35  C   LIG d   1       5.121  -0.085  -3.345  0.00  0.00    -0.044 A 
ATOM     36  H   LIG d   1       4.640   0.200  -1.274  0.00  0.00     0.063 H 
ATOM     37  H   LIG d   1       5.565   0.891  -3.474  0.00  0.00     0.063 H 
BRANCH  30  38
ATOM     38  O   LIG d   1       4.391  -3.131  -5.214  0.00  0.00    -0.474 OA
BRANCH  38  39
ATOM     39  C   LIG d   1       5.319  -4.216  -5.197  0.00  0.00     0.115 C 
ATOM     40  H   LIG d   1       5.807  -4.263  -4.224  0.00  0.00     0.072 H 
ATOM     41  H   LIG d   1       6.069  -4.064  -5.974  0.00  0.00     0.072 H 
BRANCH  39  42
ATOM     42  C   LIG d   1       4.575  -5.528  -5.459  0.00  0.00     0.081 C 
ATOM     43  H   LIG d   1       4.248  -5.954  -4.510  0.00  0.00     0.059 H 
ATOM     44  H   LIG d   1       5.241  -6.229  -5.961  0.00  0.00     0.059 H 
BRANCH  42  45
ATOM     45  O   LIG d   1       3.438  -5.274  -6.286  0.00  0.00    -0.380 OA
BRANCH  45  46
ATOM     46  C   LIG d   1       3.705  -5.374  -7.686  0.00  0.00     0.037 C 
ATOM     47  H   LIG d   1       3.816  -6.422  -7.961  0.00  0.00     0.052 H 
ATOM     48  H   LIG d   1       2.877  -4.938  -8.245  0.00  0.00     0.052 H 
ATOM     49  H   LIG d   1       4.624  -4.838  -7.920  0.00  0.00     0.052 H 
ENDBRANCH  45  46
ENDBRANCH  42  45
ENDBRANCH  39  42
ENDBRANCH  38  39
ENDBRANCH  30  38
ENDBRANCH   1  29
TORSDOF 9
ENDMDL
MODEL 6
REMARK VINA RESULT:      -5.6      2.235      3.461
REMARK  9 active torsions:
REMARK  status: ('A' for Active; 'I' for Inactive)
REMARK    1  A    between atoms: C_1  and  O_2 
REMARK    2  A    between atoms: O_2  and  C_3 
REMARK    3  A    between atoms: C_3  and  C_4 
REMARK    4  A    between atoms: C_4  and  O_5 
REMARK    5  A    between atoms: O_5  and  C_6 
REMARK    6  A    between atoms: C_7  and  C_12 
REMARK    7  A    between atoms: C_14  and  C_17 
REMARK    8  A    between atoms: N_22  and  C_23 
REMARK    9  A    between atoms: C_23  and  C_24 
ROOT
ATOM      1  C   LIG d   1       4.053  -1.234  -7.399  0.00  0.00     0.207 A 
ATOM      2  N   LIG d   1       3.701  -0.857  -6.155  0.00  0.00    -0.190 NA
ATOM      3  C   LIG d   1       4.738  -0.890  -5.368  0.00  0.00     0.245 A 
ATOM      4  O   LIG d   1       5.799  -1.291  -6.081  0.00  0.00    -0.336 OA
ATOM      5  N   LIG d   1       5.333  -1.517  -7.403  0.00  0.00    -0.056 NA
ENDROOT
BRANCH   3   6
ATOM      6  C   LIG d   1       4.744  -0.536  -3.904  0.00  0.00     0.090 C 
ATOM      7  H   LIG d   1       5.004  -1.405  -3.300  0.00  0.00     0.056 H 
ATOM      8  N   LIG d   1       5.681   0.585  -3.639  0.00  0.00    -0.287 N 
ATOM      9  C   LIG d   1       5.223   1.201  -2.373  0.00  0.00     0.000 C 
ATOM     10  C   LIG d   1       3.722   0.886  -2.232  0.00  0.00    -0.038 C 
ATOM     11  H   LIG d   1       5.374   2.281  -2.408  0.00  0.00     0.043 H 
ATOM     12  H   LIG d   1       5.772   0.774  -1.535  0.00  0.00     0.043 H 
ATOM     13  C   LIG d   1       3.369   0.036  -3.475  0.00  0.00    -0.027 C 
ATOM     14  H   LIG d   1       3.140   1.808  -2.228  0.00  0.00     0.028 H 
ATOM     15  H   LIG d   1       3.539   0.318  -1.320  0.00  0.00     0.028 H 
ATOM     16  H   LIG d   1       2.948   0.660  -4.262  0.00  0.00     0.029 H 
ATOM     17  H   LIG d   1       2.683  -0.768  -3.209  0.00  0.00     0.029 H 
BRANCH   8  18
ATOM     18  C   LIG d   1       7.063   0.102  -3.524  0.00  0.00     0.031 C 
ATOM     19  H   LIG d   1       7.391   0.184  -2.487  0.00  0.00     0.048 H 
ATOM     20  H   LIG d   1       7.110  -0.941  -3.838  0.00  0.00     0.048 H 
BRANCH  18  21
ATOM     21  C   LIG d   1       7.961   0.932  -4.403  0.00  0.00     0.004 A 
ATOM     22  S   LIG d   1       9.115   0.397  -5.656  0.00  0.00    -0.100 SA
ATOM     23  C   LIG d   1       9.708   2.006  -6.156  0.00  0.00    -0.024 A 
ATOM     24  C   LIG d   1       9.003   2.829  -5.341  0.00  0.00    -0.054 A 
ATOM     25  H   LIG d   1      10.441   2.256  -6.908  0.00  0.00     0.069 H 
ATOM     26  C   LIG d   1       8.108   2.279  -4.443  0.00  0.00    -0.050 A 
ATOM     27  H   LIG d   1       9.139   3.899  -5.395  0.00  0.00     0.062 H 
ATOM     28  H   LIG d   1       7.534   2.912  -3.784  0.00  0.00     0.063 H 
ENDBRANCH  18  21
ENDBRANCH   8  18
ENDBRANCH   3   6
BRANCH   1  29
ATOM     29  C   LIG d   1       3.144  -1.321  -8.567  0.00  0.00     0.084 A 
ATOM     30  C   LIG d   1       2.486  -0.180  -9.044  0.00  0.00     0.226 A 
ATOM     31  N   LIG d   1       1.673  -0.261 -10.081  0.00  0.00    -0.221 NA
ATOM     32  C   LIG d   1       1.457  -1.403 -10.709  0.00  0.00     0.031 A 
ATOM     33  C   LIG d   1       2.070  -2.570 -10.296  0.00  0.00    -0.043 A 
ATOM     34  H   LIG d   1       0.788  -1.425 -11.556  0.00  0.00     0.083 H 
ATOM     35  C   LIG d   1       2.929  -2.541  -9.209  0.00  0.00    -0.044 A 
ATOM     36  H   LIG d   1       1.880  -3.498 -10.816  0.00  0.00     0.063 H 
ATOM     37  H   LIG d   1       3.419  -3.441  -8.867  0.00  0.00     0.063 H 
BRANCH  30  38
ATOM     38  O   LIG d   1       2.683   1.015  -8.434  0.00  0.00    -0.474 OA
BRANCH  38  39
ATOM     39  C   LIG d   1       3.183   2.081  -9.242  0.00  0.00     0.115 C 
ATOM     40  H   LIG d   1       3.089   3.022  -8.701  0.00  0.00     0.072 H 
ATOM     41  H   LIG d   1       2.609   2.134 -10.168  0.00  0.00     0.072 H 
BRANCH  39  42
ATOM     42  C   LIG d   1       4.656   1.825  -9.570  0.00  0.00     0.081 C 
ATOM     43  H   LIG d   1       5.022   2.611 -10.229  0.00  0.00     0.059 H 
ATOM     44  H   LIG d   1       4.754   0.859 -10.066  0.00  0.00     0.059 H 
BRANCH  42  45
ATOM     45  O   LIG d   1       5.419   1.821  -8.362  0.00  0.00    -0.380 OA
BRANCH  45  46
ATOM     46  C   LIG d   1       6.821   1.631  -8.562  0.00  0.00     0.037 C 
ATOM     47  H   LIG d   1       7.257   2.543  -8.970  0.00  0.00     0.052 H 
ATOM     48  H   LIG d   1       7.295   1.397  -7.609  0.00  0.00     0.052 H 
ATOM     49  H   LIG d   1       6.980   0.809  -9.259  0.00  0.00     0.052 H 
ENDBRANCH  45  46
ENDBRANCH  42  45
ENDBRANCH  39  42
ENDBRANCH  38  39
ENDBRANCH  30  38
ENDBRANCH   1  29
TORSDOF 9
ENDMDL
MODEL 7
REMARK VINA RESULT:      -5.6      4.244      7.523
REMARK  9 active torsions:
REMARK  status: ('A' for Active; 'I' for Inactive)
REMARK    1  A    between atoms: C_1  and  O_2 
REMARK    2  A    between atoms: O_2  and  C_3 
REMARK    3  A    between atoms: C_3  and  C_4 
REMARK    4  A    between atoms: C_4  and  O_5 
REMARK    5  A    between atoms: O_5  and  C_6 
REMARK    6  A    between atoms: C_7  and  C_12 
REMARK    7  A    between atoms: C_14  and  C_17 
REMARK    8  A    between atoms: N_22  and  C_23 
REMARK    9  A    between atoms: C_23  and  C_24 
ROOT
ATOM      1  C   LIG d   1       7.247   1.383  -4.004  0.00  0.00     0.207 A 
ATOM      2  N   LIG d   1       8.228   2.115  -3.443  0.00  0.00    -0.190 NA
ATOM      3  C   LIG d   1       8.965   2.658  -4.370  0.00  0.00     0.245 A 
ATOM      4  O   LIG d   1       8.481   2.294  -5.565  0.00  0.00    -0.336 OA
ATOM      5  N   LIG d   1       7.363   1.457  -5.307  0.00  0.00    -0.056 NA
ENDROOT
BRANCH   3   6
ATOM      6  C   LIG d   1      10.159   3.547  -4.137  0.00  0.00     0.090 C 
ATOM      7  H   LIG d   1      11.081   2.967  -4.173  0.00  0.00     0.056 H 
ATOM      8  N   LIG d   1      10.195   4.649  -5.132  0.00  0.00    -0.287 N 
ATOM      9  C   LIG d   1      11.010   5.720  -4.516  0.00  0.00     0.000 C 
ATOM     10  C   LIG d   1      10.920   5.538  -2.990  0.00  0.00    -0.038 C 
ATOM     11  H   LIG d   1      10.616   6.697  -4.798  0.00  0.00     0.043 H 
ATOM     12  H   LIG d   1      12.046   5.627  -4.841  0.00  0.00     0.043 H 
ATOM     13  C   LIG d   1      10.032   4.289  -2.783  0.00  0.00    -0.027 C 
ATOM     14  H   LIG d   1      10.457   6.411  -2.531  0.00  0.00     0.028 H 
ATOM     15  H   LIG d   1      11.912   5.371  -2.569  0.00  0.00     0.028 H 
ATOM     16  H   LIG d   1       8.998   4.579  -2.597  0.00  0.00     0.029 H 
ATOM     17  H   LIG d   1      10.415   3.675  -1.969  0.00  0.00     0.029 H 
BRANCH   8  18
ATOM     18  C   LIG d   1      10.783   4.196  -6.399  0.00  0.00     0.031 C 
ATOM     19  H   LIG d   1      11.833   4.489  -6.437  0.00  0.00     0.048 H 
ATOM     20  H   LIG d   1      10.707   3.111  -6.468  0.00  0.00     0.048 H 
BRANCH  18  21
ATOM     21  C   LIG d   1      10.043   4.826  -7.551  0.00  0.00     0.004 A 
ATOM     22  S   LIG d   1       9.961   6.543  -8.030  0.00  0.00    -0.100 SA
ATOM     23  C   LIG d   1       8.898   6.358  -9.453  0.00  0.00    -0.024 A 
ATOM     24  C   LIG d   1       8.674   5.021  -9.462  0.00  0.00    -0.054 A 
ATOM     25  H   LIG d   1       8.527   7.115 -10.127  0.00  0.00     0.069 H 
ATOM     26  C   LIG d   1       9.261   4.235  -8.488  0.00  0.00    -0.050 A 
ATOM     27  H   LIG d   1       8.048   4.576 -10.221  0.00  0.00     0.062 H 
ATOM     28  H   LIG d   1       9.100   3.168  -8.473  0.00  0.00     0.063 H 
ENDBRANCH  18  21
ENDBRANCH   8  18
ENDBRANCH   3   6
BRANCH   1  29
ATOM     29  C   LIG d   1       6.212   0.617  -3.269  0.00  0.00     0.084 A 
ATOM     30  C   LIG d   1       6.256  -0.782  -3.230  0.00  0.00     0.226 A 
ATOM     31  N   LIG d   1       5.330  -1.463  -2.579  0.00  0.00    -0.221 NA
ATOM     32  C   LIG d   1       4.344  -0.861  -1.939  0.00  0.00     0.031 A 
ATOM     33  C   LIG d   1       4.234   0.516  -1.934  0.00  0.00    -0.043 A 
ATOM     34  H   LIG d   1       3.610  -1.454  -1.415  0.00  0.00     0.083 H 
ATOM     35  C   LIG d   1       5.178   1.278  -2.606  0.00  0.00    -0.044 A 
ATOM     36  H   LIG d   1       3.420   0.995  -1.410  0.00  0.00     0.063 H 
ATOM     37  H   LIG d   1       5.113   2.356  -2.616  0.00  0.00     0.063 H 
BRANCH  30  38
ATOM     38  O   LIG d   1       7.254  -1.443  -3.867  0.00  0.00    -0.474 OA
BRANCH  38  39
ATOM     39  C   LIG d   1       6.873  -2.513  -4.733  0.00  0.00     0.115 C 
ATOM     40  H   LIG d   1       6.068  -3.085  -4.272  0.00  0.00     0.072 H 
ATOM     41  H   LIG d   1       7.730  -3.165  -4.904  0.00  0.00     0.072 H 
BRANCH  39  42
ATOM     42  C   LIG d   1       6.393  -1.942  -6.070  0.00  0.00     0.081 C 
ATOM     43  H   LIG d   1       6.834  -2.512  -6.887  0.00  0.00     0.059 H 
ATOM     44  H   LIG d   1       6.697  -0.899  -6.148  0.00  0.00     0.059 H 
BRANCH  42  45
ATOM     45  O   LIG d   1       4.969  -2.030  -6.142  0.00  0.00    -0.380 OA
BRANCH  45  46
ATOM     46  C   LIG d   1       4.318  -0.772  -6.329  0.00  0.00     0.037 C 
ATOM     47  H   LIG d   1       3.522  -0.880  -7.066  0.00  0.00     0.052 H 
ATOM     48  H   LIG d   1       3.893  -0.438  -5.383  0.00  0.00     0.052 H 
ATOM     49  H   LIG d   1       5.042  -0.038  -6.682  0.00  0.00     0.052 H 
ENDBRANCH  45  46
ENDBRANCH  42  45
ENDBRANCH  39  42
ENDBRANCH  38  39
ENDBRANCH  30  38
ENDBRANCH   1  29
TORSDOF 9
ENDMDL
MODEL 8
REMARK VINA RESULT:      -5.5      2.577      5.865
REMARK  9 active torsions:
REMARK  status: ('A' for Active; 'I' for Inactive)
REMARK    1  A    between atoms: C_1  and  O_2 
REMARK    2  A    between atoms: O_2  and  C_3 
REMARK    3  A    between atoms: C_3  and  C_4 
REMARK    4  A    between atoms: C_4  and  O_5 
REMARK    5  A    between atoms: O_5  and  C_6 
REMARK    6  A    between atoms: C_7  and  C_12 
REMARK    7  A    between atoms: C_14  and  C_17 
REMARK    8  A    between atoms: N_22  and  C_23 
REMARK    9  A    between atoms: C_23  and  C_24 
ROOT
ATOM      1  C   LIG d   1       5.072  -2.245  -4.062  0.00  0.00     0.207 A 
ATOM      2  N   LIG d   1       6.341  -2.572  -4.367  0.00  0.00    -0.190 NA
ATOM      3  C   LIG d   1       6.383  -3.767  -4.884  0.00  0.00     0.245 A 
ATOM      4  O   LIG d   1       5.136  -4.253  -4.930  0.00  0.00    -0.336 OA
ATOM      5  N   LIG d   1       4.293  -3.250  -4.384  0.00  0.00    -0.056 NA
ENDROOT
BRANCH   3   6
ATOM      6  C   LIG d   1       7.625  -4.481  -5.352  0.00  0.00     0.090 C 
ATOM      7  H   LIG d   1       7.382  -5.486  -5.696  0.00  0.00     0.056 H 
ATOM      8  N   LIG d   1       8.301  -3.708  -6.425  0.00  0.00    -0.287 N 
ATOM      9  C   LIG d   1       9.711  -4.159  -6.418  0.00  0.00     0.000 C 
ATOM     10  C   LIG d   1      10.011  -4.686  -5.002  0.00  0.00    -0.038 C 
ATOM     11  H   LIG d   1      10.371  -3.323  -6.651  0.00  0.00     0.043 H 
ATOM     12  H   LIG d   1       9.846  -4.957  -7.147  0.00  0.00     0.043 H 
ATOM     13  C   LIG d   1       8.685  -4.530  -4.223  0.00  0.00    -0.027 C 
ATOM     14  H   LIG d   1      10.795  -4.089  -4.535  0.00  0.00     0.028 H 
ATOM     15  H   LIG d   1      10.306  -5.734  -5.043  0.00  0.00     0.028 H 
ATOM     16  H   LIG d   1       8.681  -3.604  -3.649  0.00  0.00     0.029 H 
ATOM     17  H   LIG d   1       8.517  -5.389  -3.574  0.00  0.00     0.029 H 
BRANCH   8  18
ATOM     18  C   LIG d   1       7.671  -3.955  -7.729  0.00  0.00     0.031 C 
ATOM     19  H   LIG d   1       8.406  -4.385  -8.411  0.00  0.00     0.048 H 
ATOM     20  H   LIG d   1       6.841  -4.650  -7.606  0.00  0.00     0.048 H 
BRANCH  18  21
ATOM     21  C   LIG d   1       7.160  -2.656  -8.295  0.00  0.00     0.004 A 
ATOM     22  S   LIG d   1       6.478  -2.324  -9.911  0.00  0.00    -0.100 SA
ATOM     23  C   LIG d   1       6.155  -0.582  -9.696  0.00  0.00    -0.024 A 
ATOM     24  C   LIG d   1       6.589  -0.371  -8.429  0.00  0.00    -0.054 A 
ATOM     25  H   LIG d   1       5.729   0.122 -10.395  0.00  0.00     0.069 H 
ATOM     26  C   LIG d   1       7.104  -1.434  -7.710  0.00  0.00    -0.050 A 
ATOM     27  H   LIG d   1       6.532   0.612  -7.987  0.00  0.00     0.062 H 
ATOM     28  H   LIG d   1       7.456  -1.293  -6.700  0.00  0.00     0.063 H 
ENDBRANCH  18  21
ENDBRANCH   8  18
ENDBRANCH   3   6
BRANCH   1  29
ATOM     29  C   LIG d   1       4.629  -0.967  -3.457  0.00  0.00     0.084 A 
ATOM     30  C   LIG d   1       4.111   0.059  -4.258  0.00  0.00     0.226 A 
ATOM     31  N   LIG d   1       3.721   1.199  -3.717  0.00  0.00    -0.221 NA
ATOM     32  C   LIG d   1       3.793   1.412  -2.416  0.00  0.00     0.031 A 
ATOM     33  C   LIG d   1       4.293   0.448  -1.562  0.00  0.00    -0.043 A 
ATOM     34  H   LIG d   1       3.460   2.357  -2.014  0.00  0.00     0.083 H 
ATOM     35  C   LIG d   1       4.720  -0.765  -2.080  0.00  0.00    -0.044 A 
ATOM     36  H   LIG d   1       4.350   0.638  -0.501  0.00  0.00     0.063 H 
ATOM     37  H   LIG d   1       5.114  -1.534  -1.432  0.00  0.00     0.063 H 
BRANCH  30  38
ATOM     38  O   LIG d   1       4.013  -0.118  -5.599  0.00  0.00    -0.474 OA
BRANCH  38  39
ATOM     39  C   LIG d   1       2.793   0.289  -6.220  0.00  0.00     0.115 C 
ATOM     40  H   LIG d   1       2.470   1.240  -5.797  0.00  0.00     0.072 H 
ATOM     41  H   LIG d   1       2.027  -0.466  -6.045  0.00  0.00     0.072 H 
BRANCH  39  42
ATOM     42  C   LIG d   1       3.016   0.449  -7.726  0.00  0.00     0.081 C 
ATOM     43  H   LIG d   1       2.051   0.482  -8.233  0.00  0.00     0.059 H 
ATOM     44  H   LIG d   1       3.594  -0.396  -8.098  0.00  0.00     0.059 H 
BRANCH  42  45
ATOM     45  O   LIG d   1       3.727   1.663  -7.976  0.00  0.00    -0.380 OA
BRANCH  45  46
ATOM     46  C   LIG d   1       3.506   2.208  -9.278  0.00  0.00     0.037 C 
ATOM     47  H   LIG d   1       2.598   1.779  -9.702  0.00  0.00     0.052 H 
ATOM     48  H   LIG d   1       3.396   3.290  -9.205  0.00  0.00     0.052 H 
ATOM     49  H   LIG d   1       4.354   1.971  -9.920  0.00  0.00     0.052 H 
ENDBRANCH  45  46
ENDBRANCH  42  45
ENDBRANCH  39  42
ENDBRANCH  38  39
ENDBRANCH  30  38
ENDBRANCH   1  29
TORSDOF 9
ENDMDL
MODEL 9
REMARK VINA RESULT:      -5.5      2.685      5.985
REMARK  9 active torsions:
REMARK  status: ('A' for Active; 'I' for Inactive)
REMARK    1  A    between atoms: C_1  and  O_2 
REMARK    2  A    between atoms: O_2  and  C_3 
REMARK    3  A    between atoms: C_3  and  C_4 
REMARK    4  A    between atoms: C_4  and  O_5 
REMARK    5  A    between atoms: O_5  and  C_6 
REMARK    6  A    between atoms: C_7  and  C_12 
REMARK    7  A    between atoms: C_14  and  C_17 
REMARK    8  A    between atoms: N_22  and  C_23 
REMARK    9  A    between atoms: C_23  and  C_24 
ROOT
ATOM      1  C   LIG d   1       5.764  -1.871  -3.881  0.00  0.00     0.207 A 
ATOM      2  N   LIG d   1       7.098  -2.028  -3.788  0.00  0.00    -0.190 NA
ATOM      3  C   LIG d   1       7.444  -3.192  -4.261  0.00  0.00     0.245 A 
ATOM      4  O   LIG d   1       6.340  -3.826  -4.677  0.00  0.00    -0.336 OA
ATOM      5  N   LIG d   1       5.252  -2.952  -4.417  0.00  0.00    -0.056 NA
ENDROOT
BRANCH   3   6
ATOM      6  C   LIG d   1       8.849  -3.732  -4.330  0.00  0.00     0.090 C 
ATOM      7  H   LIG d   1       8.900  -4.583  -5.009  0.00  0.00     0.056 H 
ATOM      8  N   LIG d   1       9.799  -2.670  -4.749  0.00  0.00    -0.287 N 
ATOM      9  C   LIG d   1      11.128  -3.106  -4.264  0.00  0.00     0.000 C 
ATOM     10  C   LIG d   1      10.889  -4.040  -3.064  0.00  0.00    -0.038 C 
ATOM     11  H   LIG d   1      11.712  -2.240  -3.950  0.00  0.00     0.043 H 
ATOM     12  H   LIG d   1      11.651  -3.643  -5.054  0.00  0.00     0.043 H 
ATOM     13  C   LIG d   1       9.352  -4.127  -2.918  0.00  0.00    -0.027 C 
ATOM     14  H   LIG d   1      11.330  -3.617  -2.161  0.00  0.00     0.028 H 
ATOM     15  H   LIG d   1      11.306  -5.027  -3.263  0.00  0.00     0.028 H 
ATOM     16  H   LIG d   1       8.995  -3.421  -2.170  0.00  0.00     0.029 H 
ATOM     17  H   LIG d   1       9.045  -5.143  -2.670  0.00  0.00     0.029 H 
BRANCH   8  18
ATOM     18  C   LIG d   1       9.795  -2.505  -6.208  0.00  0.00     0.031 C 
ATOM     19  H   LIG d   1      10.695  -2.956  -6.627  0.00  0.00     0.048 H 
ATOM     20  H   LIG d   1       8.915  -2.993  -6.627  0.00  0.00     0.048 H 
BRANCH  18  21
ATOM     21  C   LIG d   1       9.763  -1.037  -6.548  0.00  0.00     0.004 A 
ATOM     22  S   LIG d   1       9.493   0.361  -5.472  0.00  0.00    -0.100 SA
ATOM     23  C   LIG d   1       9.626   1.653  -6.697  0.00  0.00    -0.024 A 
ATOM     24  C   LIG d   1       9.856   0.942  -7.829  0.00  0.00    -0.054 A 
ATOM     25  H   LIG d   1       9.541   2.721  -6.570  0.00  0.00     0.069 H 
ATOM     26  C   LIG d   1       9.927  -0.437  -7.753  0.00  0.00    -0.050 A 
ATOM     27  H   LIG d   1       9.984   1.445  -8.775  0.00  0.00     0.062 H 
ATOM     28  H   LIG d   1      10.110  -1.026  -8.638  0.00  0.00     0.063 H 
ENDBRANCH  18  21
ENDBRANCH   8  18
ENDBRANCH   3   6
BRANCH   1  29
ATOM     29  C   LIG d   1       5.002  -0.676  -3.445  0.00  0.00     0.084 A 
ATOM     30  C   LIG d   1       4.359   0.140  -4.383  0.00  0.00     0.226 A 
ATOM     31  N   LIG d   1       3.684   1.206  -3.992  0.00  0.00    -0.221 NA
ATOM     32  C   LIG d   1       3.581   1.536  -2.718  0.00  0.00     0.031 A 
ATOM     33  C   LIG d   1       4.188   0.779  -1.734  0.00  0.00    -0.043 A 
ATOM     34  H   LIG d   1       3.016   2.413  -2.440  0.00  0.00     0.083 H 
ATOM     35  C   LIG d   1       4.912  -0.348  -2.092  0.00  0.00    -0.044 A 
ATOM     36  H   LIG d   1       4.099   1.062  -0.696  0.00  0.00     0.063 H 
ATOM     37  H   LIG d   1       5.396  -0.955  -1.341  0.00  0.00     0.063 H 
BRANCH  30  38
ATOM     38  O   LIG d   1       4.433  -0.163  -5.703  0.00  0.00    -0.474 OA
BRANCH  38  39
ATOM     39  C   LIG d   1       3.246   0.013  -6.477  0.00  0.00     0.115 C 
ATOM     40  H   LIG d   1       2.618   0.773  -6.012  0.00  0.00     0.072 H 
ATOM     41  H   LIG d   1       2.700  -0.930  -6.523  0.00  0.00     0.072 H 
BRANCH  39  42
ATOM     42  C   LIG d   1       3.621   0.455  -7.893  0.00  0.00     0.081 C 
ATOM     43  H   LIG d   1       2.985  -0.059  -8.614  0.00  0.00     0.059 H 
ATOM     44  H   LIG d   1       4.664   0.206  -8.086  0.00  0.00     0.059 H 
BRANCH  42  45
ATOM     45  O   LIG d   1       3.436   1.867  -8.016  0.00  0.00    -0.380 OA
BRANCH  45  46
ATOM     46  C   LIG d   1       3.668   2.370  -9.334  0.00  0.00     0.037 C 
ATOM     47  H   LIG d   1       2.755   2.285  -9.921  0.00  0.00     0.052 H 
ATOM     48  H   LIG d   1       3.966   3.417  -9.275  0.00  0.00     0.052 H 
ATOM     49  H   LIG d   1       4.462   1.792  -9.808  0.00  0.00     0.052 H 
ENDBRANCH  45  46
ENDBRANCH  42  45
ENDBRANCH  39  42
ENDBRANCH  38  39
ENDBRANCH  30  38
ENDBRANCH   1  29
TORSDOF 9
ENDMDL
