MODEL 1
REMARK VINA RESULT:      -7.5      0.000      0.000
REMARK  5 active torsions:
REMARK  status: ('A' for Active; 'I' for Inactive)
REMARK    1  A    between atoms: C_1  and  C_2 
REMARK    2  A    between atoms: C_7  and  N_8 
REMARK       I    between atoms: N_8  and  C_9 
REMARK    3  A    between atoms: C_9  and  C_11 
REMARK    4  A    between atoms: C_11  and  C_12 
REMARK    5  A    between atoms: C_11  and  C_16 
ROOT
ATOM      1  C   LIG d   1       3.793  -1.360  -7.770  0.00  0.00    -0.029 A 
ATOM      2  C   LIG d   1       3.139  -1.318  -8.988  0.00  0.00    -0.054 A 
ATOM      3  C   LIG d   1       2.587  -0.134  -9.437  0.00  0.00    -0.026 A 
ATOM      4  C   LIG d   1       2.686   1.016  -8.670  0.00  0.00     0.125 A 
ATOM      5  C   LIG d   1       3.338   0.979  -7.451  0.00  0.00    -0.005 A 
ATOM      6  C   LIG d   1       3.888  -0.211  -6.995  0.00  0.00     0.039 A 
ATOM      7  F   LIG d   1       2.147   2.172  -9.112  0.00  0.00    -0.205 F 
ATOM      8  H   LIG d   1       3.061  -2.213  -9.588  0.00  0.00     0.062 H 
ATOM      9  H   LIG d   1       2.078  -0.104 -10.389  0.00  0.00     0.065 H 
ATOM     10  H   LIG d   1       3.417   1.875  -6.852  0.00  0.00     0.067 H 
ENDROOT
BRANCH   6  11
ATOM     11  N   LIG d   1       4.544  -0.254  -5.759  0.00  0.00    -0.283 N 
ATOM     12  C   LIG d   1       3.837  -0.137  -4.618  0.00  0.00     0.252 C 
ATOM     13  O   LIG d   1       2.626  -0.077  -4.658  0.00  0.00    -0.273 OA
ATOM     14  H   LIG d   1       5.506  -0.366  -5.724  0.00  0.00     0.155 HD
BRANCH  12  15
ATOM     15  C   LIG d   1       4.550  -0.080  -3.292  0.00  0.00     0.289 C 
ATOM     16 BR   LIG d   1       6.448   0.339  -3.586  0.00  0.00    -0.056 Br
BRANCH  15  17
ATOM     17  C   LIG d   1       3.918   1.006  -2.419  0.00  0.00     0.422 C 
ATOM     18  F   LIG d   1       2.627   0.614  -2.049  0.00  0.00    -0.168 F 
ATOM     19  F   LIG d   1       4.696   1.193  -1.271  0.00  0.00    -0.168 F 
ATOM     20  F   LIG d   1       3.853   2.203  -3.139  0.00  0.00    -0.168 F 
ENDBRANCH  15  17
BRANCH  15  21
ATOM     21  C   LIG d   1       4.430  -1.434  -2.589  0.00  0.00     0.422 C 
ATOM     22  F   LIG d   1       5.407  -2.304  -3.084  0.00  0.00    -0.168 F 
ATOM     23  F   LIG d   1       4.611  -1.263  -1.213  0.00  0.00    -0.168 F 
ATOM     24  F   LIG d   1       3.160  -1.972  -2.828  0.00  0.00    -0.168 F 
ENDBRANCH  15  21
ENDBRANCH  12  15
ENDBRANCH   6  11
BRANCH   1  25
ATOM     25  C   LIG d   1       4.393  -2.652  -7.282  0.00  0.00    -0.038 C 
ATOM     26  H   LIG d   1       5.045  -2.452  -6.431  0.00  0.00     0.028 H 
ATOM     27  H   LIG d   1       3.597  -3.332  -6.977  0.00  0.00     0.028 H 
ATOM     28  H   LIG d   1       4.973  -3.109  -8.084  0.00  0.00     0.028 H 
ENDBRANCH   1  25
TORSDOF 5
ENDMDL
MODEL 2
REMARK VINA RESULT:      -7.1      1.447      2.595
REMARK  5 active torsions:
REMARK  status: ('A' for Active; 'I' for Inactive)
REMARK    1  A    between atoms: C_1  and  C_2 
REMARK    2  A    between atoms: C_7  and  N_8 
REMARK       I    between atoms: N_8  and  C_9 
REMARK    3  A    between atoms: C_9  and  C_11 
REMARK    4  A    between atoms: C_11  and  C_12 
REMARK    5  A    between atoms: C_11  and  C_16 
ROOT
ATOM      1  C   LIG d   1       3.942  -1.282  -7.794  0.00  0.00    -0.029 A 
ATOM      2  C   LIG d   1       4.046  -1.187  -9.169  0.00  0.00    -0.054 A 
ATOM      3  C   LIG d   1       3.694  -0.015  -9.811  0.00  0.00    -0.026 A 
ATOM      4  C   LIG d   1       3.237   1.069  -9.080  0.00  0.00     0.125 A 
ATOM      5  C   LIG d   1       3.131   0.979  -7.704  0.00  0.00    -0.005 A 
ATOM      6  C   LIG d   1       3.478  -0.200  -7.058  0.00  0.00     0.039 A 
ATOM      7  F   LIG d   1       2.895   2.214  -9.710  0.00  0.00    -0.205 F 
ATOM      8  H   LIG d   1       4.403  -2.030  -9.742  0.00  0.00     0.062 H 
ATOM      9  H   LIG d   1       3.777   0.057 -10.886  0.00  0.00     0.065 H 
ATOM     10  H   LIG d   1       2.775   1.824  -7.132  0.00  0.00     0.067 H 
ENDROOT
BRANCH   6  11
ATOM     11  N   LIG d   1       3.366  -0.296  -5.666  0.00  0.00    -0.283 N 
ATOM     12  C   LIG d   1       4.429  -0.020  -4.885  0.00  0.00     0.252 C 
ATOM     13  O   LIG d   1       5.457   0.392  -5.381  0.00  0.00    -0.273 OA
ATOM     14  H   LIG d   1       2.525  -0.563  -5.264  0.00  0.00     0.155 HD
BRANCH  12  15
ATOM     15  C   LIG d   1       4.341  -0.221  -3.394  0.00  0.00     0.289 C 
ATOM     16 BR   LIG d   1       2.534  -0.834  -2.921  0.00  0.00    -0.056 Br
BRANCH  15  17
ATOM     17  C   LIG d   1       5.366  -1.271  -2.960  0.00  0.00     0.422 C 
ATOM     18  F   LIG d   1       5.451  -2.270  -3.935  0.00  0.00    -0.168 F 
ATOM     19  F   LIG d   1       6.617  -0.665  -2.802  0.00  0.00    -0.168 F 
ATOM     20  F   LIG d   1       4.965  -1.838  -1.745  0.00  0.00    -0.168 F 
ENDBRANCH  15  17
BRANCH  15  21
ATOM     21  C   LIG d   1       4.633   1.102  -2.682  0.00  0.00     0.422 C 
ATOM     22  F   LIG d   1       3.684   2.056  -3.064  0.00  0.00    -0.168 F 
ATOM     23  F   LIG d   1       4.571   0.910  -1.298  0.00  0.00    -0.168 F 
ATOM     24  F   LIG d   1       5.912   1.548  -3.034  0.00  0.00    -0.168 F 
ENDBRANCH  15  21
ENDBRANCH  12  15
ENDBRANCH   6  11
BRANCH   1  25
ATOM     25  C   LIG d   1       4.325  -2.561  -7.096  0.00  0.00    -0.038 C 
ATOM     26  H   LIG d   1       4.022  -3.413  -7.706  0.00  0.00     0.028 H 
ATOM     27  H   LIG d   1       5.405  -2.586  -6.948  0.00  0.00     0.028 H 
ATOM     28  H   LIG d   1       3.824  -2.610  -6.129  0.00  0.00     0.028 H 
ENDBRANCH   1  25
TORSDOF 5
ENDMDL
MODEL 3
REMARK VINA RESULT:      -7.0      2.381      5.970
REMARK  5 active torsions:
REMARK  status: ('A' for Active; 'I' for Inactive)
REMARK    1  A    between atoms: C_1  and  C_2 
REMARK    2  A    between atoms: C_7  and  N_8 
REMARK       I    between atoms: N_8  and  C_9 
REMARK    3  A    between atoms: C_9  and  C_11 
REMARK    4  A    between atoms: C_11  and  C_12 
REMARK    5  A    between atoms: C_11  and  C_16 
ROOT
ATOM      1  C   LIG d   1       4.324  -1.840  -4.091  0.00  0.00    -0.029 A 
ATOM      2  C   LIG d   1       4.567  -1.856  -2.730  0.00  0.00    -0.054 A 
ATOM      3  C   LIG d   1       4.278  -0.744  -1.962  0.00  0.00    -0.026 A 
ATOM      4  C   LIG d   1       3.744   0.390  -2.552  0.00  0.00     0.125 A 
ATOM      5  C   LIG d   1       3.500   0.412  -3.913  0.00  0.00    -0.005 A 
ATOM      6  C   LIG d   1       3.795  -0.702  -4.687  0.00  0.00     0.039 A 
ATOM      7  F   LIG d   1       3.462   1.475  -1.799  0.00  0.00    -0.205 F 
ATOM      8  H   LIG d   1       4.982  -2.739  -2.267  0.00  0.00     0.062 H 
ATOM      9  H   LIG d   1       4.468  -0.759  -0.899  0.00  0.00     0.065 H 
ATOM     10  H   LIG d   1       3.083   1.295  -4.374  0.00  0.00     0.067 H 
ENDROOT
BRANCH   6  11
ATOM     11  N   LIG d   1       3.555  -0.682  -6.066  0.00  0.00    -0.283 N 
ATOM     12  C   LIG d   1       4.461  -0.135  -6.899  0.00  0.00     0.252 C 
ATOM     13  O   LIG d   1       5.521   0.266  -6.465  0.00  0.00    -0.273 OA
ATOM     14  H   LIG d   1       2.737  -1.062  -6.421  0.00  0.00     0.155 HD
BRANCH  12  15
ATOM     15  C   LIG d   1       4.160  -0.021  -8.371  0.00  0.00     0.289 C 
ATOM     16 BR   LIG d   1       5.794  -0.380  -9.404  0.00  0.00    -0.056 Br
BRANCH  15  17
ATOM     17  C   LIG d   1       3.083  -1.039  -8.751  0.00  0.00     0.422 C 
ATOM     18  F   LIG d   1       3.348  -2.257  -8.117  0.00  0.00    -0.168 F 
ATOM     19  F   LIG d   1       1.830  -0.565  -8.346  0.00  0.00    -0.168 F 
ATOM     20  F   LIG d   1       3.085  -1.224 -10.138  0.00  0.00    -0.168 F 
ENDBRANCH  15  17
BRANCH  15  21
ATOM     21  C   LIG d   1       3.660   1.392  -8.683  0.00  0.00     0.422 C 
ATOM     22  F   LIG d   1       4.752   2.260  -8.788  0.00  0.00    -0.168 F 
ATOM     23  F   LIG d   1       2.954   1.381  -9.890  0.00  0.00    -0.168 F 
ATOM     24  F   LIG d   1       2.817   1.825  -7.654  0.00  0.00    -0.168 F 
ENDBRANCH  15  21
ENDBRANCH  12  15
ENDBRANCH   6  11
BRANCH   1  25
ATOM     25  C   LIG d   1       4.641  -3.052  -4.927  0.00  0.00    -0.038 C 
ATOM     26  H   LIG d   1       5.599  -2.910  -5.426  0.00  0.00     0.028 H 
ATOM     27  H   LIG d   1       4.691  -3.933  -4.287  0.00  0.00     0.028 H 
ATOM     28  H   LIG d   1       3.859  -3.191  -5.675  0.00  0.00     0.028 H 
ENDBRANCH   1  25
TORSDOF 5
ENDMDL
MODEL 4
REMARK VINA RESULT:      -6.8      1.299      1.448
REMARK  5 active torsions:
REMARK  status: ('A' for Active; 'I' for Inactive)
REMARK    1  A    between atoms: C_1  and  C_2 
REMARK    2  A    between atoms: C_7  and  N_8 
REMARK       I    between atoms: N_8  and  C_9 
REMARK    3  A    between atoms: C_9  and  C_11 
REMARK    4  A    between atoms: C_11  and  C_12 
REMARK    5  A    between atoms: C_11  and  C_16 
ROOT
ATOM      1  C   LIG d   1       4.258  -2.344  -7.633  0.00  0.00    -0.029 A 
ATOM      2  C   LIG d   1       4.324  -2.537  -9.001  0.00  0.00    -0.054 A 
ATOM      3  C   LIG d   1       3.792  -1.596  -9.861  0.00  0.00    -0.026 A 
ATOM      4  C   LIG d   1       3.191  -0.454  -9.356  0.00  0.00     0.125 A 
ATOM      5  C   LIG d   1       3.121  -0.255  -7.989  0.00  0.00    -0.005 A 
ATOM      6  C   LIG d   1       3.650  -1.204  -7.124  0.00  0.00     0.039 A 
ATOM      7  F   LIG d   1       2.672   0.466 -10.199  0.00  0.00    -0.205 F 
ATOM      8  H   LIG d   1       4.794  -3.426  -9.397  0.00  0.00     0.062 H 
ATOM      9  H   LIG d   1       3.846  -1.749 -10.929  0.00  0.00     0.065 H 
ATOM     10  H   LIG d   1       2.653   0.634  -7.595  0.00  0.00     0.067 H 
ENDROOT
BRANCH   6  11
ATOM     11  N   LIG d   1       3.576  -1.009  -5.740  0.00  0.00    -0.283 N 
ATOM     12  C   LIG d   1       4.565  -0.357  -5.098  0.00  0.00     0.252 C 
ATOM     13  O   LIG d   1       5.478   0.132  -5.729  0.00  0.00    -0.273 OA
ATOM     14  H   LIG d   1       2.814  -1.344  -5.243  0.00  0.00     0.155 HD
BRANCH  12  15
ATOM     15  C   LIG d   1       4.538  -0.235  -3.596  0.00  0.00     0.289 C 
ATOM     16 BR   LIG d   1       5.978   0.968  -3.010  0.00  0.00    -0.056 Br
BRANCH  15  17
ATOM     17  C   LIG d   1       3.187   0.333  -3.156  0.00  0.00     0.422 C 
ATOM     18  F   LIG d   1       2.297  -0.717  -2.910  0.00  0.00    -0.168 F 
ATOM     19  F   LIG d   1       3.356   1.084  -1.987  0.00  0.00    -0.168 F 
ATOM     20  F   LIG d   1       2.674   1.152  -4.167  0.00  0.00    -0.168 F 
ENDBRANCH  15  17
BRANCH  15  21
ATOM     21  C   LIG d   1       4.740  -1.616  -2.968  0.00  0.00     0.422 C 
ATOM     22  F   LIG d   1       6.043  -2.056  -3.220  0.00  0.00    -0.168 F 
ATOM     23  F   LIG d   1       4.533  -1.535  -1.587  0.00  0.00    -0.168 F 
ATOM     24  F   LIG d   1       3.826  -2.519  -3.524  0.00  0.00    -0.168 F 
ENDBRANCH  15  21
ENDBRANCH  12  15
ENDBRANCH   6  11
BRANCH   1  25
ATOM     25  C   LIG d   1       4.838  -3.372  -6.698  0.00  0.00    -0.038 C 
ATOM     26  H   LIG d   1       4.040  -4.017  -6.327  0.00  0.00     0.028 H 
ATOM     27  H   LIG d   1       5.574  -3.974  -7.230  0.00  0.00     0.028 H 
ATOM     28  H   LIG d   1       5.318  -2.869  -5.858  0.00  0.00     0.028 H 
ENDBRANCH   1  25
TORSDOF 5
ENDMDL
MODEL 5
REMARK VINA RESULT:      -6.7      1.867      2.584
REMARK  5 active torsions:
REMARK  status: ('A' for Active; 'I' for Inactive)
REMARK    1  A    between atoms: C_1  and  C_2 
REMARK    2  A    between atoms: C_7  and  N_8 
REMARK       I    between atoms: N_8  and  C_9 
REMARK    3  A    between atoms: C_9  and  C_11 
REMARK    4  A    between atoms: C_11  and  C_12 
REMARK    5  A    between atoms: C_11  and  C_16 
ROOT
ATOM      1  C   LIG d   1       3.309   0.182  -8.299  0.00  0.00    -0.029 A 
ATOM      2  C   LIG d   1       3.449   0.010  -9.663  0.00  0.00    -0.054 A 
ATOM      3  C   LIG d   1       3.898  -1.196 -10.167  0.00  0.00    -0.026 A 
ATOM      4  C   LIG d   1       4.209  -2.237  -9.307  0.00  0.00     0.125 A 
ATOM      5  C   LIG d   1       4.070  -2.071  -7.941  0.00  0.00    -0.005 A 
ATOM      6  C   LIG d   1       3.626  -0.857  -7.433  0.00  0.00     0.039 A 
ATOM      7  F   LIG d   1       4.646  -3.415  -9.802  0.00  0.00    -0.205 F 
ATOM      8  H   LIG d   1       3.207   0.819 -10.336  0.00  0.00     0.062 H 
ATOM      9  H   LIG d   1       4.007  -1.328 -11.234  0.00  0.00     0.065 H 
ATOM     10  H   LIG d   1       4.312  -2.881  -7.270  0.00  0.00     0.067 H 
ENDROOT
BRANCH   6  11
ATOM     11  N   LIG d   1       3.490  -0.683  -6.051  0.00  0.00    -0.283 N 
ATOM     12  C   LIG d   1       4.561  -0.339  -5.308  0.00  0.00     0.252 C 
ATOM     13  O   LIG d   1       5.621  -0.101  -5.846  0.00  0.00    -0.273 OA
ATOM     14  H   LIG d   1       2.627  -0.810  -5.628  0.00  0.00     0.155 HD
BRANCH  12  15
ATOM     15  C   LIG d   1       4.440  -0.250  -3.808  0.00  0.00     0.289 C 
ATOM     16 BR   LIG d   1       5.821   0.964  -3.112  0.00  0.00    -0.056 Br
BRANCH  15  17
ATOM     17  C   LIG d   1       3.056   0.287  -3.440  0.00  0.00     0.422 C 
ATOM     18  F   LIG d   1       2.130  -0.761  -3.453  0.00  0.00    -0.168 F 
ATOM     19  F   LIG d   1       3.101   0.854  -2.160  0.00  0.00    -0.168 F 
ATOM     20  F   LIG d   1       2.671   1.261  -4.368  0.00  0.00    -0.168 F 
ENDBRANCH  15  17
BRANCH  15  21
ATOM     21  C   LIG d   1       4.628  -1.640  -3.197  0.00  0.00     0.422 C 
ATOM     22  F   LIG d   1       4.095  -1.656  -1.904  0.00  0.00    -0.168 F 
ATOM     23  F   LIG d   1       3.968  -2.589  -3.985  0.00  0.00    -0.168 F 
ATOM     24  F   LIG d   1       5.992  -1.945  -3.144  0.00  0.00    -0.168 F 
ENDBRANCH  15  21
ENDBRANCH  12  15
ENDBRANCH   6  11
BRANCH   1  25
ATOM     25  C   LIG d   1       2.821   1.497  -7.752  0.00  0.00    -0.038 C 
ATOM     26  H   LIG d   1       1.755   1.604  -7.959  0.00  0.00     0.028 H 
ATOM     27  H   LIG d   1       2.986   1.529  -6.675  0.00  0.00     0.028 H 
ATOM     28  H   LIG d   1       3.366   2.313  -8.228  0.00  0.00     0.028 H 
ENDBRANCH   1  25
TORSDOF 5
ENDMDL
MODEL 6
REMARK VINA RESULT:      -6.7      2.727      5.885
REMARK  5 active torsions:
REMARK  status: ('A' for Active; 'I' for Inactive)
REMARK    1  A    between atoms: C_1  and  C_2 
REMARK    2  A    between atoms: C_7  and  N_8 
REMARK       I    between atoms: N_8  and  C_9 
REMARK    3  A    between atoms: C_9  and  C_11 
REMARK    4  A    between atoms: C_11  and  C_12 
REMARK    5  A    between atoms: C_11  and  C_16 
ROOT
ATOM      1  C   LIG d   1       4.316  -1.819  -4.354  0.00  0.00    -0.029 A 
ATOM      2  C   LIG d   1       4.591  -1.878  -3.001  0.00  0.00    -0.054 A 
ATOM      3  C   LIG d   1       4.275  -0.810  -2.182  0.00  0.00    -0.026 A 
ATOM      4  C   LIG d   1       3.681   0.323  -2.715  0.00  0.00     0.125 A 
ATOM      5  C   LIG d   1       3.404   0.387  -4.069  0.00  0.00    -0.005 A 
ATOM      6  C   LIG d   1       3.727  -0.683  -4.893  0.00  0.00     0.039 A 
ATOM      7  F   LIG d   1       3.372   1.364  -1.913  0.00  0.00    -0.205 F 
ATOM      8  H   LIG d   1       5.053  -2.760  -2.582  0.00  0.00     0.062 H 
ATOM      9  H   LIG d   1       4.490  -0.859  -1.125  0.00  0.00     0.065 H 
ATOM     10  H   LIG d   1       2.941   1.269  -4.485  0.00  0.00     0.067 H 
ENDROOT
BRANCH   6  11
ATOM     11  N   LIG d   1       3.454  -0.619  -6.264  0.00  0.00    -0.283 N 
ATOM     12  C   LIG d   1       4.301   0.026  -7.090  0.00  0.00     0.252 C 
ATOM     13  O   LIG d   1       5.340   0.480  -6.659  0.00  0.00    -0.273 OA
ATOM     14  H   LIG d   1       2.655  -1.039  -6.620  0.00  0.00     0.155 HD
BRANCH  12  15
ATOM     15  C   LIG d   1       3.959   0.183  -8.549  0.00  0.00     0.289 C 
ATOM     16 BR   LIG d   1       2.232  -0.686  -8.914  0.00  0.00    -0.056 Br
BRANCH  15  17
ATOM     17  C   LIG d   1       3.864   1.670  -8.893  0.00  0.00     0.422 C 
ATOM     18  F   LIG d   1       3.455   1.816 -10.223  0.00  0.00    -0.168 F 
ATOM     19  F   LIG d   1       2.932   2.286  -8.049  0.00  0.00    -0.168 F 
ATOM     20  F   LIG d   1       5.116   2.269  -8.722  0.00  0.00    -0.168 F 
ENDBRANCH  15  17
BRANCH  15  21
ATOM     21  C   LIG d   1       5.048  -0.470  -9.403  0.00  0.00     0.422 C 
ATOM     22  F   LIG d   1       6.101   0.432  -9.584  0.00  0.00    -0.168 F 
ATOM     23  F   LIG d   1       5.522  -1.617  -8.757  0.00  0.00    -0.168 F 
ATOM     24  F   LIG d   1       4.516  -0.823 -10.648  0.00  0.00    -0.168 F 
ENDBRANCH  15  21
ENDBRANCH  12  15
ENDBRANCH   6  11
BRANCH   1  25
ATOM     25  C   LIG d   1       4.663  -2.984  -5.244  0.00  0.00    -0.038 C 
ATOM     26  H   LIG d   1       4.482  -3.917  -4.709  0.00  0.00     0.028 H 
ATOM     27  H   LIG d   1       4.045  -2.954  -6.141  0.00  0.00     0.028 H 
ATOM     28  H   LIG d   1       5.715  -2.926  -5.525  0.00  0.00     0.028 H 
ENDBRANCH   1  25
TORSDOF 5
ENDMDL
MODEL 7
REMARK VINA RESULT:      -6.6      3.419      4.867
REMARK  5 active torsions:
REMARK  status: ('A' for Active; 'I' for Inactive)
REMARK    1  A    between atoms: C_1  and  C_2 
REMARK    2  A    between atoms: C_7  and  N_8 
REMARK       I    between atoms: N_8  and  C_9 
REMARK    3  A    between atoms: C_9  and  C_11 
REMARK    4  A    between atoms: C_11  and  C_12 
REMARK    5  A    between atoms: C_11  and  C_16 
ROOT
ATOM      1  C   LIG d   1       8.256  -1.749  -4.625  0.00  0.00    -0.029 A 
ATOM      2  C   LIG d   1       9.445  -1.800  -5.329  0.00  0.00    -0.054 A 
ATOM      3  C   LIG d   1      10.110  -0.633  -5.650  0.00  0.00    -0.026 A 
ATOM      4  C   LIG d   1       9.589   0.593  -5.268  0.00  0.00     0.125 A 
ATOM      5  C   LIG d   1       8.400   0.650  -4.564  0.00  0.00    -0.005 A 
ATOM      6  C   LIG d   1       7.727  -0.522  -4.246  0.00  0.00     0.039 A 
ATOM      7  F   LIG d   1      10.243   1.733  -5.582  0.00  0.00    -0.205 F 
ATOM      8  H   LIG d   1       9.853  -2.754  -5.627  0.00  0.00     0.062 H 
ATOM      9  H   LIG d   1      11.039  -0.675  -6.200  0.00  0.00     0.065 H 
ATOM     10  H   LIG d   1       7.994   1.604  -4.265  0.00  0.00     0.067 H 
ENDROOT
BRANCH   6  11
ATOM     11  N   LIG d   1       6.521  -0.468  -3.538  0.00  0.00    -0.283 N 
ATOM     12  C   LIG d   1       5.370  -0.208  -4.189  0.00  0.00     0.252 C 
ATOM     13  O   LIG d   1       5.367  -0.101  -5.398  0.00  0.00    -0.273 OA
ATOM     14  H   LIG d   1       6.513  -0.618  -2.580  0.00  0.00     0.155 HD
BRANCH  12  15
ATOM     15  C   LIG d   1       4.086  -0.049  -3.416  0.00  0.00     0.289 C 
ATOM     16 BR   LIG d   1       2.637   0.447  -4.649  0.00  0.00    -0.056 Br
BRANCH  15  17
ATOM     17  C   LIG d   1       3.739  -1.371  -2.727  0.00  0.00     0.422 C 
ATOM     18  F   LIG d   1       4.508  -1.507  -1.567  0.00  0.00    -0.168 F 
ATOM     19  F   LIG d   1       2.381  -1.379  -2.390  0.00  0.00    -0.168 F 
ATOM     20  F   LIG d   1       4.012  -2.434  -3.595  0.00  0.00    -0.168 F 
ENDBRANCH  15  17
BRANCH  15  21
ATOM     21  C   LIG d   1       4.256   1.047  -2.362  0.00  0.00     0.422 C 
ATOM     22  F   LIG d   1       4.742   0.483  -1.178  0.00  0.00    -0.168 F 
ATOM     23  F   LIG d   1       5.162   2.006  -2.829  0.00  0.00    -0.168 F 
ATOM     24  F   LIG d   1       3.019   1.654  -2.117  0.00  0.00    -0.168 F 
ENDBRANCH  15  21
ENDBRANCH  12  15
ENDBRANCH   6  11
BRANCH   1  25
ATOM     25  C   LIG d   1       7.532  -3.023  -4.277  0.00  0.00    -0.038 C 
ATOM     26  H   LIG d   1       8.116  -3.878  -4.617  0.00  0.00     0.028 H 
ATOM     27  H   LIG d   1       7.396  -3.082  -3.197  0.00  0.00     0.028 H 
ATOM     28  H   LIG d   1       6.557  -3.032  -4.766  0.00  0.00     0.028 H 
ENDBRANCH   1  25
TORSDOF 5
ENDMDL
MODEL 8
REMARK VINA RESULT:      -6.6      3.350      5.177
REMARK  5 active torsions:
REMARK  status: ('A' for Active; 'I' for Inactive)
REMARK    1  A    between atoms: C_1  and  C_2 
REMARK    2  A    between atoms: C_7  and  N_8 
REMARK       I    between atoms: N_8  and  C_9 
REMARK    3  A    between atoms: C_9  and  C_11 
REMARK    4  A    between atoms: C_11  and  C_12 
REMARK    5  A    between atoms: C_11  and  C_16 
ROOT
ATOM      1  C   LIG d   1       8.450   0.612  -4.434  0.00  0.00    -0.029 A 
ATOM      2  C   LIG d   1       9.644   0.523  -5.124  0.00  0.00    -0.054 A 
ATOM      3  C   LIG d   1      10.054  -0.690  -5.645  0.00  0.00    -0.026 A 
ATOM      4  C   LIG d   1       9.270  -1.820  -5.478  0.00  0.00     0.125 A 
ATOM      5  C   LIG d   1       8.074  -1.736  -4.788  0.00  0.00    -0.005 A 
ATOM      6  C   LIG d   1       7.664  -0.520  -4.259  0.00  0.00     0.039 A 
ATOM      7  F   LIG d   1       9.672  -3.004  -5.989  0.00  0.00    -0.205 F 
ATOM      8  H   LIG d   1      10.257   1.402  -5.257  0.00  0.00     0.062 H 
ATOM      9  H   LIG d   1      10.988  -0.757  -6.184  0.00  0.00     0.065 H 
ATOM     10  H   LIG d   1       7.462  -2.616  -4.658  0.00  0.00     0.067 H 
ENDROOT
BRANCH   6  11
ATOM     11  N   LIG d   1       6.457  -0.432  -3.555  0.00  0.00    -0.283 N 
ATOM     12  C   LIG d   1       5.309  -0.189  -4.216  0.00  0.00     0.252 C 
ATOM     13  O   LIG d   1       5.307  -0.128  -5.428  0.00  0.00    -0.273 OA
ATOM     14  H   LIG d   1       6.448  -0.545  -2.592  0.00  0.00     0.155 HD
BRANCH  12  15
ATOM     15  C   LIG d   1       4.025   0.007  -3.451  0.00  0.00     0.289 C 
ATOM     16 BR   LIG d   1       2.582   0.477  -4.702  0.00  0.00    -0.056 Br
BRANCH  15  17
ATOM     17  C   LIG d   1       3.665  -1.288  -2.720  0.00  0.00     0.422 C 
ATOM     18  F   LIG d   1       4.384  -1.363  -1.523  0.00  0.00    -0.168 F 
ATOM     19  F   LIG d   1       2.293  -1.301  -2.442  0.00  0.00    -0.168 F 
ATOM     20  F   LIG d   1       3.988  -2.384  -3.528  0.00  0.00    -0.168 F 
ENDBRANCH  15  17
BRANCH  15  21
ATOM     21  C   LIG d   1       4.204   1.135  -2.432  0.00  0.00     0.422 C 
ATOM     22  F   LIG d   1       2.949   1.596  -2.022  0.00  0.00    -0.168 F 
ATOM     23  F   LIG d   1       4.910   0.654  -1.324  0.00  0.00    -0.168 F 
ATOM     24  F   LIG d   1       4.919   2.185  -3.021  0.00  0.00    -0.168 F 
ENDBRANCH  15  21
ENDBRANCH  12  15
ENDBRANCH   6  11
BRANCH   1  25
ATOM     25  C   LIG d   1       8.005   1.935  -3.866  0.00  0.00    -0.038 C 
ATOM     26  H   LIG d   1       8.680   2.231  -3.062  0.00  0.00     0.028 H 
ATOM     27  H   LIG d   1       8.021   2.691  -4.650  0.00  0.00     0.028 H 
ATOM     28  H   LIG d   1       6.993   1.839  -3.473  0.00  0.00     0.028 H 
ENDBRANCH   1  25
TORSDOF 5
ENDMDL
MODEL 9
REMARK VINA RESULT:      -6.5      2.143      3.255
REMARK  5 active torsions:
REMARK  status: ('A' for Active; 'I' for Inactive)
REMARK    1  A    between atoms: C_1  and  C_2 
REMARK    2  A    between atoms: C_7  and  N_8 
REMARK       I    between atoms: N_8  and  C_9 
REMARK    3  A    between atoms: C_9  and  C_11 
REMARK    4  A    between atoms: C_11  and  C_12 
REMARK    5  A    between atoms: C_11  and  C_16 
ROOT
ATOM      1  C   LIG d   1       3.925  -1.053  -7.955  0.00  0.00    -0.029 A 
ATOM      2  C   LIG d   1       4.378  -1.277  -9.241  0.00  0.00    -0.054 A 
ATOM      3  C   LIG d   1       5.438  -2.135  -9.463  0.00  0.00    -0.026 A 
ATOM      4  C   LIG d   1       6.049  -2.776  -8.397  0.00  0.00     0.125 A 
ATOM      5  C   LIG d   1       5.600  -2.555  -7.108  0.00  0.00    -0.005 A 
ATOM      6  C   LIG d   1       4.539  -1.688  -6.883  0.00  0.00     0.039 A 
ATOM      7  F   LIG d   1       7.084  -3.616  -8.616  0.00  0.00    -0.205 F 
ATOM      8  H   LIG d   1       3.903  -0.780 -10.075  0.00  0.00     0.062 H 
ATOM      9  H   LIG d   1       5.790  -2.309 -10.469  0.00  0.00     0.065 H 
ATOM     10  H   LIG d   1       6.075  -3.054  -6.276  0.00  0.00     0.067 H 
ENDROOT
BRANCH   6  11
ATOM     11  N   LIG d   1       4.085  -1.457  -5.579  0.00  0.00    -0.283 N 
ATOM     12  C   LIG d   1       4.700  -0.542  -4.805  0.00  0.00     0.252 C 
ATOM     13  O   LIG d   1       5.593   0.140  -5.263  0.00  0.00    -0.273 OA
ATOM     14  H   LIG d   1       3.330  -1.956  -5.234  0.00  0.00     0.155 HD
BRANCH  12  15
ATOM     15  C   LIG d   1       4.278  -0.364  -3.369  0.00  0.00     0.289 C 
ATOM     16 BR   LIG d   1       4.082  -2.127  -2.521  0.00  0.00    -0.056 Br
BRANCH  15  17
ATOM     17  C   LIG d   1       5.341   0.446  -2.622  0.00  0.00     0.422 C 
ATOM     18  F   LIG d   1       5.385   1.745  -3.139  0.00  0.00    -0.168 F 
ATOM     19  F   LIG d   1       5.017   0.496  -1.262  0.00  0.00    -0.168 F 
ATOM     20  F   LIG d   1       6.589  -0.164  -2.784  0.00  0.00    -0.168 F 
ENDBRANCH  15  17
BRANCH  15  21
ATOM     21  C   LIG d   1       2.941   0.378  -3.317  0.00  0.00     0.422 C 
ATOM     22  F   LIG d   1       1.894  -0.549  -3.289  0.00  0.00    -0.168 F 
ATOM     23  F   LIG d   1       2.893   1.172  -2.167  0.00  0.00    -0.168 F 
ATOM     24  F   LIG d   1       2.815   1.190  -4.450  0.00  0.00    -0.168 F 
ENDBRANCH  15  21
ENDBRANCH  12  15
ENDBRANCH   6  11
BRANCH   1  25
ATOM     25  C   LIG d   1       2.770  -0.115  -7.716  0.00  0.00    -0.038 C 
ATOM     26  H   LIG d   1       1.921  -0.677  -7.324  0.00  0.00     0.028 H 
ATOM     27  H   LIG d   1       3.064   0.649  -6.997  0.00  0.00     0.028 H 
ATOM     28  H   LIG d   1       2.488   0.360  -8.656  0.00  0.00     0.028 H 
ENDBRANCH   1  25
TORSDOF 5
ENDMDL
