MODEL 1
REMARK VINA RESULT:      -5.0      0.000      0.000
REMARK  12 active torsions:
REMARK  status: ('A' for Active; 'I' for Inactive)
REMARK    1  A    between atoms: C_1  and  C_2 
REMARK    2  A    between atoms: C_2  and  C_3 
REMARK    3  A    between atoms: C_3  and  C_4 
REMARK    4  A    between atoms: C_4  and  C_5 
REMARK    5  A    between atoms: C_5  and  C_6 
REMARK    6  A    between atoms: C_6  and  C_7 
REMARK    7  A    between atoms: C_7  and  C_9 
REMARK    8  A    between atoms: C_7  and  C_13 
REMARK    9  A    between atoms: C_9  and  C_10 
REMARK   10  A    between atoms: C_10  and  C_11 
REMARK   11  A    between atoms: C_11  and  C_12 
REMARK   12  A    between atoms: C_13  and  O_14 
ROOT
ATOM      1  C   LIG d   1       3.275   0.193  -2.432  0.00  0.00    -0.018 C 
ATOM      2  H   LIG d   1       2.595   0.371  -1.599  0.00  0.00     0.032 H 
ENDROOT
BRANCH   1   3
ATOM      3  C   LIG d   1       2.485  -0.328  -3.634  0.00  0.00    -0.048 C 
ATOM      4  H   LIG d   1       1.422  -0.338  -3.393  0.00  0.00     0.027 H 
ATOM      5  H   LIG d   1       2.813  -1.339  -3.874  0.00  0.00     0.027 H 
BRANCH   3   6
ATOM      6  C   LIG d   1       2.725   0.586  -4.838  0.00  0.00    -0.053 C 
ATOM      7  H   LIG d   1       1.768   0.936  -5.225  0.00  0.00     0.026 H 
ATOM      8  H   LIG d   1       3.327   1.441  -4.529  0.00  0.00     0.026 H 
BRANCH   6   9
ATOM      9  C   LIG d   1       3.464  -0.191  -5.929  0.00  0.00    -0.053 C 
ATOM     10  H   LIG d   1       4.491   0.167  -5.998  0.00  0.00     0.026 H 
ATOM     11  H   LIG d   1       3.465  -1.252  -5.681  0.00  0.00     0.026 H 
BRANCH   9  12
ATOM     12  C   LIG d   1       2.759   0.020  -7.271  0.00  0.00    -0.053 C 
ATOM     13  H   LIG d   1       2.570  -0.947  -7.738  0.00  0.00     0.026 H 
ATOM     14  H   LIG d   1       1.813   0.536  -7.107  0.00  0.00     0.026 H 
BRANCH  12  15
ATOM     15  C   LIG d   1       3.648   0.864  -8.187  0.00  0.00    -0.056 C 
ATOM     16  H   LIG d   1       4.531   1.190  -7.635  0.00  0.00     0.026 H 
ATOM     17  H   LIG d   1       3.956   0.267  -9.046  0.00  0.00     0.026 H 
BRANCH  15  18
ATOM     18  C   LIG d   1       2.868   2.088  -8.668  0.00  0.00    -0.065 C 
ATOM     19  H   LIG d   1       1.825   1.814  -8.828  0.00  0.00     0.023 H 
ATOM     20  H   LIG d   1       2.925   2.874  -7.916  0.00  0.00     0.023 H 
ATOM     21  H   LIG d   1       3.297   2.447  -9.603  0.00  0.00     0.023 H 
ENDBRANCH  15  18
ENDBRANCH  12  15
ENDBRANCH   9  12
ENDBRANCH   6   9
ENDBRANCH   3   6
ENDBRANCH   1   3
BRANCH   1  22
ATOM     22  C   LIG d   1       4.324  -0.844  -2.022  0.00  0.00    -0.048 C 
ATOM     23  H   LIG d   1       5.294  -0.561  -2.430  0.00  0.00     0.027 H 
ATOM     24  H   LIG d   1       4.383  -0.890  -0.935  0.00  0.00     0.027 H 
BRANCH  22  25
ATOM     25  C   LIG d   1       3.923  -2.217  -2.568  0.00  0.00    -0.053 C 
ATOM     26  H   LIG d   1       3.884  -2.936  -1.750  0.00  0.00     0.026 H 
ATOM     27  H   LIG d   1       2.942  -2.149  -3.039  0.00  0.00     0.026 H 
BRANCH  25  28
ATOM     28  C   LIG d   1       4.954  -2.676  -3.601  0.00  0.00    -0.056 C 
ATOM     29  H   LIG d   1       5.201  -3.723  -3.427  0.00  0.00     0.026 H 
ATOM     30  H   LIG d   1       4.539  -2.563  -4.603  0.00  0.00     0.026 H 
BRANCH  28  31
ATOM     31  C   LIG d   1       6.218  -1.825  -3.474  0.00  0.00    -0.065 C 
ATOM     32  H   LIG d   1       7.088  -2.476  -3.396  0.00  0.00     0.023 H 
ATOM     33  H   LIG d   1       6.317  -1.188  -4.353  0.00  0.00     0.023 H 
ATOM     34  H   LIG d   1       6.149  -1.204  -2.580  0.00  0.00     0.023 H 
ENDBRANCH  28  31
ENDBRANCH  25  28
ENDBRANCH  22  25
ENDBRANCH   1  22
BRANCH   1  35
ATOM     35  C   LIG d   1       3.973   1.501  -2.810  0.00  0.00     0.047 C 
ATOM     36  H   LIG d   1       3.939   1.631  -3.892  0.00  0.00     0.056 H 
ATOM     37  H   LIG d   1       3.466   2.336  -2.327  0.00  0.00     0.056 H 
BRANCH  35  38
ATOM     38  O   LIG d   1       5.335   1.455  -2.379  0.00  0.00    -0.395 OA
ATOM     39  H   LIG d   1       5.960   1.221  -3.079  0.00  0.00     0.209 HD
ENDBRANCH  35  38
ENDBRANCH   1  35
TORSDOF 12
ENDMDL
MODEL 2
REMARK VINA RESULT:      -4.6      2.399      5.948
REMARK  12 active torsions:
REMARK  status: ('A' for Active; 'I' for Inactive)
REMARK    1  A    between atoms: C_1  and  C_2 
REMARK    2  A    between atoms: C_2  and  C_3 
REMARK    3  A    between atoms: C_3  and  C_4 
REMARK    4  A    between atoms: C_4  and  C_5 
REMARK    5  A    between atoms: C_5  and  C_6 
REMARK    6  A    between atoms: C_6  and  C_7 
REMARK    7  A    between atoms: C_7  and  C_9 
REMARK    8  A    between atoms: C_7  and  C_13 
REMARK    9  A    between atoms: C_9  and  C_10 
REMARK   10  A    between atoms: C_10  and  C_11 
REMARK   11  A    between atoms: C_11  and  C_12 
REMARK   12  A    between atoms: C_13  and  O_14 
ROOT
ATOM      1  C   LIG d   1       2.690  -0.323  -7.678  0.00  0.00    -0.018 C 
ATOM      2  H   LIG d   1       1.813  -0.947  -7.507  0.00  0.00     0.032 H 
ENDROOT
BRANCH   1   3
ATOM      3  C   LIG d   1       2.924   0.572  -6.460  0.00  0.00    -0.048 C 
ATOM      4  H   LIG d   1       1.980   1.021  -6.151  0.00  0.00     0.027 H 
ATOM      5  H   LIG d   1       3.633   1.359  -6.717  0.00  0.00     0.027 H 
BRANCH   3   6
ATOM      6  C   LIG d   1       3.488  -0.267  -5.311  0.00  0.00    -0.053 C 
ATOM      7  H   LIG d   1       3.191  -1.308  -5.441  0.00  0.00     0.026 H 
ATOM      8  H   LIG d   1       4.576  -0.196  -5.310  0.00  0.00     0.026 H 
BRANCH   6   9
ATOM      9  C   LIG d   1       2.943   0.257  -3.981  0.00  0.00    -0.053 C 
ATOM     10  H   LIG d   1       3.582   1.062  -3.617  0.00  0.00     0.026 H 
ATOM     11  H   LIG d   1       1.931   0.635  -4.127  0.00  0.00     0.026 H 
BRANCH   9  12
ATOM     12  C   LIG d   1       2.920  -0.879  -2.956  0.00  0.00    -0.053 C 
ATOM     13  H   LIG d   1       2.027  -0.793  -2.338  0.00  0.00     0.026 H 
ATOM     14  H   LIG d   1       2.911  -1.837  -3.476  0.00  0.00     0.026 H 
BRANCH  12  15
ATOM     15  C   LIG d   1       4.165  -0.791  -2.070  0.00  0.00    -0.056 C 
ATOM     16  H   LIG d   1       3.985  -1.327  -1.138  0.00  0.00     0.026 H 
ATOM     17  H   LIG d   1       5.013  -1.239  -2.589  0.00  0.00     0.026 H 
BRANCH  15  18
ATOM     18  C   LIG d   1       4.470   0.676  -1.765  0.00  0.00    -0.065 C 
ATOM     19  H   LIG d   1       4.616   1.219  -2.699  0.00  0.00     0.023 H 
ATOM     20  H   LIG d   1       3.636   1.114  -1.217  0.00  0.00     0.023 H 
ATOM     21  H   LIG d   1       5.375   0.741  -1.161  0.00  0.00     0.023 H 
ENDBRANCH  15  18
ENDBRANCH  12  15
ENDBRANCH   9  12
ENDBRANCH   6   9
ENDBRANCH   3   6
ENDBRANCH   1   3
BRANCH   1  22
ATOM     22  C   LIG d   1       2.462   0.549  -8.915  0.00  0.00    -0.048 C 
ATOM     23  H   LIG d   1       3.077   0.182  -9.737  0.00  0.00     0.027 H 
ATOM     24  H   LIG d   1       1.411   0.508  -9.200  0.00  0.00     0.027 H 
BRANCH  22  25
ATOM     25  C   LIG d   1       2.847   1.996  -8.597  0.00  0.00    -0.053 C 
ATOM     26  H   LIG d   1       1.959   2.627  -8.644  0.00  0.00     0.026 H 
ATOM     27  H   LIG d   1       3.275   2.046  -7.596  0.00  0.00     0.026 H 
BRANCH  25  28
ATOM     28  C   LIG d   1       3.875   2.487  -9.618  0.00  0.00    -0.056 C 
ATOM     29  H   LIG d   1       3.704   1.990 -10.573  0.00  0.00     0.026 H 
ATOM     30  H   LIG d   1       3.774   3.564  -9.747  0.00  0.00     0.026 H 
BRANCH  28  31
ATOM     31  C   LIG d   1       5.284   2.163  -9.119  0.00  0.00    -0.065 C 
ATOM     32  H   LIG d   1       5.239   1.330  -8.418  0.00  0.00     0.023 H 
ATOM     33  H   LIG d   1       5.916   1.892  -9.965  0.00  0.00     0.023 H 
ATOM     34  H   LIG d   1       5.701   3.036  -8.618  0.00  0.00     0.023 H 
ENDBRANCH  28  31
ENDBRANCH  25  28
ENDBRANCH  22  25
ENDBRANCH   1  22
BRANCH   1  35
ATOM     35  C   LIG d   1       3.915  -1.212  -7.900  0.00  0.00     0.047 C 
ATOM     36  H   LIG d   1       4.400  -0.934  -8.835  0.00  0.00     0.056 H 
ATOM     37  H   LIG d   1       4.613  -1.080  -7.074  0.00  0.00     0.056 H 
BRANCH  35  38
ATOM     38  O   LIG d   1       3.504  -2.579  -7.965  0.00  0.00    -0.395 OA
ATOM     39  H   LIG d   1       2.897  -2.841  -7.259  0.00  0.00     0.209 HD
ENDBRANCH  35  38
ENDBRANCH   1  35
TORSDOF 12
ENDMDL
MODEL 3
REMARK VINA RESULT:      -4.6      1.987      3.049
REMARK  12 active torsions:
REMARK  status: ('A' for Active; 'I' for Inactive)
REMARK    1  A    between atoms: C_1  and  C_2 
REMARK    2  A    between atoms: C_2  and  C_3 
REMARK    3  A    between atoms: C_3  and  C_4 
REMARK    4  A    between atoms: C_4  and  C_5 
REMARK    5  A    between atoms: C_5  and  C_6 
REMARK    6  A    between atoms: C_6  and  C_7 
REMARK    7  A    between atoms: C_7  and  C_9 
REMARK    8  A    between atoms: C_7  and  C_13 
REMARK    9  A    between atoms: C_9  and  C_10 
REMARK   10  A    between atoms: C_10  and  C_11 
REMARK   11  A    between atoms: C_11  and  C_12 
REMARK   12  A    between atoms: C_13  and  O_14 
ROOT
ATOM      1  C   LIG d   1       4.722  -1.632  -4.327  0.00  0.00    -0.018 C 
ATOM      2  H   LIG d   1       5.674  -1.209  -4.005  0.00  0.00     0.032 H 
ENDROOT
BRANCH   1   3
ATOM      3  C   LIG d   1       4.351  -1.066  -5.699  0.00  0.00    -0.048 C 
ATOM      4  H   LIG d   1       4.104  -1.884  -6.375  0.00  0.00     0.027 H 
ATOM      5  H   LIG d   1       5.194  -0.504  -6.101  0.00  0.00     0.027 H 
BRANCH   3   6
ATOM      6  C   LIG d   1       3.141  -0.140  -5.559  0.00  0.00    -0.053 C 
ATOM      7  H   LIG d   1       2.245  -0.736  -5.387  0.00  0.00     0.026 H 
ATOM      8  H   LIG d   1       3.296   0.535  -4.716  0.00  0.00     0.026 H 
BRANCH   6   9
ATOM      9  C   LIG d   1       2.973   0.677  -6.841  0.00  0.00    -0.053 C 
ATOM     10  H   LIG d   1       2.193   1.426  -6.696  0.00  0.00     0.026 H 
ATOM     11  H   LIG d   1       3.913   1.175  -7.081  0.00  0.00     0.026 H 
BRANCH   9  12
ATOM     12  C   LIG d   1       2.580  -0.253  -7.991  0.00  0.00    -0.053 C 
ATOM     13  H   LIG d   1       3.325  -1.042  -8.091  0.00  0.00     0.026 H 
ATOM     14  H   LIG d   1       1.607  -0.696  -7.782  0.00  0.00     0.026 H 
BRANCH  12  15
ATOM     15  C   LIG d   1       2.507   0.549  -9.293  0.00  0.00    -0.056 C 
ATOM     16  H   LIG d   1       3.207   0.130 -10.016  0.00  0.00     0.026 H 
ATOM     17  H   LIG d   1       1.495   0.499  -9.694  0.00  0.00     0.026 H 
BRANCH  15  18
ATOM     18  C   LIG d   1       2.874   2.007  -9.014  0.00  0.00    -0.065 C 
ATOM     19  H   LIG d   1       2.625   2.617  -9.882  0.00  0.00     0.023 H 
ATOM     20  H   LIG d   1       2.316   2.363  -8.148  0.00  0.00     0.023 H 
ATOM     21  H   LIG d   1       3.943   2.081  -8.812  0.00  0.00     0.023 H 
ENDBRANCH  15  18
ENDBRANCH  12  15
ENDBRANCH   9  12
ENDBRANCH   6   9
ENDBRANCH   3   6
ENDBRANCH   1   3
BRANCH   1  22
ATOM     22  C   LIG d   1       3.633  -1.269  -3.314  0.00  0.00    -0.048 C 
ATOM     23  H   LIG d   1       3.147  -0.342  -3.621  0.00  0.00     0.027 H 
ATOM     24  H   LIG d   1       2.896  -2.070  -3.271  0.00  0.00     0.027 H 
BRANCH  22  25
ATOM     25  C   LIG d   1       4.264  -1.080  -1.933  0.00  0.00    -0.053 C 
ATOM     26  H   LIG d   1       3.541  -1.349  -1.163  0.00  0.00     0.026 H 
ATOM     27  H   LIG d   1       5.143  -1.719  -1.844  0.00  0.00     0.026 H 
BRANCH  25  28
ATOM     28  C   LIG d   1       4.677   0.382  -1.756  0.00  0.00    -0.056 C 
ATOM     29  H   LIG d   1       4.807   0.597  -0.695  0.00  0.00     0.026 H 
ATOM     30  H   LIG d   1       5.616   0.561  -2.280  0.00  0.00     0.026 H 
BRANCH  28  31
ATOM     31  C   LIG d   1       3.591   1.293  -2.331  0.00  0.00    -0.065 C 
ATOM     32  H   LIG d   1       4.053   2.073  -2.935  0.00  0.00     0.023 H 
ATOM     33  H   LIG d   1       2.915   0.704  -2.952  0.00  0.00     0.023 H 
ATOM     34  H   LIG d   1       3.031   1.749  -1.515  0.00  0.00     0.023 H 
ENDBRANCH  28  31
ENDBRANCH  25  28
ENDBRANCH  22  25
ENDBRANCH   1  22
BRANCH   1  35
ATOM     35  C   LIG d   1       4.844  -3.154  -4.420  0.00  0.00     0.047 C 
ATOM     36  H   LIG d   1       5.878  -3.422  -4.640  0.00  0.00     0.056 H 
ATOM     37  H   LIG d   1       4.547  -3.601  -3.472  0.00  0.00     0.056 H 
BRANCH  35  38
ATOM     38  O   LIG d   1       3.995  -3.636  -5.463  0.00  0.00    -0.395 OA
ATOM     39  H   LIG d   1       3.549  -4.469  -5.253  0.00  0.00     0.209 HD
ENDBRANCH  35  38
ENDBRANCH   1  35
TORSDOF 12
ENDMDL
MODEL 4
REMARK VINA RESULT:      -4.6      2.514      4.152
REMARK  12 active torsions:
REMARK  status: ('A' for Active; 'I' for Inactive)
REMARK    1  A    between atoms: C_1  and  C_2 
REMARK    2  A    between atoms: C_2  and  C_3 
REMARK    3  A    between atoms: C_3  and  C_4 
REMARK    4  A    between atoms: C_4  and  C_5 
REMARK    5  A    between atoms: C_5  and  C_6 
REMARK    6  A    between atoms: C_6  and  C_7 
REMARK    7  A    between atoms: C_7  and  C_9 
REMARK    8  A    between atoms: C_7  and  C_13 
REMARK    9  A    between atoms: C_9  and  C_10 
REMARK   10  A    between atoms: C_10  and  C_11 
REMARK   11  A    between atoms: C_11  and  C_12 
REMARK   12  A    between atoms: C_13  and  O_14 
ROOT
ATOM      1  C   LIG d   1       3.170   0.224  -2.601  0.00  0.00    -0.018 C 
ATOM      2  H   LIG d   1       2.414   0.725  -1.996  0.00  0.00     0.032 H 
ENDROOT
BRANCH   1   3
ATOM      3  C   LIG d   1       2.886  -1.279  -2.629  0.00  0.00    -0.048 C 
ATOM      4  H   LIG d   1       2.405  -1.541  -3.571  0.00  0.00     0.027 H 
ATOM      5  H   LIG d   1       2.229  -1.541  -1.800  0.00  0.00     0.027 H 
BRANCH   3   6
ATOM      6  C   LIG d   1       4.202  -2.050  -2.499  0.00  0.00    -0.053 C 
ATOM      7  H   LIG d   1       5.010  -1.354  -2.270  0.00  0.00     0.026 H 
ATOM      8  H   LIG d   1       4.116  -2.784  -1.697  0.00  0.00     0.026 H 
BRANCH   6   9
ATOM      9  C   LIG d   1       4.505  -2.767  -3.816  0.00  0.00    -0.053 C 
ATOM     10  H   LIG d   1       4.185  -3.807  -3.746  0.00  0.00     0.026 H 
ATOM     11  H   LIG d   1       3.969  -2.277  -4.628  0.00  0.00     0.026 H 
BRANCH   9  12
ATOM     12  C   LIG d   1       6.009  -2.713  -4.092  0.00  0.00    -0.053 C 
ATOM     13  H   LIG d   1       6.267  -1.742  -4.513  0.00  0.00     0.026 H 
ATOM     14  H   LIG d   1       6.554  -2.862  -3.160  0.00  0.00     0.026 H 
BRANCH  12  15
ATOM     15  C   LIG d   1       6.385  -3.816  -5.084  0.00  0.00    -0.056 C 
ATOM     16  H   LIG d   1       6.758  -3.365  -6.004  0.00  0.00     0.026 H 
ATOM     17  H   LIG d   1       7.159  -4.448  -4.650  0.00  0.00     0.026 H 
BRANCH  15  18
ATOM     18  C   LIG d   1       5.150  -4.663  -5.396  0.00  0.00    -0.065 C 
ATOM     19  H   LIG d   1       5.134  -5.536  -4.744  0.00  0.00     0.023 H 
ATOM     20  H   LIG d   1       4.251  -4.069  -5.231  0.00  0.00     0.023 H 
ATOM     21  H   LIG d   1       5.185  -4.987  -6.436  0.00  0.00     0.023 H 
ENDBRANCH  15  18
ENDBRANCH  12  15
ENDBRANCH   9  12
ENDBRANCH   6   9
ENDBRANCH   3   6
ENDBRANCH   1   3
BRANCH   1  22
ATOM     22  C   LIG d   1       4.553   0.470  -1.994  0.00  0.00    -0.048 C 
ATOM     23  H   LIG d   1       4.443   0.941  -1.017  0.00  0.00     0.027 H 
ATOM     24  H   LIG d   1       5.076  -0.480  -1.884  0.00  0.00     0.027 H 
BRANCH  22  25
ATOM     25  C   LIG d   1       5.358   1.390  -2.915  0.00  0.00    -0.053 C 
ATOM     26  H   LIG d   1       4.777   1.603  -3.813  0.00  0.00     0.026 H 
ATOM     27  H   LIG d   1       5.578   2.323  -2.396  0.00  0.00     0.026 H 
BRANCH  25  28
ATOM     28  C   LIG d   1       6.667   0.702  -3.306  0.00  0.00    -0.056 C 
ATOM     29  H   LIG d   1       7.089   0.201  -2.435  0.00  0.00     0.026 H 
ATOM     30  H   LIG d   1       6.473  -0.031  -4.088  0.00  0.00     0.026 H 
BRANCH  28  31
ATOM     31  C   LIG d   1       7.658   1.747  -3.823  0.00  0.00    -0.065 C 
ATOM     32  H   LIG d   1       8.350   2.017  -3.025  0.00  0.00     0.023 H 
ATOM     33  H   LIG d   1       8.214   1.335  -4.665  0.00  0.00     0.023 H 
ATOM     34  H   LIG d   1       7.113   2.635  -4.145  0.00  0.00     0.023 H 
ENDBRANCH  28  31
ENDBRANCH  25  28
ENDBRANCH  22  25
ENDBRANCH   1  22
BRANCH   1  35
ATOM     35  C   LIG d   1       3.133   0.776  -4.027  0.00  0.00     0.047 C 
ATOM     36  H   LIG d   1       2.714   1.782  -4.016  0.00  0.00     0.056 H 
ATOM     37  H   LIG d   1       4.145   0.809  -4.430  0.00  0.00     0.056 H 
BRANCH  35  38
ATOM     38  O   LIG d   1       2.321  -0.070  -4.843  0.00  0.00    -0.395 OA
ATOM     39  H   LIG d   1       1.426   0.267  -4.989  0.00  0.00     0.209 HD
ENDBRANCH  35  38
ENDBRANCH   1  35
TORSDOF 12
ENDMDL
MODEL 5
REMARK VINA RESULT:      -4.5      2.276      5.128
REMARK  12 active torsions:
REMARK  status: ('A' for Active; 'I' for Inactive)
REMARK    1  A    between atoms: C_1  and  C_2 
REMARK    2  A    between atoms: C_2  and  C_3 
REMARK    3  A    between atoms: C_3  and  C_4 
REMARK    4  A    between atoms: C_4  and  C_5 
REMARK    5  A    between atoms: C_5  and  C_6 
REMARK    6  A    between atoms: C_6  and  C_7 
REMARK    7  A    between atoms: C_7  and  C_9 
REMARK    8  A    between atoms: C_7  and  C_13 
REMARK    9  A    between atoms: C_9  and  C_10 
REMARK   10  A    between atoms: C_10  and  C_11 
REMARK   11  A    between atoms: C_11  and  C_12 
REMARK   12  A    between atoms: C_13  and  O_14 
ROOT
ATOM      1  C   LIG d   1       4.378  -2.184  -5.232  0.00  0.00    -0.018 C 
ATOM      2  H   LIG d   1       3.311  -2.359  -5.089  0.00  0.00     0.032 H 
ENDROOT
BRANCH   1   3
ATOM      3  C   LIG d   1       5.103  -2.335  -3.894  0.00  0.00    -0.048 C 
ATOM      4  H   LIG d   1       5.818  -1.521  -3.775  0.00  0.00     0.027 H 
ATOM      5  H   LIG d   1       5.631  -3.288  -3.872  0.00  0.00     0.027 H 
BRANCH   3   6
ATOM      6  C   LIG d   1       4.085  -2.288  -2.753  0.00  0.00    -0.053 C 
ATOM      7  H   LIG d   1       3.076  -2.294  -3.166  0.00  0.00     0.026 H 
ATOM      8  H   LIG d   1       4.219  -3.158  -2.110  0.00  0.00     0.026 H 
BRANCH   6   9
ATOM      9  C   LIG d   1       4.294  -1.013  -1.935  0.00  0.00    -0.053 C 
ATOM     10  H   LIG d   1       4.181  -1.238  -0.874  0.00  0.00     0.026 H 
ATOM     11  H   LIG d   1       5.296  -0.624  -2.118  0.00  0.00     0.026 H 
BRANCH   9  12
ATOM     12  C   LIG d   1       3.256   0.034  -2.347  0.00  0.00    -0.053 C 
ATOM     13  H   LIG d   1       2.856  -0.218  -3.329  0.00  0.00     0.026 H 
ATOM     14  H   LIG d   1       2.448   0.051  -1.617  0.00  0.00     0.026 H 
BRANCH  12  15
ATOM     15  C   LIG d   1       3.919   1.413  -2.406  0.00  0.00    -0.056 C 
ATOM     16  H   LIG d   1       3.461   2.001  -3.202  0.00  0.00     0.026 H 
ATOM     17  H   LIG d   1       3.784   1.923  -1.453  0.00  0.00     0.026 H 
BRANCH  15  18
ATOM     18  C   LIG d   1       5.413   1.248  -2.689  0.00  0.00    -0.065 C 
ATOM     19  H   LIG d   1       5.624   1.551  -3.714  0.00  0.00     0.023 H 
ATOM     20  H   LIG d   1       5.984   1.871  -2.001  0.00  0.00     0.023 H 
ATOM     21  H   LIG d   1       5.696   0.204  -2.553  0.00  0.00     0.023 H 
ENDBRANCH  15  18
ENDBRANCH  12  15
ENDBRANCH   9  12
ENDBRANCH   6   9
ENDBRANCH   3   6
ENDBRANCH   1   3
BRANCH   1  22
ATOM     22  C   LIG d   1       4.595  -0.769  -5.774  0.00  0.00    -0.048 C 
ATOM     23  H   LIG d   1       5.193  -0.197  -5.065  0.00  0.00     0.027 H 
ATOM     24  H   LIG d   1       5.115  -0.823  -6.730  0.00  0.00     0.027 H 
BRANCH  22  25
ATOM     25  C   LIG d   1       3.241  -0.084  -5.968  0.00  0.00    -0.053 C 
ATOM     26  H   LIG d   1       2.442  -0.816  -5.846  0.00  0.00     0.026 H 
ATOM     27  H   LIG d   1       3.124   0.707  -5.228  0.00  0.00     0.026 H 
BRANCH  25  28
ATOM     28  C   LIG d   1       3.170   0.518  -7.373  0.00  0.00    -0.056 C 
ATOM     29  H   LIG d   1       2.615   1.455  -7.339  0.00  0.00     0.026 H 
ATOM     30  H   LIG d   1       4.179   0.706  -7.739  0.00  0.00     0.026 H 
BRANCH  28  31
ATOM     31  C   LIG d   1       2.462  -0.460  -8.312  0.00  0.00    -0.065 C 
ATOM     32  H   LIG d   1       1.550  -0.001  -8.695  0.00  0.00     0.023 H 
ATOM     33  H   LIG d   1       3.121  -0.707  -9.144  0.00  0.00     0.023 H 
ATOM     34  H   LIG d   1       2.208  -1.368  -7.766  0.00  0.00     0.023 H 
ENDBRANCH  28  31
ENDBRANCH  25  28
ENDBRANCH  22  25
ENDBRANCH   1  22
BRANCH   1  35
ATOM     35  C   LIG d   1       4.932  -3.203  -6.230  0.00  0.00     0.047 C 
ATOM     36  H   LIG d   1       5.608  -2.701  -6.923  0.00  0.00     0.056 H 
ATOM     37  H   LIG d   1       5.474  -3.980  -5.692  0.00  0.00     0.056 H 
BRANCH  35  38
ATOM     38  O   LIG d   1       3.853  -3.790  -6.959  0.00  0.00    -0.395 OA
ATOM     39  H   LIG d   1       4.035  -4.685  -7.278  0.00  0.00     0.209 HD
ENDBRANCH  35  38
ENDBRANCH   1  35
TORSDOF 12
ENDMDL
MODEL 6
REMARK VINA RESULT:      -4.5      2.399      3.754
REMARK  12 active torsions:
REMARK  status: ('A' for Active; 'I' for Inactive)
REMARK    1  A    between atoms: C_1  and  C_2 
REMARK    2  A    between atoms: C_2  and  C_3 
REMARK    3  A    between atoms: C_3  and  C_4 
REMARK    4  A    between atoms: C_4  and  C_5 
REMARK    5  A    between atoms: C_5  and  C_6 
REMARK    6  A    between atoms: C_6  and  C_7 
REMARK    7  A    between atoms: C_7  and  C_9 
REMARK    8  A    between atoms: C_7  and  C_13 
REMARK    9  A    between atoms: C_9  and  C_10 
REMARK   10  A    between atoms: C_10  and  C_11 
REMARK   11  A    between atoms: C_11  and  C_12 
REMARK   12  A    between atoms: C_13  and  O_14 
ROOT
ATOM      1  C   LIG d   1       3.399  -0.069  -3.574  0.00  0.00    -0.018 C 
ATOM      2  H   LIG d   1       4.380  -0.187  -4.036  0.00  0.00     0.032 H 
ENDROOT
BRANCH   1   3
ATOM      3  C   LIG d   1       3.484   0.969  -2.454  0.00  0.00    -0.048 C 
ATOM      4  H   LIG d   1       2.820   0.680  -1.639  0.00  0.00     0.027 H 
ATOM      5  H   LIG d   1       3.186   1.944  -2.838  0.00  0.00     0.027 H 
BRANCH   3   6
ATOM      6  C   LIG d   1       4.922   1.043  -1.935  0.00  0.00    -0.053 C 
ATOM      7  H   LIG d   1       4.998   1.830  -1.185  0.00  0.00     0.026 H 
ATOM      8  H   LIG d   1       5.196   0.086  -1.488  0.00  0.00     0.026 H 
BRANCH   6   9
ATOM      9  C   LIG d   1       5.868   1.352  -3.096  0.00  0.00    -0.053 C 
ATOM     10  H   LIG d   1       5.295   1.443  -4.019  0.00  0.00     0.026 H 
ATOM     11  H   LIG d   1       6.391   2.288  -2.900  0.00  0.00     0.026 H 
BRANCH   9  12
ATOM     12  C   LIG d   1       6.887   0.219  -3.240  0.00  0.00    -0.053 C 
ATOM     13  H   LIG d   1       7.358   0.029  -2.275  0.00  0.00     0.026 H 
ATOM     14  H   LIG d   1       6.381  -0.684  -3.581  0.00  0.00     0.026 H 
BRANCH  12  15
ATOM     15  C   LIG d   1       7.956   0.620  -4.259  0.00  0.00    -0.056 C 
ATOM     16  H   LIG d   1       8.923   0.226  -3.944  0.00  0.00     0.026 H 
ATOM     17  H   LIG d   1       7.698   0.213  -5.236  0.00  0.00     0.026 H 
BRANCH  15  18
ATOM     18  C   LIG d   1       8.031   2.146  -4.344  0.00  0.00    -0.065 C 
ATOM     19  H   LIG d   1       7.353   2.499  -5.121  0.00  0.00     0.023 H 
ATOM     20  H   LIG d   1       7.742   2.578  -3.386  0.00  0.00     0.023 H 
ATOM     21  H   LIG d   1       9.050   2.447  -4.586  0.00  0.00     0.023 H 
ENDBRANCH  15  18
ENDBRANCH  12  15
ENDBRANCH   9  12
ENDBRANCH   6   9
ENDBRANCH   3   6
ENDBRANCH   1   3
BRANCH   1  22
ATOM     22  C   LIG d   1       2.944  -1.410  -2.993  0.00  0.00    -0.048 C 
ATOM     23  H   LIG d   1       2.495  -1.248  -2.013  0.00  0.00     0.027 H 
ATOM     24  H   LIG d   1       2.212  -1.865  -3.659  0.00  0.00     0.027 H 
BRANCH  22  25
ATOM     25  C   LIG d   1       4.152  -2.340  -2.852  0.00  0.00    -0.053 C 
ATOM     26  H   LIG d   1       4.990  -1.786  -2.430  0.00  0.00     0.026 H 
ATOM     27  H   LIG d   1       3.896  -3.171  -2.194  0.00  0.00     0.026 H 
BRANCH  25  28
ATOM     28  C   LIG d   1       4.542  -2.882  -4.229  0.00  0.00    -0.056 C 
ATOM     29  H   LIG d   1       4.098  -3.868  -4.370  0.00  0.00     0.026 H 
ATOM     30  H   LIG d   1       4.177  -2.206  -5.002  0.00  0.00     0.026 H 
BRANCH  28  31
ATOM     31  C   LIG d   1       6.064  -2.990  -4.322  0.00  0.00    -0.065 C 
ATOM     32  H   LIG d   1       6.369  -2.936  -5.368  0.00  0.00     0.023 H 
ATOM     33  H   LIG d   1       6.521  -2.170  -3.768  0.00  0.00     0.023 H 
ATOM     34  H   LIG d   1       6.388  -3.941  -3.899  0.00  0.00     0.023 H 
ENDBRANCH  28  31
ENDBRANCH  25  28
ENDBRANCH  22  25
ENDBRANCH   1  22
BRANCH   1  35
ATOM     35  C   LIG d   1       2.392   0.398  -4.627  0.00  0.00     0.047 C 
ATOM     36  H   LIG d   1       1.382   0.155  -4.296  0.00  0.00     0.056 H 
ATOM     37  H   LIG d   1       2.480   1.476  -4.761  0.00  0.00     0.056 H 
BRANCH  35  38
ATOM     38  O   LIG d   1       2.658  -0.261  -5.866  0.00  0.00    -0.395 OA
ATOM     39  H   LIG d   1       2.360  -1.181  -5.893  0.00  0.00     0.209 HD
ENDBRANCH  35  38
ENDBRANCH   1  35
TORSDOF 12
ENDMDL
MODEL 7
REMARK VINA RESULT:      -4.4      1.812      3.295
REMARK  12 active torsions:
REMARK  status: ('A' for Active; 'I' for Inactive)
REMARK    1  A    between atoms: C_1  and  C_2 
REMARK    2  A    between atoms: C_2  and  C_3 
REMARK    3  A    between atoms: C_3  and  C_4 
REMARK    4  A    between atoms: C_4  and  C_5 
REMARK    5  A    between atoms: C_5  and  C_6 
REMARK    6  A    between atoms: C_6  and  C_7 
REMARK    7  A    between atoms: C_7  and  C_9 
REMARK    8  A    between atoms: C_7  and  C_13 
REMARK    9  A    between atoms: C_9  and  C_10 
REMARK   10  A    between atoms: C_10  and  C_11 
REMARK   11  A    between atoms: C_11  and  C_12 
REMARK   12  A    between atoms: C_13  and  O_14 
ROOT
ATOM      1  C   LIG d   1       6.186  -1.160  -3.097  0.00  0.00    -0.018 C 
ATOM      2  H   LIG d   1       6.976  -1.685  -2.560  0.00  0.00     0.032 H 
ENDROOT
BRANCH   1   3
ATOM      3  C   LIG d   1       4.931  -1.098  -2.225  0.00  0.00    -0.048 C 
ATOM      4  H   LIG d   1       5.099  -1.660  -1.307  0.00  0.00     0.027 H 
ATOM      5  H   LIG d   1       4.090  -1.529  -2.767  0.00  0.00     0.027 H 
BRANCH   3   6
ATOM      6  C   LIG d   1       4.622   0.361  -1.878  0.00  0.00    -0.053 C 
ATOM      7  H   LIG d   1       4.567   0.473  -0.795  0.00  0.00     0.026 H 
ATOM      8  H   LIG d   1       5.413   1.002  -2.270  0.00  0.00     0.026 H 
BRANCH   6   9
ATOM      9  C   LIG d   1       3.285   0.761  -2.503  0.00  0.00    -0.053 C 
ATOM     10  H   LIG d   1       2.674   1.273  -1.758  0.00  0.00     0.026 H 
ATOM     11  H   LIG d   1       3.463   1.428  -3.346  0.00  0.00     0.026 H 
BRANCH   9  12
ATOM     12  C   LIG d   1       2.553  -0.492  -2.989  0.00  0.00    -0.053 C 
ATOM     13  H   LIG d   1       3.260  -1.319  -3.065  0.00  0.00     0.026 H 
ATOM     14  H   LIG d   1       1.767  -0.750  -2.281  0.00  0.00     0.026 H 
BRANCH  12  15
ATOM     15  C   LIG d   1       1.935  -0.221  -4.362  0.00  0.00    -0.056 C 
ATOM     16  H   LIG d   1       1.516  -1.146  -4.760  0.00  0.00     0.026 H 
ATOM     17  H   LIG d   1       1.146   0.524  -4.265  0.00  0.00     0.026 H 
BRANCH  15  18
ATOM     18  C   LIG d   1       3.014   0.299  -5.313  0.00  0.00    -0.065 C 
ATOM     19  H   LIG d   1       3.763   0.852  -4.745  0.00  0.00     0.023 H 
ATOM     20  H   LIG d   1       3.490  -0.541  -5.818  0.00  0.00     0.023 H 
ATOM     21  H   LIG d   1       2.560   0.958  -6.053  0.00  0.00     0.023 H 
ENDBRANCH  15  18
ENDBRANCH  12  15
ENDBRANCH   9  12
ENDBRANCH   6   9
ENDBRANCH   3   6
ENDBRANCH   1   3
BRANCH   1  22
ATOM     22  C   LIG d   1       5.869  -1.906  -4.396  0.00  0.00    -0.048 C 
ATOM     23  H   LIG d   1       5.477  -1.203  -5.131  0.00  0.00     0.027 H 
ATOM     24  H   LIG d   1       6.777  -2.368  -4.780  0.00  0.00     0.027 H 
BRANCH  22  25
ATOM     25  C   LIG d   1       4.824  -2.989  -4.118  0.00  0.00    -0.053 C 
ATOM     26  H   LIG d   1       4.952  -3.365  -3.103  0.00  0.00     0.026 H 
ATOM     27  H   LIG d   1       3.825  -2.567  -4.226  0.00  0.00     0.026 H 
BRANCH  25  28
ATOM     28  C   LIG d   1       5.002  -4.137  -5.114  0.00  0.00    -0.056 C 
ATOM     29  H   LIG d   1       4.542  -5.040  -4.713  0.00  0.00     0.026 H 
ATOM     30  H   LIG d   1       4.527  -3.876  -6.059  0.00  0.00     0.026 H 
BRANCH  28  31
ATOM     31  C   LIG d   1       6.494  -4.385  -5.345  0.00  0.00    -0.065 C 
ATOM     32  H   LIG d   1       6.967  -3.464  -5.686  0.00  0.00     0.023 H 
ATOM     33  H   LIG d   1       6.957  -4.708  -4.413  0.00  0.00     0.023 H 
ATOM     34  H   LIG d   1       6.620  -5.159  -6.102  0.00  0.00     0.023 H 
ENDBRANCH  28  31
ENDBRANCH  25  28
ENDBRANCH  22  25
ENDBRANCH   1  22
BRANCH   1  35
ATOM     35  C   LIG d   1       6.650   0.261  -3.426  0.00  0.00     0.047 C 
ATOM     36  H   LIG d   1       6.040   0.978  -2.875  0.00  0.00     0.056 H 
ATOM     37  H   LIG d   1       7.695   0.378  -3.140  0.00  0.00     0.056 H 
BRANCH  35  38
ATOM     38  O   LIG d   1       6.508   0.495  -4.828  0.00  0.00    -0.395 OA
ATOM     39  H   LIG d   1       7.293   0.878  -5.244  0.00  0.00     0.209 HD
ENDBRANCH  35  38
ENDBRANCH   1  35
TORSDOF 12
ENDMDL
MODEL 8
REMARK VINA RESULT:      -4.4      1.470      4.148
REMARK  12 active torsions:
REMARK  status: ('A' for Active; 'I' for Inactive)
REMARK    1  A    between atoms: C_1  and  C_2 
REMARK    2  A    between atoms: C_2  and  C_3 
REMARK    3  A    between atoms: C_3  and  C_4 
REMARK    4  A    between atoms: C_4  and  C_5 
REMARK    5  A    between atoms: C_5  and  C_6 
REMARK    6  A    between atoms: C_6  and  C_7 
REMARK    7  A    between atoms: C_7  and  C_9 
REMARK    8  A    between atoms: C_7  and  C_13 
REMARK    9  A    between atoms: C_9  and  C_10 
REMARK   10  A    between atoms: C_10  and  C_11 
REMARK   11  A    between atoms: C_11  and  C_12 
REMARK   12  A    between atoms: C_13  and  O_14 
ROOT
ATOM      1  C   LIG d   1       3.532   0.042  -3.654  0.00  0.00    -0.018 C 
ATOM      2  H   LIG d   1       4.531  -0.275  -3.954  0.00  0.00     0.032 H 
ENDROOT
BRANCH   1   3
ATOM      3  C   LIG d   1       2.839  -1.098  -2.905  0.00  0.00    -0.048 C 
ATOM      4  H   LIG d   1       2.140  -1.601  -3.574  0.00  0.00     0.027 H 
ATOM      5  H   LIG d   1       2.298  -0.696  -2.050  0.00  0.00     0.027 H 
BRANCH   3   6
ATOM      6  C   LIG d   1       3.888  -2.102  -2.420  0.00  0.00    -0.053 C 
ATOM      7  H   LIG d   1       4.276  -1.783  -1.452  0.00  0.00     0.026 H 
ATOM      8  H   LIG d   1       3.430  -3.087  -2.322  0.00  0.00     0.026 H 
BRANCH   6   9
ATOM      9  C   LIG d   1       5.034  -2.171  -3.431  0.00  0.00    -0.053 C 
ATOM     10  H   LIG d   1       5.048  -1.259  -4.028  0.00  0.00     0.026 H 
ATOM     11  H   LIG d   1       5.981  -2.273  -2.901  0.00  0.00     0.026 H 
BRANCH   9  12
ATOM     12  C   LIG d   1       4.831  -3.378  -4.350  0.00  0.00    -0.053 C 
ATOM     13  H   LIG d   1       5.282  -4.260  -3.896  0.00  0.00     0.026 H 
ATOM     14  H   LIG d   1       3.764  -3.548  -4.494  0.00  0.00     0.026 H 
BRANCH  12  15
ATOM     15  C   LIG d   1       5.492  -3.106  -5.703  0.00  0.00    -0.056 C 
ATOM     16  H   LIG d   1       5.689  -2.038  -5.802  0.00  0.00     0.026 H 
ATOM     17  H   LIG d   1       6.430  -3.656  -5.767  0.00  0.00     0.026 H 
BRANCH  15  18
ATOM     18  C   LIG d   1       4.558  -3.558  -6.827  0.00  0.00    -0.065 C 
ATOM     19  H   LIG d   1       5.078  -4.270  -7.467  0.00  0.00     0.023 H 
ATOM     20  H   LIG d   1       3.676  -4.032  -6.397  0.00  0.00     0.023 H 
ATOM     21  H   LIG d   1       4.254  -2.693  -7.417  0.00  0.00     0.023 H 
ENDBRANCH  15  18
ENDBRANCH  12  15
ENDBRANCH   9  12
ENDBRANCH   6   9
ENDBRANCH   3   6
ENDBRANCH   1   3
BRANCH   1  22
ATOM     22  C   LIG d   1       2.716   0.404  -4.898  0.00  0.00    -0.048 C 
ATOM     23  H   LIG d   1       1.731  -0.058  -4.834  0.00  0.00     0.027 H 
ATOM     24  H   LIG d   1       2.608   1.486  -4.958  0.00  0.00     0.027 H 
BRANCH  22  25
ATOM     25  C   LIG d   1       3.438  -0.107  -6.147  0.00  0.00    -0.053 C 
ATOM     26  H   LIG d   1       4.507   0.087  -6.054  0.00  0.00     0.026 H 
ATOM     27  H   LIG d   1       3.271  -1.179  -6.251  0.00  0.00     0.026 H 
BRANCH  25  28
ATOM     28  C   LIG d   1       2.895   0.615  -7.382  0.00  0.00    -0.056 C 
ATOM     29  H   LIG d   1       2.062   1.255  -7.091  0.00  0.00     0.026 H 
ATOM     30  H   LIG d   1       3.684   1.225  -7.823  0.00  0.00     0.026 H 
BRANCH  28  31
ATOM     31  C   LIG d   1       2.413  -0.414  -8.405  0.00  0.00    -0.065 C 
ATOM     32  H   LIG d   1       3.267  -0.800  -8.962  0.00  0.00     0.023 H 
ATOM     33  H   LIG d   1       1.914  -1.234  -7.888  0.00  0.00     0.023 H 
ATOM     34  H   LIG d   1       1.715   0.060  -9.096  0.00  0.00     0.023 H 
ENDBRANCH  28  31
ENDBRANCH  25  28
ENDBRANCH  22  25
ENDBRANCH   1  22
BRANCH   1  35
ATOM     35  C   LIG d   1       3.636   1.263  -2.739  0.00  0.00     0.047 C 
ATOM     36  H   LIG d   1       2.855   1.216  -1.980  0.00  0.00     0.056 H 
ATOM     37  H   LIG d   1       4.613   1.272  -2.256  0.00  0.00     0.056 H 
BRANCH  35  38
ATOM     38  O   LIG d   1       3.475   2.453  -3.514  0.00  0.00    -0.395 OA
ATOM     39  H   LIG d   1       4.244   3.040  -3.496  0.00  0.00     0.209 HD
ENDBRANCH  35  38
ENDBRANCH   1  35
TORSDOF 12
ENDMDL
MODEL 9
REMARK VINA RESULT:      -4.4      2.087      3.542
REMARK  12 active torsions:
REMARK  status: ('A' for Active; 'I' for Inactive)
REMARK    1  A    between atoms: C_1  and  C_2 
REMARK    2  A    between atoms: C_2  and  C_3 
REMARK    3  A    between atoms: C_3  and  C_4 
REMARK    4  A    between atoms: C_4  and  C_5 
REMARK    5  A    between atoms: C_5  and  C_6 
REMARK    6  A    between atoms: C_6  and  C_7 
REMARK    7  A    between atoms: C_7  and  C_9 
REMARK    8  A    between atoms: C_7  and  C_13 
REMARK    9  A    between atoms: C_9  and  C_10 
REMARK   10  A    between atoms: C_10  and  C_11 
REMARK   11  A    between atoms: C_11  and  C_12 
REMARK   12  A    between atoms: C_13  and  O_14 
ROOT
ATOM      1  C   LIG d   1       3.471   0.140  -5.639  0.00  0.00    -0.018 C 
ATOM      2  H   LIG d   1       4.061   1.054  -5.562  0.00  0.00     0.032 H 
ENDROOT
BRANCH   1   3
ATOM      3  C   LIG d   1       2.860   0.044  -7.038  0.00  0.00    -0.048 C 
ATOM      4  H   LIG d   1       1.849  -0.357  -6.967  0.00  0.00     0.027 H 
ATOM      5  H   LIG d   1       3.470  -0.614  -7.657  0.00  0.00     0.027 H 
BRANCH   3   6
ATOM      6  C   LIG d   1       2.810   1.437  -7.670  0.00  0.00    -0.053 C 
ATOM      7  H   LIG d   1       1.961   1.989  -7.266  0.00  0.00     0.026 H 
ATOM      8  H   LIG d   1       3.733   1.973  -7.442  0.00  0.00     0.026 H 
BRANCH   6   9
ATOM      9  C   LIG d   1       2.658   1.305  -9.186  0.00  0.00    -0.053 C 
ATOM     10  H   LIG d   1       2.882   0.281  -9.486  0.00  0.00     0.026 H 
ATOM     11  H   LIG d   1       1.636   1.551  -9.472  0.00  0.00     0.026 H 
BRANCH   9  12
ATOM     12  C   LIG d   1       3.628   2.264  -9.881  0.00  0.00    -0.053 C 
ATOM     13  H   LIG d   1       3.744   1.970 -10.924  0.00  0.00     0.026 H 
ATOM     14  H   LIG d   1       3.234   3.278  -9.830  0.00  0.00     0.026 H 
BRANCH  12  15
ATOM     15  C   LIG d   1       4.988   2.208  -9.182  0.00  0.00    -0.056 C 
ATOM     16  H   LIG d   1       5.537   3.129  -9.383  0.00  0.00     0.026 H 
ATOM     17  H   LIG d   1       4.841   2.099  -8.108  0.00  0.00     0.026 H 
BRANCH  15  18
ATOM     18  C   LIG d   1       5.785   1.015  -9.711  0.00  0.00    -0.065 C 
ATOM     19  H   LIG d   1       6.149   1.237 -10.714  0.00  0.00     0.023 H 
ATOM     20  H   LIG d   1       6.631   0.821  -9.052  0.00  0.00     0.023 H 
ATOM     21  H   LIG d   1       5.142   0.135  -9.745  0.00  0.00     0.023 H 
ENDBRANCH  15  18
ENDBRANCH  12  15
ENDBRANCH   9  12
ENDBRANCH   6   9
ENDBRANCH   3   6
ENDBRANCH   1   3
BRANCH   1  22
ATOM     22  C   LIG d   1       2.352   0.166  -4.595  0.00  0.00    -0.048 C 
ATOM     23  H   LIG d   1       1.904   1.159  -4.567  0.00  0.00     0.027 H 
ATOM     24  H   LIG d   1       1.593  -0.570  -4.859  0.00  0.00     0.027 H 
BRANCH  22  25
ATOM     25  C   LIG d   1       2.932  -0.171  -3.219  0.00  0.00    -0.053 C 
ATOM     26  H   LIG d   1       2.160  -0.631  -2.602  0.00  0.00     0.026 H 
ATOM     27  H   LIG d   1       3.765  -0.864  -3.335  0.00  0.00     0.026 H 
BRANCH  25  28
ATOM     28  C   LIG d   1       3.425   1.111  -2.546  0.00  0.00    -0.056 C 
ATOM     29  H   LIG d   1       3.714   1.834  -3.309  0.00  0.00     0.026 H 
ATOM     30  H   LIG d   1       2.628   1.530  -1.932  0.00  0.00     0.026 H 
BRANCH  28  31
ATOM     31  C   LIG d   1       4.633   0.792  -1.663  0.00  0.00    -0.065 C 
ATOM     32  H   LIG d   1       4.535  -0.218  -1.264  0.00  0.00     0.023 H 
ATOM     33  H   LIG d   1       5.545   0.863  -2.256  0.00  0.00     0.023 H 
ATOM     34  H   LIG d   1       4.678   1.504  -0.839  0.00  0.00     0.023 H 
ENDBRANCH  28  31
ENDBRANCH  25  28
ENDBRANCH  22  25
ENDBRANCH   1  22
BRANCH   1  35
ATOM     35  C   LIG d   1       4.372  -1.072  -5.392  0.00  0.00     0.047 C 
ATOM     36  H   LIG d   1       5.402  -0.815  -5.641  0.00  0.00     0.056 H 
ATOM     37  H   LIG d   1       4.312  -1.361  -4.343  0.00  0.00     0.056 H 
BRANCH  35  38
ATOM     38  O   LIG d   1       3.941  -2.159  -6.213  0.00  0.00    -0.395 OA
ATOM     39  H   LIG d   1       4.664  -2.705  -6.553  0.00  0.00     0.209 HD
ENDBRANCH  35  38
ENDBRANCH   1  35
TORSDOF 12
ENDMDL
MODEL 10
REMARK VINA RESULT:      -4.3      2.854      4.604
REMARK  12 active torsions:
REMARK  status: ('A' for Active; 'I' for Inactive)
REMARK    1  A    between atoms: C_1  and  C_2 
REMARK    2  A    between atoms: C_2  and  C_3 
REMARK    3  A    between atoms: C_3  and  C_4 
REMARK    4  A    between atoms: C_4  and  C_5 
REMARK    5  A    between atoms: C_5  and  C_6 
REMARK    6  A    between atoms: C_6  and  C_7 
REMARK    7  A    between atoms: C_7  and  C_9 
REMARK    8  A    between atoms: C_7  and  C_13 
REMARK    9  A    between atoms: C_9  and  C_10 
REMARK   10  A    between atoms: C_10  and  C_11 
REMARK   11  A    between atoms: C_11  and  C_12 
REMARK   12  A    between atoms: C_13  and  O_14 
ROOT
ATOM      1  C   LIG d   1       5.035  -2.115  -2.944  0.00  0.00    -0.018 C 
ATOM      2  H   LIG d   1       5.176  -3.097  -2.493  0.00  0.00     0.032 H 
ENDROOT
BRANCH   1   3
ATOM      3  C   LIG d   1       6.398  -1.500  -3.265  0.00  0.00    -0.048 C 
ATOM      4  H   LIG d   1       7.187  -2.125  -2.845  0.00  0.00     0.027 H 
ATOM      5  H   LIG d   1       6.458  -0.501  -2.833  0.00  0.00     0.027 H 
BRANCH   3   6
ATOM      6  C   LIG d   1       6.574  -1.411  -4.782  0.00  0.00    -0.053 C 
ATOM      7  H   LIG d   1       7.366  -2.090  -5.097  0.00  0.00     0.026 H 
ATOM      8  H   LIG d   1       5.640  -1.690  -5.273  0.00  0.00     0.026 H 
BRANCH   6   9
ATOM      9  C   LIG d   1       6.945   0.021  -5.170  0.00  0.00    -0.053 C 
ATOM     10  H   LIG d   1       7.309   0.037  -6.198  0.00  0.00     0.026 H 
ATOM     11  H   LIG d   1       6.065   0.659  -5.087  0.00  0.00     0.026 H 
BRANCH   9  12
ATOM     12  C   LIG d   1       8.039   0.536  -4.233  0.00  0.00    -0.053 C 
ATOM     13  H   LIG d   1       8.041  -0.055  -3.317  0.00  0.00     0.026 H 
ATOM     14  H   LIG d   1       9.008   0.449  -4.724  0.00  0.00     0.026 H 
BRANCH  12  15
ATOM     15  C   LIG d   1       7.769   2.004  -3.892  0.00  0.00    -0.056 C 
ATOM     16  H   LIG d   1       7.248   2.479  -4.723  0.00  0.00     0.026 H 
ATOM     17  H   LIG d   1       7.153   2.062  -2.995  0.00  0.00     0.026 H 
BRANCH  15  18
ATOM     18  C   LIG d   1       9.097   2.722  -3.646  0.00  0.00    -0.065 C 
ATOM     19  H   LIG d   1       9.904   1.990  -3.602  0.00  0.00     0.023 H 
ATOM     20  H   LIG d   1       9.287   3.423  -4.458  0.00  0.00     0.023 H 
ATOM     21  H   LIG d   1       9.048   3.265  -2.702  0.00  0.00     0.023 H 
ENDBRANCH  15  18
ENDBRANCH  12  15
ENDBRANCH   9  12
ENDBRANCH   6   9
ENDBRANCH   3   6
ENDBRANCH   1   3
BRANCH   1  22
ATOM     22  C   LIG d   1       4.284  -1.208  -1.965  0.00  0.00    -0.048 C 
ATOM     23  H   LIG d   1       3.249  -1.103  -2.289  0.00  0.00     0.027 H 
ATOM     24  H   LIG d   1       4.312  -1.648  -0.969  0.00  0.00     0.027 H 
BRANCH  22  25
ATOM     25  C   LIG d   1       4.950   0.170  -1.934  0.00  0.00    -0.053 C 
ATOM     26  H   LIG d   1       5.538   0.268  -1.021  0.00  0.00     0.026 H 
ATOM     27  H   LIG d   1       5.604   0.278  -2.799  0.00  0.00     0.026 H 
BRANCH  25  28
ATOM     28  C   LIG d   1       3.875   1.257  -1.967  0.00  0.00    -0.056 C 
ATOM     29  H   LIG d   1       2.943   0.859  -1.567  0.00  0.00     0.026 H 
ATOM     30  H   LIG d   1       4.196   2.105  -1.362  0.00  0.00     0.026 H 
BRANCH  28  31
ATOM     31  C   LIG d   1       3.657   1.715  -3.410  0.00  0.00    -0.065 C 
ATOM     32  H   LIG d   1       4.066   2.717  -3.539  0.00  0.00     0.023 H 
ATOM     33  H   LIG d   1       4.158   1.026  -4.089  0.00  0.00     0.023 H 
ATOM     34  H   LIG d   1       2.589   1.729  -3.628  0.00  0.00     0.023 H 
ENDBRANCH  28  31
ENDBRANCH  25  28
ENDBRANCH  22  25
ENDBRANCH   1  22
BRANCH   1  35
ATOM     35  C   LIG d   1       4.223  -2.256  -4.233  0.00  0.00     0.047 C 
ATOM     36  H   LIG d   1       4.755  -1.770  -5.052  0.00  0.00     0.056 H 
ATOM     37  H   LIG d   1       4.088  -3.312  -4.463  0.00  0.00     0.056 H 
BRANCH  35  38
ATOM     38  O   LIG d   1       2.947  -1.637  -4.062  0.00  0.00    -0.395 OA
ATOM     39  H   LIG d   1       2.904  -1.027  -3.312  0.00  0.00     0.209 HD
ENDBRANCH  35  38
ENDBRANCH   1  35
TORSDOF 12
ENDMDL
