MODEL 1
REMARK VINA RESULT:      -7.9      0.000      0.000
REMARK  8 active torsions:
REMARK  status: ('A' for Active; 'I' for Inactive)
REMARK    1  A    between atoms: C_1  and  C_2 
REMARK    2  A    between atoms: C_2  and  C_3 
REMARK    3  A    between atoms: C_2  and  C_4 
REMARK    4  A    between atoms: C_2  and  C_5 
REMARK    5  A    between atoms: C_5  and  C_6 
REMARK       I    between atoms: C_6  and  N_8 
REMARK    6  A    between atoms: C_19  and  N_24 
REMARK    7  A    between atoms: N_24  and  S_25 
REMARK    8  A    between atoms: S_25  and  C_28 
ROOT
ATOM      1  C   LIG d   1       6.728   0.763  -3.837  0.00  0.00     0.216 C 
ATOM      2  O   LIG d   1       6.517   1.942  -3.642  0.00  0.00    -0.276 OA
ATOM      3  N   LIG d   1       6.078  -0.167  -3.112  0.00  0.00    -0.300 N 
ATOM      4  C   LIG d   1       5.120   0.217  -2.089  0.00  0.00     0.019 C 
ATOM      5  C   LIG d   1       3.803  -0.527  -2.269  0.00  0.00    -0.006 C 
ATOM      6  H   LIG d   1       3.197  -0.366  -1.377  0.00  0.00     0.033 H 
ATOM      7  C   LIG d   1       4.052  -2.029  -2.410  0.00  0.00    -0.037 C 
ATOM      8  C   LIG d   1       4.961  -2.260  -3.619  0.00  0.00     0.016 C 
ATOM      9  H   LIG d   1       5.078  -3.328  -3.802  0.00  0.00     0.038 H 
ATOM     10  C   LIG d   1       6.321  -1.601  -3.336  0.00  0.00     0.023 C 
ATOM     11  C   LIG d   1       4.367  -1.588  -4.836  0.00  0.00     0.027 C 
ATOM     12  C   LIG d   1       4.683  -2.102  -6.052  0.00  0.00    -0.040 C 
ATOM     13  C   LIG d   1       4.279  -1.454  -7.226  0.00  0.00    -0.032 C 
ATOM     14  C   LIG d   1       3.579  -0.283  -7.128  0.00  0.00     0.112 C 
ATOM     15  C   LIG d   1       3.268   0.222  -5.850  0.00  0.00     0.274 C 
ATOM     16  O   LIG d   1       2.701   1.298  -5.745  0.00  0.00    -0.266 OA
ATOM     17  N   LIG d   1       3.590  -0.481  -4.735  0.00  0.00    -0.310 N 
ATOM     18  C   LIG d   1       3.023  -0.018  -3.468  0.00  0.00     0.031 C 
ATOM     19  H   LIG d   1       4.942   1.289  -2.166  0.00  0.00     0.047 H 
ATOM     20  H   LIG d   1       5.531  -0.010  -1.105  0.00  0.00     0.047 H 
ATOM     21  H   LIG d   1       4.539  -2.406  -1.509  0.00  0.00     0.028 H 
ATOM     22  H   LIG d   1       3.104  -2.545  -2.559  0.00  0.00     0.028 H 
ATOM     23  H   LIG d   1       6.770  -2.044  -2.447  0.00  0.00     0.047 H 
ATOM     24  H   LIG d   1       6.983  -1.735  -4.191  0.00  0.00     0.047 H 
ATOM     25  H   LIG d   1       5.249  -3.019  -6.115  0.00  0.00     0.064 H 
ATOM     26  H   LIG d   1       4.518  -1.872  -8.193  0.00  0.00     0.064 H 
ATOM     27  H   LIG d   1       3.028   1.072  -3.456  0.00  0.00     0.050 H 
ATOM     28  H   LIG d   1       1.993  -0.366  -3.395  0.00  0.00     0.050 H 
ENDROOT
BRANCH   1  29
ATOM     29  C   LIG d   1       7.717   0.341  -4.894  0.00  0.00     0.029 C 
ATOM     30  H   LIG d   1       8.074  -0.665  -4.674  0.00  0.00     0.036 H 
ATOM     31  H   LIG d   1       7.231   0.349  -5.869  0.00  0.00     0.036 H 
BRANCH  29  32
ATOM     32  C   LIG d   1       8.900   1.310  -4.902  0.00  0.00    -0.029 C 
BRANCH  32  33
ATOM     33  C   LIG d   1       8.711   2.336  -6.022  0.00  0.00    -0.060 C 
ATOM     34  H   LIG d   1       7.664   2.637  -6.065  0.00  0.00     0.024 H 
ATOM     35  H   LIG d   1       9.333   3.209  -5.824  0.00  0.00     0.024 H 
ATOM     36  H   LIG d   1       9.001   1.892  -6.974  0.00  0.00     0.024 H 
ENDBRANCH  32  33
BRANCH  32  37
ATOM     37  C   LIG d   1       8.977   2.032  -3.556  0.00  0.00    -0.060 C 
ATOM     38  H   LIG d   1      10.005   2.022  -3.195  0.00  0.00     0.024 H 
ATOM     39  H   LIG d   1       8.645   3.065  -3.678  0.00  0.00     0.024 H 
ATOM     40  H   LIG d   1       8.333   1.528  -2.835  0.00  0.00     0.024 H 
ENDBRANCH  32  37
BRANCH  32  41
ATOM     41  C   LIG d   1      10.196   0.531  -5.138  0.00  0.00    -0.060 C 
ATOM     42  H   LIG d   1      11.019   1.230  -5.281  0.00  0.00     0.024 H 
ATOM     43  H   LIG d   1      10.402  -0.101  -4.272  0.00  0.00     0.024 H 
ATOM     44  H   LIG d   1      10.088  -0.093  -6.025  0.00  0.00     0.024 H 
ENDBRANCH  32  41
ENDBRANCH  29  32
ENDBRANCH   1  29
BRANCH  14  45
ATOM     45  N   LIG d   1       3.181   0.405  -8.280  0.00  0.00    -0.211 N 
ATOM     46  H   LIG d   1       2.275   0.312  -8.613  0.00  0.00     0.174 HD
BRANCH  45  47
ATOM     47  S   LIG d   1       4.258   1.381  -9.074  0.00  0.00     0.073 S 
ATOM     48  O   LIG d   1       5.366   1.558  -8.202  0.00  0.00    -0.150 OA
ATOM     49  O   LIG d   1       3.512   2.475  -9.590  0.00  0.00    -0.150 OA
BRANCH  47  50
ATOM     50  C   LIG d   1       4.853   0.477 -10.466  0.00  0.00     0.111 A 
ATOM     51  C   LIG d   1       4.057   0.332 -11.586  0.00  0.00     0.000 A 
ATOM     52  C   LIG d   1       4.522  -0.383 -12.677  0.00  0.00     0.125 A 
ATOM     53  H   LIG d   1       3.071   0.772 -11.610  0.00  0.00     0.067 H 
ATOM     54  C   LIG d   1       5.788  -0.943 -12.647  0.00  0.00    -0.026 A 
ATOM     55  F   LIG d   1       3.744  -0.529 -13.772  0.00  0.00    -0.205 F 
ATOM     56  C   LIG d   1       6.584  -0.792 -11.528  0.00  0.00    -0.057 A 
ATOM     57  H   LIG d   1       6.154  -1.497 -13.499  0.00  0.00     0.065 H 
ATOM     58  C   LIG d   1       6.117  -0.083 -10.437  0.00  0.00    -0.035 A 
ATOM     59  H   LIG d   1       7.572  -1.229 -11.504  0.00  0.00     0.062 H 
ATOM     60  H   LIG d   1       6.739   0.034  -9.562  0.00  0.00     0.064 H 
ENDBRANCH  47  50
ENDBRANCH  45  47
ENDBRANCH  14  45
TORSDOF 8
ENDMDL
MODEL 2
REMARK VINA RESULT:      -7.8      2.342      4.314
REMARK  8 active torsions:
REMARK  status: ('A' for Active; 'I' for Inactive)
REMARK    1  A    between atoms: C_1  and  C_2 
REMARK    2  A    between atoms: C_2  and  C_3 
REMARK    3  A    between atoms: C_2  and  C_4 
REMARK    4  A    between atoms: C_2  and  C_5 
REMARK    5  A    between atoms: C_5  and  C_6 
REMARK       I    between atoms: C_6  and  N_8 
REMARK    6  A    between atoms: C_19  and  N_24 
REMARK    7  A    between atoms: N_24  and  S_25 
REMARK    8  A    between atoms: S_25  and  C_28 
ROOT
ATOM      1  C   LIG d   1       5.069  -1.860  -4.401  0.00  0.00     0.216 C 
ATOM      2  O   LIG d   1       4.119  -2.490  -4.818  0.00  0.00    -0.276 OA
ATOM      3  N   LIG d   1       6.290  -2.427  -4.366  0.00  0.00    -0.300 N 
ATOM      4  C   LIG d   1       6.495  -3.791  -4.822  0.00  0.00     0.019 C 
ATOM      5  C   LIG d   1       7.649  -3.868  -5.813  0.00  0.00    -0.006 C 
ATOM      6  H   LIG d   1       7.895  -4.918  -5.969  0.00  0.00     0.033 H 
ATOM      7  C   LIG d   1       8.886  -3.167  -5.250  0.00  0.00    -0.037 C 
ATOM      8  C   LIG d   1       8.529  -1.707  -4.963  0.00  0.00     0.016 C 
ATOM      9  H   LIG d   1       9.417  -1.158  -4.650  0.00  0.00     0.038 H 
ATOM     10  C   LIG d   1       7.453  -1.678  -3.864  0.00  0.00     0.023 C 
ATOM     11  C   LIG d   1       7.939  -1.076  -6.203  0.00  0.00     0.027 C 
ATOM     12  C   LIG d   1       8.068   0.269  -6.343  0.00  0.00    -0.040 C 
ATOM     13  C   LIG d   1       7.433   0.940  -7.396  0.00  0.00    -0.032 C 
ATOM     14  C   LIG d   1       6.664   0.221  -8.269  0.00  0.00     0.112 C 
ATOM     15  C   LIG d   1       6.552  -1.173  -8.094  0.00  0.00     0.274 C 
ATOM     16  O   LIG d   1       5.818  -1.818  -8.826  0.00  0.00    -0.266 OA
ATOM     17  N   LIG d   1       7.258  -1.803  -7.123  0.00  0.00    -0.310 N 
ATOM     18  C   LIG d   1       7.282  -3.266  -7.158  0.00  0.00     0.031 C 
ATOM     19  H   LIG d   1       5.582  -4.137  -5.305  0.00  0.00     0.047 H 
ATOM     20  H   LIG d   1       6.712  -4.430  -3.966  0.00  0.00     0.047 H 
ATOM     21  H   LIG d   1       9.195  -3.657  -4.326  0.00  0.00     0.028 H 
ATOM     22  H   LIG d   1       9.695  -3.211  -5.978  0.00  0.00     0.028 H 
ATOM     23  H   LIG d   1       7.835  -2.150  -2.959  0.00  0.00     0.047 H 
ATOM     24  H   LIG d   1       7.167  -0.648  -3.653  0.00  0.00     0.047 H 
ATOM     25  H   LIG d   1       8.666   0.826  -5.637  0.00  0.00     0.064 H 
ATOM     26  H   LIG d   1       7.549   2.007  -7.515  0.00  0.00     0.064 H 
ATOM     27  H   LIG d   1       6.296  -3.628  -7.450  0.00  0.00     0.050 H 
ATOM     28  H   LIG d   1       8.010  -3.588  -7.902  0.00  0.00     0.050 H 
ENDROOT
BRANCH   1  29
ATOM     29  C   LIG d   1       4.881  -0.443  -3.924  0.00  0.00     0.029 C 
ATOM     30  H   LIG d   1       5.854   0.001  -3.717  0.00  0.00     0.036 H 
ATOM     31  H   LIG d   1       4.374   0.136  -4.695  0.00  0.00     0.036 H 
BRANCH  29  32
ATOM     32  C   LIG d   1       4.039  -0.442  -2.647  0.00  0.00    -0.029 C 
BRANCH  32  33
ATOM     33  C   LIG d   1       2.554  -0.469  -3.014  0.00  0.00    -0.060 C 
ATOM     34  H   LIG d   1       2.194  -1.497  -2.993  0.00  0.00     0.024 H 
ATOM     35  H   LIG d   1       1.992   0.129  -2.297  0.00  0.00     0.024 H 
ATOM     36  H   LIG d   1       2.420  -0.057  -4.014  0.00  0.00     0.024 H 
ENDBRANCH  32  33
BRANCH  32  37
ATOM     37  C   LIG d   1       4.380  -1.677  -1.810  0.00  0.00    -0.060 C 
ATOM     38  H   LIG d   1       5.427  -1.941  -1.961  0.00  0.00     0.024 H 
ATOM     39  H   LIG d   1       4.209  -1.459  -0.755  0.00  0.00     0.024 H 
ATOM     40  H   LIG d   1       3.747  -2.509  -2.116  0.00  0.00     0.024 H 
ENDBRANCH  32  37
BRANCH  32  41
ATOM     41  C   LIG d   1       4.342   0.822  -1.838  0.00  0.00    -0.060 C 
ATOM     42  H   LIG d   1       3.496   1.506  -1.904  0.00  0.00     0.024 H 
ATOM     43  H   LIG d   1       4.511   0.553  -0.794  0.00  0.00     0.024 H 
ATOM     44  H   LIG d   1       5.233   1.304  -2.238  0.00  0.00     0.024 H 
ENDBRANCH  32  41
ENDBRANCH  29  32
ENDBRANCH   1  29
BRANCH  14  45
ATOM     45  N   LIG d   1       5.994   0.862  -9.318  0.00  0.00    -0.211 N 
ATOM     46  H   LIG d   1       6.423   0.954 -10.183  0.00  0.00     0.174 HD
BRANCH  45  47
ATOM     47  S   LIG d   1       4.468   1.461  -9.083  0.00  0.00     0.073 S 
ATOM     48  O   LIG d   1       4.441   2.751  -9.677  0.00  0.00    -0.150 OA
ATOM     49  O   LIG d   1       4.154   1.246  -7.714  0.00  0.00    -0.150 OA
BRANCH  47  50
ATOM     50  C   LIG d   1       3.363   0.453 -10.016  0.00  0.00     0.111 A 
ATOM     51  C   LIG d   1       3.689   0.085 -11.308  0.00  0.00     0.000 A 
ATOM     52  C   LIG d   1       2.819  -0.703 -12.043  0.00  0.00     0.125 A 
ATOM     53  H   LIG d   1       4.620   0.413 -11.745  0.00  0.00     0.067 H 
ATOM     54  C   LIG d   1       1.628  -1.127 -11.479  0.00  0.00    -0.026 A 
ATOM     55  F   LIG d   1       3.135  -1.061 -13.306  0.00  0.00    -0.205 F 
ATOM     56  C   LIG d   1       1.306  -0.761 -10.186  0.00  0.00    -0.057 A 
ATOM     57  H   LIG d   1       0.950  -1.745 -12.050  0.00  0.00     0.065 H 
ATOM     58  C   LIG d   1       2.173   0.029  -9.455  0.00  0.00    -0.035 A 
ATOM     59  H   LIG d   1       0.377  -1.092  -9.746  0.00  0.00     0.062 H 
ATOM     60  H   LIG d   1       1.921   0.316  -8.444  0.00  0.00     0.064 H 
ENDBRANCH  47  50
ENDBRANCH  45  47
ENDBRANCH  14  45
TORSDOF 8
ENDMDL
MODEL 3
REMARK VINA RESULT:      -7.4      3.290      7.596
REMARK  8 active torsions:
REMARK  status: ('A' for Active; 'I' for Inactive)
REMARK    1  A    between atoms: C_1  and  C_2 
REMARK    2  A    between atoms: C_2  and  C_3 
REMARK    3  A    between atoms: C_2  and  C_4 
REMARK    4  A    between atoms: C_2  and  C_5 
REMARK    5  A    between atoms: C_5  and  C_6 
REMARK       I    between atoms: C_6  and  N_8 
REMARK    6  A    between atoms: C_19  and  N_24 
REMARK    7  A    between atoms: N_24  and  S_25 
REMARK    8  A    between atoms: S_25  and  C_28 
ROOT
ATOM      1  C   LIG d   1       4.213  -1.213 -10.939  0.00  0.00     0.216 C 
ATOM      2  O   LIG d   1       3.618  -2.262 -10.809  0.00  0.00    -0.276 OA
ATOM      3  N   LIG d   1       3.631  -0.057 -10.568  0.00  0.00    -0.300 N 
ATOM      4  C   LIG d   1       2.290  -0.041 -10.008  0.00  0.00     0.019 C 
ATOM      5  C   LIG d   1       2.252   0.747  -8.705  0.00  0.00    -0.006 C 
ATOM      6  H   LIG d   1       1.208   0.904  -8.433  0.00  0.00     0.033 H 
ATOM      7  C   LIG d   1       2.907   2.117  -8.889  0.00  0.00    -0.037 C 
ATOM      8  C   LIG d   1       4.354   1.906  -9.340  0.00  0.00     0.016 C 
ATOM      9  H   LIG d   1       4.875   2.862  -9.387  0.00  0.00     0.038 H 
ATOM     10  C   LIG d   1       4.339   1.224 -10.718  0.00  0.00     0.023 C 
ATOM     11  C   LIG d   1       5.057   0.980  -8.375  0.00  0.00     0.027 C 
ATOM     12  C   LIG d   1       6.405   1.097  -8.264  0.00  0.00    -0.040 C 
ATOM     13  C   LIG d   1       7.138   0.187  -7.492  0.00  0.00    -0.032 C 
ATOM     14  C   LIG d   1       6.475  -0.834  -6.867  0.00  0.00     0.112 C 
ATOM     15  C   LIG d   1       5.076  -0.925  -7.004  0.00  0.00     0.274 C 
ATOM     16  O   LIG d   1       4.479  -1.867  -6.507  0.00  0.00    -0.266 OA
ATOM     17  N   LIG d   1       4.388   0.028  -7.679  0.00  0.00    -0.310 N 
ATOM     18  C   LIG d   1       2.928  -0.001  -7.570  0.00  0.00     0.031 C 
ATOM     19  H   LIG d   1       1.982  -1.068  -9.817  0.00  0.00     0.047 H 
ATOM     20  H   LIG d   1       1.604   0.412 -10.724  0.00  0.00     0.047 H 
ATOM     21  H   LIG d   1       2.365   2.682  -9.648  0.00  0.00     0.028 H 
ATOM     22  H   LIG d   1       2.891   2.660  -7.945  0.00  0.00     0.028 H 
ATOM     23  H   LIG d   1       3.815   1.854 -11.437  0.00  0.00     0.047 H 
ATOM     24  H   LIG d   1       5.359   1.046 -11.055  0.00  0.00     0.047 H 
ATOM     25  H   LIG d   1       6.917   1.899  -8.774  0.00  0.00     0.064 H 
ATOM     26  H   LIG d   1       8.209   0.290  -7.392  0.00  0.00     0.064 H 
ATOM     27  H   LIG d   1       2.593  -1.038  -7.582  0.00  0.00     0.050 H 
ATOM     28  H   LIG d   1       2.636   0.453  -6.623  0.00  0.00     0.050 H 
ENDROOT
BRANCH   1  29
ATOM     29  C   LIG d   1       5.606  -1.204 -11.516  0.00  0.00     0.029 C 
ATOM     30  H   LIG d   1       6.053  -0.222 -11.369  0.00  0.00     0.036 H 
ATOM     31  H   LIG d   1       6.211  -1.959 -11.014  0.00  0.00     0.036 H 
BRANCH  29  32
ATOM     32  C   LIG d   1       5.540  -1.515 -13.013  0.00  0.00    -0.029 C 
BRANCH  32  33
ATOM     33  C   LIG d   1       5.490  -3.031 -13.218  0.00  0.00    -0.060 C 
ATOM     34  H   LIG d   1       4.783  -3.265 -14.014  0.00  0.00     0.024 H 
ATOM     35  H   LIG d   1       6.481  -3.392 -13.494  0.00  0.00     0.024 H 
ATOM     36  H   LIG d   1       5.172  -3.512 -12.294  0.00  0.00     0.024 H 
ENDBRANCH  32  33
BRANCH  32  37
ATOM     37  C   LIG d   1       4.285  -0.877 -13.610  0.00  0.00    -0.060 C 
ATOM     38  H   LIG d   1       4.195   0.150 -13.257  0.00  0.00     0.024 H 
ATOM     39  H   LIG d   1       4.358  -0.882 -14.699  0.00  0.00     0.024 H 
ATOM     40  H   LIG d   1       3.407  -1.445 -13.303  0.00  0.00     0.024 H 
ENDBRANCH  32  37
BRANCH  32  41
ATOM     41  C   LIG d   1       6.781  -0.947 -13.706  0.00  0.00    -0.060 C 
ATOM     42  H   LIG d   1       7.546  -1.720 -13.772  0.00  0.00     0.024 H 
ATOM     43  H   LIG d   1       6.514  -0.611 -14.709  0.00  0.00     0.024 H 
ATOM     44  H   LIG d   1       7.164  -0.104 -13.131  0.00  0.00     0.024 H 
ENDBRANCH  32  41
ENDBRANCH  29  32
ENDBRANCH   1  29
BRANCH  14  45
ATOM     45  N   LIG d   1       7.179  -1.778  -6.109  0.00  0.00    -0.211 N 
ATOM     46  H   LIG d   1       7.308  -2.676  -6.451  0.00  0.00     0.174 HD
BRANCH  45  47
ATOM     47  S   LIG d   1       7.791  -1.360  -4.628  0.00  0.00     0.073 S 
ATOM     48  O   LIG d   1       8.549  -0.173  -4.821  0.00  0.00    -0.150 OA
ATOM     49  O   LIG d   1       8.354  -2.541  -4.073  0.00  0.00    -0.150 OA
BRANCH  47  50
ATOM     50  C   LIG d   1       6.425  -0.924  -3.603  0.00  0.00     0.111 A 
ATOM     51  C   LIG d   1       5.533  -1.896  -3.191  0.00  0.00     0.000 A 
ATOM     52  C   LIG d   1       4.457  -1.552  -2.390  0.00  0.00     0.125 A 
ATOM     53  H   LIG d   1       5.672  -2.922  -3.497  0.00  0.00     0.067 H 
ATOM     54  C   LIG d   1       4.283  -0.237  -1.995  0.00  0.00    -0.026 A 
ATOM     55  F   LIG d   1       3.582  -2.500  -1.990  0.00  0.00    -0.205 F 
ATOM     56  C   LIG d   1       5.179   0.732  -2.403  0.00  0.00    -0.057 A 
ATOM     57  H   LIG d   1       3.447   0.032  -1.366  0.00  0.00     0.065 H 
ATOM     58  C   LIG d   1       6.249   0.389  -3.207  0.00  0.00    -0.035 A 
ATOM     59  H   LIG d   1       5.043   1.759  -2.095  0.00  0.00     0.062 H 
ATOM     60  H   LIG d   1       6.950   1.147  -3.528  0.00  0.00     0.064 H 
ENDBRANCH  47  50
ENDBRANCH  45  47
ENDBRANCH  14  45
TORSDOF 8
ENDMDL
MODEL 4
REMARK VINA RESULT:      -7.1      3.743      7.011
REMARK  8 active torsions:
REMARK  status: ('A' for Active; 'I' for Inactive)
REMARK    1  A    between atoms: C_1  and  C_2 
REMARK    2  A    between atoms: C_2  and  C_3 
REMARK    3  A    between atoms: C_2  and  C_4 
REMARK    4  A    between atoms: C_2  and  C_5 
REMARK    5  A    between atoms: C_5  and  C_6 
REMARK       I    between atoms: C_6  and  N_8 
REMARK    6  A    between atoms: C_19  and  N_24 
REMARK    7  A    between atoms: N_24  and  S_25 
REMARK    8  A    between atoms: S_25  and  C_28 
ROOT
ATOM      1  C   LIG d   1       4.821  -0.912  -7.020  0.00  0.00     0.216 C 
ATOM      2  O   LIG d   1       5.456  -1.561  -7.825  0.00  0.00    -0.276 OA
ATOM      3  N   LIG d   1       4.324  -1.506  -5.918  0.00  0.00    -0.300 N 
ATOM      4  C   LIG d   1       4.536  -2.922  -5.670  0.00  0.00     0.019 C 
ATOM      5  C   LIG d   1       5.078  -3.155  -4.266  0.00  0.00    -0.006 C 
ATOM      6  H   LIG d   1       5.028  -4.224  -4.056  0.00  0.00     0.033 H 
ATOM      7  C   LIG d   1       4.218  -2.426  -3.233  0.00  0.00    -0.037 C 
ATOM      8  C   LIG d   1       4.226  -0.932  -3.562  0.00  0.00     0.016 C 
ATOM      9  H   LIG d   1       3.700  -0.374  -2.788  0.00  0.00     0.038 H 
ATOM     10  C   LIG d   1       3.553  -0.734  -4.931  0.00  0.00     0.023 C 
ATOM     11  C   LIG d   1       5.652  -0.444  -3.675  0.00  0.00     0.027 C 
ATOM     12  C   LIG d   1       5.887   0.868  -3.415  0.00  0.00    -0.040 C 
ATOM     13  C   LIG d   1       7.157   1.420  -3.628  0.00  0.00    -0.032 C 
ATOM     14  C   LIG d   1       8.151   0.620  -4.121  0.00  0.00     0.112 C 
ATOM     15  C   LIG d   1       7.872  -0.737  -4.379  0.00  0.00     0.274 C 
ATOM     16  O   LIG d   1       8.729  -1.447  -4.880  0.00  0.00    -0.266 OA
ATOM     17  N   LIG d   1       6.659  -1.260  -4.070  0.00  0.00    -0.310 N 
ATOM     18  C   LIG d   1       6.526  -2.716  -4.137  0.00  0.00     0.031 C 
ATOM     19  H   LIG d   1       5.252  -3.298  -6.400  0.00  0.00     0.047 H 
ATOM     20  H   LIG d   1       3.592  -3.454  -5.786  0.00  0.00     0.047 H 
ATOM     21  H   LIG d   1       3.196  -2.805  -3.274  0.00  0.00     0.028 H 
ATOM     22  H   LIG d   1       4.630  -2.585  -2.237  0.00  0.00     0.028 H 
ATOM     23  H   LIG d   1       2.526  -1.099  -4.895  0.00  0.00     0.047 H 
ATOM     24  H   LIG d   1       3.561   0.322  -5.198  0.00  0.00     0.047 H 
ATOM     25  H   LIG d   1       5.089   1.491  -3.041  0.00  0.00     0.064 H 
ATOM     26  H   LIG d   1       7.346   2.460  -3.407  0.00  0.00     0.064 H 
ATOM     27  H   LIG d   1       7.085  -3.084  -4.998  0.00  0.00     0.050 H 
ATOM     28  H   LIG d   1       6.948  -3.151  -3.231  0.00  0.00     0.050 H 
ENDROOT
BRANCH   1  29
ATOM     29  C   LIG d   1       4.589   0.559  -7.254  0.00  0.00     0.029 C 
ATOM     30  H   LIG d   1       4.148   1.002  -6.362  0.00  0.00     0.036 H 
ATOM     31  H   LIG d   1       5.540   1.046  -7.470  0.00  0.00     0.036 H 
BRANCH  29  32
ATOM     32  C   LIG d   1       3.639   0.743  -8.439  0.00  0.00    -0.029 C 
BRANCH  32  33
ATOM     33  C   LIG d   1       2.597  -0.377  -8.437  0.00  0.00    -0.060 C 
ATOM     34  H   LIG d   1       2.714  -0.982  -9.336  0.00  0.00     0.024 H 
ATOM     35  H   LIG d   1       2.738  -1.002  -7.556  0.00  0.00     0.024 H 
ATOM     36  H   LIG d   1       1.598   0.057  -8.419  0.00  0.00     0.024 H 
ENDBRANCH  32  33
BRANCH  32  37
ATOM     37  C   LIG d   1       2.936   2.097  -8.321  0.00  0.00    -0.060 C 
ATOM     38  H   LIG d   1       3.272   2.753  -9.123  0.00  0.00     0.024 H 
ATOM     39  H   LIG d   1       1.857   1.953  -8.397  0.00  0.00     0.024 H 
ATOM     40  H   LIG d   1       3.174   2.548  -7.358  0.00  0.00     0.024 H 
ENDBRANCH  32  37
BRANCH  32  41
ATOM     41  C   LIG d   1       4.438   0.695  -9.744  0.00  0.00    -0.060 C 
ATOM     42  H   LIG d   1       3.776   0.418 -10.564  0.00  0.00     0.024 H 
ATOM     43  H   LIG d   1       4.870   1.677  -9.941  0.00  0.00     0.024 H 
ATOM     44  H   LIG d   1       5.235  -0.042  -9.654  0.00  0.00     0.024 H 
ENDBRANCH  32  41
ENDBRANCH  29  32
ENDBRANCH   1  29
BRANCH  14  45
ATOM     45  N   LIG d   1       9.425   1.143  -4.370  0.00  0.00    -0.211 N 
ATOM     46  H   LIG d   1      10.186   0.832  -3.857  0.00  0.00     0.174 HD
BRANCH  45  47
ATOM     47  S   LIG d   1       9.633   2.293  -5.544  0.00  0.00     0.073 S 
ATOM     48  O   LIG d   1       8.461   2.270  -6.348  0.00  0.00    -0.150 OA
ATOM     49  O   LIG d   1      10.932   2.093  -6.084  0.00  0.00    -0.150 OA
BRANCH  47  50
ATOM     50  C   LIG d   1       9.659   3.861  -4.738  0.00  0.00     0.111 A 
ATOM     51  C   LIG d   1       9.896   3.935  -3.379  0.00  0.00     0.000 A 
ATOM     52  C   LIG d   1       9.912   5.166  -2.746  0.00  0.00     0.125 A 
ATOM     53  H   LIG d   1      10.065   3.033  -2.810  0.00  0.00     0.067 H 
ATOM     54  C   LIG d   1       9.700   6.322  -3.477  0.00  0.00    -0.026 A 
ATOM     55  F   LIG d   1      10.140   5.239  -1.416  0.00  0.00    -0.205 F 
ATOM     56  C   LIG d   1       9.468   6.246  -4.837  0.00  0.00    -0.057 A 
ATOM     57  H   LIG d   1       9.716   7.283  -2.985  0.00  0.00     0.065 H 
ATOM     58  C   LIG d   1       9.447   5.017  -5.468  0.00  0.00    -0.035 A 
ATOM     59  H   LIG d   1       9.302   7.148  -5.408  0.00  0.00     0.062 H 
ATOM     60  H   LIG d   1       9.265   4.957  -6.531  0.00  0.00     0.064 H 
ENDBRANCH  47  50
ENDBRANCH  45  47
ENDBRANCH  14  45
TORSDOF 8
ENDMDL
MODEL 5
REMARK VINA RESULT:      -7.0      4.475      7.750
REMARK  8 active torsions:
REMARK  status: ('A' for Active; 'I' for Inactive)
REMARK    1  A    between atoms: C_1  and  C_2 
REMARK    2  A    between atoms: C_2  and  C_3 
REMARK    3  A    between atoms: C_2  and  C_4 
REMARK    4  A    between atoms: C_2  and  C_5 
REMARK    5  A    between atoms: C_5  and  C_6 
REMARK       I    between atoms: C_6  and  N_8 
REMARK    6  A    between atoms: C_19  and  N_24 
REMARK    7  A    between atoms: N_24  and  S_25 
REMARK    8  A    between atoms: S_25  and  C_28 
ROOT
ATOM      1  C   LIG d   1      10.071   5.968  -5.292  0.00  0.00     0.216 C 
ATOM      2  O   LIG d   1       9.304   6.476  -4.502  0.00  0.00    -0.276 OA
ATOM      3  N   LIG d   1      11.216   5.409  -4.855  0.00  0.00    -0.300 N 
ATOM      4  C   LIG d   1      11.554   5.402  -3.442  0.00  0.00     0.019 C 
ATOM      5  C   LIG d   1      11.931   4.001  -2.978  0.00  0.00    -0.006 C 
ATOM      6  H   LIG d   1      12.367   4.079  -1.982  0.00  0.00     0.033 H 
ATOM      7  C   LIG d   1      12.979   3.393  -3.910  0.00  0.00    -0.037 C 
ATOM      8  C   LIG d   1      12.400   3.344  -5.326  0.00  0.00     0.016 C 
ATOM      9  H   LIG d   1      13.088   2.828  -5.995  0.00  0.00     0.038 H 
ATOM     10  C   LIG d   1      12.157   4.787  -5.800  0.00  0.00     0.023 C 
ATOM     11  C   LIG d   1      11.066   2.635  -5.305  0.00  0.00     0.027 C 
ATOM     12  C   LIG d   1      10.667   2.017  -6.447  0.00  0.00    -0.040 C 
ATOM     13  C   LIG d   1       9.388   1.455  -6.544  0.00  0.00    -0.032 C 
ATOM     14  C   LIG d   1       8.539   1.556  -5.476  0.00  0.00     0.112 C 
ATOM     15  C   LIG d   1       8.985   2.204  -4.307  0.00  0.00     0.274 C 
ATOM     16  O   LIG d   1       8.218   2.360  -3.370  0.00  0.00    -0.266 OA
ATOM     17  N   LIG d   1      10.263   2.651  -4.213  0.00  0.00    -0.310 N 
ATOM     18  C   LIG d   1      10.721   3.087  -2.894  0.00  0.00     0.031 C 
ATOM     19  H   LIG d   1      10.689   5.748  -2.877  0.00  0.00     0.047 H 
ATOM     20  H   LIG d   1      12.392   6.078  -3.267  0.00  0.00     0.047 H 
ATOM     21  H   LIG d   1      13.878   4.010  -3.903  0.00  0.00     0.028 H 
ATOM     22  H   LIG d   1      13.222   2.384  -3.578  0.00  0.00     0.028 H 
ATOM     23  H   LIG d   1      13.097   5.339  -5.803  0.00  0.00     0.047 H 
ATOM     24  H   LIG d   1      11.727   4.781  -6.801  0.00  0.00     0.047 H 
ATOM     25  H   LIG d   1      11.342   1.957  -7.288  0.00  0.00     0.064 H 
ATOM     26  H   LIG d   1       9.078   0.951  -7.447  0.00  0.00     0.064 H 
ATOM     27  H   LIG d   1       9.910   3.620  -2.396  0.00  0.00     0.050 H 
ATOM     28  H   LIG d   1      10.981   2.209  -2.303  0.00  0.00     0.050 H 
ENDROOT
BRANCH   1  29
ATOM     29  C   LIG d   1       9.742   5.961  -6.763  0.00  0.00     0.029 C 
ATOM     30  H   LIG d   1      10.431   5.300  -7.285  0.00  0.00     0.036 H 
ATOM     31  H   LIG d   1       8.720   5.608  -6.904  0.00  0.00     0.036 H 
BRANCH  29  32
ATOM     32  C   LIG d   1       9.873   7.379  -7.321  0.00  0.00    -0.029 C 
BRANCH  32  33
ATOM     33  C   LIG d   1       9.181   7.458  -8.684  0.00  0.00    -0.060 C 
ATOM     34  H   LIG d   1       9.585   8.299  -9.247  0.00  0.00     0.024 H 
ATOM     35  H   LIG d   1       9.356   6.534  -9.234  0.00  0.00     0.024 H 
ATOM     36  H   LIG d   1       8.110   7.598  -8.539  0.00  0.00     0.024 H 
ENDBRANCH  32  33
BRANCH  32  37
ATOM     37  C   LIG d   1       9.218   8.370  -6.357  0.00  0.00    -0.060 C 
ATOM     38  H   LIG d   1       8.150   8.428  -6.564  0.00  0.00     0.024 H 
ATOM     39  H   LIG d   1       9.371   8.033  -5.330  0.00  0.00     0.024 H 
ATOM     40  H   LIG d   1       9.667   9.354  -6.486  0.00  0.00     0.024 H 
ENDBRANCH  32  37
BRANCH  32  41
ATOM     41  C   LIG d   1      11.355   7.728  -7.482  0.00  0.00    -0.060 C 
ATOM     42  H   LIG d   1      11.529   8.120  -8.484  0.00  0.00     0.024 H 
ATOM     43  H   LIG d   1      11.633   8.481  -6.743  0.00  0.00     0.024 H 
ATOM     44  H   LIG d   1      11.957   6.832  -7.331  0.00  0.00     0.024 H 
ENDBRANCH  32  41
ENDBRANCH  29  32
ENDBRANCH   1  29
BRANCH  14  45
ATOM     45  N   LIG d   1       7.244   1.029  -5.546  0.00  0.00    -0.211 N 
ATOM     46  H   LIG d   1       6.490   1.617  -5.710  0.00  0.00     0.174 HD
BRANCH  45  47
ATOM     47  S   LIG d   1       7.000  -0.597  -5.350  0.00  0.00     0.073 S 
ATOM     48  O   LIG d   1       8.238  -1.145  -4.919  0.00  0.00    -0.150 OA
ATOM     49  O   LIG d   1       6.331  -1.051  -6.518  0.00  0.00    -0.150 OA
BRANCH  47  50
ATOM     50  C   LIG d   1       5.869  -0.796  -4.012  0.00  0.00     0.111 A 
ATOM     51  C   LIG d   1       5.676   0.234  -3.112  0.00  0.00     0.000 A 
ATOM     52  C   LIG d   1       4.791   0.075  -2.059  0.00  0.00     0.125 A 
ATOM     53  H   LIG d   1       6.218   1.161  -3.227  0.00  0.00     0.067 H 
ATOM     54  C   LIG d   1       4.094  -1.112  -1.915  0.00  0.00    -0.026 A 
ATOM     55  F   LIG d   1       4.605   1.080  -1.175  0.00  0.00    -0.205 F 
ATOM     56  C   LIG d   1       4.284  -2.139  -2.820  0.00  0.00    -0.057 A 
ATOM     57  H   LIG d   1       3.400  -1.235  -1.097  0.00  0.00     0.065 H 
ATOM     58  C   LIG d   1       5.172  -1.982  -3.868  0.00  0.00    -0.035 A 
ATOM     59  H   LIG d   1       3.741  -3.065  -2.708  0.00  0.00     0.062 H 
ATOM     60  H   LIG d   1       5.321  -2.784  -4.575  0.00  0.00     0.064 H 
ENDBRANCH  47  50
ENDBRANCH  45  47
ENDBRANCH  14  45
TORSDOF 8
ENDMDL
MODEL 6
REMARK VINA RESULT:      -6.8      5.281      8.923
REMARK  8 active torsions:
REMARK  status: ('A' for Active; 'I' for Inactive)
REMARK    1  A    between atoms: C_1  and  C_2 
REMARK    2  A    between atoms: C_2  and  C_3 
REMARK    3  A    between atoms: C_2  and  C_4 
REMARK    4  A    between atoms: C_2  and  C_5 
REMARK    5  A    between atoms: C_5  and  C_6 
REMARK       I    between atoms: C_6  and  N_8 
REMARK    6  A    between atoms: C_19  and  N_24 
REMARK    7  A    between atoms: N_24  and  S_25 
REMARK    8  A    between atoms: S_25  and  C_28 
ROOT
ATOM      1  C   LIG d   1      12.190   5.864  -1.892  0.00  0.00     0.216 C 
ATOM      2  O   LIG d   1      12.839   5.199  -1.112  0.00  0.00    -0.276 OA
ATOM      3  N   LIG d   1      12.659   6.094  -3.133  0.00  0.00    -0.300 N 
ATOM      4  C   LIG d   1      13.940   5.558  -3.561  0.00  0.00     0.019 C 
ATOM      5  C   LIG d   1      13.808   4.824  -4.889  0.00  0.00    -0.006 C 
ATOM      6  H   LIG d   1      14.811   4.620  -5.266  0.00  0.00     0.033 H 
ATOM      7  C   LIG d   1      13.084   5.698  -5.913  0.00  0.00    -0.037 C 
ATOM      8  C   LIG d   1      11.700   6.048  -5.361  0.00  0.00     0.016 C 
ATOM      9  H   LIG d   1      11.124   6.591  -6.110  0.00  0.00     0.038 H 
ATOM     10  C   LIG d   1      11.885   6.898  -4.093  0.00  0.00     0.023 C 
ATOM     11  C   LIG d   1      10.976   4.782  -4.967  0.00  0.00     0.027 C 
ATOM     12  C   LIG d   1       9.618   4.806  -4.985  0.00  0.00    -0.040 C 
ATOM     13  C   LIG d   1       8.880   3.716  -4.506  0.00  0.00    -0.032 C 
ATOM     14  C   LIG d   1       9.549   2.635  -4.001  0.00  0.00     0.112 C 
ATOM     15  C   LIG d   1      10.958   2.644  -3.997  0.00  0.00     0.274 C 
ATOM     16  O   LIG d   1      11.569   1.716  -3.491  0.00  0.00    -0.266 OA
ATOM     17  N   LIG d   1      11.641   3.674  -4.558  0.00  0.00    -0.310 N 
ATOM     18  C   LIG d   1      13.083   3.499  -4.735  0.00  0.00     0.031 C 
ATOM     19  H   LIG d   1      14.297   4.864  -2.800  0.00  0.00     0.047 H 
ATOM     20  H   LIG d   1      14.656   6.373  -3.668  0.00  0.00     0.047 H 
ATOM     21  H   LIG d   1      13.653   6.613  -6.082  0.00  0.00     0.028 H 
ATOM     22  H   LIG d   1      12.978   5.153  -6.851  0.00  0.00     0.028 H 
ATOM     23  H   LIG d   1      12.428   7.811  -4.334  0.00  0.00     0.047 H 
ATOM     24  H   LIG d   1      10.913   7.146  -3.668  0.00  0.00     0.047 H 
ATOM     25  H   LIG d   1       9.102   5.672  -5.373  0.00  0.00     0.064 H 
ATOM     26  H   LIG d   1       7.800   3.730  -4.535  0.00  0.00     0.064 H 
ATOM     27  H   LIG d   1      13.485   2.975  -3.868  0.00  0.00     0.050 H 
ATOM     28  H   LIG d   1      13.257   2.894  -5.625  0.00  0.00     0.050 H 
ENDROOT
BRANCH   1  29
ATOM     29  C   LIG d   1      10.858   6.430  -1.472  0.00  0.00     0.029 C 
ATOM     30  H   LIG d   1      10.345   6.834  -2.344  0.00  0.00     0.036 H 
ATOM     31  H   LIG d   1      10.252   5.641  -1.027  0.00  0.00     0.036 H 
BRANCH  29  32
ATOM     32  C   LIG d   1      11.077   7.545  -0.448  0.00  0.00    -0.029 C 
BRANCH  32  33
ATOM     33  C   LIG d   1       9.931   8.555  -0.539  0.00  0.00    -0.060 C 
ATOM     34  H   LIG d   1       9.729   8.963   0.452  0.00  0.00     0.024 H 
ATOM     35  H   LIG d   1      10.212   9.362  -1.215  0.00  0.00     0.024 H 
ATOM     36  H   LIG d   1       9.038   8.058  -0.916  0.00  0.00     0.024 H 
ENDBRANCH  32  33
BRANCH  32  37
ATOM     37  C   LIG d   1      11.119   6.944   0.958  0.00  0.00    -0.060 C 
ATOM     38  H   LIG d   1      10.103   6.768   1.309  0.00  0.00     0.024 H 
ATOM     39  H   LIG d   1      11.664   5.999   0.934  0.00  0.00     0.024 H 
ATOM     40  H   LIG d   1      11.622   7.635   1.634  0.00  0.00     0.024 H 
ENDBRANCH  32  37
BRANCH  32  41
ATOM     41  C   LIG d   1      12.403   8.251  -0.741  0.00  0.00    -0.060 C 
ATOM     42  H   LIG d   1      12.374   8.678  -1.743  0.00  0.00     0.024 H 
ATOM     43  H   LIG d   1      12.560   9.047  -0.011  0.00  0.00     0.024 H 
ATOM     44  H   LIG d   1      13.220   7.533  -0.674  0.00  0.00     0.024 H 
ENDBRANCH  32  41
ENDBRANCH  29  32
ENDBRANCH   1  29
BRANCH  14  45
ATOM     45  N   LIG d   1       8.844   1.539  -3.489  0.00  0.00    -0.211 N 
ATOM     46  H   LIG d   1       8.908   1.319  -2.547  0.00  0.00     0.174 HD
BRANCH  45  47
ATOM     47  S   LIG d   1       7.900   0.621  -4.493  0.00  0.00     0.073 S 
ATOM     48  O   LIG d   1       8.654  -0.541  -4.811  0.00  0.00    -0.150 OA
ATOM     49  O   LIG d   1       7.394   1.497  -5.490  0.00  0.00    -0.150 OA
BRANCH  47  50
ATOM     50  C   LIG d   1       6.513   0.077  -3.550  0.00  0.00     0.111 A 
ATOM     51  C   LIG d   1       5.690   1.002  -2.936  0.00  0.00     0.000 A 
ATOM     52  C   LIG d   1       4.603   0.575  -2.192  0.00  0.00     0.125 A 
ATOM     53  H   LIG d   1       5.897   2.058  -3.033  0.00  0.00     0.067 H 
ATOM     54  C   LIG d   1       4.338  -0.779  -2.072  0.00  0.00    -0.026 A 
ATOM     55  F   LIG d   1       3.801   1.478  -1.588  0.00  0.00    -0.205 F 
ATOM     56  C   LIG d   1       5.159  -1.702  -2.691  0.00  0.00    -0.057 A 
ATOM     57  H   LIG d   1       3.488  -1.113  -1.495  0.00  0.00     0.065 H 
ATOM     58  C   LIG d   1       6.246  -1.274  -3.429  0.00  0.00    -0.035 A 
ATOM     59  H   LIG d   1       4.952  -2.757  -2.597  0.00  0.00     0.062 H 
ATOM     60  H   LIG d   1       6.889  -1.996  -3.913  0.00  0.00     0.064 H 
ENDBRANCH  47  50
ENDBRANCH  45  47
ENDBRANCH  14  45
TORSDOF 8
ENDMDL
MODEL 7
REMARK VINA RESULT:      -6.7      2.131      2.203
REMARK  8 active torsions:
REMARK  status: ('A' for Active; 'I' for Inactive)
REMARK    1  A    between atoms: C_1  and  C_2 
REMARK    2  A    between atoms: C_2  and  C_3 
REMARK    3  A    between atoms: C_2  and  C_4 
REMARK    4  A    between atoms: C_2  and  C_5 
REMARK    5  A    between atoms: C_5  and  C_6 
REMARK       I    between atoms: C_6  and  N_8 
REMARK    6  A    between atoms: C_19  and  N_24 
REMARK    7  A    between atoms: N_24  and  S_25 
REMARK    8  A    between atoms: S_25  and  C_28 
ROOT
ATOM      1  C   LIG d   1       6.738   0.709  -3.923  0.00  0.00     0.216 C 
ATOM      2  O   LIG d   1       6.535   1.900  -3.808  0.00  0.00    -0.276 OA
ATOM      3  N   LIG d   1       6.072  -0.166  -3.146  0.00  0.00    -0.300 N 
ATOM      4  C   LIG d   1       5.104   0.292  -2.163  0.00  0.00     0.019 C 
ATOM      5  C   LIG d   1       3.784  -0.452  -2.309  0.00  0.00    -0.006 C 
ATOM      6  H   LIG d   1       3.168  -0.228  -1.438  0.00  0.00     0.033 H 
ATOM      7  C   LIG d   1       4.022  -1.962  -2.347  0.00  0.00    -0.037 C 
ATOM      8  C   LIG d   1       4.943  -2.279  -3.528  0.00  0.00     0.016 C 
ATOM      9  H   LIG d   1       5.053  -3.358  -3.638  0.00  0.00     0.038 H 
ATOM     10  C   LIG d   1       6.305  -1.613  -3.272  0.00  0.00     0.023 C 
ATOM     11  C   LIG d   1       4.369  -1.684  -4.793  0.00  0.00     0.027 C 
ATOM     12  C   LIG d   1       4.695  -2.281  -5.969  0.00  0.00    -0.040 C 
ATOM     13  C   LIG d   1       4.311  -1.709  -7.188  0.00  0.00    -0.032 C 
ATOM     14  C   LIG d   1       3.619  -0.528  -7.176  0.00  0.00     0.112 C 
ATOM     15  C   LIG d   1       3.298   0.063  -5.938  0.00  0.00     0.274 C 
ATOM     16  O   LIG d   1       2.739   1.148  -5.912  0.00  0.00    -0.266 OA
ATOM     17  N   LIG d   1       3.601  -0.568  -4.776  0.00  0.00    -0.310 N 
ATOM     18  C   LIG d   1       3.023  -0.017  -3.549  0.00  0.00     0.031 C 
ATOM     19  H   LIG d   1       4.936   1.358  -2.312  0.00  0.00     0.047 H 
ATOM     20  H   LIG d   1       5.502   0.128  -1.161  0.00  0.00     0.047 H 
ATOM     21  H   LIG d   1       4.494  -2.282  -1.418  0.00  0.00     0.028 H 
ATOM     22  H   LIG d   1       3.071  -2.479  -2.474  0.00  0.00     0.028 H 
ATOM     23  H   LIG d   1       6.739  -2.000  -2.350  0.00  0.00     0.047 H 
ATOM     24  H   LIG d   1       6.976  -1.809  -4.108  0.00  0.00     0.047 H 
ATOM     25  H   LIG d   1       5.254  -3.204  -5.964  0.00  0.00     0.064 H 
ATOM     26  H   LIG d   1       4.558  -2.192  -8.122  0.00  0.00     0.064 H 
ATOM     27  H   LIG d   1       3.037   1.071  -3.609  0.00  0.00     0.050 H 
ATOM     28  H   LIG d   1       1.989  -0.352  -3.466  0.00  0.00     0.050 H 
ENDROOT
BRANCH   1  29
ATOM     29  C   LIG d   1       7.736   0.210  -4.936  0.00  0.00     0.029 C 
ATOM     30  H   LIG d   1       8.099  -0.772  -4.634  0.00  0.00     0.036 H 
ATOM     31  H   LIG d   1       7.256   0.136  -5.912  0.00  0.00     0.036 H 
BRANCH  29  32
ATOM     32  C   LIG d   1       8.912   1.185  -5.018  0.00  0.00    -0.029 C 
BRANCH  32  33
ATOM     33  C   LIG d   1       8.649   2.210  -6.123  0.00  0.00    -0.060 C 
ATOM     34  H   LIG d   1       9.533   2.835  -6.255  0.00  0.00     0.024 H 
ATOM     35  H   LIG d   1       8.429   1.690  -7.056  0.00  0.00     0.024 H 
ATOM     36  H   LIG d   1       7.801   2.834  -5.846  0.00  0.00     0.024 H 
ENDBRANCH  32  33
BRANCH  32  37
ATOM     37  C   LIG d   1       9.069   1.907  -3.679  0.00  0.00    -0.060 C 
ATOM     38  H   LIG d   1       9.427   1.204  -2.926  0.00  0.00     0.024 H 
ATOM     39  H   LIG d   1       9.787   2.721  -3.787  0.00  0.00     0.024 H 
ATOM     40  H   LIG d   1       8.106   2.311  -3.368  0.00  0.00     0.024 H 
ENDBRANCH  32  37
BRANCH  32  41
ATOM     41  C   LIG d   1      10.194   0.411  -5.334  0.00  0.00    -0.060 C 
ATOM     42  H   LIG d   1      10.568   0.712  -6.313  0.00  0.00     0.024 H 
ATOM     43  H   LIG d   1      10.946   0.629  -4.575  0.00  0.00     0.024 H 
ATOM     44  H   LIG d   1       9.981  -0.658  -5.338  0.00  0.00     0.024 H 
ENDBRANCH  32  41
ENDBRANCH  29  32
ENDBRANCH   1  29
BRANCH  14  45
ATOM     45  N   LIG d   1       3.242   0.086  -8.376  0.00  0.00    -0.211 N 
ATOM     46  H   LIG d   1       2.557   0.773  -8.375  0.00  0.00     0.174 HD
BRANCH  45  47
ATOM     47  S   LIG d   1       3.965  -0.360  -9.798  0.00  0.00     0.073 S 
ATOM     48  O   LIG d   1       5.346  -0.540  -9.513  0.00  0.00    -0.150 OA
ATOM     49  O   LIG d   1       3.505   0.547 -10.790  0.00  0.00    -0.150 OA
BRANCH  47  50
ATOM     50  C   LIG d   1       3.330  -1.946 -10.231  0.00  0.00     0.111 A 
ATOM     51  C   LIG d   1       1.985  -2.219 -10.066  0.00  0.00     0.000 A 
ATOM     52  C   LIG d   1       1.487  -3.467 -10.402  0.00  0.00     0.125 A 
ATOM     53  H   LIG d   1       1.324  -1.463  -9.670  0.00  0.00     0.067 H 
ATOM     54  C   LIG d   1       2.335  -4.435 -10.913  0.00  0.00    -0.026 A 
ATOM     55  F   LIG d   1       0.174  -3.737 -10.236  0.00  0.00    -0.205 F 
ATOM     56  C   LIG d   1       3.678  -4.157 -11.083  0.00  0.00    -0.057 A 
ATOM     57  H   LIG d   1       1.947  -5.407 -11.180  0.00  0.00     0.065 H 
ATOM     58  C   LIG d   1       4.175  -2.913 -10.742  0.00  0.00    -0.035 A 
ATOM     59  H   LIG d   1       4.340  -4.912 -11.481  0.00  0.00     0.062 H 
ATOM     60  H   LIG d   1       5.225  -2.696 -10.874  0.00  0.00     0.064 H 
ENDBRANCH  47  50
ENDBRANCH  45  47
ENDBRANCH  14  45
TORSDOF 8
ENDMDL
MODEL 8
REMARK VINA RESULT:      -6.3      8.706     11.541
REMARK  8 active torsions:
REMARK  status: ('A' for Active; 'I' for Inactive)
REMARK    1  A    between atoms: C_1  and  C_2 
REMARK    2  A    between atoms: C_2  and  C_3 
REMARK    3  A    between atoms: C_2  and  C_4 
REMARK    4  A    between atoms: C_2  and  C_5 
REMARK    5  A    between atoms: C_5  and  C_6 
REMARK       I    between atoms: C_6  and  N_8 
REMARK    6  A    between atoms: C_19  and  N_24 
REMARK    7  A    between atoms: N_24  and  S_25 
REMARK    8  A    between atoms: S_25  and  C_28 
ROOT
ATOM      1  C   LIG d   1      11.739   6.821  -3.650  0.00  0.00     0.216 C 
ATOM      2  O   LIG d   1      12.741   7.288  -4.149  0.00  0.00    -0.276 OA
ATOM      3  N   LIG d   1      11.796   6.253  -2.429  0.00  0.00    -0.300 N 
ATOM      4  C   LIG d   1      13.045   6.190  -1.691  0.00  0.00     0.019 C 
ATOM      5  C   LIG d   1      12.870   6.721  -0.274  0.00  0.00    -0.006 C 
ATOM      6  H   LIG d   1      13.764   6.469   0.297  0.00  0.00     0.033 H 
ATOM      7  C   LIG d   1      11.670   6.056   0.401  0.00  0.00    -0.037 C 
ATOM      8  C   LIG d   1      10.420   6.347  -0.433  0.00  0.00     0.016 C 
ATOM      9  H   LIG d   1       9.534   5.967   0.075  0.00  0.00     0.038 H 
ATOM     10  C   LIG d   1      10.590   5.681  -1.809  0.00  0.00     0.023 C 
ATOM     11  C   LIG d   1      10.293   7.836  -0.654  0.00  0.00     0.027 C 
ATOM     12  C   LIG d   1       9.047   8.334  -0.863  0.00  0.00    -0.040 C 
ATOM     13  C   LIG d   1       8.865   9.680  -1.206  0.00  0.00    -0.032 C 
ATOM     14  C   LIG d   1       9.966  10.480  -1.346  0.00  0.00     0.112 C 
ATOM     15  C   LIG d   1      11.243   9.931  -1.121  0.00  0.00     0.274 C 
ATOM     16  O   LIG d   1      12.238  10.615  -1.305  0.00  0.00    -0.266 OA
ATOM     17  N   LIG d   1      11.376   8.650  -0.696  0.00  0.00    -0.310 N 
ATOM     18  C   LIG d   1      12.706   8.230  -0.251  0.00  0.00     0.031 C 
ATOM     19  H   LIG d   1      13.787   6.793  -2.213  0.00  0.00     0.047 H 
ATOM     20  H   LIG d   1      13.389   5.156  -1.649  0.00  0.00     0.047 H 
ATOM     21  H   LIG d   1      11.832   4.979   0.456  0.00  0.00     0.028 H 
ATOM     22  H   LIG d   1      11.545   6.461   1.405  0.00  0.00     0.028 H 
ATOM     23  H   LIG d   1      10.711   4.605  -1.687  0.00  0.00     0.047 H 
ATOM     24  H   LIG d   1       9.720   5.889  -2.430  0.00  0.00     0.047 H 
ATOM     25  H   LIG d   1       8.188   7.687  -0.764  0.00  0.00     0.064 H 
ATOM     26  H   LIG d   1       7.873  10.078  -1.358  0.00  0.00     0.064 H 
ATOM     27  H   LIG d   1      13.455   8.677  -0.905  0.00  0.00     0.050 H 
ATOM     28  H   LIG d   1      12.867   8.588   0.766  0.00  0.00     0.050 H 
ENDROOT
BRANCH   1  29
ATOM     29  C   LIG d   1      10.430   6.875  -4.395  0.00  0.00     0.029 C 
ATOM     30  H   LIG d   1       9.606   6.840  -3.684  0.00  0.00     0.036 H 
ATOM     31  H   LIG d   1      10.377   7.801  -4.968  0.00  0.00     0.036 H 
BRANCH  29  32
ATOM     32  C   LIG d   1      10.334   5.680  -5.345  0.00  0.00    -0.029 C 
BRANCH  32  33
ATOM     33  C   LIG d   1      10.000   6.174  -6.755  0.00  0.00    -0.060 C 
ATOM     34  H   LIG d   1      10.365   7.194  -6.877  0.00  0.00     0.024 H 
ATOM     35  H   LIG d   1      10.478   5.526  -7.489  0.00  0.00     0.024 H 
ATOM     36  H   LIG d   1       8.921   6.154  -6.900  0.00  0.00     0.024 H 
ENDBRANCH  32  33
BRANCH  32  37
ATOM     37  C   LIG d   1      11.671   4.938  -5.367  0.00  0.00    -0.060 C 
ATOM     38  H   LIG d   1      12.414   5.509  -4.811  0.00  0.00     0.024 H 
ATOM     39  H   LIG d   1      11.550   3.956  -4.908  0.00  0.00     0.024 H 
ATOM     40  H   LIG d   1      12.003   4.817  -6.398  0.00  0.00     0.024 H 
ENDBRANCH  32  37
BRANCH  32  41
ATOM     41  C   LIG d   1       9.233   4.733  -4.863  0.00  0.00    -0.060 C 
ATOM     42  H   LIG d   1       9.685   3.851  -4.411  0.00  0.00     0.024 H 
ATOM     43  H   LIG d   1       8.614   5.243  -4.123  0.00  0.00     0.024 H 
ATOM     44  H   LIG d   1       8.615   4.433  -5.709  0.00  0.00     0.024 H 
ENDBRANCH  32  41
ENDBRANCH  29  32
ENDBRANCH   1  29
BRANCH  14  45
ATOM     45  N   LIG d   1       9.824  11.824  -1.714  0.00  0.00    -0.211 N 
ATOM     46  H   LIG d   1      10.133  12.524  -1.119  0.00  0.00     0.174 HD
BRANCH  45  47
ATOM     47  S   LIG d   1       9.130  12.217  -3.165  0.00  0.00     0.073 S 
ATOM     48  O   LIG d   1       9.405  13.593  -3.388  0.00  0.00    -0.150 OA
ATOM     49  O   LIG d   1       7.806  11.700  -3.136  0.00  0.00    -0.150 OA
BRANCH  47  50
ATOM     50  C   LIG d   1       9.992  11.321  -4.415  0.00  0.00     0.111 A 
ATOM     51  C   LIG d   1       9.287  10.587  -5.349  0.00  0.00     0.000 A 
ATOM     52  C   LIG d   1       9.965   9.881  -6.328  0.00  0.00     0.125 A 
ATOM     53  H   LIG d   1       8.208  10.561  -5.314  0.00  0.00     0.067 H 
ATOM     54  C   LIG d   1      11.348   9.918  -6.375  0.00  0.00    -0.026 A 
ATOM     55  F   LIG d   1       9.276   9.159  -7.240  0.00  0.00    -0.205 F 
ATOM     56  C   LIG d   1      12.051  10.657  -5.443  0.00  0.00    -0.057 A 
ATOM     57  H   LIG d   1      11.878   9.371  -7.141  0.00  0.00     0.065 H 
ATOM     58  C   LIG d   1      11.373  11.358  -4.463  0.00  0.00    -0.035 A 
ATOM     59  H   LIG d   1      13.130  10.686  -5.478  0.00  0.00     0.062 H 
ATOM     60  H   LIG d   1      11.923  11.935  -3.733  0.00  0.00     0.064 H 
ENDBRANCH  47  50
ENDBRANCH  45  47
ENDBRANCH  14  45
TORSDOF 8
ENDMDL
MODEL 9
REMARK VINA RESULT:      -6.3      4.516      7.842
REMARK  8 active torsions:
REMARK  status: ('A' for Active; 'I' for Inactive)
REMARK    1  A    between atoms: C_1  and  C_2 
REMARK    2  A    between atoms: C_2  and  C_3 
REMARK    3  A    between atoms: C_2  and  C_4 
REMARK    4  A    between atoms: C_2  and  C_5 
REMARK    5  A    between atoms: C_5  and  C_6 
REMARK       I    between atoms: C_6  and  N_8 
REMARK    6  A    between atoms: C_19  and  N_24 
REMARK    7  A    between atoms: N_24  and  S_25 
REMARK    8  A    between atoms: S_25  and  C_28 
ROOT
ATOM      1  C   LIG d   1      12.859   3.192  -5.561  0.00  0.00     0.216 C 
ATOM      2  O   LIG d   1      13.331   2.548  -6.474  0.00  0.00    -0.276 OA
ATOM      3  N   LIG d   1      12.160   4.314  -5.820  0.00  0.00    -0.300 N 
ATOM      4  C   LIG d   1      11.957   4.772  -7.184  0.00  0.00     0.019 C 
ATOM      5  C   LIG d   1      10.485   5.057  -7.451  0.00  0.00    -0.006 C 
ATOM      6  H   LIG d   1      10.408   5.584  -8.403  0.00  0.00     0.033 H 
ATOM      7  C   LIG d   1       9.908   5.958  -6.360  0.00  0.00    -0.037 C 
ATOM      8  C   LIG d   1      10.075   5.256  -5.010  0.00  0.00     0.016 C 
ATOM      9  H   LIG d   1       9.587   5.831  -4.225  0.00  0.00     0.038 H 
ATOM     10  C   LIG d   1      11.579   5.107  -4.725  0.00  0.00     0.023 C 
ATOM     11  C   LIG d   1       9.481   3.869  -5.083  0.00  0.00     0.027 C 
ATOM     12  C   LIG d   1       9.037   3.316  -3.924  0.00  0.00    -0.040 C 
ATOM     13  C   LIG d   1       8.597   1.987  -3.892  0.00  0.00    -0.032 C 
ATOM     14  C   LIG d   1       8.641   1.248  -5.042  0.00  0.00     0.112 C 
ATOM     15  C   LIG d   1       9.107   1.852  -6.226  0.00  0.00     0.274 C 
ATOM     16  O   LIG d   1       9.213   1.188  -7.245  0.00  0.00    -0.266 OA
ATOM     17  N   LIG d   1       9.433   3.169  -6.243  0.00  0.00    -0.310 N 
ATOM     18  C   LIG d   1       9.670   3.779  -7.552  0.00  0.00     0.031 C 
ATOM     19  H   LIG d   1      12.304   3.996  -7.865  0.00  0.00     0.047 H 
ATOM     20  H   LIG d   1      12.537   5.681  -7.349  0.00  0.00     0.047 H 
ATOM     21  H   LIG d   1      10.444   6.908  -6.348  0.00  0.00     0.028 H 
ATOM     22  H   LIG d   1       8.850   6.135  -6.553  0.00  0.00     0.028 H 
ATOM     23  H   LIG d   1      12.049   6.090  -4.691  0.00  0.00     0.047 H 
ATOM     24  H   LIG d   1      11.727   4.593  -3.776  0.00  0.00     0.047 H 
ATOM     25  H   LIG d   1       9.022   3.906  -3.021  0.00  0.00     0.064 H 
ATOM     26  H   LIG d   1       8.231   1.553  -2.973  0.00  0.00     0.064 H 
ATOM     27  H   LIG d   1      10.205   3.068  -8.182  0.00  0.00     0.050 H 
ATOM     28  H   LIG d   1       8.710   4.007  -8.014  0.00  0.00     0.050 H 
ENDROOT
BRANCH   1  29
ATOM     29  C   LIG d   1      13.054   2.736  -4.138  0.00  0.00     0.029 C 
ATOM     30  H   LIG d   1      12.321   3.226  -3.497  0.00  0.00     0.036 H 
ATOM     31  H   LIG d   1      12.922   1.656  -4.082  0.00  0.00     0.036 H 
BRANCH  29  32
ATOM     32  C   LIG d   1      14.464   3.104  -3.673  0.00  0.00    -0.029 C 
BRANCH  32  33
ATOM     33  C   LIG d   1      15.140   1.871  -3.070  0.00  0.00    -0.060 C 
ATOM     34  H   LIG d   1      15.898   1.499  -3.760  0.00  0.00     0.024 H 
ATOM     35  H   LIG d   1      15.611   2.141  -2.125  0.00  0.00     0.024 H 
ATOM     36  H   LIG d   1      14.395   1.096  -2.897  0.00  0.00     0.024 H 
ENDBRANCH  32  33
BRANCH  32  37
ATOM     37  C   LIG d   1      15.280   3.601  -4.868  0.00  0.00    -0.060 C 
ATOM     38  H   LIG d   1      15.270   4.690  -4.887  0.00  0.00     0.024 H 
ATOM     39  H   LIG d   1      16.309   3.249  -4.777  0.00  0.00     0.024 H 
ATOM     40  H   LIG d   1      14.846   3.216  -5.790  0.00  0.00     0.024 H 
ENDBRANCH  32  37
BRANCH  32  41
ATOM     41  C   LIG d   1      14.381   4.208  -2.617  0.00  0.00    -0.060 C 
ATOM     42  H   LIG d   1      14.403   5.181  -3.107  0.00  0.00     0.024 H 
ATOM     43  H   LIG d   1      13.450   4.104  -2.056  0.00  0.00     0.024 H 
ATOM     44  H   LIG d   1      15.227   4.123  -1.935  0.00  0.00     0.024 H 
ENDBRANCH  32  41
ENDBRANCH  29  32
ENDBRANCH   1  29
BRANCH  14  45
ATOM     45  N   LIG d   1       8.234  -0.092  -5.041  0.00  0.00    -0.211 N 
ATOM     46  H   LIG d   1       8.848  -0.785  -4.750  0.00  0.00     0.174 HD
BRANCH  45  47
ATOM     47  S   LIG d   1       6.705  -0.494  -5.534  0.00  0.00     0.073 S 
ATOM     48  O   LIG d   1       6.803  -1.761  -6.170  0.00  0.00    -0.150 OA
ATOM     49  O   LIG d   1       6.176   0.649  -6.191  0.00  0.00    -0.150 OA
BRANCH  47  50
ATOM     50  C   LIG d   1       5.735  -0.734  -4.082  0.00  0.00     0.111 A 
ATOM     51  C   LIG d   1       5.565   0.305  -3.187  0.00  0.00     0.000 A 
ATOM     52  C   LIG d   1       4.806   0.115  -2.044  0.00  0.00     0.125 A 
ATOM     53  H   LIG d   1       6.026   1.263  -3.376  0.00  0.00     0.067 H 
ATOM     54  C   LIG d   1       4.212  -1.113  -1.805  0.00  0.00    -0.026 A 
ATOM     55  F   LIG d   1       4.642   1.128  -1.165  0.00  0.00    -0.205 F 
ATOM     56  C   LIG d   1       4.380  -2.148  -2.704  0.00  0.00    -0.057 A 
ATOM     57  H   LIG d   1       3.617  -1.261  -0.916  0.00  0.00     0.065 H 
ATOM     58  C   LIG d   1       5.141  -1.959  -3.842  0.00  0.00    -0.035 A 
ATOM     59  H   LIG d   1       3.917  -3.106  -2.518  0.00  0.00     0.062 H 
ATOM     60  H   LIG d   1       5.273  -2.769  -4.545  0.00  0.00     0.064 H 
ENDBRANCH  47  50
ENDBRANCH  45  47
ENDBRANCH  14  45
TORSDOF 8
ENDMDL
MODEL 10
REMARK VINA RESULT:      -6.2      2.048      2.513
REMARK  8 active torsions:
REMARK  status: ('A' for Active; 'I' for Inactive)
REMARK    1  A    between atoms: C_1  and  C_2 
REMARK    2  A    between atoms: C_2  and  C_3 
REMARK    3  A    between atoms: C_2  and  C_4 
REMARK    4  A    between atoms: C_2  and  C_5 
REMARK    5  A    between atoms: C_5  and  C_6 
REMARK       I    between atoms: C_6  and  N_8 
REMARK    6  A    between atoms: C_19  and  N_24 
REMARK    7  A    between atoms: N_24  and  S_25 
REMARK    8  A    between atoms: S_25  and  C_28 
ROOT
ATOM      1  C   LIG d   1       7.831   0.654  -6.057  0.00  0.00     0.216 C 
ATOM      2  O   LIG d   1       7.603   1.844  -5.997  0.00  0.00    -0.276 OA
ATOM      3  N   LIG d   1       7.704  -0.112  -4.957  0.00  0.00    -0.300 N 
ATOM      4  C   LIG d   1       7.293   0.463  -3.687  0.00  0.00     0.019 C 
ATOM      5  C   LIG d   1       6.138  -0.323  -3.080  0.00  0.00    -0.006 C 
ATOM      6  H   LIG d   1       6.001   0.013  -2.052  0.00  0.00     0.033 H 
ATOM      7  C   LIG d   1       6.463  -1.817  -3.054  0.00  0.00    -0.037 C 
ATOM      8  C   LIG d   1       6.726  -2.283  -4.488  0.00  0.00     0.016 C 
ATOM      9  H   LIG d   1       6.866  -3.363  -4.512  0.00  0.00     0.038 H 
ATOM     10  C   LIG d   1       7.977  -1.557  -5.012  0.00  0.00     0.023 C 
ATOM     11  C   LIG d   1       5.563  -1.891  -5.370  0.00  0.00     0.027 C 
ATOM     12  C   LIG d   1       5.334  -2.645  -6.476  0.00  0.00    -0.040 C 
ATOM     13  C   LIG d   1       4.360  -2.266  -7.408  0.00  0.00    -0.032 C 
ATOM     14  C   LIG d   1       3.657  -1.111  -7.196  0.00  0.00     0.112 C 
ATOM     15  C   LIG d   1       3.920  -0.353  -6.038  0.00  0.00     0.274 C 
ATOM     16  O   LIG d   1       3.347   0.712  -5.868  0.00  0.00    -0.266 OA
ATOM     17  N   LIG d   1       4.800  -0.801  -5.109  0.00  0.00    -0.310 N 
ATOM     18  C   LIG d   1       4.838  -0.090  -3.830  0.00  0.00     0.031 C 
ATOM     19  H   LIG d   1       6.978   1.492  -3.859  0.00  0.00     0.047 H 
ATOM     20  H   LIG d   1       8.137   0.455  -2.997  0.00  0.00     0.047 H 
ATOM     21  H   LIG d   1       7.352  -1.987  -2.445  0.00  0.00     0.028 H 
ATOM     22  H   LIG d   1       5.620  -2.367  -2.637  0.00  0.00     0.028 H 
ATOM     23  H   LIG d   1       8.834  -1.796  -4.382  0.00  0.00     0.047 H 
ATOM     24  H   LIG d   1       8.176  -1.858  -6.040  0.00  0.00     0.047 H 
ATOM     25  H   LIG d   1       5.907  -3.546  -6.638  0.00  0.00     0.064 H 
ATOM     26  H   LIG d   1       4.168  -2.874  -8.279  0.00  0.00     0.064 H 
ATOM     27  H   LIG d   1       4.724   0.978  -4.015  0.00  0.00     0.050 H 
ATOM     28  H   LIG d   1       4.007  -0.431  -3.212  0.00  0.00     0.050 H 
ENDROOT
BRANCH   1  29
ATOM     29  C   LIG d   1       8.257   0.034  -7.363  0.00  0.00     0.029 C 
ATOM     30  H   LIG d   1       8.256  -1.051  -7.266  0.00  0.00     0.036 H 
ATOM     31  H   LIG d   1       7.563   0.330  -8.149  0.00  0.00     0.036 H 
BRANCH  29  32
ATOM     32  C   LIG d   1       9.666   0.512  -7.719  0.00  0.00    -0.029 C 
BRANCH  32  33
ATOM     33  C   LIG d   1       9.579   1.832  -8.488  0.00  0.00    -0.060 C 
ATOM     34  H   LIG d   1      10.529   2.025  -8.986  0.00  0.00     0.024 H 
ATOM     35  H   LIG d   1       8.785   1.768  -9.231  0.00  0.00     0.024 H 
ATOM     36  H   LIG d   1       9.361   2.643  -7.793  0.00  0.00     0.024 H 
ENDBRANCH  32  33
BRANCH  32  37
ATOM     37  C   LIG d   1      10.473   0.720  -6.436  0.00  0.00    -0.060 C 
ATOM     38  H   LIG d   1      10.675  -0.245  -5.972  0.00  0.00     0.024 H 
ATOM     39  H   LIG d   1      11.416   1.213  -6.676  0.00  0.00     0.024 H 
ATOM     40  H   LIG d   1       9.904   1.343  -5.746  0.00  0.00     0.024 H 
ENDBRANCH  32  37
BRANCH  32  41
ATOM     41  C   LIG d   1      10.356  -0.540  -8.590  0.00  0.00    -0.060 C 
ATOM     42  H   LIG d   1      10.185  -0.310  -9.642  0.00  0.00     0.024 H 
ATOM     43  H   LIG d   1      11.428  -0.535  -8.386  0.00  0.00     0.024 H 
ATOM     44  H   LIG d   1       9.948  -1.525  -8.362  0.00  0.00     0.024 H 
ENDBRANCH  32  41
ENDBRANCH  29  32
ENDBRANCH   1  29
BRANCH  14  45
ATOM     45  N   LIG d   1       2.694  -0.687  -8.120  0.00  0.00    -0.211 N 
ATOM     46  H   LIG d   1       1.775  -0.983  -8.033  0.00  0.00     0.174 HD
BRANCH  45  47
ATOM     47  S   LIG d   1       3.125   0.322  -9.361  0.00  0.00     0.073 S 
ATOM     48  O   LIG d   1       4.543   0.414  -9.336  0.00  0.00    -0.150 OA
ATOM     49  O   LIG d   1       2.285   1.465  -9.265  0.00  0.00    -0.150 OA
BRANCH  47  50
ATOM     50  C   LIG d   1       2.699  -0.492 -10.865  0.00  0.00     0.111 A 
ATOM     51  C   LIG d   1       1.438  -1.034 -11.024  0.00  0.00     0.000 A 
ATOM     52  C   LIG d   1       1.106  -1.677 -12.205  0.00  0.00     0.125 A 
ATOM     53  H   LIG d   1       0.714  -0.960 -10.227  0.00  0.00     0.067 H 
ATOM     54  C   LIG d   1       2.034  -1.767 -13.228  0.00  0.00    -0.026 A 
ATOM     55  F   LIG d   1      -0.126  -2.211 -12.360  0.00  0.00    -0.205 F 
ATOM     56  C   LIG d   1       3.293  -1.219 -13.068  0.00  0.00    -0.057 A 
ATOM     57  H   LIG d   1       1.775  -2.264 -14.151  0.00  0.00     0.065 H 
ATOM     58  C   LIG d   1       3.626  -0.582 -11.888  0.00  0.00    -0.035 A 
ATOM     59  H   LIG d   1       4.018  -1.290 -13.866  0.00  0.00     0.062 H 
ATOM     60  H   LIG d   1       4.610  -0.155 -11.763  0.00  0.00     0.064 H 
ENDBRANCH  47  50
ENDBRANCH  45  47
ENDBRANCH  14  45
TORSDOF 8
ENDMDL
